MODEL        1
REMARK 921   NORMALIZED FREE ENERGY PREDICTED BY IDOCK:   -6.66 KCAL/MOL
REMARK 922        TOTAL FREE ENERGY PREDICTED BY IDOCK:   -7.92 KCAL/MOL
REMARK 923 INTER-LIGAND FREE ENERGY PREDICTED BY IDOCK:   -7.44 KCAL/MOL
REMARK 924 INTRA-LIGAND FREE ENERGY PREDICTED BY IDOCK:   -0.48 KCAL/MOL
REMARK 927      BINDING AFFINITY PREDICTED BY RF-SCORE:    0.00 PKD
ROOT
HETATM    1  C   UNL     1     -12.516  15.598  71.133  1.00  0.00    -0.448 C  
HETATM    2  O   UNL     1     -12.450  14.855  69.927  1.00  0.00    -0.299 OA 
ENDROOT
BRANCH   2   3
HETATM    3  C   UNL     1     -11.211  14.930  69.166  1.00  0.00    -0.279 C  
HETATM    4  C   UNL     1     -10.485  16.335  69.133  1.00  0.00    -0.280 C  
HETATM    5  O   UNL     1     -11.881  14.704  66.651  1.00  0.00    -0.375 OA 
HETATM    6  S   UNL     1      -8.668  16.435  68.956  1.00  0.00    -0.195 SA 
HETATM    7  C   UNL     1     -11.529  15.303  67.645  1.00  0.00    -0.280 C  
HETATM    8  O   UNL     1     -11.127  19.144  67.431  1.00  0.00    -0.426 OA 
HETATM    9  O   UNL     1      -9.526  19.279  65.853  1.00  0.00    -0.429 OA 
HETATM   10  C   UNL     1     -10.186  18.593  66.623  1.00  0.00    -0.404 C  
HETATM   11  C   UNL     1      -8.674  16.528  67.118  1.00  0.00    -0.195 C  
HETATM   12  C   UNL     1      -7.479  17.374  66.664  1.00  0.00    -0.289 C  
HETATM   13  C   UNL     1      -8.447  15.096  66.596  1.00  0.00    -0.230 C  
HETATM   14  N   UNL     1     -11.018  16.568  67.767  1.00  0.00    -0.298 N  
HETATM   15  C   UNL     1     -10.076  17.064  66.741  1.00  0.00    -0.300 C  
BRANCH   3  16
HETATM   16  N   UNL     1     -10.414  13.663  69.224  1.00  0.00    -0.439 N  
HETATM   17  C   UNL     1      -9.531  10.833  67.514  1.00  0.00    -0.168 A  
HETATM   18  O   UNL     1     -12.069  12.200  68.603  1.00  0.00    -0.282 OA 
HETATM   19  C   UNL     1     -10.446  10.416  66.561  1.00  0.00    -0.196 A  
HETATM   20  O   UNL     1      -9.442   9.348  70.294  1.00  0.00    -0.215 OA 
HETATM   21  O   UNL     1     -11.592   9.919  69.982  1.00  0.00    -0.238 OA 
HETATM   22  C   UNL     1      -9.863  11.286  68.924  1.00  0.00    -0.153 C  
HETATM   23  H   UNL     1      -9.443  13.731  69.529  1.00  0.00     0.000 HD 
HETATM   24  C   UNL     1     -10.891  12.414  68.897  1.00  0.00    -0.197 C  
HETATM   25  S   UNL     1      -9.721  10.013  65.066  1.00  0.00    -0.289 SA 
HETATM   26  C   UNL     1     -10.266  10.109  69.795  1.00  0.00    -0.247 C  
HETATM   27  C   UNL     1      -8.161  10.345  65.674  1.00  0.00    -0.158 A  
HETATM   28  C   UNL     1      -8.197  10.764  66.985  1.00  0.00    -0.126 A  
ENDBRANCH   3  16
ENDBRANCH   2   3
TORSDOF 2
ENDMDL
MODEL        2
REMARK 921   NORMALIZED FREE ENERGY PREDICTED BY IDOCK:   -6.64 KCAL/MOL
REMARK 922        TOTAL FREE ENERGY PREDICTED BY IDOCK:   -7.90 KCAL/MOL
REMARK 923 INTER-LIGAND FREE ENERGY PREDICTED BY IDOCK:   -7.84 KCAL/MOL
REMARK 924 INTRA-LIGAND FREE ENERGY PREDICTED BY IDOCK:   -0.06 KCAL/MOL
REMARK 927      BINDING AFFINITY PREDICTED BY RF-SCORE:    0.00 PKD
ROOT
HETATM    1  C   UNL     1     -11.928  15.818  70.951  1.00  0.00    -0.413 C  
HETATM    2  O   UNL     1     -10.745  15.059  70.757  1.00  0.00    -0.158 OA 
ENDROOT
BRANCH   2   3
HETATM    3  C   UNL     1     -10.049  15.225  69.490  1.00  0.00    -0.256 C  
HETATM    4  C   UNL     1      -8.899  16.311  69.450  1.00  0.00    -0.056 C  
HETATM    5  O   UNL     1     -11.763  16.318  67.849  1.00  0.00    -0.057 OA 
HETATM    6  S   UNL     1      -7.477  16.114  68.318  1.00  0.00    -0.150 SA 
HETATM    7  C   UNL     1     -10.805  16.309  68.591  1.00  0.00    -0.322 C  
HETATM    8  O   UNL     1      -8.983  19.652  69.281  1.00  0.00    -0.205 OA 
HETATM    9  O   UNL     1      -8.323  20.171  67.191  1.00  0.00    -0.314 OA 
HETATM   10  C   UNL     1      -8.806  19.357  67.968  1.00  0.00    -0.323 C  
HETATM   11  C   UNL     1      -8.236  17.040  66.920  1.00  0.00    -0.213 C  
HETATM   12  C   UNL     1      -7.123  17.740  66.132  1.00  0.00    -0.347 C  
HETATM   13  C   UNL     1      -8.871  15.994  65.983  1.00  0.00    -0.314 C  
HETATM   14  N   UNL     1      -9.819  17.246  68.755  1.00  0.00    -0.297 N  
HETATM   15  C   UNL     1      -9.300  17.958  67.567  1.00  0.00    -0.253 C  
BRANCH   3  16
HETATM   16  N   UNL     1      -9.910  13.942  68.729  1.00  0.00    -0.379 N  
HETATM   17  C   UNL     1     -10.911  12.215  65.949  1.00  0.00    -0.332 A  
HETATM   18  O   UNL     1     -12.139  13.454  68.490  1.00  0.00    -0.352 OA 
HETATM   19  C   UNL     1     -12.155  12.573  65.455  1.00  0.00    -0.435 A  
HETATM   20  O   UNL     1     -10.653   9.581  67.662  1.00  0.00    -0.248 OA 
HETATM   21  O   UNL     1     -12.320  10.754  68.605  1.00  0.00    -0.430 OA 
HETATM   22  C   UNL     1     -10.572  11.977  67.409  1.00  0.00    -0.253 C  
HETATM   23  H   UNL     1      -8.966  13.601  68.549  1.00  0.00     0.000 HD 
HETATM   24  C   UNL     1     -10.959  13.187  68.255  1.00  0.00    -0.253 C  
HETATM   25  S   UNL     1     -12.164  12.796  63.760  1.00  0.00    -0.491 SA 
HETATM   26  C   UNL     1     -11.168  10.669  67.901  1.00  0.00    -0.308 C  
HETATM   27  C   UNL     1     -10.515  12.376  63.643  1.00  0.00    -0.426 A  
HETATM   28  C   UNL     1      -9.968  12.082  64.873  1.00  0.00    -0.253 A  
ENDBRANCH   3  16
ENDBRANCH   2   3
TORSDOF 2
ENDMDL
MODEL        3
REMARK 921   NORMALIZED FREE ENERGY PREDICTED BY IDOCK:   -6.43 KCAL/MOL
REMARK 922        TOTAL FREE ENERGY PREDICTED BY IDOCK:   -7.67 KCAL/MOL
REMARK 923 INTER-LIGAND FREE ENERGY PREDICTED BY IDOCK:   -7.51 KCAL/MOL
REMARK 924 INTRA-LIGAND FREE ENERGY PREDICTED BY IDOCK:   -0.16 KCAL/MOL
REMARK 927      BINDING AFFINITY PREDICTED BY RF-SCORE:    0.00 PKD
ROOT
HETATM    1  C   UNL     1      -9.637  10.576  62.763  1.00  0.00    -0.289 C  
HETATM    2  O   UNL     1     -10.283  10.491  64.024  1.00  0.00    -0.319 OA 
ENDROOT
BRANCH   2   3
HETATM    3  C   UNL     1      -9.580  11.046  65.170  1.00  0.00    -0.237 C  
HETATM    4  C   UNL     1      -8.290  10.269  65.655  1.00  0.00    -0.158 C  
HETATM    5  O   UNL     1     -11.138  10.677  67.235  1.00  0.00    -0.302 OA 
HETATM    6  S   UNL     1      -6.918  11.165  66.465  1.00  0.00    -0.095 SA 
HETATM    7  C   UNL     1     -10.184  10.446  66.522  1.00  0.00    -0.229 C  
HETATM    8  O   UNL     1      -7.909   7.446  67.411  1.00  0.00    -0.108 OA 
HETATM    9  O   UNL     1      -7.199   8.088  69.449  1.00  0.00    -0.068 OA 
HETATM   10  C   UNL     1      -7.784   8.358  68.408  1.00  0.00    -0.105 C  
HETATM   11  C   UNL     1      -7.551  10.944  68.180  1.00  0.00    -0.094 C  
HETATM   12  C   UNL     1      -6.357  10.857  69.138  1.00  0.00    -0.058 C  
HETATM   13  C   UNL     1      -8.333  12.222  68.537  1.00  0.00    -0.084 C  
HETATM   14  N   UNL     1      -9.076   9.679  66.768  1.00  0.00    -0.144 N  
HETATM   15  C   UNL     1      -8.472   9.701  68.118  1.00  0.00    -0.118 C  
BRANCH   3  16
HETATM   16  N   UNL     1      -9.627  12.543  65.212  1.00  0.00    -0.460 N  
HETATM   17  C   UNL     1     -10.739  15.258  66.974  1.00  0.00    -0.313 A  
HETATM   18  O   UNL     1     -11.887  12.797  65.518  1.00  0.00    -0.374 OA 
HETATM   19  C   UNL     1     -11.861  15.030  67.754  1.00  0.00    -0.204 A  
HETATM   20  O   UNL     1     -11.080  16.738  64.211  1.00  0.00    -1.106 OA 
HETATM   21  O   UNL     1     -12.564  15.052  64.181  1.00  0.00    -0.770 OA 
HETATM   22  C   UNL     1     -10.547  14.799  65.541  1.00  0.00    -0.374 C  
HETATM   23  H   UNL     1      -8.751  13.046  65.072  1.00  0.00     0.000 HD 
HETATM   24  C   UNL     1     -10.762  13.292  65.426  1.00  0.00    -0.297 C  
HETATM   25  S   UNL     1     -11.717  15.660  69.337  1.00  0.00    -0.379 SA 
HETATM   26  C   UNL     1     -11.403  15.615  64.587  1.00  0.00    -0.349 C  
HETATM   27  C   UNL     1     -10.167  16.290  69.001  1.00  0.00    -0.261 A  
HETATM   28  C   UNL     1      -9.767  16.016  67.712  1.00  0.00    -0.221 A  
ENDBRANCH   3  16
ENDBRANCH   2   3
TORSDOF 2
ENDMDL
MODEL        4
REMARK 921   NORMALIZED FREE ENERGY PREDICTED BY IDOCK:   -6.42 KCAL/MOL
REMARK 922        TOTAL FREE ENERGY PREDICTED BY IDOCK:   -7.66 KCAL/MOL
REMARK 923 INTER-LIGAND FREE ENERGY PREDICTED BY IDOCK:   -6.98 KCAL/MOL
REMARK 924 INTRA-LIGAND FREE ENERGY PREDICTED BY IDOCK:   -0.68 KCAL/MOL
REMARK 927      BINDING AFFINITY PREDICTED BY RF-SCORE:    0.00 PKD
ROOT
HETATM    1  C   UNL     1     -12.191   8.716  71.472  1.00  0.00    -0.318 C  
HETATM    2  O   UNL     1     -11.062   9.574  71.459  1.00  0.00    -0.367 OA 
ENDROOT
BRANCH   2   3
HETATM    3  C   UNL     1     -10.323   9.683  70.210  1.00  0.00    -0.280 C  
HETATM    4  C   UNL     1     -10.442   8.465  69.208  1.00  0.00    -0.215 C  
HETATM    5  O   UNL     1      -7.793   9.512  70.837  1.00  0.00    -0.299 OA 
HETATM    6  S   UNL     1     -10.292   8.729  67.405  1.00  0.00    -0.284 SA 
HETATM    7  C   UNL     1      -8.847   9.103  70.398  1.00  0.00    -0.220 C  
HETATM    8  O   UNL     1      -9.036   5.428  69.205  1.00  0.00    -0.105 OA 
HETATM    9  O   UNL     1      -7.495   5.473  67.564  1.00  0.00    -0.082 OA 
HETATM   10  C   UNL     1      -8.183   6.079  68.375  1.00  0.00    -0.110 C  
HETATM   11  C   UNL     1      -8.473   8.453  67.338  1.00  0.00    -0.124 C  
HETATM   12  C   UNL     1      -8.119   7.835  65.981  1.00  0.00    -0.117 C  
HETATM   13  C   UNL     1      -7.807   9.841  67.396  1.00  0.00    -0.099 C  
HETATM   14  N   UNL     1      -9.104   7.990  69.641  1.00  0.00    -0.152 N  
HETATM   15  C   UNL     1      -8.142   7.601  68.587  1.00  0.00    -0.127 C  
BRANCH   3  16
HETATM   16  N   UNL     1     -10.256  11.088  69.695  1.00  0.00    -0.438 N  
HETATM   17  C   UNL     1     -11.664  14.202  69.868  1.00  0.00    -0.372 A  
HETATM   18  O   UNL     1     -12.456  11.328  69.090  1.00  0.00    -0.378 OA 
HETATM   19  C   UNL     1     -12.999  14.221  70.240  1.00  0.00    -0.038 A  
HETATM   20  O   UNL     1     -10.925  14.555  66.823  1.00  0.00    -0.303 OA 
HETATM   21  O   UNL     1     -12.448  12.905  66.889  1.00  0.00    -0.308 OA 
HETATM   22  C   UNL     1     -11.039  13.262  68.855  1.00  0.00    -0.304 C  
HETATM   23  H   UNL     1      -9.344  11.547  69.695  1.00  0.00     0.000 HD 
HETATM   24  C   UNL     1     -11.328  11.808  69.221  1.00  0.00    -0.286 C  
HETATM   25  S   UNL     1     -13.345  15.391  71.437  1.00  0.00    -0.525 SA 
HETATM   26  C   UNL     1     -11.450  13.632  67.440  1.00  0.00    -0.336 C  
HETATM   27  C   UNL     1     -11.726  15.928  71.455  1.00  0.00    -0.475 A  
HETATM   28  C   UNL     1     -10.938  15.223  70.573  1.00  0.00    -0.318 A  
ENDBRANCH   3  16
ENDBRANCH   2   3
TORSDOF 2
ENDMDL
MODEL        5
REMARK 921   NORMALIZED FREE ENERGY PREDICTED BY IDOCK:   -6.41 KCAL/MOL
REMARK 922        TOTAL FREE ENERGY PREDICTED BY IDOCK:   -7.65 KCAL/MOL
REMARK 923 INTER-LIGAND FREE ENERGY PREDICTED BY IDOCK:   -7.49 KCAL/MOL
REMARK 924 INTRA-LIGAND FREE ENERGY PREDICTED BY IDOCK:   -0.15 KCAL/MOL
REMARK 927      BINDING AFFINITY PREDICTED BY RF-SCORE:    0.00 PKD
ROOT
HETATM    1  C   UNL     1     -12.998  15.301  70.398  1.00  0.00    -0.266 C  
HETATM    2  O   UNL     1     -11.886  15.939  69.790  1.00  0.00    -0.336 OA 
ENDROOT
BRANCH   2   3
HETATM    3  C   UNL     1     -11.368  15.348  68.566  1.00  0.00    -0.335 C  
HETATM    4  C   UNL     1     -12.151  14.096  67.997  1.00  0.00    -0.268 C  
HETATM    5  O   UNL     1      -9.100  14.217  69.201  1.00  0.00    -0.012 OA 
HETATM    6  S   UNL     1     -12.170  13.752  66.201  1.00  0.00    -0.454 SA 
HETATM    7  C   UNL     1     -10.279  14.232  68.918  1.00  0.00    -0.200 C  
HETATM    8  O   UNL     1     -12.219  10.885  68.938  1.00  0.00    -0.494 OA 
HETATM    9  O   UNL     1     -11.072   9.764  67.358  1.00  0.00    -0.210 OA 
HETATM   10  C   UNL     1     -11.301  10.815  67.941  1.00  0.00    -0.299 C  
HETATM   11  C   UNL     1     -10.683  12.667  66.214  1.00  0.00    -0.256 C  
HETATM   12  C   UNL     1     -10.838  11.608  65.117  1.00  0.00    -0.346 C  
HETATM   13  C   UNL     1      -9.480  13.551  65.830  1.00  0.00    -0.048 C  
HETATM   14  N   UNL     1     -11.103  13.201  68.550  1.00  0.00    -0.252 N  
HETATM   15  C   UNL     1     -10.573  12.141  67.665  1.00  0.00    -0.210 C  
BRANCH   3  16
HETATM   16  N   UNL     1     -10.775  16.361  67.635  1.00  0.00    -0.326 N  
HETATM   17  C   UNL     1      -8.058  18.353  67.032  1.00  0.00    -0.239 A  
HETATM   18  O   UNL     1     -10.223  17.957  69.188  1.00  0.00    -0.354 OA 
HETATM   19  C   UNL     1      -7.332  18.709  68.157  1.00  0.00    -0.255 A  
HETATM   20  O   UNL     1     -10.049  20.451  65.776  1.00  0.00    -0.313 OA 
HETATM   21  O   UNL     1     -10.581  20.341  67.955  1.00  0.00    -0.251 OA 
HETATM   22  C   UNL     1      -9.570  18.377  66.908  1.00  0.00    -0.305 C  
HETATM   23  H   UNL     1     -10.788  16.149  66.637  1.00  0.00     0.000 HD 
HETATM   24  C   UNL     1     -10.214  17.556  68.023  1.00  0.00    -0.354 C  
HETATM   25  S   UNL     1      -5.645  18.523  67.953  1.00  0.00    -0.169 SA 
HETATM   26  C   UNL     1     -10.088  19.802  66.817  1.00  0.00    -0.444 C  
HETATM   27  C   UNL     1      -5.844  18.004  66.340  1.00  0.00    -0.175 A  
HETATM   28  C   UNL     1      -7.171  17.964  65.970  1.00  0.00    -0.325 A  
ENDBRANCH   3  16
ENDBRANCH   2   3
TORSDOF 2
ENDMDL
MODEL        6
REMARK 921   NORMALIZED FREE ENERGY PREDICTED BY IDOCK:   -6.33 KCAL/MOL
REMARK 922        TOTAL FREE ENERGY PREDICTED BY IDOCK:   -7.55 KCAL/MOL
REMARK 923 INTER-LIGAND FREE ENERGY PREDICTED BY IDOCK:   -7.02 KCAL/MOL
REMARK 924 INTRA-LIGAND FREE ENERGY PREDICTED BY IDOCK:   -0.52 KCAL/MOL
REMARK 927      BINDING AFFINITY PREDICTED BY RF-SCORE:    0.00 PKD
ROOT
HETATM    1  C   UNL     1      -9.748  11.244  62.894  1.00  0.00    -0.323 C  
HETATM    2  O   UNL     1     -10.508  11.420  64.080  1.00  0.00    -0.315 OA 
ENDROOT
BRANCH   2   3
HETATM    3  C   UNL     1      -9.787  11.389  65.343  1.00  0.00    -0.236 C  
HETATM    4  C   UNL     1      -8.797  10.175  65.564  1.00  0.00    -0.169 C  
HETATM    5  O   UNL     1     -11.562  10.873  67.188  1.00  0.00    -0.431 OA 
HETATM    6  S   UNL     1      -7.313  10.368  66.614  1.00  0.00    -0.120 SA 
HETATM    7  C   UNL     1     -10.645  10.608  66.441  1.00  0.00    -0.175 C  
HETATM    8  O   UNL     1      -9.335   6.969  66.357  1.00  0.00    -0.167 OA 
HETATM    9  O   UNL     1      -8.662   6.749  68.494  1.00  0.00    -0.125 OA 
HETATM   10  C   UNL     1      -9.061   7.469  67.588  1.00  0.00    -0.125 C  
HETATM   11  C   UNL     1      -8.130   9.832  68.174  1.00  0.00    -0.108 C  
HETATM   12  C   UNL     1      -7.092   9.134  69.060  1.00  0.00    -0.067 C  
HETATM   13  C   UNL     1      -8.574  11.111  68.910  1.00  0.00    -0.092 C  
HETATM   14  N   UNL     1      -9.806   9.525  66.438  1.00  0.00    -0.233 N  
HETATM   15  C   UNL     1      -9.339   8.974  67.729  1.00  0.00    -0.140 C  
BRANCH   3  16
HETATM   16  N   UNL     1      -9.438  12.756  65.848  1.00  0.00    -0.447 N  
HETATM   17  C   UNL     1     -10.385  15.289  67.946  1.00  0.00    -0.246 A  
HETATM   18  O   UNL     1     -11.466  13.769  65.493  1.00  0.00    -0.305 OA 
HETATM   19  C   UNL     1     -11.742  15.347  68.217  1.00  0.00    -0.297 A  
HETATM   20  O   UNL     1      -9.162  17.298  65.848  1.00  0.00    -0.507 OA 
HETATM   21  O   UNL     1     -10.903  16.329  64.812  1.00  0.00    -0.671 OA 
HETATM   22  C   UNL     1      -9.762  15.081  66.578  1.00  0.00    -0.285 C  
HETATM   23  H   UNL     1      -8.479  12.913  66.159  1.00  0.00     0.000 HD 
HETATM   24  C   UNL     1     -10.312  13.817  65.923  1.00  0.00    -0.309 C  
HETATM   25  S   UNL     1     -12.086  15.555  69.879  1.00  0.00    -0.317 SA 
HETATM   26  C   UNL     1      -9.901  16.327  65.720  1.00  0.00    -0.299 C  
HETATM   27  C   UNL     1     -10.426  15.614  70.269  1.00  0.00    -0.260 A  
HETATM   28  C   UNL     1      -9.629  15.469  69.155  1.00  0.00    -0.253 A  
ENDBRANCH   3  16
ENDBRANCH   2   3
TORSDOF 2
ENDMDL
MODEL        7
REMARK 921   NORMALIZED FREE ENERGY PREDICTED BY IDOCK:   -6.31 KCAL/MOL
REMARK 922        TOTAL FREE ENERGY PREDICTED BY IDOCK:   -7.53 KCAL/MOL
REMARK 923 INTER-LIGAND FREE ENERGY PREDICTED BY IDOCK:   -6.87 KCAL/MOL
REMARK 924 INTRA-LIGAND FREE ENERGY PREDICTED BY IDOCK:   -0.66 KCAL/MOL
REMARK 927      BINDING AFFINITY PREDICTED BY RF-SCORE:    0.00 PKD
ROOT
HETATM    1  C   UNL     1     -12.351   8.855  71.693  1.00  0.00    -0.343 C  
HETATM    2  O   UNL     1     -11.176   9.648  71.621  1.00  0.00    -0.367 OA 
ENDROOT
BRANCH   2   3
HETATM    3  C   UNL     1     -10.329   9.476  70.451  1.00  0.00    -0.276 C  
HETATM    4  C   UNL     1     -10.446   8.096  69.687  1.00  0.00    -0.224 C  
HETATM    5  O   UNL     1      -7.879   9.301  71.339  1.00  0.00    -0.335 OA 
HETATM    6  S   UNL     1     -10.126   8.000  67.890  1.00  0.00    -0.205 SA 
HETATM    7  C   UNL     1      -8.917   8.868  70.885  1.00  0.00    -0.222 C  
HETATM    8  O   UNL     1      -9.256   5.047  70.387  1.00  0.00    -0.136 OA 
HETATM    9  O   UNL     1      -7.582   4.697  68.923  1.00  0.00    -0.063 OA 
HETATM   10  C   UNL     1      -8.293   5.482  69.536  1.00  0.00    -0.102 C  
HETATM   11  C   UNL     1      -8.331   7.624  68.050  1.00  0.00    -0.124 C  
HETATM   12  C   UNL     1      -7.907   6.739  66.873  1.00  0.00    -0.108 C  
HETATM   13  C   UNL     1      -7.579   8.962  67.912  1.00  0.00    -0.093 C  
HETATM   14  N   UNL     1      -9.185   7.646  70.328  1.00  0.00    -0.157 N  
HETATM   15  C   UNL     1      -8.166   7.013  69.462  1.00  0.00    -0.132 C  
BRANCH   3  16
HETATM   16  N   UNL     1     -10.123  10.751  69.691  1.00  0.00    -0.442 N  
HETATM   17  C   UNL     1     -11.208  13.970  69.278  1.00  0.00    -0.304 A  
HETATM   18  O   UNL     1     -12.290  11.096  69.023  1.00  0.00    -0.479 OA 
HETATM   19  C   UNL     1     -12.532  14.190  69.623  1.00  0.00    -0.161 A  
HETATM   20  O   UNL     1     -10.452  13.688  66.231  1.00  0.00    -0.282 OA 
HETATM   21  O   UNL     1     -12.134  12.240  66.573  1.00  0.00    -0.616 OA 
HETATM   22  C   UNL     1     -10.686  12.803  68.461  1.00  0.00    -0.275 C  
HETATM   23  H   UNL     1      -9.169  11.108  69.620  1.00  0.00     0.000 HD 
HETATM   24  C   UNL     1     -11.119  11.477  69.080  1.00  0.00    -0.245 C  
HETATM   25  S   UNL     1     -12.752  15.586  70.584  1.00  0.00    -0.372 SA 
HETATM   26  C   UNL     1     -11.064  12.950  66.997  1.00  0.00    -0.275 C  
HETATM   27  C   UNL     1     -11.087  15.953  70.527  1.00  0.00    -0.364 A  
HETATM   28  C   UNL     1     -10.379  15.023  69.797  1.00  0.00    -0.172 A  
ENDBRANCH   3  16
ENDBRANCH   2   3
TORSDOF 2
ENDMDL
MODEL        8
REMARK 921   NORMALIZED FREE ENERGY PREDICTED BY IDOCK:   -6.29 KCAL/MOL
REMARK 922        TOTAL FREE ENERGY PREDICTED BY IDOCK:   -7.51 KCAL/MOL
REMARK 923 INTER-LIGAND FREE ENERGY PREDICTED BY IDOCK:   -6.89 KCAL/MOL
REMARK 924 INTRA-LIGAND FREE ENERGY PREDICTED BY IDOCK:   -0.62 KCAL/MOL
REMARK 927      BINDING AFFINITY PREDICTED BY RF-SCORE:    0.00 PKD
ROOT
HETATM    1  C   UNL     1     -12.391  13.846  65.908  1.00  0.00    -0.483 C  
HETATM    2  O   UNL     1     -12.000  14.669  66.996  1.00  0.00    -0.382 OA 
ENDROOT
BRANCH   2   3
HETATM    3  C   UNL     1     -10.680  15.278  66.929  1.00  0.00    -0.313 C  
HETATM    4  C   UNL     1     -10.419  16.512  67.883  1.00  0.00    -0.313 C  
HETATM    5  O   UNL     1     -10.536  16.460  64.604  1.00  0.00    -0.639 OA 
HETATM    6  S   UNL     1      -8.737  16.862  68.507  1.00  0.00    -0.257 SA 
HETATM    7  C   UNL     1     -10.663  16.417  65.809  1.00  0.00    -0.238 C  
HETATM    8  O   UNL     1     -11.367  19.717  67.702  1.00  0.00    -0.076 OA 
HETATM    9  O   UNL     1      -9.508  20.872  67.172  1.00  0.00    -0.379 OA 
HETATM   10  C   UNL     1     -10.122  19.813  67.171  1.00  0.00    -0.424 C  
HETATM   11  C   UNL     1      -8.266  17.983  67.125  1.00  0.00    -0.221 C  
HETATM   12  C   UNL     1      -7.296  19.043  67.659  1.00  0.00    -0.245 C  
HETATM   13  C   UNL     1      -7.493  17.130  66.100  1.00  0.00    -0.295 C  
HETATM   14  N   UNL     1     -10.601  17.430  66.730  1.00  0.00    -0.249 N  
HETATM   15  C   UNL     1      -9.603  18.506  66.548  1.00  0.00    -0.329 C  
BRANCH   3  16
HETATM   16  N   UNL     1      -9.593  14.282  66.658  1.00  0.00    -0.278 N  
HETATM   17  C   UNL     1      -8.779  10.958  66.666  1.00  0.00    -0.156 A  
HETATM   18  O   UNL     1      -9.687  13.139  68.645  1.00  0.00    -0.171 OA 
HETATM   19  C   UNL     1      -9.508  10.179  67.550  1.00  0.00    -0.152 A  
HETATM   20  O   UNL     1      -5.850  11.819  67.450  1.00  0.00    -0.075 OA 
HETATM   21  O   UNL     1      -7.139  12.404  69.194  1.00  0.00    -0.082 OA 
HETATM   22  C   UNL     1      -8.162  12.309  66.975  1.00  0.00    -0.155 C  
HETATM   23  H   UNL     1      -9.094  14.359  65.772  1.00  0.00     0.000 HD 
HETATM   24  C   UNL     1      -9.217  13.272  67.514  1.00  0.00    -0.213 C  
HETATM   25  S   UNL     1     -10.086   8.731  66.850  1.00  0.00    -0.290 SA 
HETATM   26  C   UNL     1      -6.949  12.161  67.877  1.00  0.00    -0.099 C  
HETATM   27  C   UNL     1      -9.339   9.092  65.359  1.00  0.00    -0.191 A  
HETATM   28  C   UNL     1      -8.671  10.297  65.394  1.00  0.00    -0.183 A  
ENDBRANCH   3  16
ENDBRANCH   2   3
TORSDOF 2
ENDMDL
MODEL        9
REMARK 921   NORMALIZED FREE ENERGY PREDICTED BY IDOCK:   -6.27 KCAL/MOL
REMARK 922        TOTAL FREE ENERGY PREDICTED BY IDOCK:   -7.48 KCAL/MOL
REMARK 923 INTER-LIGAND FREE ENERGY PREDICTED BY IDOCK:   -7.10 KCAL/MOL
REMARK 924 INTRA-LIGAND FREE ENERGY PREDICTED BY IDOCK:   -0.38 KCAL/MOL
REMARK 927      BINDING AFFINITY PREDICTED BY RF-SCORE:    0.00 PKD
ROOT
HETATM    1  C   UNL     1      -7.893  14.470  68.733  1.00  0.00    -0.145 C  
HETATM    2  O   UNL     1      -8.919  13.548  69.067  1.00  0.00     0.145 OA 
ENDROOT
BRANCH   2   3
HETATM    3  C   UNL     1      -9.860  13.191  68.015  1.00  0.00    -0.231 C  
HETATM    4  C   UNL     1      -9.565  13.773  66.574  1.00  0.00    -0.285 C  
HETATM    5  O   UNL     1     -12.085  14.444  68.566  1.00  0.00    -0.318 OA 
HETATM    6  S   UNL     1     -10.091  12.859  65.080  1.00  0.00    -0.176 SA 
HETATM    7  C   UNL     1     -11.049  14.257  67.964  1.00  0.00    -0.269 C  
HETATM    8  O   UNL     1     -10.007  16.819  65.259  1.00  0.00    -0.546 OA 
HETATM    9  O   UNL     1     -11.752  16.625  63.849  1.00  0.00    -1.153 OA 
HETATM   10  C   UNL     1     -11.142  16.212  64.827  1.00  0.00    -0.333 C  
HETATM   11  C   UNL     1     -11.736  13.677  64.944  1.00  0.00    -0.360 C  
HETATM   12  C   UNL     1     -12.121  13.763  63.464  1.00  0.00    -0.241 C  
HETATM   13  C   UNL     1     -12.756  12.748  65.630  1.00  0.00     0.013 C  
HETATM   14  N   UNL     1     -10.613  14.803  66.786  1.00  0.00    -0.296 N  
HETATM   15  C   UNL     1     -11.586  15.023  65.693  1.00  0.00    -0.188 C  
BRANCH   3  16
HETATM   16  N   UNL     1     -10.419  11.812  68.179  1.00  0.00    -0.194 N  
HETATM   17  C   UNL     1     -10.432   9.013  70.149  1.00  0.00    -0.240 A  
HETATM   18  O   UNL     1      -8.445  10.685  68.491  1.00  0.00    -0.121 OA 
HETATM   19  C   UNL     1      -9.284   8.822  70.901  1.00  0.00    -0.212 A  
HETATM   20  O   UNL     1     -10.826   7.328  67.514  1.00  0.00    -0.249 OA 
HETATM   21  O   UNL     1      -8.790   8.259  67.337  1.00  0.00    -0.129 OA 
HETATM   22  C   UNL     1     -10.477   9.407  68.684  1.00  0.00    -0.236 C  
HETATM   23  H   UNL     1     -11.429  11.699  68.085  1.00  0.00     0.000 HD 
HETATM   24  C   UNL     1      -9.677  10.684  68.446  1.00  0.00    -0.166 C  
HETATM   25  S   UNL     1      -9.609   8.421  72.531  1.00  0.00    -0.263 SA 
HETATM   26  C   UNL     1     -10.062   8.247  67.795  1.00  0.00    -0.206 C  
HETATM   27  C   UNL     1     -11.293   8.451  72.258  1.00  0.00    -0.378 A  
HETATM   28  C   UNL     1     -11.599   8.770  70.953  1.00  0.00    -0.320 A  
ENDBRANCH   3  16
ENDBRANCH   2   3
TORSDOF 2
ENDMDL
MODEL       10
REMARK 921   NORMALIZED FREE ENERGY PREDICTED BY IDOCK:   -6.26 KCAL/MOL
REMARK 922        TOTAL FREE ENERGY PREDICTED BY IDOCK:   -7.48 KCAL/MOL
REMARK 923 INTER-LIGAND FREE ENERGY PREDICTED BY IDOCK:   -6.86 KCAL/MOL
REMARK 924 INTRA-LIGAND FREE ENERGY PREDICTED BY IDOCK:   -0.61 KCAL/MOL
REMARK 927      BINDING AFFINITY PREDICTED BY RF-SCORE:    0.00 PKD
ROOT
HETATM    1  C   UNL     1     -13.177   9.392  72.037  1.00  0.00    -0.449 C  
HETATM    2  O   UNL     1     -11.947  10.074  71.852  1.00  0.00    -0.290 OA 
ENDROOT
BRANCH   2   3
HETATM    3  C   UNL     1     -10.991   9.483  70.928  1.00  0.00    -0.337 C  
HETATM    4  C   UNL     1     -11.271   7.992  70.476  1.00  0.00    -0.250 C  
HETATM    5  O   UNL     1      -8.781   9.142  72.278  1.00  0.00    -0.282 OA 
HETATM    6  S   UNL     1     -10.720   7.401  68.836  1.00  0.00    -0.073 SA 
HETATM    7  C   UNL     1      -9.807   8.783  71.742  1.00  0.00    -0.321 C  
HETATM    8  O   UNL     1     -10.831   5.064  72.036  1.00  0.00    -0.179 OA 
HETATM    9  O   UNL     1      -9.068   4.096  71.026  1.00  0.00    -0.104 OA 
HETATM   10  C   UNL     1      -9.688   5.113  71.307  1.00  0.00    -0.169 C  
HETATM   11  C   UNL     1      -9.080   6.794  69.410  1.00  0.00    -0.144 C  
HETATM   12  C   UNL     1      -8.676   5.587  68.556  1.00  0.00    -0.105 C  
HETATM   13  C   UNL     1      -8.063   7.916  69.126  1.00  0.00    -0.124 C  
HETATM   14  N   UNL     1     -10.232   7.520  71.426  1.00  0.00    -0.187 N  
HETATM   15  C   UNL     1      -9.247   6.535  70.927  1.00  0.00    -0.154 C  
BRANCH   3  16
HETATM   16  N   UNL     1     -10.425  10.476  69.960  1.00  0.00    -0.449 N  
HETATM   17  C   UNL     1     -10.678  13.673  68.764  1.00  0.00    -0.265 A  
HETATM   18  O   UNL     1     -12.384  11.114  68.952  1.00  0.00    -0.512 OA 
HETATM   19  C   UNL     1     -11.937  14.241  68.876  1.00  0.00    -0.320 A  
HETATM   20  O   UNL     1      -9.755  12.551  65.966  1.00  0.00    -0.256 OA 
HETATM   21  O   UNL     1     -11.755  11.610  66.365  1.00  0.00    -0.472 OA 
HETATM   22  C   UNL     1     -10.380  12.267  68.277  1.00  0.00    -0.227 C  
HETATM   23  H   UNL     1      -9.411  10.597  69.948  1.00  0.00     0.000 HD 
HETATM   24  C   UNL     1     -11.166  11.239  69.087  1.00  0.00    -0.273 C  
HETATM   25  S   UNL     1     -11.901  15.834  69.497  1.00  0.00    -0.301 SA 
HETATM   26  C   UNL     1     -10.587  12.154  66.776  1.00  0.00    -0.226 C  
HETATM   27  C   UNL     1     -10.197  15.815  69.590  1.00  0.00    -0.289 A  
HETATM   28  C   UNL     1      -9.670  14.616  69.165  1.00  0.00    -0.108 A  
ENDBRANCH   3  16
ENDBRANCH   2   3
TORSDOF 2
ENDMDL
MODEL       11
REMARK 921   NORMALIZED FREE ENERGY PREDICTED BY IDOCK:   -6.15 KCAL/MOL
REMARK 922        TOTAL FREE ENERGY PREDICTED BY IDOCK:   -7.35 KCAL/MOL
REMARK 923 INTER-LIGAND FREE ENERGY PREDICTED BY IDOCK:   -7.15 KCAL/MOL
REMARK 924 INTRA-LIGAND FREE ENERGY PREDICTED BY IDOCK:   -0.20 KCAL/MOL
REMARK 927      BINDING AFFINITY PREDICTED BY RF-SCORE:    0.00 PKD
ROOT
HETATM    1  C   UNL     1     -12.355  12.301  63.421  1.00  0.00    -0.517 C  
HETATM    2  O   UNL     1     -12.485  11.813  64.747  1.00  0.00    -0.203 OA 
ENDROOT
BRANCH   2   3
HETATM    3  C   UNL     1     -11.722  12.492  65.783  1.00  0.00    -0.426 C  
HETATM    4  C   UNL     1     -12.119  13.993  66.086  1.00  0.00    -0.446 C  
HETATM    5  O   UNL     1      -9.321  12.840  64.816  1.00  0.00     0.325 OA 
HETATM    6  S   UNL     1     -11.879  14.696  67.756  1.00  0.00    -0.270 SA 
HETATM    7  C   UNL     1     -10.435  13.189  65.143  1.00  0.00    -0.324 C  
HETATM    8  O   UNL     1     -11.496  16.843  64.446  1.00  0.00    -1.052 OA 
HETATM    9  O   UNL     1      -9.964  17.935  65.684  1.00  0.00    -0.539 OA 
HETATM   10  C   UNL     1     -10.496  16.880  65.363  1.00  0.00    -0.154 C  
HETATM   11  C   UNL     1     -10.182  15.334  67.437  1.00  0.00    -0.243 C  
HETATM   12  C   UNL     1      -9.967  16.601  68.272  1.00  0.00    -0.261 C  
HETATM   13  C   UNL     1      -9.198  14.269  67.961  1.00  0.00    -0.192 C  
HETATM   14  N   UNL     1     -10.944  14.451  65.302  1.00  0.00    -0.329 N  
HETATM   15  C   UNL     1     -10.089  15.499  65.901  1.00  0.00    -0.349 C  
BRANCH   3  16
HETATM   16  N   UNL     1     -11.306  11.577  66.893  1.00  0.00    -0.298 N  
HETATM   17  C   UNL     1      -8.676   9.891  68.292  1.00  0.00    -0.119 A  
HETATM   18  O   UNL     1     -10.229   9.991  65.632  1.00  0.00    -0.267 OA 
HETATM   19  C   UNL     1      -7.652   9.572  67.413  1.00  0.00    -0.095 A  
HETATM   20  O   UNL     1     -10.731   7.648  69.118  1.00  0.00    -0.214 OA 
HETATM   21  O   UNL     1     -10.684   7.627  66.873  1.00  0.00    -0.351 OA 
HETATM   22  C   UNL     1     -10.159   9.719  68.025  1.00  0.00    -0.204 C  
HETATM   23  H   UNL     1     -11.598  11.821  67.840  1.00  0.00     0.000 HD 
HETATM   24  C   UNL     1     -10.560  10.431  66.735  1.00  0.00    -0.205 C  
HETATM   25  S   UNL     1      -6.100   9.933  68.032  1.00  0.00    -0.054 SA 
HETATM   26  C   UNL     1     -10.555   8.253  68.064  1.00  0.00    -0.127 C  
HETATM   27  C   UNL     1      -6.759  10.486  69.506  1.00  0.00    -0.089 A  
HETATM   28  C   UNL     1      -8.134  10.404  69.520  1.00  0.00    -0.145 A  
ENDBRANCH   3  16
ENDBRANCH   2   3
TORSDOF 2
ENDMDL
MODEL       12
REMARK 921   NORMALIZED FREE ENERGY PREDICTED BY IDOCK:   -6.11 KCAL/MOL
REMARK 922        TOTAL FREE ENERGY PREDICTED BY IDOCK:   -7.31 KCAL/MOL
REMARK 923 INTER-LIGAND FREE ENERGY PREDICTED BY IDOCK:   -6.80 KCAL/MOL
REMARK 924 INTRA-LIGAND FREE ENERGY PREDICTED BY IDOCK:   -0.51 KCAL/MOL
REMARK 927      BINDING AFFINITY PREDICTED BY RF-SCORE:    0.00 PKD
ROOT
HETATM    1  C   UNL     1     -12.702  10.705  70.680  1.00  0.00    -0.359 C  
HETATM    2  O   UNL     1     -12.371  10.482  69.319  1.00  0.00    -0.234 OA 
ENDROOT
BRANCH   2   3
HETATM    3  C   UNL     1     -11.061  10.931  68.871  1.00  0.00    -0.252 C  
HETATM    4  C   UNL     1     -10.618  10.488  67.418  1.00  0.00    -0.263 C  
HETATM    5  O   UNL     1      -9.310   9.623  70.301  1.00  0.00    -0.242 OA 
HETATM    6  S   UNL     1      -9.487  11.535  66.434  1.00  0.00    -0.218 SA 
HETATM    7  C   UNL     1      -9.946   9.870  69.299  1.00  0.00    -0.207 C  
HETATM    8  O   UNL     1      -9.486   7.577  66.217  1.00  0.00    -0.169 OA 
HETATM    9  O   UNL     1      -7.292   7.893  65.822  1.00  0.00    -0.073 OA 
HETATM   10  C   UNL     1      -8.307   8.216  66.426  1.00  0.00    -0.115 C  
HETATM   11  C   UNL     1      -7.942  10.726  67.023  1.00  0.00    -0.124 C  
HETATM   12  C   UNL     1      -6.901  10.777  65.900  1.00  0.00    -0.084 C  
HETATM   13  C   UNL     1      -7.403  11.583  68.186  1.00  0.00    -0.094 C  
HETATM   14  N   UNL     1      -9.753   9.438  68.013  1.00  0.00    -0.142 N  
HETATM   15  C   UNL     1      -8.372   9.317  67.496  1.00  0.00    -0.119 C  
BRANCH   3  16
HETATM   16  N   UNL     1     -10.701  12.287  69.396  1.00  0.00    -0.442 N  
HETATM   17  C   UNL     1     -11.879  15.069  71.003  1.00  0.00    -0.373 A  
HETATM   18  O   UNL     1     -12.389  13.487  68.409  1.00  0.00    -0.218 OA 
HETATM   19  C   UNL     1     -13.238  15.299  70.855  1.00  0.00    -0.450 A  
HETATM   20  O   UNL     1      -9.850  16.756  69.278  1.00  0.00    -0.241 OA 
HETATM   21  O   UNL     1     -11.326  15.905  67.815  1.00  0.00    -0.299 OA 
HETATM   22  C   UNL     1     -10.918  14.685  69.894  1.00  0.00    -0.194 C  
HETATM   23  H   UNL     1      -9.861  12.362  69.972  1.00  0.00     0.000 HD 
HETATM   24  C   UNL     1     -11.414  13.441  69.161  1.00  0.00    -0.300 C  
HETATM   25  S   UNL     1     -14.019  15.676  72.328  1.00  0.00    -0.414 SA 
HETATM   26  C   UNL     1     -10.640  15.866  68.979  1.00  0.00    -0.247 C  
HETATM   27  C   UNL     1     -12.550  15.583  73.192  1.00  0.00    -0.468 A  
HETATM   28  C   UNL     1     -11.490  15.261  72.373  1.00  0.00    -0.460 A  
ENDBRANCH   3  16
ENDBRANCH   2   3
TORSDOF 2
ENDMDL
MODEL       13
REMARK 921   NORMALIZED FREE ENERGY PREDICTED BY IDOCK:   -6.06 KCAL/MOL
REMARK 922        TOTAL FREE ENERGY PREDICTED BY IDOCK:   -7.25 KCAL/MOL
REMARK 923 INTER-LIGAND FREE ENERGY PREDICTED BY IDOCK:   -6.84 KCAL/MOL
REMARK 924 INTRA-LIGAND FREE ENERGY PREDICTED BY IDOCK:   -0.42 KCAL/MOL
REMARK 927      BINDING AFFINITY PREDICTED BY RF-SCORE:    0.00 PKD
ROOT
HETATM    1  C   UNL     1     -10.476  11.835  63.094  1.00  0.00    -0.305 C  
HETATM    2  O   UNL     1      -9.604  11.793  64.213  1.00  0.00    -0.177 OA 
ENDROOT
BRANCH   2   3
HETATM    3  C   UNL     1     -10.160  12.173  65.503  1.00  0.00    -0.248 C  
HETATM    4  C   UNL     1     -10.903  13.568  65.571  1.00  0.00    -0.288 C  
HETATM    5  O   UNL     1      -8.122  12.665  67.061  1.00  0.00    -0.162 OA 
HETATM    6  S   UNL     1     -12.266  13.835  66.759  1.00  0.00    -0.340 SA 
HETATM    7  C   UNL     1      -9.063  12.962  66.356  1.00  0.00    -0.074 C  
HETATM    8  O   UNL     1      -9.754  16.709  65.691  1.00  0.00    -0.530 OA 
HETATM    9  O   UNL     1     -10.129  17.414  67.796  1.00  0.00    -0.295 OA 
HETATM   10  C   UNL     1      -9.963  16.488  67.013  1.00  0.00    -0.268 C  
HETATM   11  C   UNL     1     -11.196  14.473  68.115  1.00  0.00    -0.284 C  
HETATM   12  C   UNL     1     -11.996  15.491  68.935  1.00  0.00    -0.306 C  
HETATM   13  C   UNL     1     -10.888  13.281  69.041  1.00  0.00    -0.212 C  
HETATM   14  N   UNL     1      -9.706  14.163  66.217  1.00  0.00    -0.295 N  
HETATM   15  C   UNL     1      -9.923  15.004  67.415  1.00  0.00    -0.226 C  
BRANCH   3  16
HETATM   16  N   UNL     1     -10.668  11.002  66.286  1.00  0.00    -0.244 N  
HETATM   17  C   UNL     1     -10.080   8.966  68.974  1.00  0.00    -0.205 A  
HETATM   18  O   UNL     1      -8.740   9.758  66.315  1.00  0.00    -0.135 OA 
HETATM   19  C   UNL     1      -8.749   8.854  69.343  1.00  0.00    -0.142 A  
HETATM   20  O   UNL     1     -11.405   6.632  67.320  1.00  0.00    -0.324 OA 
HETATM   21  O   UNL     1      -9.529   7.170  66.209  1.00  0.00    -0.153 OA 
HETATM   22  C   UNL     1     -10.616   8.897  67.556  1.00  0.00    -0.307 C  
HETATM   23  H   UNL     1     -11.651  11.008  66.560  1.00  0.00     0.000 HD 
HETATM   24  C   UNL     1      -9.911   9.916  66.665  1.00  0.00    -0.207 C  
HETATM   25  S   UNL     1      -8.504   9.017  71.027  1.00  0.00    -0.172 SA 
HETATM   26  C   UNL     1     -10.566   7.476  67.022  1.00  0.00    -0.339 C  
HETATM   27  C   UNL     1     -10.177   9.199  71.306  1.00  0.00    -0.329 A  
HETATM   28  C   UNL     1     -10.905   9.145  70.137  1.00  0.00    -0.269 A  
ENDBRANCH   3  16
ENDBRANCH   2   3
TORSDOF 2
ENDMDL
MODEL       14
REMARK 921   NORMALIZED FREE ENERGY PREDICTED BY IDOCK:   -6.04 KCAL/MOL
REMARK 922        TOTAL FREE ENERGY PREDICTED BY IDOCK:   -7.22 KCAL/MOL
REMARK 923 INTER-LIGAND FREE ENERGY PREDICTED BY IDOCK:   -7.07 KCAL/MOL
REMARK 924 INTRA-LIGAND FREE ENERGY PREDICTED BY IDOCK:   -0.16 KCAL/MOL
REMARK 927      BINDING AFFINITY PREDICTED BY RF-SCORE:    0.00 PKD
ROOT
HETATM    1  C   UNL     1     -10.194  17.730  68.707  1.00  0.00    -0.373 C  
HETATM    2  O   UNL     1     -11.154  16.947  68.015  1.00  0.00    -0.336 OA 
ENDROOT
BRANCH   2   3
HETATM    3  C   UNL     1     -11.685  15.782  68.706  1.00  0.00    -0.378 C  
HETATM    4  C   UNL     1     -12.577  16.061  69.983  1.00  0.00     0.335 C  
HETATM    5  O   UNL     1      -9.643  14.599  69.826  1.00  0.00     0.147 OA 
HETATM    6  S   UNL     1     -13.903  14.897  70.461  1.00  0.00     0.589 SA 
HETATM    7  C   UNL     1     -10.644  15.283  69.811  1.00  0.00    -0.282 C  
HETATM    8  O   UNL     1     -11.785  16.946  73.112  1.00  0.00    -0.318 OA 
HETATM    9  O   UNL     1     -12.134  15.112  74.370  1.00  0.00    -0.609 OA 
HETATM   10  C   UNL     1     -11.903  15.604  73.273  1.00  0.00    -0.394 C  
HETATM   11  C   UNL     1     -12.847  13.873  71.569  1.00  0.00    -0.361 C  
HETATM   12  C   UNL     1     -13.715  13.322  72.705  1.00  0.00    -0.465 C  
HETATM   13  C   UNL     1     -12.362  12.669  70.738  1.00  0.00    -0.372 C  
HETATM   14  N   UNL     1     -11.425  15.712  70.852  1.00  0.00    -0.355 N  
HETATM   15  C   UNL     1     -11.676  14.796  71.986  1.00  0.00    -0.187 C  
BRANCH   3  16
HETATM   16  N   UNL     1     -12.020  14.656  67.777  1.00  0.00    -0.545 N  
HETATM   17  C   UNL     1     -10.777  11.929  66.125  1.00  0.00    -0.318 A  
HETATM   18  O   UNL     1     -10.341  14.976  66.247  1.00  0.00    -0.275 OA 
HETATM   19  C   UNL     1      -9.419  11.980  65.850  1.00  0.00    -0.197 A  
HETATM   20  O   UNL     1     -12.825  12.567  63.815  1.00  0.00    -0.721 OA 
HETATM   21  O   UNL     1     -11.391  14.295  63.845  1.00  0.00    -0.011 OA 
HETATM   22  C   UNL     1     -11.766  13.061  65.923  1.00  0.00    -0.442 C  
HETATM   23  H   UNL     1     -12.845  14.096  67.993  1.00  0.00     0.000 HD 
HETATM   24  C   UNL     1     -11.300  14.318  66.653  1.00  0.00    -0.349 C  
HETATM   25  S   UNL     1      -8.602  10.529  66.235  1.00  0.00    -0.152 SA 
HETATM   26  C   UNL     1     -12.051  13.280  64.447  1.00  0.00    -0.415 C  
HETATM   27  C   UNL     1     -10.052   9.784  66.739  1.00  0.00    -0.231 A  
HETATM   28  C   UNL     1     -11.134  10.629  66.623  1.00  0.00    -0.053 A  
ENDBRANCH   3  16
ENDBRANCH   2   3
TORSDOF 2
ENDMDL
MODEL       15
REMARK 921   NORMALIZED FREE ENERGY PREDICTED BY IDOCK:   -6.00 KCAL/MOL
REMARK 922        TOTAL FREE ENERGY PREDICTED BY IDOCK:   -7.19 KCAL/MOL
REMARK 923 INTER-LIGAND FREE ENERGY PREDICTED BY IDOCK:   -7.07 KCAL/MOL
REMARK 924 INTRA-LIGAND FREE ENERGY PREDICTED BY IDOCK:   -0.11 KCAL/MOL
REMARK 927      BINDING AFFINITY PREDICTED BY RF-SCORE:    0.00 PKD
ROOT
HETATM    1  C   UNL     1     -12.369  12.592  65.043  1.00  0.00    -0.497 C  
HETATM    2  O   UNL     1     -11.321  12.192  65.912  1.00  0.00    -0.330 OA 
ENDROOT
BRANCH   2   3
HETATM    3  C   UNL     1     -10.962  13.106  66.986  1.00  0.00    -0.269 C  
HETATM    4  C   UNL     1     -11.539  14.576  66.887  1.00  0.00    -0.385 C  
HETATM    5  O   UNL     1      -8.412  13.598  66.708  1.00  0.00    -0.117 OA 
HETATM    6  S   UNL     1     -11.873  15.544  68.402  1.00  0.00    -0.109 SA 
HETATM    7  C   UNL     1      -9.595  13.853  66.631  1.00  0.00    -0.289 C  
HETATM    8  O   UNL     1     -10.653  17.205  65.016  1.00  0.00    -0.704 OA 
HETATM    9  O   UNL     1      -9.655  18.648  66.428  1.00  0.00    -0.322 OA 
HETATM   10  C   UNL     1      -9.986  17.500  66.161  1.00  0.00    -0.270 C  
HETATM   11  C   UNL     1     -10.210  16.330  68.479  1.00  0.00    -0.247 C  
HETATM   12  C   UNL     1     -10.352  17.724  69.099  1.00  0.00    -0.157 C  
HETATM   13  C   UNL     1      -9.359  15.484  69.446  1.00  0.00    -0.279 C  
HETATM   14  N   UNL     1     -10.217  15.053  66.409  1.00  0.00    -0.267 N  
HETATM   15  C   UNL     1      -9.664  16.275  67.032  1.00  0.00    -0.239 C  
BRANCH   3  16
HETATM   16  N   UNL     1     -10.840  12.424  68.314  1.00  0.00    -0.226 N  
HETATM   17  C   UNL     1     -10.114   9.473  69.887  1.00  0.00    -0.262 A  
HETATM   18  O   UNL     1     -12.157  10.599  67.874  1.00  0.00    -0.269 OA 
HETATM   19  C   UNL     1     -10.346   8.335  69.131  1.00  0.00    -0.217 A  
HETATM   20  O   UNL     1     -12.212  10.292  72.092  1.00  0.00    -0.057 OA 
HETATM   21  O   UNL     1     -13.398  10.005  70.207  1.00  0.00    -0.019 OA 
HETATM   22  C   UNL     1     -11.050  10.660  70.013  1.00  0.00    -0.359 C  
HETATM   23  H   UNL     1     -10.294  12.895  69.036  1.00  0.00     0.000 HD 
HETATM   24  C   UNL     1     -11.406  11.212  68.635  1.00  0.00    -0.277 C  
HETATM   25  S   UNL     1      -9.055   7.215  69.192  1.00  0.00    -0.135 SA 
HETATM   26  C   UNL     1     -12.258  10.314  70.866  1.00  0.00    -0.365 C  
HETATM   27  C   UNL     1      -8.175   8.207  70.265  1.00  0.00    -0.122 A  
HETATM   28  C   UNL     1      -8.848   9.372  70.561  1.00  0.00    -0.287 A  
ENDBRANCH   3  16
ENDBRANCH   2   3
TORSDOF 2
ENDMDL
MODEL       16
REMARK 921   NORMALIZED FREE ENERGY PREDICTED BY IDOCK:   -5.99 KCAL/MOL
REMARK 922        TOTAL FREE ENERGY PREDICTED BY IDOCK:   -7.17 KCAL/MOL
REMARK 923 INTER-LIGAND FREE ENERGY PREDICTED BY IDOCK:   -6.52 KCAL/MOL
REMARK 924 INTRA-LIGAND FREE ENERGY PREDICTED BY IDOCK:   -0.65 KCAL/MOL
REMARK 927      BINDING AFFINITY PREDICTED BY RF-SCORE:    0.00 PKD
ROOT
HETATM    1  C   UNL     1     -13.278   9.836  71.770  1.00  0.00    -0.436 C  
HETATM    2  O   UNL     1     -11.929  10.263  71.669  1.00  0.00    -0.332 OA 
ENDROOT
BRANCH   2   3
HETATM    3  C   UNL     1     -10.997   9.370  70.997  1.00  0.00    -0.338 C  
HETATM    4  C   UNL     1     -11.491   7.887  70.747  1.00  0.00    -0.263 C  
HETATM    5  O   UNL     1      -9.058   8.925  72.689  1.00  0.00    -0.321 OA 
HETATM    6  S   UNL     1     -10.872   6.933  69.316  1.00  0.00    -0.221 SA 
HETATM    7  C   UNL     1     -10.064   8.646  72.073  1.00  0.00    -0.331 C  
HETATM    8  O   UNL     1     -11.778   5.253  72.790  1.00  0.00    -0.275 OA 
HETATM    9  O   UNL     1     -10.117   3.849  72.209  1.00  0.00    -0.164 OA 
HETATM   10  C   UNL     1     -10.568   4.986  72.236  1.00  0.00    -0.206 C  
HETATM   11  C   UNL     1      -9.448   6.181  70.209  1.00  0.00    -0.160 C  
HETATM   12  C   UNL     1      -9.176   4.792  69.620  1.00  0.00    -0.180 C  
HETATM   13  C   UNL     1      -8.217   7.056  69.905  1.00  0.00    -0.130 C  
HETATM   14  N   UNL     1     -10.673   7.431  71.899  1.00  0.00    -0.213 N  
HETATM   15  C   UNL     1      -9.834   6.228  71.707  1.00  0.00    -0.163 C  
BRANCH   3  16
HETATM   16  N   UNL     1     -10.151  10.071  69.979  1.00  0.00    -0.315 N  
HETATM   17  C   UNL     1      -9.872  12.859  68.015  1.00  0.00    -0.223 A  
HETATM   18  O   UNL     1     -11.777  10.470  68.411  1.00  0.00    -0.365 OA 
HETATM   19  C   UNL     1     -11.074  13.464  67.683  1.00  0.00    -0.265 A  
HETATM   20  O   UNL     1      -8.439  11.040  65.875  1.00  0.00    -0.167 OA 
HETATM   21  O   UNL     1     -10.546  10.274  66.006  1.00  0.00    -0.157 OA 
HETATM   22  C   UNL     1      -9.586  11.370  67.970  1.00  0.00    -0.184 C  
HETATM   23  H   UNL     1      -9.154  10.163  70.178  1.00  0.00     0.000 HD 
HETATM   24  C   UNL     1     -10.613  10.600  68.796  1.00  0.00    -0.206 C  
HETATM   25  S   UNL     1     -11.050  15.161  67.887  1.00  0.00    -0.331 SA 
HETATM   26  C   UNL     1      -9.461  10.881  66.537  1.00  0.00    -0.185 C  
HETATM   27  C   UNL     1      -9.417  15.131  68.383  1.00  0.00    -0.208 A  
HETATM   28  C   UNL     1      -8.906  13.852  68.401  1.00  0.00    -0.177 A  
ENDBRANCH   3  16
ENDBRANCH   2   3
TORSDOF 2
ENDMDL
MODEL       17
REMARK 921   NORMALIZED FREE ENERGY PREDICTED BY IDOCK:   -5.95 KCAL/MOL
REMARK 922        TOTAL FREE ENERGY PREDICTED BY IDOCK:   -7.13 KCAL/MOL
REMARK 923 INTER-LIGAND FREE ENERGY PREDICTED BY IDOCK:   -6.57 KCAL/MOL
REMARK 924 INTRA-LIGAND FREE ENERGY PREDICTED BY IDOCK:   -0.56 KCAL/MOL
REMARK 927      BINDING AFFINITY PREDICTED BY RF-SCORE:    0.00 PKD
ROOT
HETATM    1  C   UNL     1     -10.645  18.885  66.050  1.00  0.00    -0.403 C  
HETATM    2  O   UNL     1      -9.988  17.712  65.595  1.00  0.00    -0.558 OA 
ENDROOT
BRANCH   2   3
HETATM    3  C   UNL     1      -8.954  17.153  66.454  1.00  0.00    -0.260 C  
HETATM    4  C   UNL     1      -8.698  17.894  67.828  1.00  0.00    -0.250 C  
HETATM    5  O   UNL     1      -6.679  17.615  65.256  1.00  0.00    -0.125 OA 
HETATM    6  S   UNL     1      -8.094  16.966  69.282  1.00  0.00     0.179 SA 
HETATM    7  C   UNL     1      -7.539  17.799  66.091  1.00  0.00    -0.267 C  
HETATM    8  O   UNL     1      -7.092  20.735  68.571  1.00  0.00    -0.044 OA 
HETATM    9  O   UNL     1      -5.177  20.106  69.575  1.00  0.00    -0.196 OA 
HETATM   10  C   UNL     1      -6.106  19.838  68.824  1.00  0.00    -0.252 C  
HETATM   11  C   UNL     1      -6.306  17.241  68.937  1.00  0.00    -0.199 C  
HETATM   12  C   UNL     1      -5.551  17.304  70.269  1.00  0.00    -0.227 C  
HETATM   13  C   UNL     1      -5.799  15.998  68.181  1.00  0.00    -0.118 C  
HETATM   14  N   UNL     1      -7.489  18.532  67.248  1.00  0.00    -0.217 N  
HETATM   15  C   UNL     1      -6.251  18.513  68.057  1.00  0.00    -0.193 C  
BRANCH   3  16
HETATM   16  N   UNL     1      -8.870  15.660  66.367  1.00  0.00    -0.309 N  
HETATM   17  C   UNL     1     -10.527  12.813  65.440  1.00  0.00    -0.305 A  
HETATM   18  O   UNL     1     -10.843  15.152  67.421  1.00  0.00    -0.288 OA 
HETATM   19  C   UNL     1     -11.910  12.904  65.473  1.00  0.00    -0.411 A  
HETATM   20  O   UNL     1      -9.040  11.345  67.800  1.00  0.00    -0.151 OA 
HETATM   21  O   UNL     1     -10.383  12.855  68.779  1.00  0.00    -0.216 OA 
HETATM   22  C   UNL     1      -9.580  13.311  66.515  1.00  0.00    -0.267 C  
HETATM   23  H   UNL     1      -8.032  15.260  65.943  1.00  0.00     0.000 HD 
HETATM   24  C   UNL     1      -9.834  14.787  66.814  1.00  0.00    -0.255 C  
HETATM   25  S   UNL     1     -12.657  12.272  64.072  1.00  0.00    -0.353 SA 
HETATM   26  C   UNL     1      -9.630  12.419  67.744  1.00  0.00    -0.202 C  
HETATM   27  C   UNL     1     -11.151  11.823  63.407  1.00  0.00    -0.365 A  
HETATM   28  C   UNL     1     -10.101  12.158  64.234  1.00  0.00    -0.317 A  
ENDBRANCH   3  16
ENDBRANCH   2   3
TORSDOF 2
ENDMDL
MODEL       18
REMARK 921   NORMALIZED FREE ENERGY PREDICTED BY IDOCK:   -5.91 KCAL/MOL
REMARK 922        TOTAL FREE ENERGY PREDICTED BY IDOCK:   -7.08 KCAL/MOL
REMARK 923 INTER-LIGAND FREE ENERGY PREDICTED BY IDOCK:   -6.70 KCAL/MOL
REMARK 924 INTRA-LIGAND FREE ENERGY PREDICTED BY IDOCK:   -0.38 KCAL/MOL
REMARK 927      BINDING AFFINITY PREDICTED BY RF-SCORE:    0.00 PKD
ROOT
HETATM    1  C   UNL     1     -13.251  10.560  71.711  1.00  0.00    -0.417 C  
HETATM    2  O   UNL     1     -11.843  10.387  71.675  1.00  0.00    -0.249 OA 
ENDROOT
BRANCH   2   3
HETATM    3  C   UNL     1     -11.324   9.337  70.811  1.00  0.00    -0.287 C  
HETATM    4  C   UNL     1     -11.482   7.850  71.330  1.00  0.00    -0.265 C  
HETATM    5  O   UNL     1      -8.722   9.563  70.865  1.00  0.00    -0.243 OA 
HETATM    6  S   UNL     1     -11.643   6.468  70.144  1.00  0.00    -0.328 SA 
HETATM    7  C   UNL     1      -9.787   9.061  71.153  1.00  0.00    -0.300 C  
HETATM    8  O   UNL     1      -9.811   6.099  73.640  1.00  0.00    -0.161 OA 
HETATM    9  O   UNL     1      -8.558   4.620  72.494  1.00  0.00    -0.113 OA 
HETATM   10  C   UNL     1      -9.165   5.683  72.522  1.00  0.00    -0.142 C  
HETATM   11  C   UNL     1      -9.840   6.113  70.041  1.00  0.00    -0.170 C  
HETATM   12  C   UNL     1      -9.646   4.613  69.794  1.00  0.00    -0.258 C  
HETATM   13  C   UNL     1      -9.308   6.854  68.799  1.00  0.00    -0.129 C  
HETATM   14  N   UNL     1     -10.053   7.849  71.732  1.00  0.00    -0.178 N  
HETATM   15  C   UNL     1      -9.237   6.676  71.351  1.00  0.00    -0.151 C  
BRANCH   3  16
HETATM   16  N   UNL     1     -11.472   9.654  69.355  1.00  0.00    -0.447 N  
HETATM   17  C   UNL     1      -9.801  10.505  66.492  1.00  0.00    -0.255 A  
HETATM   18  O   UNL     1     -10.294  11.622  69.321  1.00  0.00    -0.091 OA 
HETATM   19  C   UNL     1      -8.601  11.170  66.691  1.00  0.00    -0.165 A  
HETATM   20  O   UNL     1     -12.347  12.168  65.664  1.00  0.00    -0.560 OA 
HETATM   21  O   UNL     1     -11.526  13.189  67.488  1.00  0.00    -0.291 OA 
HETATM   22  C   UNL     1     -11.106  10.796  67.209  1.00  0.00    -0.339 C  
HETATM   23  H   UNL     1     -12.032   9.016  68.788  1.00  0.00     0.000 HD 
HETATM   24  C   UNL     1     -10.912  10.741  68.722  1.00  0.00    -0.247 C  
HETATM   25  S   UNL     1      -7.325  10.551  65.737  1.00  0.00    -0.110 SA 
HETATM   26  C   UNL     1     -11.720  12.095  66.716  1.00  0.00    -0.305 C  
HETATM   27  C   UNL     1      -8.357   9.406  65.005  1.00  0.00    -0.150 A  
HETATM   28  C   UNL     1      -9.645   9.490  65.486  1.00  0.00    -0.349 A  
ENDBRANCH   3  16
ENDBRANCH   2   3
TORSDOF 2
ENDMDL
MODEL       19
REMARK 921   NORMALIZED FREE ENERGY PREDICTED BY IDOCK:   -5.90 KCAL/MOL
REMARK 922        TOTAL FREE ENERGY PREDICTED BY IDOCK:   -7.07 KCAL/MOL
REMARK 923 INTER-LIGAND FREE ENERGY PREDICTED BY IDOCK:   -6.61 KCAL/MOL
REMARK 924 INTRA-LIGAND FREE ENERGY PREDICTED BY IDOCK:   -0.46 KCAL/MOL
REMARK 927      BINDING AFFINITY PREDICTED BY RF-SCORE:    0.00 PKD
ROOT
HETATM    1  C   UNL     1     -12.745  10.877  70.766  1.00  0.00    -0.340 C  
HETATM    2  O   UNL     1     -12.475  10.693  69.385  1.00  0.00    -0.297 OA 
ENDROOT
BRANCH   2   3
HETATM    3  C   UNL     1     -11.398  11.483  68.807  1.00  0.00    -0.265 C  
HETATM    4  C   UNL     1     -11.761  12.956  68.358  1.00  0.00    -0.345 C  
HETATM    5  O   UNL     1     -10.871  10.414  66.483  1.00  0.00    -0.147 OA 
HETATM    6  S   UNL     1     -10.493  14.272  68.383  1.00  0.00    -0.254 SA 
HETATM    7  C   UNL     1     -11.338  11.249  67.228  1.00  0.00    -0.255 C  
HETATM    8  O   UNL     1     -13.399  14.139  65.691  1.00  0.00    -0.602 OA 
HETATM    9  O   UNL     1     -11.827  15.082  64.382  1.00  0.00    -0.413 OA 
HETATM   10  C   UNL     1     -12.120  14.280  65.259  1.00  0.00    -0.400 C  
HETATM   11  C   UNL     1      -9.932  14.009  66.650  1.00  0.00    -0.278 C  
HETATM   12  C   UNL     1      -9.472  15.352  66.072  1.00  0.00    -0.381 C  
HETATM   13  C   UNL     1      -8.695  13.091  66.713  1.00  0.00    -0.105 C  
HETATM   14  N   UNL     1     -11.817  12.501  66.946  1.00  0.00    -0.377 N  
HETATM   15  C   UNL     1     -11.122  13.326  65.934  1.00  0.00    -0.285 C  
BRANCH   3  16
HETATM   16  N   UNL     1     -10.063  11.181  69.418  1.00  0.00    -0.428 N  
HETATM   17  C   UNL     1      -7.089   9.548  68.973  1.00  0.00    -0.066 A  
HETATM   18  O   UNL     1     -10.094   8.900  69.176  1.00  0.00    -0.185 OA 
HETATM   19  C   UNL     1      -7.146   8.447  68.133  1.00  0.00    -0.085 A  
HETATM   20  O   UNL     1      -7.035   9.086  72.091  1.00  0.00    -0.305 OA 
HETATM   21  O   UNL     1      -8.794   7.911  71.336  1.00  0.00    -0.128 OA 
HETATM   22  C   UNL     1      -8.083   9.879  70.070  1.00  0.00    -0.193 C  
HETATM   23  H   UNL     1      -9.528  11.965  69.792  1.00  0.00     0.000 HD 
HETATM   24  C   UNL     1      -9.503   9.928  69.512  1.00  0.00    -0.223 C  
HETATM   25  S   UNL     1      -5.878   8.412  66.987  1.00  0.00    -0.043 SA 
HETATM   26  C   UNL     1      -7.921   8.941  71.254  1.00  0.00    -0.129 C  
HETATM   27  C   UNL     1      -5.200   9.846  67.615  1.00  0.00    -0.035 A  
HETATM   28  C   UNL     1      -5.931  10.344  68.670  1.00  0.00    -0.040 A  
ENDBRANCH   3  16
ENDBRANCH   2   3
TORSDOF 2
ENDMDL
MODEL       20
REMARK 921   NORMALIZED FREE ENERGY PREDICTED BY IDOCK:   -5.86 KCAL/MOL
REMARK 922        TOTAL FREE ENERGY PREDICTED BY IDOCK:   -7.03 KCAL/MOL
REMARK 923 INTER-LIGAND FREE ENERGY PREDICTED BY IDOCK:   -6.41 KCAL/MOL
REMARK 924 INTRA-LIGAND FREE ENERGY PREDICTED BY IDOCK:   -0.63 KCAL/MOL
REMARK 927      BINDING AFFINITY PREDICTED BY RF-SCORE:    0.00 PKD
ROOT
HETATM    1  C   UNL     1      -5.693  13.171  68.222  1.00  0.00    -0.088 C  
HETATM    2  O   UNL     1      -6.331  13.971  67.239  1.00  0.00    -0.295 OA 
ENDROOT
BRANCH   2   3
HETATM    3  C   UNL     1      -7.561  14.645  67.626  1.00  0.00    -0.180 C  
HETATM    4  C   UNL     1      -8.032  15.843  66.707  1.00  0.00    -0.252 C  
HETATM    5  O   UNL     1      -7.024  15.943  69.828  1.00  0.00    -0.175 OA 
HETATM    6  S   UNL     1      -9.808  16.243  66.543  1.00  0.00    -0.289 SA 
HETATM    7  C   UNL     1      -7.233  15.837  68.638  1.00  0.00    -0.135 C  
HETATM    8  O   UNL     1      -6.965  19.004  66.433  1.00  0.00    -0.204 OA 
HETATM    9  O   UNL     1      -8.569  20.271  67.377  1.00  0.00    -0.337 OA 
HETATM   10  C   UNL     1      -8.014  19.185  67.275  1.00  0.00    -0.255 C  
HETATM   11  C   UNL     1      -9.846  17.451  67.932  1.00  0.00    -0.287 C  
HETATM   12  C   UNL     1     -10.889  18.529  67.619  1.00  0.00    -0.319 C  
HETATM   13  C   UNL     1     -10.336  16.686  69.177  1.00  0.00    -0.326 C  
HETATM   14  N   UNL     1      -7.511  16.805  67.710  1.00  0.00    -0.159 N  
HETATM   15  C   UNL     1      -8.385  17.936  68.091  1.00  0.00    -0.267 C  
BRANCH   3  16
HETATM   16  N   UNL     1      -8.564  13.717  68.240  1.00  0.00    -0.171 N  
HETATM   17  C   UNL     1      -9.512  10.446  68.573  1.00  0.00    -0.159 A  
HETATM   18  O   UNL     1      -9.135  12.547  66.351  1.00  0.00    -0.208 OA 
HETATM   19  C   UNL     1      -9.126   9.616  67.533  1.00  0.00    -0.130 A  
HETATM   20  O   UNL     1     -12.493  11.465  68.685  1.00  0.00    -0.396 OA 
HETATM   21  O   UNL     1     -11.764  11.954  66.617  1.00  0.00    -0.546 OA 
HETATM   22  C   UNL     1     -10.124  11.826  68.426  1.00  0.00    -0.201 C  
HETATM   23  H   UNL     1      -8.767  13.833  69.233  1.00  0.00     0.000 HD 
HETATM   24  C   UNL     1      -9.233  12.720  67.567  1.00  0.00    -0.191 C  
HETATM   25  S   UNL     1      -8.438   8.145  68.068  1.00  0.00    -0.133 SA 
HETATM   26  C   UNL     1     -11.559  11.738  67.936  1.00  0.00    -0.307 C  
HETATM   27  C   UNL     1      -8.680   8.566  69.704  1.00  0.00    -0.133 A  
HETATM   28  C   UNL     1      -9.264   9.807  69.837  1.00  0.00    -0.263 A  
ENDBRANCH   3  16
ENDBRANCH   2   3
TORSDOF 2
ENDMDL
MODEL       21
REMARK 921   NORMALIZED FREE ENERGY PREDICTED BY IDOCK:   -5.84 KCAL/MOL
REMARK 922        TOTAL FREE ENERGY PREDICTED BY IDOCK:   -7.00 KCAL/MOL
REMARK 923 INTER-LIGAND FREE ENERGY PREDICTED BY IDOCK:   -6.59 KCAL/MOL
REMARK 924 INTRA-LIGAND FREE ENERGY PREDICTED BY IDOCK:   -0.41 KCAL/MOL
REMARK 927      BINDING AFFINITY PREDICTED BY RF-SCORE:    0.00 PKD
ROOT
HETATM    1  C   UNL     1     -12.268  10.117  70.965  1.00  0.00    -0.374 C  
HETATM    2  O   UNL     1     -11.168  10.813  70.402  1.00  0.00    -0.292 OA 
ENDROOT
BRANCH   2   3
HETATM    3  C   UNL     1     -10.404  10.127  69.371  1.00  0.00    -0.232 C  
HETATM    4  C   UNL     1     -10.722   8.592  69.157  1.00  0.00    -0.110 C  
HETATM    5  O   UNL     1      -7.953   9.965  70.260  1.00  0.00    -0.182 OA 
HETATM    6  S   UNL     1     -10.502   7.820  67.515  1.00  0.00    -0.258 SA 
HETATM    7  C   UNL     1      -9.056   9.537  69.994  1.00  0.00    -0.227 C  
HETATM    8  O   UNL     1      -9.874   5.869  70.908  1.00  0.00    -0.172 OA 
HETATM    9  O   UNL     1      -8.326   4.805  69.666  1.00  0.00    -0.077 OA 
HETATM   10  C   UNL     1      -8.907   5.843  69.955  1.00  0.00    -0.137 C  
HETATM   11  C   UNL     1      -8.759   7.297  67.798  1.00  0.00    -0.126 C  
HETATM   12  C   UNL     1      -8.501   6.003  67.018  1.00  0.00    -0.108 C  
HETATM   13  C   UNL     1      -7.860   8.388  67.185  1.00  0.00    -0.100 C  
HETATM   14  N   UNL     1      -9.494   8.242  69.915  1.00  0.00    -0.166 N  
HETATM   15  C   UNL     1      -8.602   7.215  69.335  1.00  0.00    -0.134 C  
BRANCH   3  16
HETATM   16  N   UNL     1     -10.082  11.007  68.202  1.00  0.00    -0.174 N  
HETATM   17  C   UNL     1     -10.250  14.196  66.972  1.00  0.00    -0.260 A  
HETATM   18  O   UNL     1     -12.148  11.966  67.928  1.00  0.00    -0.558 OA 
HETATM   19  C   UNL     1     -11.274  14.971  67.493  1.00  0.00    -0.330 A  
HETATM   20  O   UNL     1     -10.604  12.926  64.109  1.00  0.00    -0.389 OA 
HETATM   21  O   UNL     1     -12.440  12.339  65.262  1.00  0.00    -0.585 OA 
HETATM   22  C   UNL     1     -10.376  12.759  66.503  1.00  0.00    -0.262 C  
HETATM   23  H   UNL     1      -9.138  10.954  67.818  1.00  0.00     0.000 HD 
HETATM   24  C   UNL     1     -10.962  11.882  67.607  1.00  0.00    -0.235 C  
HETATM   25  S   UNL     1     -10.764  16.536  67.954  1.00  0.00    -0.320 SA 
HETATM   26  C   UNL     1     -11.133  12.678  65.189  1.00  0.00    -0.294 C  
HETATM   27  C   UNL     1      -9.170  16.228  67.429  1.00  0.00    -0.211 A  
HETATM   28  C   UNL     1      -9.030  14.955  66.921  1.00  0.00    -0.277 A  
ENDBRANCH   3  16
ENDBRANCH   2   3
TORSDOF 2
ENDMDL
MODEL       22
REMARK 921   NORMALIZED FREE ENERGY PREDICTED BY IDOCK:   -5.82 KCAL/MOL
REMARK 922        TOTAL FREE ENERGY PREDICTED BY IDOCK:   -6.98 KCAL/MOL
REMARK 923 INTER-LIGAND FREE ENERGY PREDICTED BY IDOCK:   -6.33 KCAL/MOL
REMARK 924 INTRA-LIGAND FREE ENERGY PREDICTED BY IDOCK:   -0.65 KCAL/MOL
REMARK 927      BINDING AFFINITY PREDICTED BY RF-SCORE:    0.00 PKD
ROOT
HETATM    1  C   UNL     1     -10.213  11.296  64.853  1.00  0.00    -0.286 C  
HETATM    2  O   UNL     1      -9.265  11.512  65.887  1.00  0.00    -0.219 OA 
ENDROOT
BRANCH   2   3
HETATM    3  C   UNL     1      -9.675  12.358  66.998  1.00  0.00    -0.211 C  
HETATM    4  C   UNL     1     -10.707  13.511  66.668  1.00  0.00    -0.282 C  
HETATM    5  O   UNL     1      -7.585  13.786  67.641  1.00  0.00    -0.151 OA 
HETATM    6  S   UNL     1     -11.881  14.097  67.941  1.00  0.00    -0.355 SA 
HETATM    7  C   UNL     1      -8.672  13.593  67.140  1.00  0.00    -0.216 C  
HETATM    8  O   UNL     1     -10.334  16.486  65.182  1.00  0.00    -0.618 OA 
HETATM    9  O   UNL     1     -10.515  18.014  66.826  1.00  0.00    -0.354 OA 
HETATM   10  C   UNL     1     -10.264  16.866  66.483  1.00  0.00    -0.318 C  
HETATM   11  C   UNL     1     -10.785  15.426  68.592  1.00  0.00    -0.246 C  
HETATM   12  C   UNL     1     -11.658  16.583  69.089  1.00  0.00     0.012 C  
HETATM   13  C   UNL     1     -10.055  14.844  69.817  1.00  0.00    -0.023 C  
HETATM   14  N   UNL     1      -9.596  14.496  66.684  1.00  0.00    -0.264 N  
HETATM   15  C   UNL     1      -9.807  15.751  67.437  1.00  0.00    -0.233 C  
BRANCH   3  16
HETATM   16  N   UNL     1      -9.755  11.615  68.296  1.00  0.00    -0.192 N  
HETATM   17  C   UNL     1     -10.027   8.523  69.738  1.00  0.00    -0.191 A  
HETATM   18  O   UNL     1     -11.623  10.361  67.849  1.00  0.00    -0.406 OA 
HETATM   19  C   UNL     1     -10.650   7.565  68.954  1.00  0.00    -0.169 A  
HETATM   20  O   UNL     1     -11.665   9.899  72.054  1.00  0.00    -0.117 OA 
HETATM   21  O   UNL     1     -12.928  10.114  70.209  1.00  0.00    -0.172 OA 
HETATM   22  C   UNL     1     -10.503   9.949  69.942  1.00  0.00    -0.309 C  
HETATM   23  H   UNL     1      -9.063  11.841  69.011  1.00  0.00     0.000 HD 
HETATM   24  C   UNL     1     -10.689  10.651  68.599  1.00  0.00    -0.207 C  
HETATM   25  S   UNL     1      -9.814   6.074  68.925  1.00  0.00    -0.148 SA 
HETATM   26  C   UNL     1     -11.734   9.991  70.832  1.00  0.00    -0.374 C  
HETATM   27  C   UNL     1      -8.621   6.663  69.994  1.00  0.00    -0.140 A  
HETATM   28  C   UNL     1      -8.853   7.971  70.357  1.00  0.00    -0.141 A  
ENDBRANCH   3  16
ENDBRANCH   2   3
TORSDOF 2
ENDMDL
MODEL       23
REMARK 921   NORMALIZED FREE ENERGY PREDICTED BY IDOCK:   -5.81 KCAL/MOL
REMARK 922        TOTAL FREE ENERGY PREDICTED BY IDOCK:   -6.97 KCAL/MOL
REMARK 923 INTER-LIGAND FREE ENERGY PREDICTED BY IDOCK:   -6.88 KCAL/MOL
REMARK 924 INTRA-LIGAND FREE ENERGY PREDICTED BY IDOCK:   -0.08 KCAL/MOL
REMARK 927      BINDING AFFINITY PREDICTED BY RF-SCORE:    0.00 PKD
ROOT
HETATM    1  C   UNL     1     -10.302   7.431  67.082  1.00  0.00    -0.307 C  
HETATM    2  O   UNL     1     -10.761   8.765  66.930  1.00  0.00    -0.240 OA 
ENDROOT
BRANCH   2   3
HETATM    3  C   UNL     1      -9.793   9.830  67.147  1.00  0.00    -0.188 C  
HETATM    4  C   UNL     1      -8.334   9.386  67.570  1.00  0.00    -0.122 C  
HETATM    5  O   UNL     1     -10.542  11.068  69.322  1.00  0.00    -0.219 OA 
HETATM    6  S   UNL     1      -6.888  10.409  67.120  1.00  0.00    -0.086 SA 
HETATM    7  C   UNL     1      -9.851  10.316  68.668  1.00  0.00    -0.173 C  
HETATM    8  O   UNL     1      -7.079   8.320  70.483  1.00  0.00    -0.037 OA 
HETATM    9  O   UNL     1      -5.826  10.019  71.264  1.00  0.00    -0.169 OA 
HETATM   10  C   UNL     1      -6.744   9.633  70.553  1.00  0.00    -0.119 C  
HETATM   11  C   UNL     1      -6.899  11.418  68.661  1.00  0.00    -0.078 C  
HETATM   12  C   UNL     1      -5.458  11.813  69.001  1.00  0.00    -0.050 C  
HETATM   13  C   UNL     1      -7.666  12.716  68.340  1.00  0.00    -0.133 C  
HETATM   14  N   UNL     1      -8.642   9.751  68.976  1.00  0.00    -0.137 N  
HETATM   15  C   UNL     1      -7.640  10.554  69.709  1.00  0.00    -0.092 C  
BRANCH   3  16
HETATM   16  N   UNL     1      -9.998  10.998  66.231  1.00  0.00    -0.217 N  
HETATM   17  C   UNL     1     -10.797  14.321  66.072  1.00  0.00    -0.303 A  
HETATM   18  O   UNL     1     -12.055  11.665  66.996  1.00  0.00    -0.547 OA 
HETATM   19  C   UNL     1     -11.578  14.786  67.119  1.00  0.00    -0.359 A  
HETATM   20  O   UNL     1     -12.169  13.717  63.299  1.00  0.00    -0.637 OA 
HETATM   21  O   UNL     1     -13.379  12.602  64.828  1.00  0.00    -0.787 OA 
HETATM   22  C   UNL     1     -11.020  13.032  65.304  1.00  0.00    -0.307 C  
HETATM   23  H   UNL     1      -9.276  11.181  65.534  1.00  0.00     0.000 HD 
HETATM   24  C   UNL     1     -11.084  11.842  66.259  1.00  0.00    -0.314 C  
HETATM   25  S   UNL     1     -11.011  16.259  67.775  1.00  0.00    -0.231 SA 
HETATM   26  C   UNL     1     -12.223  13.146  64.384  1.00  0.00    -0.398 C  
HETATM   27  C   UNL     1      -9.733  16.331  66.647  1.00  0.00    -0.250 A  
HETATM   28  C   UNL     1      -9.735  15.249  65.795  1.00  0.00    -0.385 A  
ENDBRANCH   3  16
ENDBRANCH   2   3
TORSDOF 2
ENDMDL
MODEL       24
REMARK 921   NORMALIZED FREE ENERGY PREDICTED BY IDOCK:   -5.72 KCAL/MOL
REMARK 922        TOTAL FREE ENERGY PREDICTED BY IDOCK:   -6.87 KCAL/MOL
REMARK 923 INTER-LIGAND FREE ENERGY PREDICTED BY IDOCK:   -6.66 KCAL/MOL
REMARK 924 INTRA-LIGAND FREE ENERGY PREDICTED BY IDOCK:   -0.21 KCAL/MOL
REMARK 927      BINDING AFFINITY PREDICTED BY RF-SCORE:    0.00 PKD
ROOT
HETATM    1  C   UNL     1      -6.611  13.566  68.134  1.00  0.00    -0.121 C  
HETATM    2  O   UNL     1      -6.903  14.423  67.041  1.00  0.00    -0.073 OA 
ENDROOT
BRANCH   2   3
HETATM    3  C   UNL     1      -7.835  15.514  67.282  1.00  0.00    -0.204 C  
HETATM    4  C   UNL     1      -7.458  16.919  66.660  1.00  0.00    -0.268 C  
HETATM    5  O   UNL     1      -7.659  16.080  69.826  1.00  0.00    -0.077 OA 
HETATM    6  S   UNL     1      -8.766  18.100  66.175  1.00  0.00     0.004 SA 
HETATM    7  C   UNL     1      -7.459  16.260  68.644  1.00  0.00    -0.185 C  
HETATM    8  O   UNL     1      -5.248  19.254  67.590  1.00  0.00    -0.169 OA 
HETATM    9  O   UNL     1      -6.471  20.952  68.423  1.00  0.00    -0.293 OA 
HETATM   10  C   UNL     1      -6.373  19.761  68.155  1.00  0.00    -0.242 C  
HETATM   11  C   UNL     1      -8.830  18.968  67.798  1.00  0.00    -0.294 C  
HETATM   12  C   UNL     1      -9.202  20.435  67.556  1.00  0.00    -0.475 C  
HETATM   13  C   UNL     1      -9.979  18.331  68.602  1.00  0.00    -0.410 C  
HETATM   14  N   UNL     1      -7.001  17.377  67.996  1.00  0.00    -0.182 N  
HETATM   15  C   UNL     1      -7.453  18.709  68.454  1.00  0.00    -0.297 C  
BRANCH   3  16
HETATM   16  N   UNL     1      -9.262  15.061  67.327  1.00  0.00    -0.195 N  
HETATM   17  C   UNL     1     -11.329  12.337  67.478  1.00  0.00    -0.388 A  
HETATM   18  O   UNL     1      -9.180  13.531  65.620  1.00  0.00     0.160 OA 
HETATM   19  C   UNL     1     -10.794  11.168  66.961  1.00  0.00    -0.284 A  
HETATM   20  O   UNL     1     -13.385  13.974  65.737  1.00  0.00    -0.543 OA 
HETATM   21  O   UNL     1     -11.602  13.641  64.413  1.00  0.00    -0.369 OA 
HETATM   22  C   UNL     1     -11.254  13.708  66.832  1.00  0.00    -0.326 C  
HETATM   23  H   UNL     1      -9.879  15.514  68.002  1.00  0.00     0.000 HD 
HETATM   24  C   UNL     1      -9.805  14.081  66.528  1.00  0.00    -0.290 C  
HETATM   25  S   UNL     1     -11.035   9.814  67.977  1.00  0.00    -0.106 SA 
HETATM   26  C   UNL     1     -12.176  13.795  65.628  1.00  0.00    -0.454 C  
HETATM   27  C   UNL     1     -11.897  10.753  69.112  1.00  0.00    -0.275 A  
HETATM   28  C   UNL     1     -11.990  12.072  68.727  1.00  0.00    -0.299 A  
ENDBRANCH   3  16
ENDBRANCH   2   3
TORSDOF 2
ENDMDL
MODEL       25
REMARK 921   NORMALIZED FREE ENERGY PREDICTED BY IDOCK:   -5.71 KCAL/MOL
REMARK 922        TOTAL FREE ENERGY PREDICTED BY IDOCK:   -6.86 KCAL/MOL
REMARK 923 INTER-LIGAND FREE ENERGY PREDICTED BY IDOCK:   -6.19 KCAL/MOL
REMARK 924 INTRA-LIGAND FREE ENERGY PREDICTED BY IDOCK:   -0.67 KCAL/MOL
REMARK 927      BINDING AFFINITY PREDICTED BY RF-SCORE:    0.00 PKD
ROOT
HETATM    1  C   UNL     1     -10.603   5.511  66.616  1.00  0.00    -0.299 C  
HETATM    2  O   UNL     1     -11.358   6.420  67.402  1.00  0.00    -0.283 OA 
ENDROOT
BRANCH   2   3
HETATM    3  C   UNL     1     -10.715   6.966  68.588  1.00  0.00    -0.216 C  
HETATM    4  C   UNL     1      -9.608   6.066  69.271  1.00  0.00    -0.136 C  
HETATM    5  O   UNL     1     -12.528   6.964  70.469  1.00  0.00    -0.270 OA 
HETATM    6  S   UNL     1      -8.222   6.835  70.184  1.00  0.00    -0.135 SA 
HETATM    7  C   UNL     1     -11.543   6.556  69.892  1.00  0.00    -0.368 C  
HETATM    8  O   UNL     1      -9.820   3.361  71.230  1.00  0.00    -0.181 OA 
HETATM    9  O   UNL     1      -9.257   4.060  73.295  1.00  0.00    -0.105 OA 
HETATM   10  C   UNL     1      -9.680   4.323  72.177  1.00  0.00    -0.160 C  
HETATM   11  C   UNL     1      -9.066   6.831  71.820  1.00  0.00    -0.140 C  
HETATM   12  C   UNL     1      -8.009   6.663  72.918  1.00  0.00    -0.103 C  
HETATM   13  C   UNL     1      -9.697   8.224  72.002  1.00  0.00    -0.322 C  
HETATM   14  N   UNL     1     -10.586   5.672  70.316  1.00  0.00    -0.290 N  
HETATM   15  C   UNL     1     -10.138   5.719  71.725  1.00  0.00    -0.187 C  
BRANCH   3  16
HETATM   16  N   UNL     1     -10.558   8.455  68.533  1.00  0.00    -0.377 N  
HETATM   17  C   UNL     1     -10.508  11.187  66.473  1.00  0.00    -0.305 A  
HETATM   18  O   UNL     1      -8.955   8.560  66.895  1.00  0.00    -0.135 OA 
HETATM   19  C   UNL     1     -10.133  10.927  65.164  1.00  0.00    -0.292 A  
HETATM   20  O   UNL     1      -8.397  12.458  68.439  1.00  0.00    -0.167 OA 
HETATM   21  O   UNL     1      -7.382  10.669  67.537  1.00  0.00    -0.089 OA 
HETATM   22  C   UNL     1      -9.821  10.653  67.715  1.00  0.00    -0.187 C  
HETATM   23  H   UNL     1     -11.108   9.011  69.188  1.00  0.00     0.000 HD 
HETATM   24  C   UNL     1      -9.729   9.130  67.666  1.00  0.00    -0.159 C  
HETATM   25  S   UNL     1     -11.159  11.665  64.013  1.00  0.00    -0.376 SA 
HETATM   26  C   UNL     1      -8.485  11.341  67.939  1.00  0.00    -0.133 C  
HETATM   27  C   UNL     1     -12.103  12.386  65.238  1.00  0.00    -0.391 A  
HETATM   28  C   UNL     1     -11.649  12.061  66.498  1.00  0.00    -0.384 A  
ENDBRANCH   3  16
ENDBRANCH   2   3
TORSDOF 2
ENDMDL
MODEL       26
REMARK 921   NORMALIZED FREE ENERGY PREDICTED BY IDOCK:   -5.69 KCAL/MOL
REMARK 922        TOTAL FREE ENERGY PREDICTED BY IDOCK:   -6.84 KCAL/MOL
REMARK 923 INTER-LIGAND FREE ENERGY PREDICTED BY IDOCK:   -7.11 KCAL/MOL
REMARK 924 INTRA-LIGAND FREE ENERGY PREDICTED BY IDOCK:    0.27 KCAL/MOL
REMARK 927      BINDING AFFINITY PREDICTED BY RF-SCORE:    0.00 PKD
ROOT
HETATM    1  C   UNL     1     -12.689  13.943  65.524  1.00  0.00    -0.499 C  
HETATM    2  O   UNL     1     -12.592  14.016  66.938  1.00  0.00    -0.262 OA 
ENDROOT
BRANCH   2   3
HETATM    3  C   UNL     1     -11.296  14.370  67.498  1.00  0.00    -0.328 C  
HETATM    4  C   UNL     1     -11.110  15.873  67.956  1.00  0.00    -0.334 C  
HETATM    5  O   UNL     1      -9.594  14.283  65.518  1.00  0.00    -0.206 OA 
HETATM    6  S   UNL     1      -9.968  16.290  69.322  1.00  0.00    -0.243 SA 
HETATM    7  C   UNL     1     -10.307  14.832  66.331  1.00  0.00    -0.293 C  
HETATM    8  O   UNL     1     -10.583  18.689  66.226  1.00  0.00    -0.413 OA 
HETATM    9  O   UNL     1      -8.434  19.242  66.604  1.00  0.00    -0.288 OA 
HETATM   10  C   UNL     1      -9.306  18.384  66.567  1.00  0.00    -0.309 C  
HETATM   11  C   UNL     1      -8.498  16.560  68.246  1.00  0.00    -0.199 C  
HETATM   12  C   UNL     1      -7.610  17.633  68.886  1.00  0.00    -0.219 C  
HETATM   13  C   UNL     1      -7.697  15.244  68.243  1.00  0.00    -0.112 C  
HETATM   14  N   UNL     1     -10.343  16.146  66.715  1.00  0.00    -0.287 N  
HETATM   15  C   UNL     1      -9.071  16.890  66.847  1.00  0.00    -0.230 C  
BRANCH   3  16
HETATM   16  N   UNL     1     -10.675  13.253  68.279  1.00  0.00    -0.244 N  
HETATM   17  C   UNL     1      -9.650   9.990  68.164  1.00  0.00    -0.152 A  
HETATM   18  O   UNL     1     -12.238  11.632  67.845  1.00  0.00    -0.560 OA 
HETATM   19  C   UNL     1     -10.312   9.202  67.236  1.00  0.00    -0.270 A  
HETATM   20  O   UNL     1     -10.462   9.773  71.203  1.00  0.00    -0.274 OA 
HETATM   21  O   UNL     1     -12.380  10.123  70.089  1.00  0.00    -0.193 OA 
HETATM   22  C   UNL     1     -10.303  10.973  69.118  1.00  0.00    -0.210 C  
HETATM   23  H   UNL     1      -9.820  13.459  68.797  1.00  0.00     0.000 HD 
HETATM   24  C   UNL     1     -11.168  11.971  68.353  1.00  0.00    -0.262 C  
HETATM   25  S   UNL     1      -9.255   8.237  66.301  1.00  0.00    -0.197 SA 
HETATM   26  C   UNL     1     -11.041  10.246  70.230  1.00  0.00    -0.319 C  
HETATM   27  C   UNL     1      -7.891   8.820  67.145  1.00  0.00    -0.096 A  
HETATM   28  C   UNL     1      -8.236   9.738  68.112  1.00  0.00    -0.109 A  
ENDBRANCH   3  16
ENDBRANCH   2   3
TORSDOF 2
ENDMDL
MODEL       27
REMARK 921   NORMALIZED FREE ENERGY PREDICTED BY IDOCK:   -5.63 KCAL/MOL
REMARK 922        TOTAL FREE ENERGY PREDICTED BY IDOCK:   -6.77 KCAL/MOL
REMARK 923 INTER-LIGAND FREE ENERGY PREDICTED BY IDOCK:   -6.40 KCAL/MOL
REMARK 924 INTRA-LIGAND FREE ENERGY PREDICTED BY IDOCK:   -0.36 KCAL/MOL
REMARK 927      BINDING AFFINITY PREDICTED BY RF-SCORE:    0.00 PKD
ROOT
HETATM    1  C   UNL     1     -12.680  11.675  63.360  1.00  0.00    -0.124 C  
HETATM    2  O   UNL     1     -12.139  11.166  64.569  1.00  0.00     0.438 OA 
ENDROOT
BRANCH   2   3
HETATM    3  C   UNL     1     -11.316  12.068  65.360  1.00  0.00    -0.321 C  
HETATM    4  C   UNL     1     -11.971  13.448  65.771  1.00  0.00    -0.407 C  
HETATM    5  O   UNL     1      -9.423  12.917  63.772  1.00  0.00     0.197 OA 
HETATM    6  S   UNL     1     -11.471  14.288  67.317  1.00  0.00    -0.369 SA 
HETATM    7  C   UNL     1     -10.459  13.011  64.396  1.00  0.00    -0.404 C  
HETATM    8  O   UNL     1     -12.528  16.261  64.045  1.00  0.00    -0.675 OA 
HETATM    9  O   UNL     1     -11.035  17.757  64.821  1.00  0.00    -0.855 OA 
HETATM   10  C   UNL     1     -11.359  16.588  64.651  1.00  0.00    -0.069 C  
HETATM   11  C   UNL     1     -10.131  15.289  66.547  1.00  0.00    -0.270 C  
HETATM   12  C   UNL     1     -10.017  16.619  67.300  1.00  0.00    -0.270 C  
HETATM   13  C   UNL     1      -8.813  14.522  66.772  1.00  0.00    -0.248 C  
HETATM   14  N   UNL     1     -11.198  14.124  64.698  1.00  0.00    -0.373 N  
HETATM   15  C   UNL     1     -10.497  15.379  65.047  1.00  0.00    -0.381 C  
BRANCH   3  16
HETATM   16  N   UNL     1     -10.405  11.347  66.306  1.00  0.00    -0.235 N  
HETATM   17  C   UNL     1      -9.788   8.365  67.867  1.00  0.00    -0.208 A  
HETATM   18  O   UNL     1     -11.998  10.506  67.727  1.00  0.00    -0.226 OA 
HETATM   19  C   UNL     1     -10.901   7.561  68.055  1.00  0.00    -0.030 A  
HETATM   20  O   UNL     1      -8.679  10.028  70.305  1.00  0.00    -0.114 OA 
HETATM   21  O   UNL     1     -10.869  10.513  70.188  1.00  0.00    -0.283 OA 
HETATM   22  C   UNL     1      -9.715   9.856  68.135  1.00  0.00    -0.161 C  
HETATM   23  H   UNL     1      -9.401  11.420  66.141  1.00  0.00     0.000 HD 
HETATM   24  C   UNL     1     -10.819  10.592  67.380  1.00  0.00    -0.296 C  
HETATM   25  S   UNL     1     -10.634   5.931  67.615  1.00  0.00    -0.260 SA 
HETATM   26  C   UNL     1      -9.696  10.142  69.627  1.00  0.00    -0.221 C  
HETATM   27  C   UNL     1      -9.010   6.253  67.202  1.00  0.00    -0.111 A  
HETATM   28  C   UNL     1      -8.684   7.579  67.389  1.00  0.00    -0.124 A  
ENDBRANCH   3  16
ENDBRANCH   2   3
TORSDOF 2
ENDMDL
MODEL       28
REMARK 921   NORMALIZED FREE ENERGY PREDICTED BY IDOCK:   -5.62 KCAL/MOL
REMARK 922        TOTAL FREE ENERGY PREDICTED BY IDOCK:   -6.76 KCAL/MOL
REMARK 923 INTER-LIGAND FREE ENERGY PREDICTED BY IDOCK:   -6.16 KCAL/MOL
REMARK 924 INTRA-LIGAND FREE ENERGY PREDICTED BY IDOCK:   -0.59 KCAL/MOL
REMARK 927      BINDING AFFINITY PREDICTED BY RF-SCORE:    0.00 PKD
ROOT
HETATM    1  C   UNL     1     -12.064  12.360  65.046  1.00  0.00    -0.407 C  
HETATM    2  O   UNL     1     -12.167  12.521  66.452  1.00  0.00    -0.584 OA 
ENDROOT
BRANCH   2   3
HETATM    3  C   UNL     1     -11.051  12.049  67.258  1.00  0.00    -0.285 C  
HETATM    4  C   UNL     1     -10.274  10.781  66.720  1.00  0.00    -0.230 C  
HETATM    5  O   UNL     1     -12.092  11.055  69.438  1.00  0.00    -0.333 OA 
HETATM    6  S   UNL     1      -8.500  10.551  67.097  1.00  0.00    -0.127 SA 
HETATM    7  C   UNL     1     -11.571  10.999  68.345  1.00  0.00    -0.302 C  
HETATM    8  O   UNL     1     -11.031   7.521  66.741  1.00  0.00    -0.220 OA 
HETATM    9  O   UNL     1      -9.673   6.592  68.278  1.00  0.00    -0.130 OA 
HETATM   10  C   UNL     1     -10.245   7.584  67.845  1.00  0.00    -0.194 C  
HETATM   11  C   UNL     1      -8.772   9.583  68.639  1.00  0.00    -0.127 C  
HETATM   12  C   UNL     1      -7.619   8.586  68.804  1.00  0.00    -0.097 C  
HETATM   13  C   UNL     1      -8.689  10.577  69.813  1.00  0.00     0.136 C  
HETATM   14  N   UNL     1     -10.991   9.935  67.707  1.00  0.00    -0.268 N  
HETATM   15  C   UNL     1     -10.188   8.975  68.496  1.00  0.00    -0.200 C  
BRANCH   3  16
HETATM   16  N   UNL     1     -10.313  13.162  67.938  1.00  0.00    -0.226 N  
HETATM   17  C   UNL     1      -9.497  16.482  67.785  1.00  0.00    -0.222 A  
HETATM   18  O   UNL     1      -9.102  13.908  66.138  1.00  0.00    -0.088 OA 
HETATM   19  C   UNL     1      -9.484  17.023  66.509  1.00  0.00    -0.276 A  
HETATM   20  O   UNL     1      -6.757  15.730  69.150  1.00  0.00    -0.133 OA 
HETATM   21  O   UNL     1      -6.724  14.731  67.138  1.00  0.00    -0.250 OA 
HETATM   22  C   UNL     1      -8.891  15.151  68.190  1.00  0.00    -0.169 C  
HETATM   23  H   UNL     1     -10.471  13.290  68.938  1.00  0.00     0.000 HD 
HETATM   24  C   UNL     1      -9.438  14.024  67.318  1.00  0.00    -0.231 C  
HETATM   25  S   UNL     1     -10.295  18.524  66.409  1.00  0.00    -0.416 SA 
HETATM   26  C   UNL     1      -7.374  15.227  68.215  1.00  0.00    -0.112 C  
HETATM   27  C   UNL     1     -10.646  18.506  68.079  1.00  0.00    -0.310 A  
HETATM   28  C   UNL     1     -10.162  17.373  68.696  1.00  0.00    -0.361 A  
ENDBRANCH   3  16
ENDBRANCH   2   3
TORSDOF 2
ENDMDL
MODEL       29
REMARK 921   NORMALIZED FREE ENERGY PREDICTED BY IDOCK:   -5.58 KCAL/MOL
REMARK 922        TOTAL FREE ENERGY PREDICTED BY IDOCK:   -6.72 KCAL/MOL
REMARK 923 INTER-LIGAND FREE ENERGY PREDICTED BY IDOCK:   -6.66 KCAL/MOL
REMARK 924 INTRA-LIGAND FREE ENERGY PREDICTED BY IDOCK:   -0.06 KCAL/MOL
REMARK 927      BINDING AFFINITY PREDICTED BY RF-SCORE:    0.00 PKD
ROOT
HETATM    1  C   UNL     1     -11.272  14.691  69.649  1.00  0.00    -0.272 C  
HETATM    2  O   UNL     1     -10.951  13.316  69.793  1.00  0.00     0.043 OA 
ENDROOT
BRANCH   2   3
HETATM    3  C   UNL     1     -10.526  12.604  68.598  1.00  0.00    -0.205 C  
HETATM    4  C   UNL     1     -10.543  13.420  67.242  1.00  0.00    -0.255 C  
HETATM    5  O   UNL     1     -12.390  10.844  68.093  1.00  0.00    -0.306 OA 
HETATM    6  S   UNL     1      -9.369  13.014  65.901  1.00  0.00     0.172 SA 
HETATM    7  C   UNL     1     -11.779  11.878  67.922  1.00  0.00    -0.298 C  
HETATM    8  O   UNL     1     -13.043  14.334  65.214  1.00  0.00    -0.707 OA 
HETATM    9  O   UNL     1     -12.853  13.030  63.389  1.00  0.00    -0.640 OA 
HETATM   10  C   UNL     1     -12.628  13.210  64.578  1.00  0.00    -0.278 C  
HETATM   11  C   UNL     1     -10.478  11.814  65.054  1.00  0.00    -0.285 C  
HETATM   12  C   UNL     1     -10.193  11.858  63.548  1.00  0.00    -0.485 C  
HETATM   13  C   UNL     1     -10.085  10.410  65.553  1.00  0.00    -0.352 C  
HETATM   14  N   UNL     1     -11.810  12.746  66.863  1.00  0.00    -0.388 N  
HETATM   15  C   UNL     1     -11.911  12.202  65.491  1.00  0.00    -0.286 C  
BRANCH   3  16
HETATM   16  N   UNL     1      -9.445  11.603  68.870  1.00  0.00    -0.407 N  
HETATM   17  C   UNL     1      -8.634   8.279  68.828  1.00  0.00    -0.133 A  
HETATM   18  O   UNL     1     -10.644  10.169  70.199  1.00  0.00    -0.272 OA 
HETATM   19  C   UNL     1      -9.707   7.413  68.969  1.00  0.00    -0.160 A  
HETATM   20  O   UNL     1      -6.790   8.838  71.322  1.00  0.00    -0.068 OA 
HETATM   21  O   UNL     1      -8.889   9.214  72.026  1.00  0.00    -0.331 OA 
HETATM   22  C   UNL     1      -8.388   9.527  69.654  1.00  0.00    -0.155 C  
HETATM   23  H   UNL     1      -8.521  11.790  68.479  1.00  0.00     0.000 HD 
HETATM   24  C   UNL     1      -9.601  10.452  69.607  1.00  0.00    -0.109 C  
HETATM   25  S   UNL     1      -9.685   6.128  67.841  1.00  0.00    -0.120 SA 
HETATM   26  C   UNL     1      -7.942   9.171  71.062  1.00  0.00    -0.125 C  
HETATM   27  C   UNL     1      -8.217   6.676  67.166  1.00  0.00    -0.113 A  
HETATM   28  C   UNL     1      -7.760   7.820  67.783  1.00  0.00    -0.122 A  
ENDBRANCH   3  16
ENDBRANCH   2   3
TORSDOF 2
ENDMDL
MODEL       30
REMARK 921   NORMALIZED FREE ENERGY PREDICTED BY IDOCK:   -5.43 KCAL/MOL
REMARK 922        TOTAL FREE ENERGY PREDICTED BY IDOCK:   -6.55 KCAL/MOL
REMARK 923 INTER-LIGAND FREE ENERGY PREDICTED BY IDOCK:   -5.93 KCAL/MOL
REMARK 924 INTRA-LIGAND FREE ENERGY PREDICTED BY IDOCK:   -0.62 KCAL/MOL
REMARK 927      BINDING AFFINITY PREDICTED BY RF-SCORE:    0.00 PKD
ROOT
HETATM    1  C   UNL     1      -8.181  10.346  69.196  1.00  0.00    -0.157 C  
HETATM    2  O   UNL     1      -7.806  11.335  68.251  1.00  0.00    -0.115 OA 
ENDROOT
BRANCH   2   3
HETATM    3  C   UNL     1      -7.967  11.004  66.843  1.00  0.00    -0.143 C  
HETATM    4  C   UNL     1      -8.153   9.473  66.492  1.00  0.00    -0.112 C  
HETATM    5  O   UNL     1      -5.652  11.451  65.717  1.00  0.00    -0.203 OA 
HETATM    6  S   UNL     1      -9.116   8.969  65.022  1.00  0.00    -0.028 SA 
HETATM    7  C   UNL     1      -6.536  10.758  66.175  1.00  0.00    -0.127 C  
HETATM    8  O   UNL     1      -5.979   6.934  66.336  1.00  0.00    -0.031 OA 
HETATM    9  O   UNL     1      -5.722   6.487  64.145  1.00  0.00    -0.028 OA 
HETATM   10  C   UNL     1      -6.024   7.281  65.025  1.00  0.00    -0.037 C  
HETATM   11  C   UNL     1      -7.677   8.935  63.873  1.00  0.00    -0.129 C  
HETATM   12  C   UNL     1      -7.920   7.855  62.813  1.00  0.00    -0.146 C  
HETATM   13  C   UNL     1      -7.652  10.293  63.146  1.00  0.00    -0.132 C  
HETATM   14  N   UNL     1      -6.733   9.407  66.065  1.00  0.00    -0.079 N  
HETATM   15  C   UNL     1      -6.436   8.741  64.778  1.00  0.00    -0.066 C  
BRANCH   3  16
HETATM   16  N   UNL     1      -8.711  12.056  66.079  1.00  0.00    -0.404 N  
HETATM   17  C   UNL     1     -10.539  14.937  66.341  1.00  0.00    -0.307 A  
HETATM   18  O   UNL     1     -10.676  11.999  67.261  1.00  0.00    -0.219 OA 
HETATM   19  C   UNL     1     -11.200  15.103  67.548  1.00  0.00    -0.330 A  
HETATM   20  O   UNL     1     -12.176  13.963  63.829  1.00  0.00    -0.588 OA 
HETATM   21  O   UNL     1     -12.637  12.488  65.458  1.00  0.00    -0.642 OA 
HETATM   22  C   UNL     1     -10.491  13.659  65.525  1.00  0.00    -0.314 C  
HETATM   23  H   UNL     1      -8.241  12.477  65.277  1.00  0.00     0.000 HD 
HETATM   24  C   UNL     1      -9.980  12.497  66.375  1.00  0.00    -0.252 C  
HETATM   25  S   UNL     1     -11.010  16.669  68.206  1.00  0.00    -0.288 SA 
HETATM   26  C   UNL     1     -11.827  13.388  64.855  1.00  0.00    -0.372 C  
HETATM   27  C   UNL     1     -10.076  17.174  66.871  1.00  0.00    -0.298 A  
HETATM   28  C   UNL     1      -9.905  16.166  65.949  1.00  0.00    -0.384 A  
ENDBRANCH   3  16
ENDBRANCH   2   3
TORSDOF 2
ENDMDL
MODEL       31
REMARK 921   NORMALIZED FREE ENERGY PREDICTED BY IDOCK:   -5.38 KCAL/MOL
REMARK 922        TOTAL FREE ENERGY PREDICTED BY IDOCK:   -6.49 KCAL/MOL
REMARK 923 INTER-LIGAND FREE ENERGY PREDICTED BY IDOCK:   -6.81 KCAL/MOL
REMARK 924 INTRA-LIGAND FREE ENERGY PREDICTED BY IDOCK:    0.31 KCAL/MOL
REMARK 927      BINDING AFFINITY PREDICTED BY RF-SCORE:    0.00 PKD
ROOT
HETATM    1  C   UNL     1     -12.797  14.153  65.356  1.00  0.00    -0.368 C  
HETATM    2  O   UNL     1     -12.399  13.929  66.699  1.00  0.00    -0.435 OA 
ENDROOT
BRANCH   2   3
HETATM    3  C   UNL     1     -11.044  14.313  67.065  1.00  0.00    -0.312 C  
HETATM    4  C   UNL     1     -10.887  15.650  67.896  1.00  0.00    -0.306 C  
HETATM    5  O   UNL     1      -9.858  15.015  64.846  1.00  0.00    -0.188 OA 
HETATM    6  S   UNL     1      -9.496  15.857  69.064  1.00  0.00    -0.262 SA 
HETATM    7  C   UNL     1     -10.404  15.213  65.910  1.00  0.00    -0.327 C  
HETATM    8  O   UNL     1     -11.034  18.871  67.000  1.00  0.00    -0.373 OA 
HETATM    9  O   UNL     1      -8.913  19.622  67.081  1.00  0.00    -0.295 OA 
HETATM   10  C   UNL     1      -9.691  18.683  66.971  1.00  0.00    -0.308 C  
HETATM   11  C   UNL     1      -8.352  16.623  67.842  1.00  0.00    -0.185 C  
HETATM   12  C   UNL     1      -7.435  17.608  68.575  1.00  0.00    -0.269 C  
HETATM   13  C   UNL     1      -7.462  15.492  67.291  1.00  0.00    -0.258 C  
HETATM   14  N   UNL     1     -10.463  16.357  66.662  1.00  0.00    -0.293 N  
HETATM   15  C   UNL     1      -9.267  17.223  66.747  1.00  0.00    -0.255 C  
BRANCH   3  16
HETATM   16  N   UNL     1     -10.160  13.136  67.342  1.00  0.00    -0.227 N  
HETATM   17  C   UNL     1      -8.766  10.309  66.010  1.00  0.00    -0.162 A  
HETATM   18  O   UNL     1     -11.557  11.483  66.581  1.00  0.00    -0.469 OA 
HETATM   19  C   UNL     1      -9.473   9.748  64.959  1.00  0.00    -0.272 A  
HETATM   20  O   UNL     1      -9.003   9.010  68.873  1.00  0.00    -0.138 OA 
HETATM   21  O   UNL     1     -11.114   9.347  68.185  1.00  0.00    -0.106 OA 
HETATM   22  C   UNL     1      -9.362  10.812  67.312  1.00  0.00    -0.165 C  
HETATM   23  H   UNL     1      -9.261  13.318  67.790  1.00  0.00     0.000 HD 
HETATM   24  C   UNL     1     -10.467  11.829  67.040  1.00  0.00    -0.220 C  
HETATM   25  S   UNL     1      -8.481   9.328  63.631  1.00  0.00    -0.183 SA 
HETATM   26  C   UNL     1      -9.798   9.655  68.195  1.00  0.00    -0.150 C  
HETATM   27  C   UNL     1      -7.076   9.849  64.449  1.00  0.00    -0.134 A  
HETATM   28  C   UNL     1      -7.362  10.340  65.704  1.00  0.00    -0.149 A  
ENDBRANCH   3  16
ENDBRANCH   2   3
TORSDOF 2
ENDMDL
MODEL       32
REMARK 921   NORMALIZED FREE ENERGY PREDICTED BY IDOCK:   -5.32 KCAL/MOL
REMARK 922        TOTAL FREE ENERGY PREDICTED BY IDOCK:   -6.43 KCAL/MOL
REMARK 923 INTER-LIGAND FREE ENERGY PREDICTED BY IDOCK:   -6.17 KCAL/MOL
REMARK 924 INTRA-LIGAND FREE ENERGY PREDICTED BY IDOCK:   -0.26 KCAL/MOL
REMARK 927      BINDING AFFINITY PREDICTED BY RF-SCORE:    0.00 PKD
ROOT
HETATM    1  C   UNL     1     -11.379  12.887  64.145  1.00  0.00    -0.393 C  
HETATM    2  O   UNL     1     -10.271  13.450  64.831  1.00  0.00    -0.348 OA 
ENDROOT
BRANCH   2   3
HETATM    3  C   UNL     1      -9.957  12.908  66.144  1.00  0.00    -0.272 C  
HETATM    4  C   UNL     1      -9.088  11.586  66.176  1.00  0.00    -0.209 C  
HETATM    5  O   UNL     1     -12.204  11.999  67.119  1.00  0.00    -0.505 OA 
HETATM    6  S   UNL     1      -7.980  11.238  67.588  1.00  0.00    -0.123 SA 
HETATM    7  C   UNL     1     -11.109  11.901  66.608  1.00  0.00    -0.310 C  
HETATM    8  O   UNL     1      -9.864   8.386  65.581  1.00  0.00     0.100 OA 
HETATM    9  O   UNL     1      -9.857   7.374  67.593  1.00  0.00    -0.141 OA 
HETATM   10  C   UNL     1      -9.963   8.401  66.934  1.00  0.00    -0.271 C  
HETATM   11  C   UNL     1      -9.228  10.299  68.563  1.00  0.00    -0.144 C  
HETATM   12  C   UNL     1      -8.505   9.227  69.385  1.00  0.00    -0.137 C  
HETATM   13  C   UNL     1      -9.859  11.291  69.558  1.00  0.00     0.336 C  
HETATM   14  N   UNL     1     -10.316  10.796  66.444  1.00  0.00    -0.246 N  
HETATM   15  C   UNL     1     -10.257   9.788  67.526  1.00  0.00    -0.220 C  
BRANCH   3  16
HETATM   16  N   UNL     1      -9.763  13.970  67.182  1.00  0.00    -0.236 N  
HETATM   17  C   UNL     1     -11.233  15.649  69.777  1.00  0.00    -0.322 A  
HETATM   18  O   UNL     1     -11.652  15.201  66.757  1.00  0.00    -0.270 OA 
HETATM   19  C   UNL     1     -12.616  15.714  69.723  1.00  0.00    -0.004 A  
HETATM   20  O   UNL     1      -9.554  18.174  68.913  1.00  0.00    -0.301 OA 
HETATM   21  O   UNL     1     -10.971  17.781  67.216  1.00  0.00    -0.218 OA 
HETATM   22  C   UNL     1     -10.287  15.897  68.616  1.00  0.00    -0.229 C  
HETATM   23  H   UNL     1      -8.913  13.929  67.746  1.00  0.00     0.000 HD 
HETATM   24  C   UNL     1     -10.642  14.999  67.433  1.00  0.00    -0.271 C  
HETATM   25  S   UNL     1     -13.364  15.339  71.214  1.00  0.00    -0.522 SA 
HETATM   26  C   UNL     1     -10.226  17.374  68.268  1.00  0.00    -0.362 C  
HETATM   27  C   UNL     1     -11.853  15.123  71.977  1.00  0.00    -0.416 A  
HETATM   28  C   UNL     1     -10.802  15.324  71.109  1.00  0.00    -0.134 A  
ENDBRANCH   3  16
ENDBRANCH   2   3
TORSDOF 2
ENDMDL
MODEL       33
REMARK 921   NORMALIZED FREE ENERGY PREDICTED BY IDOCK:   -5.28 KCAL/MOL
REMARK 922        TOTAL FREE ENERGY PREDICTED BY IDOCK:   -6.38 KCAL/MOL
REMARK 923 INTER-LIGAND FREE ENERGY PREDICTED BY IDOCK:   -5.98 KCAL/MOL
REMARK 924 INTRA-LIGAND FREE ENERGY PREDICTED BY IDOCK:   -0.40 KCAL/MOL
REMARK 927      BINDING AFFINITY PREDICTED BY RF-SCORE:    0.00 PKD
ROOT
HETATM    1  C   UNL     1     -11.714  15.404  70.883  1.00  0.00    -0.354 C  
HETATM    2  O   UNL     1     -11.512  15.774  69.528  1.00  0.00    -0.305 OA 
ENDROOT
BRANCH   2   3
HETATM    3  C   UNL     1     -10.193  15.532  68.962  1.00  0.00    -0.229 C  
HETATM    4  C   UNL     1      -9.008  16.419  69.521  1.00  0.00     0.143 C  
HETATM    5  O   UNL     1     -10.284  16.392  66.497  1.00  0.00    -0.283 OA 
HETATM    6  S   UNL     1      -7.300  15.769  69.554  1.00  0.00    -0.133 SA 
HETATM    7  C   UNL     1      -9.979  16.446  67.670  1.00  0.00    -0.252 C  
HETATM    8  O   UNL     1      -8.131  19.596  68.945  1.00  0.00    -0.330 OA 
HETATM    9  O   UNL     1      -6.271  19.494  67.680  1.00  0.00    -0.200 OA 
HETATM   10  C   UNL     1      -7.302  18.966  68.075  1.00  0.00    -0.250 C  
HETATM   11  C   UNL     1      -6.836  16.408  67.891  1.00  0.00    -0.137 C  
HETATM   12  C   UNL     1      -5.340  16.744  67.893  1.00  0.00    -0.129 C  
HETATM   13  C   UNL     1      -7.044  15.252  66.893  1.00  0.00     0.284 C  
HETATM   14  N   UNL     1      -9.076  17.262  68.301  1.00  0.00    -0.254 N  
HETATM   15  C   UNL     1      -7.803  17.585  67.621  1.00  0.00    -0.201 C  
BRANCH   3  16
HETATM   16  N   UNL     1      -9.966  14.093  68.611  1.00  0.00    -0.248 N  
HETATM   17  C   UNL     1     -10.347  11.713  66.182  1.00  0.00    -0.280 A  
HETATM   18  O   UNL     1     -12.088  13.584  67.903  1.00  0.00    -0.346 OA 
HETATM   19  C   UNL     1     -11.387  11.944  65.295  1.00  0.00    -0.275 A  
HETATM   20  O   UNL     1     -10.757   9.613  68.497  1.00  0.00    -0.219 OA 
HETATM   21  O   UNL     1     -12.511  11.010  68.631  1.00  0.00    -0.462 OA 
HETATM   22  C   UNL     1     -10.420  11.859  67.690  1.00  0.00    -0.232 C  
HETATM   23  H   UNL     1      -9.038  13.706  68.785  1.00  0.00     0.000 HD 
HETATM   24  C   UNL     1     -10.913  13.253  68.072  1.00  0.00    -0.244 C  
HETATM   25  S   UNL     1     -10.938  11.717  63.661  1.00  0.00    -0.417 SA 
HETATM   26  C   UNL     1     -11.227  10.732  68.310  1.00  0.00    -0.297 C  
HETATM   27  C   UNL     1      -9.354  11.263  64.105  1.00  0.00    -0.111 A  
HETATM   28  C   UNL     1      -9.171  11.294  65.470  1.00  0.00    -0.220 A  
ENDBRANCH   3  16
ENDBRANCH   2   3
TORSDOF 2
ENDMDL
MODEL       34
REMARK 921   NORMALIZED FREE ENERGY PREDICTED BY IDOCK:   -5.27 KCAL/MOL
REMARK 922        TOTAL FREE ENERGY PREDICTED BY IDOCK:   -6.37 KCAL/MOL
REMARK 923 INTER-LIGAND FREE ENERGY PREDICTED BY IDOCK:   -5.81 KCAL/MOL
REMARK 924 INTRA-LIGAND FREE ENERGY PREDICTED BY IDOCK:   -0.56 KCAL/MOL
REMARK 927      BINDING AFFINITY PREDICTED BY RF-SCORE:    0.00 PKD
ROOT
HETATM    1  C   UNL     1      -9.920   6.585  66.657  1.00  0.00    -0.143 C  
HETATM    2  O   UNL     1     -10.786   7.673  66.941  1.00  0.00    -0.351 OA 
ENDROOT
BRANCH   2   3
HETATM    3  C   UNL     1     -10.185   8.869  67.512  1.00  0.00    -0.248 C  
HETATM    4  C   UNL     1     -10.993  10.219  67.339  1.00  0.00    -0.252 C  
HETATM    5  O   UNL     1      -8.087   9.404  66.049  1.00  0.00    -0.108 OA 
HETATM    6  S   UNL     1     -10.846  11.552  68.582  1.00  0.00    -0.226 SA 
HETATM    7  C   UNL     1      -9.225   9.561  66.438  1.00  0.00    -0.166 C  
HETATM    8  O   UNL     1     -11.396  12.264  64.722  1.00  0.00    -0.307 OA 
HETATM    9  O   UNL     1     -10.174  14.097  65.188  1.00  0.00    -0.376 OA 
HETATM   10  C   UNL     1     -10.385  12.904  65.362  1.00  0.00    -0.296 C  
HETATM   11  C   UNL     1      -9.452  12.418  67.747  1.00  0.00    -0.199 C  
HETATM   12  C   UNL     1      -9.567  13.920  68.029  1.00  0.00    -0.219 C  
HETATM   13  C   UNL     1      -8.154  11.925  68.414  1.00  0.00    -0.155 C  
HETATM   14  N   UNL     1     -10.078  10.615  66.239  1.00  0.00    -0.228 N  
HETATM   15  C   UNL     1      -9.537  11.991  66.262  1.00  0.00    -0.231 C  
BRANCH   3  16
HETATM   16  N   UNL     1      -9.423   8.594  68.772  1.00  0.00    -0.142 N  
HETATM   17  C   UNL     1      -8.729   6.248  71.165  1.00  0.00    -0.128 A  
HETATM   18  O   UNL     1     -11.155   7.777  70.036  1.00  0.00    -0.248 OA 
HETATM   19  C   UNL     1      -9.713   5.289  71.347  1.00  0.00    -0.164 A  
HETATM   20  O   UNL     1      -8.514   8.620  73.231  1.00  0.00    -0.395 OA 
HETATM   21  O   UNL     1     -10.661   8.584  72.573  1.00  0.00    -0.331 OA 
HETATM   22  C   UNL     1      -8.961   7.741  71.031  1.00  0.00    -0.147 C  
HETATM   23  H   UNL     1      -8.434   8.842  68.788  1.00  0.00     0.000 HD 
HETATM   24  C   UNL     1      -9.956   8.032  69.910  1.00  0.00    -0.189 C  
HETATM   25  S   UNL     1      -9.092   3.698  71.419  1.00  0.00    -0.126 SA 
HETATM   26  C   UNL     1      -9.344   8.356  72.366  1.00  0.00    -0.285 C  
HETATM   27  C   UNL     1      -7.489   4.259  71.253  1.00  0.00    -0.059 A  
HETATM   28  C   UNL     1      -7.432   5.630  71.135  1.00  0.00    -0.090 A  
ENDBRANCH   3  16
ENDBRANCH   2   3
TORSDOF 2
ENDMDL
MODEL       35
REMARK 921   NORMALIZED FREE ENERGY PREDICTED BY IDOCK:   -5.27 KCAL/MOL
REMARK 922        TOTAL FREE ENERGY PREDICTED BY IDOCK:   -6.37 KCAL/MOL
REMARK 923 INTER-LIGAND FREE ENERGY PREDICTED BY IDOCK:   -5.95 KCAL/MOL
REMARK 924 INTRA-LIGAND FREE ENERGY PREDICTED BY IDOCK:   -0.42 KCAL/MOL
REMARK 927      BINDING AFFINITY PREDICTED BY RF-SCORE:    0.00 PKD
ROOT
HETATM    1  C   UNL     1     -11.992  12.489  68.264  1.00  0.00    -0.221 C  
HETATM    2  O   UNL     1     -11.741  11.108  68.049  1.00  0.00    -0.517 OA 
ENDROOT
BRANCH   2   3
HETATM    3  C   UNL     1     -10.559  10.542  68.681  1.00  0.00    -0.200 C  
HETATM    4  C   UNL     1     -10.171   9.066  68.262  1.00  0.00    -0.204 C  
HETATM    5  O   UNL     1     -11.181  10.156  71.188  1.00  0.00    -0.325 OA 
HETATM    6  S   UNL     1      -8.425   8.523  68.294  1.00  0.00    -0.135 SA 
HETATM    7  C   UNL     1     -10.966   9.815  70.045  1.00  0.00    -0.277 C  
HETATM    8  O   UNL     1     -11.448   6.092  69.112  1.00  0.00    -0.379 OA 
HETATM    9  O   UNL     1      -9.933   5.149  70.485  1.00  0.00    -0.199 OA 
HETATM   10  C   UNL     1     -10.414   6.159  69.988  1.00  0.00    -0.234 C  
HETATM   11  C   UNL     1      -8.469   7.894  70.024  1.00  0.00    -0.134 C  
HETATM   12  C   UNL     1      -7.500   6.712  70.142  1.00  0.00    -0.094 C  
HETATM   13  C   UNL     1      -7.927   9.021  70.924  1.00  0.00    -0.194 C  
HETATM   14  N   UNL     1     -10.755   8.563  69.531  1.00  0.00    -0.209 N  
HETATM   15  C   UNL     1      -9.959   7.591  70.312  1.00  0.00    -0.192 C  
BRANCH   3  16
HETATM   16  N   UNL     1      -9.495  11.562  68.946  1.00  0.00    -0.399 N  
HETATM   17  C   UNL     1      -8.328  14.669  68.110  1.00  0.00    -0.144 A  
HETATM   18  O   UNL     1      -8.848  11.940  66.777  1.00  0.00    -0.184 OA 
HETATM   19  C   UNL     1      -8.658  15.094  66.832  1.00  0.00    -0.257 A  
HETATM   20  O   UNL     1      -5.423  13.571  68.648  1.00  0.00    -0.076 OA 
HETATM   21  O   UNL     1      -6.184  12.421  66.876  1.00  0.00    -0.210 OA 
HETATM   22  C   UNL     1      -7.811  13.292  68.480  1.00  0.00    -0.110 C  
HETATM   23  H   UNL     1      -9.300  11.797  69.919  1.00  0.00     0.000 HD 
HETATM   24  C   UNL     1      -8.761  12.208  67.977  1.00  0.00    -0.180 C  
HETATM   25  S   UNL     1      -9.245  16.699  66.790  1.00  0.00    -0.253 SA 
HETATM   26  C   UNL     1      -6.373  13.108  68.025  1.00  0.00    -0.127 C  
HETATM   27  C   UNL     1      -9.031  16.877  68.473  1.00  0.00    -0.254 A  
HETATM   28  C   UNL     1      -8.532  15.733  69.054  1.00  0.00    -0.242 A  
ENDBRANCH   3  16
ENDBRANCH   2   3
TORSDOF 2
ENDMDL
MODEL       36
REMARK 921   NORMALIZED FREE ENERGY PREDICTED BY IDOCK:   -5.22 KCAL/MOL
REMARK 922        TOTAL FREE ENERGY PREDICTED BY IDOCK:   -6.31 KCAL/MOL
REMARK 923 INTER-LIGAND FREE ENERGY PREDICTED BY IDOCK:   -5.82 KCAL/MOL
REMARK 924 INTRA-LIGAND FREE ENERGY PREDICTED BY IDOCK:   -0.50 KCAL/MOL
REMARK 927      BINDING AFFINITY PREDICTED BY RF-SCORE:    0.00 PKD
ROOT
HETATM    1  C   UNL     1     -12.348  10.936  69.765  1.00  0.00    -0.256 C  
HETATM    2  O   UNL     1     -11.616  12.139  69.938  1.00  0.00    -0.285 OA 
ENDROOT
BRANCH   2   3
HETATM    3  C   UNL     1     -10.930  12.673  68.771  1.00  0.00    -0.249 C  
HETATM    4  C   UNL     1     -10.047  13.966  68.999  1.00  0.00    -0.018 C  
HETATM    5  O   UNL     1     -12.786  13.658  67.218  1.00  0.00     0.083 OA 
HETATM    6  S   UNL     1      -8.578  14.280  67.956  1.00  0.00    -0.180 SA 
HETATM    7  C   UNL     1     -11.875  13.718  68.016  1.00  0.00    -0.373 C  
HETATM    8  O   UNL     1     -10.858  17.189  69.389  1.00  0.00    -0.215 OA 
HETATM    9  O   UNL     1     -10.257  18.203  67.471  1.00  0.00    -0.336 OA 
HETATM   10  C   UNL     1     -10.575  17.180  68.062  1.00  0.00    -0.374 C  
HETATM   11  C   UNL     1      -9.474  15.262  66.682  1.00  0.00    -0.259 C  
HETATM   12  C   UNL     1      -8.516  16.311  66.107  1.00  0.00    -0.313 C  
HETATM   13  C   UNL     1      -9.831  14.292  65.539  1.00  0.00    -0.284 C  
HETATM   14  N   UNL     1     -11.125  14.796  68.407  1.00  0.00    -0.253 N  
HETATM   15  C   UNL     1     -10.735  15.803  67.396  1.00  0.00    -0.317 C  
BRANCH   3  16
HETATM   16  N   UNL     1     -10.487  11.607  67.818  1.00  0.00    -0.183 N  
HETATM   17  C   UNL     1      -9.685   8.295  67.501  1.00  0.00    -0.212 A  
HETATM   18  O   UNL     1      -8.719  10.789  69.030  1.00  0.00    -0.161 OA 
HETATM   19  C   UNL     1      -9.222   7.692  68.659  1.00  0.00    -0.141 A  
HETATM   20  O   UNL     1      -7.605   9.152  65.292  1.00  0.00    -0.095 OA 
HETATM   21  O   UNL     1      -6.855  10.050  67.210  1.00  0.00    -0.080 OA 
HETATM   22  C   UNL     1      -9.257   9.652  66.975  1.00  0.00    -0.167 C  
HETATM   23  H   UNL     1     -10.991  11.526  66.934  1.00  0.00     0.000 HD 
HETATM   24  C   UNL     1      -9.452  10.727  68.041  1.00  0.00    -0.160 C  
HETATM   25  S   UNL     1      -9.951   6.176  68.964  1.00  0.00    -0.164 SA 
HETATM   26  C   UNL     1      -7.848   9.599  66.410  1.00  0.00    -0.101 C  
HETATM   27  C   UNL     1     -10.872   6.272  67.531  1.00  0.00    -0.349 A  
HETATM   28  C   UNL     1     -10.634   7.440  66.841  1.00  0.00    -0.375 A  
ENDBRANCH   3  16
ENDBRANCH   2   3
TORSDOF 2
ENDMDL
MODEL       37
REMARK 921   NORMALIZED FREE ENERGY PREDICTED BY IDOCK:   -5.20 KCAL/MOL
REMARK 922        TOTAL FREE ENERGY PREDICTED BY IDOCK:   -6.29 KCAL/MOL
REMARK 923 INTER-LIGAND FREE ENERGY PREDICTED BY IDOCK:   -6.09 KCAL/MOL
REMARK 924 INTRA-LIGAND FREE ENERGY PREDICTED BY IDOCK:   -0.20 KCAL/MOL
REMARK 927      BINDING AFFINITY PREDICTED BY RF-SCORE:    0.00 PKD
ROOT
HETATM    1  C   UNL     1      -6.172  12.489  69.293  1.00  0.00    -0.105 C  
HETATM    2  O   UNL     1      -6.667  12.831  68.008  1.00  0.00    -0.076 OA 
ENDROOT
BRANCH   2   3
HETATM    3  C   UNL     1      -7.685  11.962  67.435  1.00  0.00    -0.158 C  
HETATM    4  C   UNL     1      -8.063  10.670  68.266  1.00  0.00    -0.118 C  
HETATM    5  O   UNL     1      -6.601  10.852  65.333  1.00  0.00    -0.016 OA 
HETATM    6  S   UNL     1      -9.743   9.957  68.155  1.00  0.00    -0.146 SA 
HETATM    7  C   UNL     1      -7.001  10.881  66.478  1.00  0.00    -0.139 C  
HETATM    8  O   UNL     1      -6.498   7.742  68.681  1.00  0.00    -0.045 OA 
HETATM    9  O   UNL     1      -7.689   6.242  67.497  1.00  0.00    -0.098 OA 
HETATM   10  C   UNL     1      -7.360   7.405  67.688  1.00  0.00    -0.092 C  
HETATM   11  C   UNL     1      -9.356   8.808  66.770  1.00  0.00    -0.179 C  
HETATM   12  C   UNL     1     -10.223   7.552  66.915  1.00  0.00    -0.359 C  
HETATM   13  C   UNL     1      -9.785   9.513  65.469  1.00  0.00    -0.344 C  
HETATM   14  N   UNL     1      -7.234   9.849  67.348  1.00  0.00    -0.085 N  
HETATM   15  C   UNL     1      -7.824   8.594  66.832  1.00  0.00    -0.091 C  
BRANCH   3  16
HETATM   16  N   UNL     1      -8.736  12.717  66.681  1.00  0.00    -0.407 N  
HETATM   17  C   UNL     1     -10.583  15.597  66.580  1.00  0.00    -0.307 A  
HETATM   18  O   UNL     1     -10.141  13.177  68.436  1.00  0.00    -0.235 OA 
HETATM   19  C   UNL     1     -10.783  16.207  67.808  1.00  0.00    -0.325 A  
HETATM   20  O   UNL     1     -12.920  13.891  65.328  1.00  0.00    -0.747 OA 
HETATM   21  O   UNL     1     -12.647  13.103  67.414  1.00  0.00    -0.030 OA 
HETATM   22  C   UNL     1     -10.722  14.113  66.294  1.00  0.00    -0.293 C  
HETATM   23  H   UNL     1      -8.618  12.807  65.671  1.00  0.00     0.000 HD 
HETATM   24  C   UNL     1      -9.849  13.298  67.244  1.00  0.00    -0.233 C  
HETATM   25  S   UNL     1     -10.501  17.893  67.773  1.00  0.00    -0.388 SA 
HETATM   26  C   UNL     1     -12.182  13.693  66.289  1.00  0.00    -0.436 C  
HETATM   27  C   UNL     1     -10.147  17.852  66.105  1.00  0.00    -0.320 A  
HETATM   28  C   UNL     1     -10.233  16.577  65.589  1.00  0.00    -0.316 A  
ENDBRANCH   3  16
ENDBRANCH   2   3
TORSDOF 2
ENDMDL
MODEL       38
REMARK 921   NORMALIZED FREE ENERGY PREDICTED BY IDOCK:   -5.14 KCAL/MOL
REMARK 922        TOTAL FREE ENERGY PREDICTED BY IDOCK:   -6.22 KCAL/MOL
REMARK 923 INTER-LIGAND FREE ENERGY PREDICTED BY IDOCK:   -5.68 KCAL/MOL
REMARK 924 INTRA-LIGAND FREE ENERGY PREDICTED BY IDOCK:   -0.54 KCAL/MOL
REMARK 927      BINDING AFFINITY PREDICTED BY RF-SCORE:    0.00 PKD
ROOT
HETATM    1  C   UNL     1      -9.458   8.725  66.438  1.00  0.00    -0.228 C  
HETATM    2  O   UNL     1     -10.453   7.754  66.721  1.00  0.00    -0.321 OA 
ENDROOT
BRANCH   2   3
HETATM    3  C   UNL     1     -10.006   6.489  67.283  1.00  0.00    -0.147 C  
HETATM    4  C   UNL     1      -8.477   6.130  67.093  1.00  0.00    -0.104 C  
HETATM    5  O   UNL     1     -11.099   4.613  65.830  1.00  0.00    -0.138 OA 
HETATM    6  S   UNL     1      -7.607   5.094  68.323  1.00  0.00    -0.080 SA 
HETATM    7  C   UNL     1     -10.189   5.320  66.209  1.00  0.00    -0.223 C  
HETATM    8  O   UNL     1      -6.758   5.002  64.452  1.00  0.00    -0.045 OA 
HETATM    9  O   UNL     1      -6.287   2.847  64.908  1.00  0.00    -0.022 OA 
HETATM   10  C   UNL     1      -6.995   3.829  65.093  1.00  0.00    -0.061 C  
HETATM   11  C   UNL     1      -7.965   3.492  67.488  1.00  0.00    -0.081 C  
HETATM   12  C   UNL     1      -6.804   2.528  67.755  1.00  0.00    -0.040 C  
HETATM   13  C   UNL     1      -9.215   2.902  68.169  1.00  0.00    -0.248 C  
HETATM   14  N   UNL     1      -8.842   5.200  65.994  1.00  0.00    -0.132 N  
HETATM   15  C   UNL     1      -8.230   3.853  66.007  1.00  0.00    -0.101 C  
BRANCH   3  16
HETATM   16  N   UNL     1     -10.719   6.131  68.551  1.00  0.00    -0.270 N  
HETATM   17  C   UNL     1     -12.322   7.376  71.306  1.00  0.00    -0.380 A  
HETATM   18  O   UNL     1      -9.538   7.473  69.988  1.00  0.00    -0.165 OA 
HETATM   19  C   UNL     1     -11.931   8.650  71.684  1.00  0.00    -0.326 A  
HETATM   20  O   UNL     1     -11.201   4.901  72.906  1.00  0.00    -0.260 OA 
HETATM   21  O   UNL     1      -9.400   6.111  72.325  1.00  0.00    -0.148 OA 
HETATM   22  C   UNL     1     -11.392   6.243  70.913  1.00  0.00    -0.389 C  
HETATM   23  H   UNL     1     -11.453   5.424  68.495  1.00  0.00     0.000 HD 
HETATM   24  C   UNL     1     -10.460   6.681  69.786  1.00  0.00    -0.211 C  
HETATM   25  S   UNL     1     -13.250   9.683  72.024  1.00  0.00    -0.456 SA 
HETATM   26  C   UNL     1     -10.668   5.685  72.126  1.00  0.00    -0.234 C  
HETATM   27  C   UNL     1     -14.374   8.436  71.716  1.00  0.00    -0.472 A  
HETATM   28  C   UNL     1     -13.754   7.261  71.352  1.00  0.00    -0.404 A  
ENDBRANCH   3  16
ENDBRANCH   2   3
TORSDOF 2
ENDMDL
MODEL       39
REMARK 921   NORMALIZED FREE ENERGY PREDICTED BY IDOCK:   -5.12 KCAL/MOL
REMARK 922        TOTAL FREE ENERGY PREDICTED BY IDOCK:   -6.21 KCAL/MOL
REMARK 923 INTER-LIGAND FREE ENERGY PREDICTED BY IDOCK:   -5.60 KCAL/MOL
REMARK 924 INTRA-LIGAND FREE ENERGY PREDICTED BY IDOCK:   -0.60 KCAL/MOL
REMARK 927      BINDING AFFINITY PREDICTED BY RF-SCORE:    0.00 PKD
ROOT
HETATM    1  C   UNL     1     -10.327   8.850  70.231  1.00  0.00    -0.206 C  
HETATM    2  O   UNL     1      -9.507   9.952  69.874  1.00  0.00    -0.220 OA 
ENDROOT
BRANCH   2   3
HETATM    3  C   UNL     1      -9.772  10.591  68.594  1.00  0.00    -0.173 C  
HETATM    4  C   UNL     1      -9.259  12.078  68.424  1.00  0.00    -0.160 C  
HETATM    5  O   UNL     1     -12.353  10.985  68.493  1.00  0.00    -0.536 OA 
HETATM    6  S   UNL     1      -8.789  12.714  66.776  1.00  0.00    -0.120 SA 
HETATM    7  C   UNL     1     -11.195  11.317  68.633  1.00  0.00    -0.250 C  
HETATM    8  O   UNL     1     -10.437  14.994  69.570  1.00  0.00    -0.241 OA 
HETATM    9  O   UNL     1     -11.318  16.039  67.780  1.00  0.00    -0.282 OA 
HETATM   10  C   UNL     1     -10.980  14.996  68.326  1.00  0.00    -0.271 C  
HETATM   11  C   UNL     1     -10.459  13.369  66.358  1.00  0.00    -0.286 C  
HETATM   12  C   UNL     1     -10.294  14.603  65.464  1.00  0.00    -0.383 C  
HETATM   13  C   UNL     1     -11.166  12.287  65.519  1.00  0.00    -0.376 C  
HETATM   14  N   UNL     1     -10.642  12.571  68.648  1.00  0.00    -0.230 N  
HETATM   15  C   UNL     1     -11.161  13.596  67.718  1.00  0.00    -0.285 C  
BRANCH   3  16
HETATM   16  N   UNL     1      -9.722   9.633  67.443  1.00  0.00    -0.151 N  
HETATM   17  C   UNL     1      -8.787   6.493  66.457  1.00  0.00    -0.142 A  
HETATM   18  O   UNL     1      -7.506   9.058  67.585  1.00  0.00    -0.084 OA 
HETATM   19  C   UNL     1      -7.754   5.932  67.191  1.00  0.00    -0.101 A  
HETATM   20  O   UNL     1      -8.150   7.722  63.624  1.00  0.00    -0.130 OA 
HETATM   21  O   UNL     1      -6.680   8.665  65.036  1.00  0.00    -0.067 OA 
HETATM   22  C   UNL     1      -8.830   7.914  65.929  1.00  0.00    -0.183 C  
HETATM   23  H   UNL     1     -10.576   9.504  66.900  1.00  0.00     0.000 HD 
HETATM   24  C   UNL     1      -8.612   8.915  67.061  1.00  0.00    -0.116 C  
HETATM   25  S   UNL     1      -8.060   4.315  67.653  1.00  0.00    -0.095 SA 
HETATM   26  C   UNL     1      -7.874   8.092  64.761  1.00  0.00    -0.137 C  
HETATM   27  C   UNL     1      -9.563   4.313  66.844  1.00  0.00    -0.203 A  
HETATM   28  C   UNL     1      -9.827   5.524  66.244  1.00  0.00    -0.173 A  
ENDBRANCH   3  16
ENDBRANCH   2   3
TORSDOF 2
ENDMDL
MODEL       40
REMARK 921   NORMALIZED FREE ENERGY PREDICTED BY IDOCK:   -5.09 KCAL/MOL
REMARK 922        TOTAL FREE ENERGY PREDICTED BY IDOCK:   -6.17 KCAL/MOL
REMARK 923 INTER-LIGAND FREE ENERGY PREDICTED BY IDOCK:   -5.66 KCAL/MOL
REMARK 924 INTRA-LIGAND FREE ENERGY PREDICTED BY IDOCK:   -0.51 KCAL/MOL
REMARK 927      BINDING AFFINITY PREDICTED BY RF-SCORE:    0.00 PKD
ROOT
HETATM    1  C   UNL     1      -5.704  11.661  70.566  1.00  0.00    -0.148 C  
HETATM    2  O   UNL     1      -6.345  11.772  69.306  1.00  0.00    -0.083 OA 
ENDROOT
BRANCH   2   3
HETATM    3  C   UNL     1      -7.621  11.090  69.147  1.00  0.00    -0.113 C  
HETATM    4  C   UNL     1      -7.828   9.769  69.993  1.00  0.00    -0.178 C  
HETATM    5  O   UNL     1      -7.622  10.090  66.734  1.00  0.00    -0.101 OA 
HETATM    6  S   UNL     1      -9.502   9.267  70.532  1.00  0.00    -0.274 SA 
HETATM    7  C   UNL     1      -7.533  10.044  67.942  1.00  0.00    -0.089 C  
HETATM    8  O   UNL     1      -6.672   6.654  69.594  1.00  0.00    -0.047 OA 
HETATM    9  O   UNL     1      -8.437   5.432  68.915  1.00  0.00    -0.099 OA 
HETATM   10  C   UNL     1      -7.892   6.524  69.016  1.00  0.00    -0.110 C  
HETATM   11  C   UNL     1      -9.860   8.233  69.051  1.00  0.00    -0.176 C  
HETATM   12  C   UNL     1     -10.775   7.076  69.469  1.00  0.00    -0.263 C  
HETATM   13  C   UNL     1     -10.657   9.115  68.071  1.00  0.00    -0.253 C  
HETATM   14  N   UNL     1      -7.555   8.960  68.779  1.00  0.00    -0.090 N  
HETATM   15  C   UNL     1      -8.476   7.841  68.481  1.00  0.00    -0.129 C  
BRANCH   3  16
HETATM   16  N   UNL     1      -8.761  12.034  68.919  1.00  0.00    -0.365 N  
HETATM   17  C   UNL     1     -10.787  13.455  66.555  1.00  0.00    -0.286 A  
HETATM   18  O   UNL     1      -7.798  13.334  67.293  1.00  0.00    -0.165 OA 
HETATM   19  C   UNL     1     -10.231  13.549  65.289  1.00  0.00    -0.306 A  
HETATM   20  O   UNL     1     -10.874  16.028  68.375  1.00  0.00    -0.279 OA 
HETATM   21  O   UNL     1      -8.741  15.840  67.696  1.00  0.00    -0.167 OA 
HETATM   22  C   UNL     1     -10.091  13.808  67.856  1.00  0.00    -0.246 C  
HETATM   23  H   UNL     1      -9.592  11.919  69.500  1.00  0.00     0.000 HD 
HETATM   24  C   UNL     1      -8.775  13.046  67.986  1.00  0.00    -0.187 C  
HETATM   25  S   UNL     1     -11.291  13.032  64.051  1.00  0.00    -0.411 SA 
HETATM   26  C   UNL     1      -9.947  15.312  68.008  1.00  0.00    -0.224 C  
HETATM   27  C   UNL     1     -12.533  12.711  65.177  1.00  0.00    -0.463 A  
HETATM   28  C   UNL     1     -12.142  12.984  66.469  1.00  0.00    -0.410 A  
ENDBRANCH   3  16
ENDBRANCH   2   3
TORSDOF 2
ENDMDL
MODEL       41
REMARK 921   NORMALIZED FREE ENERGY PREDICTED BY IDOCK:   -5.08 KCAL/MOL
REMARK 922        TOTAL FREE ENERGY PREDICTED BY IDOCK:   -6.16 KCAL/MOL
REMARK 923 INTER-LIGAND FREE ENERGY PREDICTED BY IDOCK:   -6.48 KCAL/MOL
REMARK 924 INTRA-LIGAND FREE ENERGY PREDICTED BY IDOCK:    0.32 KCAL/MOL
REMARK 927      BINDING AFFINITY PREDICTED BY RF-SCORE:    0.00 PKD
ROOT
HETATM    1  C   UNL     1     -10.527  12.575  63.367  1.00  0.00    -0.209 C  
HETATM    2  O   UNL     1      -9.982  13.443  64.348  1.00  0.00    -0.258 OA 
ENDROOT
BRANCH   2   3
HETATM    3  C   UNL     1     -10.254  13.126  65.741  1.00  0.00    -0.289 C  
HETATM    4  C   UNL     1      -9.424  11.936  66.372  1.00  0.00    -0.228 C  
HETATM    5  O   UNL     1     -12.652  12.091  65.803  1.00  0.00    -0.156 OA 
HETATM    6  S   UNL     1      -9.039  11.919  68.159  1.00  0.00    -0.192 SA 
HETATM    7  C   UNL     1     -11.440  12.059  65.835  1.00  0.00    -0.333 C  
HETATM    8  O   UNL     1      -9.698   8.614  66.072  1.00  0.00    -0.241 OA 
HETATM    9  O   UNL     1     -10.530   7.892  68.035  1.00  0.00    -0.213 OA 
HETATM   10  C   UNL     1     -10.385   8.800  67.227  1.00  0.00    -0.290 C  
HETATM   11  C   UNL     1     -10.541  10.976  68.654  1.00  0.00    -0.196 C  
HETATM   12  C   UNL     1     -10.203  10.121  69.880  1.00  0.00    -0.284 C  
HETATM   13  C   UNL     1     -11.595  12.010  69.093  1.00  0.00    -0.370 C  
HETATM   14  N   UNL     1     -10.603  11.046  66.223  1.00  0.00    -0.254 N  
HETATM   15  C   UNL     1     -10.979  10.209  67.383  1.00  0.00    -0.229 C  
BRANCH   3  16
HETATM   16  N   UNL     1     -10.591  14.335  66.559  1.00  0.00    -0.283 N  
HETATM   17  C   UNL     1      -9.796  17.606  67.175  1.00  0.00    -0.306 A  
HETATM   18  O   UNL     1      -8.482  14.822  67.319  1.00  0.00    -0.187 OA 
HETATM   19  C   UNL     1      -8.485  17.953  66.889  1.00  0.00    -0.244 A  
HETATM   20  O   UNL     1     -10.617  17.096  70.176  1.00  0.00     0.027 OA 
HETATM   21  O   UNL     1      -8.809  15.813  69.818  1.00  0.00    -0.166 OA 
HETATM   22  C   UNL     1     -10.242  16.357  67.912  1.00  0.00    -0.268 C  
HETATM   23  H   UNL     1     -11.573  14.607  66.614  1.00  0.00     0.000 HD 
HETATM   24  C   UNL     1      -9.679  15.107  67.241  1.00  0.00    -0.210 C  
HETATM   25  S   UNL     1      -8.355  19.413  66.009  1.00  0.00    -0.112 SA 
HETATM   26  C   UNL     1      -9.922  16.455  69.394  1.00  0.00    -0.214 C  
HETATM   27  C   UNL     1     -10.047  19.637  66.028  1.00  0.00    -0.461 A  
HETATM   28  C   UNL     1     -10.695  18.614  66.683  1.00  0.00    -0.316 A  
ENDBRANCH   3  16
ENDBRANCH   2   3
TORSDOF 2
ENDMDL
MODEL       42
REMARK 921   NORMALIZED FREE ENERGY PREDICTED BY IDOCK:   -5.07 KCAL/MOL
REMARK 922        TOTAL FREE ENERGY PREDICTED BY IDOCK:   -6.15 KCAL/MOL
REMARK 923 INTER-LIGAND FREE ENERGY PREDICTED BY IDOCK:   -5.68 KCAL/MOL
REMARK 924 INTRA-LIGAND FREE ENERGY PREDICTED BY IDOCK:   -0.47 KCAL/MOL
REMARK 927      BINDING AFFINITY PREDICTED BY RF-SCORE:    0.00 PKD
ROOT
HETATM    1  C   UNL     1      -6.155  13.108  70.363  1.00  0.00    -0.049 C  
HETATM    2  O   UNL     1      -6.026  13.519  69.011  1.00  0.00    -0.075 OA 
ENDROOT
BRANCH   2   3
HETATM    3  C   UNL     1      -6.949  12.937  68.048  1.00  0.00    -0.108 C  
HETATM    4  C   UNL     1      -7.842  11.736  68.560  1.00  0.00    -0.144 C  
HETATM    5  O   UNL     1      -5.480  11.694  66.283  1.00  0.00    -0.279 OA 
HETATM    6  S   UNL     1      -9.497  11.439  67.842  1.00  0.00    -0.179 SA 
HETATM    7  C   UNL     1      -6.224  11.767  67.237  1.00  0.00    -0.130 C  
HETATM    8  O   UNL     1      -7.147   8.508  69.105  1.00  0.00    -0.061 OA 
HETATM    9  O   UNL     1      -8.156   7.379  67.438  1.00  0.00    -0.110 OA 
HETATM   10  C   UNL     1      -7.677   8.424  67.858  1.00  0.00    -0.103 C  
HETATM   11  C   UNL     1      -8.915  10.291  66.526  1.00  0.00    -0.144 C  
HETATM   12  C   UNL     1     -10.020   9.268  66.242  1.00  0.00    -0.357 C  
HETATM   13  C   UNL     1      -8.730  11.131  65.248  1.00  0.00    -0.030 C  
HETATM   14  N   UNL     1      -6.943  10.783  67.862  1.00  0.00    -0.073 N  
HETATM   15  C   UNL     1      -7.572   9.723  67.044  1.00  0.00    -0.092 C  
BRANCH   3  16
HETATM   16  N   UNL     1      -7.508  13.948  67.094  1.00  0.00    -0.338 N  
HETATM   17  C   UNL     1      -8.368  17.235  66.686  1.00  0.00    -0.291 A  
HETATM   18  O   UNL     1      -9.132  14.829  68.453  1.00  0.00    -0.176 OA 
HETATM   19  C   UNL     1      -8.701  17.902  67.855  1.00  0.00    -0.252 A  
HETATM   20  O   UNL     1     -10.681  16.250  64.783  1.00  0.00    -0.680 OA 
HETATM   21  O   UNL     1     -11.198  15.461  66.821  1.00  0.00    -0.298 OA 
HETATM   22  C   UNL     1      -8.843  15.849  66.291  1.00  0.00    -0.386 C  
HETATM   23  H   UNL     1      -7.109  13.979  66.155  1.00  0.00     0.000 HD 
HETATM   24  C   UNL     1      -8.517  14.836  67.385  1.00  0.00    -0.201 C  
HETATM   25  S   UNL     1      -7.953  19.433  67.989  1.00  0.00    -0.313 SA 
HETATM   26  C   UNL     1     -10.308  15.868  65.888  1.00  0.00    -0.365 C  
HETATM   27  C   UNL     1      -7.202  19.258  66.467  1.00  0.00    -0.229 A  
HETATM   28  C   UNL     1      -7.508  18.052  65.875  1.00  0.00    -0.213 A  
ENDBRANCH   3  16
ENDBRANCH   2   3
TORSDOF 2
ENDMDL
MODEL       43
REMARK 921   NORMALIZED FREE ENERGY PREDICTED BY IDOCK:   -4.95 KCAL/MOL
REMARK 922        TOTAL FREE ENERGY PREDICTED BY IDOCK:   -6.01 KCAL/MOL
REMARK 923 INTER-LIGAND FREE ENERGY PREDICTED BY IDOCK:   -5.40 KCAL/MOL
REMARK 924 INTRA-LIGAND FREE ENERGY PREDICTED BY IDOCK:   -0.61 KCAL/MOL
REMARK 927      BINDING AFFINITY PREDICTED BY RF-SCORE:    0.00 PKD
ROOT
HETATM    1  C   UNL     1      -7.507   8.016  67.006  1.00  0.00    -0.092 C  
HETATM    2  O   UNL     1      -8.916   7.940  66.858  1.00  0.00    -0.127 OA 
ENDROOT
BRANCH   2   3
HETATM    3  C   UNL     1      -9.724   8.226  68.034  1.00  0.00    -0.161 C  
HETATM    4  C   UNL     1      -9.062   7.927  69.439  1.00  0.00    -0.145 C  
HETATM    5  O   UNL     1     -11.647   6.458  68.049  1.00  0.00     0.020 OA 
HETATM    6  S   UNL     1      -9.533   8.901  70.912  1.00  0.00    -0.259 SA 
HETATM    7  C   UNL     1     -10.600   6.946  68.417  1.00  0.00    -0.210 C  
HETATM    8  O   UNL     1      -8.539   5.069  71.099  1.00  0.00    -0.119 OA 
HETATM    9  O   UNL     1     -10.018   5.072  72.797  1.00  0.00    -0.156 OA 
HETATM   10  C   UNL     1      -9.696   5.468  71.684  1.00  0.00    -0.161 C  
HETATM   11  C   UNL     1     -10.888   7.774  71.443  1.00  0.00    -0.228 C  
HETATM   12  C   UNL     1     -10.989   7.811  72.972  1.00  0.00    -0.442 C  
HETATM   13  C   UNL     1     -12.201   8.356  70.884  1.00  0.00    -0.106 C  
HETATM   14  N   UNL     1      -9.855   6.675  69.535  1.00  0.00    -0.152 N  
HETATM   15  C   UNL     1     -10.550   6.402  70.811  1.00  0.00    -0.238 C  
BRANCH   3  16
HETATM   16  N   UNL     1     -10.616   9.416  67.851  1.00  0.00    -0.309 N  
HETATM   17  C   UNL     1     -11.330  12.096  65.846  1.00  0.00    -0.407 A  
HETATM   18  O   UNL     1      -8.992  11.004  67.530  1.00  0.00    -0.137 OA 
HETATM   19  C   UNL     1     -10.265  12.564  65.094  1.00  0.00    -0.279 A  
HETATM   20  O   UNL     1     -12.155  13.656  68.459  1.00  0.00    -0.364 OA 
HETATM   21  O   UNL     1      -9.949  13.276  68.652  1.00  0.00    -0.210 OA 
HETATM   22  C   UNL     1     -11.282  11.721  67.315  1.00  0.00    -0.364 C  
HETATM   23  H   UNL     1     -11.622   9.269  67.941  1.00  0.00     0.000 HD 
HETATM   24  C   UNL     1     -10.184  10.692  67.572  1.00  0.00    -0.199 C  
HETATM   25  S   UNL     1     -10.672  12.851  63.459  1.00  0.00     0.153 SA 
HETATM   26  C   UNL     1     -11.181  12.958  68.191  1.00  0.00    -0.270 C  
HETATM   27  C   UNL     1     -12.294  12.395  63.728  1.00  0.00    -0.528 A  
HETATM   28  C   UNL     1     -12.516  12.024  65.036  1.00  0.00     0.087 A  
ENDBRANCH   3  16
ENDBRANCH   2   3
TORSDOF 2
ENDMDL
MODEL       44
REMARK 921   NORMALIZED FREE ENERGY PREDICTED BY IDOCK:   -4.93 KCAL/MOL
REMARK 922        TOTAL FREE ENERGY PREDICTED BY IDOCK:   -5.99 KCAL/MOL
REMARK 923 INTER-LIGAND FREE ENERGY PREDICTED BY IDOCK:   -5.50 KCAL/MOL
REMARK 924 INTRA-LIGAND FREE ENERGY PREDICTED BY IDOCK:   -0.48 KCAL/MOL
REMARK 927      BINDING AFFINITY PREDICTED BY RF-SCORE:    0.00 PKD
ROOT
HETATM    1  C   UNL     1     -11.881  12.289  68.868  1.00  0.00    -0.303 C  
HETATM    2  O   UNL     1     -11.701  10.885  68.762  1.00  0.00    -0.298 OA 
ENDROOT
BRANCH   2   3
HETATM    3  C   UNL     1     -10.418  10.416  68.259  1.00  0.00    -0.191 C  
HETATM    4  C   UNL     1      -9.790  11.227  67.054  1.00  0.00    -0.191 C  
HETATM    5  O   UNL     1     -10.886   8.134  67.077  1.00  0.00    -0.265 OA 
HETATM    6  S   UNL     1      -7.977  11.315  66.841  1.00  0.00    -0.159 SA 
HETATM    7  C   UNL     1     -10.649   9.323  67.117  1.00  0.00    -0.216 C  
HETATM    8  O   UNL     1     -10.500  11.281  63.784  1.00  0.00    -0.342 OA 
HETATM    9  O   UNL     1      -8.801  10.201  62.776  1.00  0.00    -0.179 OA 
HETATM   10  C   UNL     1      -9.467  10.401  63.783  1.00  0.00    -0.305 C  
HETATM   11  C   UNL     1      -7.856   9.835  65.753  1.00  0.00    -0.110 C  
HETATM   12  C   UNL     1      -6.692  10.037  64.776  1.00  0.00    -0.127 C  
HETATM   13  C   UNL     1      -7.492   8.642  66.657  1.00  0.00    -0.089 C  
HETATM   14  N   UNL     1     -10.238  10.165  66.118  1.00  0.00    -0.235 N  
HETATM   15  C   UNL     1      -9.260   9.675  65.122  1.00  0.00    -0.246 C  
BRANCH   3  16
HETATM   16  N   UNL     1      -9.542   9.852  69.335  1.00  0.00    -0.202 N  
HETATM   17  C   UNL     1      -8.343   6.972  70.742  1.00  0.00    -0.129 A  
HETATM   18  O   UNL     1     -11.042   8.374  70.245  1.00  0.00    -0.249 OA 
HETATM   19  C   UNL     1      -9.156   5.861  70.583  1.00  0.00    -0.149 A  
HETATM   20  O   UNL     1      -8.354   8.483  73.509  1.00  0.00    -0.381 OA 
HETATM   21  O   UNL     1     -10.510   8.323  72.900  1.00  0.00    -0.314 OA 
HETATM   22  C   UNL     1      -8.807   8.359  71.144  1.00  0.00    -0.201 C  
HETATM   23  H   UNL     1      -8.603  10.239  69.428  1.00  0.00     0.000 HD 
HETATM   24  C   UNL     1      -9.907   8.851  70.207  1.00  0.00    -0.183 C  
HETATM   25  S   UNL     1      -8.298   4.468  70.085  1.00  0.00    -0.070 SA 
HETATM   26  C   UNL     1      -9.190   8.402  72.614  1.00  0.00    -0.254 C  
HETATM   27  C   UNL     1      -6.813   5.309  70.113  1.00  0.00    -0.048 A  
HETATM   28  C   UNL     1      -6.972   6.626  70.485  1.00  0.00    -0.064 A  
ENDBRANCH   3  16
ENDBRANCH   2   3
TORSDOF 2
ENDMDL
MODEL       45
REMARK 921   NORMALIZED FREE ENERGY PREDICTED BY IDOCK:   -4.89 KCAL/MOL
REMARK 922        TOTAL FREE ENERGY PREDICTED BY IDOCK:   -5.94 KCAL/MOL
REMARK 923 INTER-LIGAND FREE ENERGY PREDICTED BY IDOCK:   -5.92 KCAL/MOL
REMARK 924 INTRA-LIGAND FREE ENERGY PREDICTED BY IDOCK:   -0.02 KCAL/MOL
REMARK 927      BINDING AFFINITY PREDICTED BY RF-SCORE:    0.00 PKD
ROOT
HETATM    1  C   UNL     1     -10.563   5.354  66.522  1.00  0.00    -0.289 C  
HETATM    2  O   UNL     1     -10.316   5.756  67.860  1.00  0.00    -0.177 OA 
ENDROOT
BRANCH   2   3
HETATM    3  C   UNL     1      -9.958   7.149  68.081  1.00  0.00    -0.151 C  
HETATM    4  C   UNL     1      -9.981   8.095  66.813  1.00  0.00    -0.279 C  
HETATM    5  O   UNL     1      -7.402   7.172  68.620  1.00  0.00    -0.091 OA 
HETATM    6  S   UNL     1     -10.347   9.878  66.994  1.00  0.00    -0.230 SA 
HETATM    7  C   UNL     1      -8.379   7.337  67.921  1.00  0.00    -0.119 C  
HETATM    8  O   UNL     1      -7.851   8.463  64.258  1.00  0.00    -0.128 OA 
HETATM    9  O   UNL     1      -6.821  10.435  64.604  1.00  0.00    -0.105 OA 
HETATM   10  C   UNL     1      -7.431   9.476  65.058  1.00  0.00    -0.110 C  
HETATM   11  C   UNL     1      -8.593  10.397  67.202  1.00  0.00    -0.130 C  
HETATM   12  C   UNL     1      -8.422  11.802  66.615  1.00  0.00    -0.153 C  
HETATM   13  C   UNL     1      -8.333  10.500  68.717  1.00  0.00    -0.136 C  
HETATM   14  N   UNL     1      -8.501   8.011  66.735  1.00  0.00    -0.125 N  
HETATM   15  C   UNL     1      -7.753   9.273  66.547  1.00  0.00    -0.093 C  
BRANCH   3  16
HETATM   16  N   UNL     1     -10.398   7.658  69.419  1.00  0.00    -0.211 N  
HETATM   17  C   UNL     1     -11.020   6.800  72.673  1.00  0.00    -0.291 A  
HETATM   18  O   UNL     1     -12.031   6.104  69.847  1.00  0.00    -0.090 OA 
HETATM   19  C   UNL     1     -11.368   5.474  72.872  1.00  0.00    -0.291 A  
HETATM   20  O   UNL     1     -13.288   8.989  72.673  1.00  0.00    -0.458 OA 
HETATM   21  O   UNL     1     -13.962   7.420  71.214  1.00  0.00    -0.376 OA 
HETATM   22  C   UNL     1     -11.562   7.706  71.584  1.00  0.00    -0.301 C  
HETATM   23  H   UNL     1      -9.950   8.504  69.772  1.00  0.00     0.000 HD 
HETATM   24  C   UNL     1     -11.362   7.073  70.209  1.00  0.00    -0.295 C  
HETATM   25  S   UNL     1     -10.531   4.748  74.173  1.00  0.00    -0.295 SA 
HETATM   26  C   UNL     1     -13.000   8.105  71.872  1.00  0.00    -0.333 C  
HETATM   27  C   UNL     1      -9.713   6.203  74.528  1.00  0.00    -0.277 A  
HETATM   28  C   UNL     1     -10.067   7.217  73.665  1.00  0.00    -0.389 A  
ENDBRANCH   3  16
ENDBRANCH   2   3
TORSDOF 2
ENDMDL
MODEL       46
REMARK 921   NORMALIZED FREE ENERGY PREDICTED BY IDOCK:   -4.88 KCAL/MOL
REMARK 922        TOTAL FREE ENERGY PREDICTED BY IDOCK:   -5.94 KCAL/MOL
REMARK 923 INTER-LIGAND FREE ENERGY PREDICTED BY IDOCK:   -5.43 KCAL/MOL
REMARK 924 INTRA-LIGAND FREE ENERGY PREDICTED BY IDOCK:   -0.51 KCAL/MOL
REMARK 927      BINDING AFFINITY PREDICTED BY RF-SCORE:    0.00 PKD
ROOT
HETATM    1  C   UNL     1      -8.061  10.318  63.550  1.00  0.00    -0.152 C  
HETATM    2  O   UNL     1      -7.813  10.012  64.914  1.00  0.00    -0.131 OA 
ENDROOT
BRANCH   2   3
HETATM    3  C   UNL     1      -8.893  10.259  65.857  1.00  0.00    -0.159 C  
HETATM    4  C   UNL     1      -9.563  11.691  65.810  1.00  0.00    -0.232 C  
HETATM    5  O   UNL     1      -7.792  10.348  68.224  1.00  0.00    -0.101 OA 
HETATM    6  S   UNL     1     -11.315  11.912  66.281  1.00  0.00    -0.288 SA 
HETATM    7  C   UNL     1      -8.299  10.821  67.230  1.00  0.00    -0.124 C  
HETATM    8  O   UNL     1      -8.549  14.671  66.946  1.00  0.00    -0.225 OA 
HETATM    9  O   UNL     1      -9.838  15.109  68.739  1.00  0.00    -0.208 OA 
HETATM   10  C   UNL     1      -9.345  14.289  67.976  1.00  0.00    -0.200 C  
HETATM   11  C   UNL     1     -10.978  12.259  68.057  1.00  0.00    -0.225 C  
HETATM   12  C   UNL     1     -12.049  13.221  68.582  1.00  0.00    -0.257 C  
HETATM   13  C   UNL     1     -11.149  10.928  68.814  1.00  0.00    -0.310 C  
HETATM   14  N   UNL     1      -8.788  12.083  67.014  1.00  0.00    -0.190 N  
HETATM   15  C   UNL     1      -9.517  12.767  68.104  1.00  0.00    -0.219 C  
BRANCH   3  16
HETATM   16  N   UNL     1      -9.723   9.040  66.124  1.00  0.00    -0.274 N  
HETATM   17  C   UNL     1     -10.322   6.491  68.327  1.00  0.00    -0.223 A  
HETATM   18  O   UNL     1      -8.021   7.573  66.587  1.00  0.00    -0.106 OA 
HETATM   19  C   UNL     1      -9.244   6.142  69.125  1.00  0.00    -0.127 A  
HETATM   20  O   UNL     1     -11.022   4.688  65.837  1.00  0.00    -0.195 OA 
HETATM   21  O   UNL     1      -8.837   5.172  65.638  1.00  0.00    -0.137 OA 
HETATM   22  C   UNL     1     -10.272   6.751  66.833  1.00  0.00    -0.300 C  
HETATM   23  H   UNL     1     -10.733   9.124  66.012  1.00  0.00     0.000 HD 
HETATM   24  C   UNL     1      -9.227   7.815  66.508  1.00  0.00    -0.184 C  
HETATM   25  S   UNL     1      -9.661   5.963  70.773  1.00  0.00    -0.173 SA 
HETATM   26  C   UNL     1     -10.091   5.456  66.059  1.00  0.00    -0.075 C  
HETATM   27  C   UNL     1     -11.301   6.306  70.451  1.00  0.00    -0.372 A  
HETATM   28  C   UNL     1     -11.522   6.561  69.115  1.00  0.00    -0.245 A  
ENDBRANCH   3  16
ENDBRANCH   2   3
TORSDOF 2
ENDMDL
MODEL       47
REMARK 921   NORMALIZED FREE ENERGY PREDICTED BY IDOCK:   -4.86 KCAL/MOL
REMARK 922        TOTAL FREE ENERGY PREDICTED BY IDOCK:   -5.91 KCAL/MOL
REMARK 923 INTER-LIGAND FREE ENERGY PREDICTED BY IDOCK:   -6.26 KCAL/MOL
REMARK 924 INTRA-LIGAND FREE ENERGY PREDICTED BY IDOCK:    0.35 KCAL/MOL
REMARK 927      BINDING AFFINITY PREDICTED BY RF-SCORE:    0.00 PKD
ROOT
HETATM    1  C   UNL     1     -10.441  14.610  69.155  1.00  0.00    -0.233 C  
HETATM    2  O   UNL     1     -10.953  13.295  69.295  1.00  0.00    -0.196 OA 
ENDROOT
BRANCH   2   3
HETATM    3  C   UNL     1     -10.267  12.234  68.572  1.00  0.00    -0.206 C  
HETATM    4  C   UNL     1      -9.391  12.674  67.331  1.00  0.00    -0.189 C  
HETATM    5  O   UNL     1     -12.124  10.858  67.355  1.00  0.00    -0.083 OA 
HETATM    6  S   UNL     1      -7.921  11.702  66.843  1.00  0.00    -0.141 SA 
HETATM    7  C   UNL     1     -11.215  11.657  67.422  1.00  0.00    -0.298 C  
HETATM    8  O   UNL     1     -10.220  13.585  64.219  1.00  0.00    -0.368 OA 
HETATM    9  O   UNL     1      -9.619  11.862  62.901  1.00  0.00    -0.367 OA 
HETATM   10  C   UNL     1      -9.933  12.275  64.009  1.00  0.00    -0.258 C  
HETATM   11  C   UNL     1      -8.819  10.603  65.669  1.00  0.00    -0.186 C  
HETATM   12  C   UNL     1      -7.865  10.211  64.535  1.00  0.00    -0.141 C  
HETATM   13  C   UNL     1      -9.169   9.315  66.439  1.00  0.00    -0.227 C  
HETATM   14  N   UNL     1     -10.472  12.222  66.419  1.00  0.00    -0.232 N  
HETATM   15  C   UNL     1     -10.085  11.392  65.258  1.00  0.00    -0.268 C  
BRANCH   3  16
HETATM   16  N   UNL     1      -9.816  11.119  69.466  1.00  0.00    -0.402 N  
HETATM   17  C   UNL     1      -9.877   7.734  69.965  1.00  0.00    -0.181 A  
HETATM   18  O   UNL     1     -11.846  10.096  69.775  1.00  0.00    -0.191 OA 
HETATM   19  C   UNL     1     -10.969   7.082  69.416  1.00  0.00    -0.201 A  
HETATM   20  O   UNL     1      -9.853   8.329  73.060  1.00  0.00    -0.266 OA 
HETATM   21  O   UNL     1     -11.809   9.133  72.305  1.00  0.00    -0.312 OA 
HETATM   22  C   UNL     1      -9.922   9.029  70.755  1.00  0.00    -0.307 C  
HETATM   23  H   UNL     1      -8.831  11.098  69.732  1.00  0.00     0.000 HD 
HETATM   24  C   UNL     1     -10.627  10.122  69.956  1.00  0.00    -0.287 C  
HETATM   25  S   UNL     1     -10.543   5.666  68.557  1.00  0.00    -0.151 SA 
HETATM   26  C   UNL     1     -10.509   8.804  72.138  1.00  0.00    -0.314 C  
HETATM   27  C   UNL     1      -8.892   5.870  68.936  1.00  0.00    -0.115 A  
HETATM   28  C   UNL     1      -8.672   7.000  69.693  1.00  0.00    -0.141 A  
ENDBRANCH   3  16
ENDBRANCH   2   3
TORSDOF 2
ENDMDL
MODEL       48
REMARK 921   NORMALIZED FREE ENERGY PREDICTED BY IDOCK:   -4.85 KCAL/MOL
REMARK 922        TOTAL FREE ENERGY PREDICTED BY IDOCK:   -5.90 KCAL/MOL
REMARK 923 INTER-LIGAND FREE ENERGY PREDICTED BY IDOCK:   -5.35 KCAL/MOL
REMARK 924 INTRA-LIGAND FREE ENERGY PREDICTED BY IDOCK:   -0.55 KCAL/MOL
REMARK 927      BINDING AFFINITY PREDICTED BY RF-SCORE:    0.00 PKD
ROOT
HETATM    1  C   UNL     1     -12.641   8.698  72.066  1.00  0.00    -0.378 C  
HETATM    2  O   UNL     1     -11.497   9.462  71.717  1.00  0.00    -0.380 OA 
ENDROOT
BRANCH   2   3
HETATM    3  C   UNL     1     -10.405   8.761  71.058  1.00  0.00    -0.233 C  
HETATM    4  C   UNL     1     -10.571   7.198  70.882  1.00  0.00    -0.220 C  
HETATM    5  O   UNL     1      -8.388   8.823  72.716  1.00  0.00    -0.412 OA 
HETATM    6  S   UNL     1      -9.783   6.335  69.476  1.00  0.00    -0.148 SA 
HETATM    7  C   UNL     1      -9.320   8.306  72.138  1.00  0.00    -0.234 C  
HETATM    8  O   UNL     1     -10.246   4.659  73.039  1.00  0.00    -0.155 OA 
HETATM    9  O   UNL     1      -8.330   3.622  72.473  1.00  0.00    -0.083 OA 
HETATM   10  C   UNL     1      -9.017   4.635  72.465  1.00  0.00    -0.120 C  
HETATM   11  C   UNL     1      -8.215   5.950  70.362  1.00  0.00    -0.111 C  
HETATM   12  C   UNL     1      -7.659   4.627  69.824  1.00  0.00    -0.055 C  
HETATM   13  C   UNL     1      -7.208   7.055  69.990  1.00  0.00    -0.079 C  
HETATM   14  N   UNL     1      -9.654   6.982  72.030  1.00  0.00    -0.140 N  
HETATM   15  C   UNL     1      -8.577   5.981  71.866  1.00  0.00    -0.137 C  
BRANCH   3  16
HETATM   16  N   UNL     1      -9.748   9.581  69.990  1.00  0.00    -0.220 N  
HETATM   17  C   UNL     1     -10.172  12.166  67.788  1.00  0.00    -0.207 A  
HETATM   18  O   UNL     1     -11.366   9.387  68.376  1.00  0.00     0.092 OA 
HETATM   19  C   UNL     1     -11.482  12.388  67.391  1.00  0.00    -0.352 A  
HETATM   20  O   UNL     1      -8.225  10.640  65.835  1.00  0.00    -0.152 OA 
HETATM   21  O   UNL     1     -10.046   9.338  66.011  1.00  0.00    -0.297 OA 
HETATM   22  C   UNL     1      -9.490  10.815  67.879  1.00  0.00    -0.165 C  
HETATM   23  H   UNL     1      -8.822   9.960  70.191  1.00  0.00     0.000 HD 
HETATM   24  C   UNL     1     -10.296   9.863  68.760  1.00  0.00    -0.203 C  
HETATM   25  S   UNL     1     -11.929  14.037  67.444  1.00  0.00    -0.364 SA 
HETATM   26  C   UNL     1      -9.186  10.262  66.497  1.00  0.00    -0.153 C  
HETATM   27  C   UNL     1     -10.368  14.498  67.958  1.00  0.00    -0.229 A  
HETATM   28  C   UNL     1      -9.529  13.414  68.095  1.00  0.00    -0.218 A  
ENDBRANCH   3  16
ENDBRANCH   2   3
TORSDOF 2
ENDMDL
MODEL       49
REMARK 921   NORMALIZED FREE ENERGY PREDICTED BY IDOCK:   -4.85 KCAL/MOL
REMARK 922        TOTAL FREE ENERGY PREDICTED BY IDOCK:   -5.90 KCAL/MOL
REMARK 923 INTER-LIGAND FREE ENERGY PREDICTED BY IDOCK:   -5.53 KCAL/MOL
REMARK 924 INTRA-LIGAND FREE ENERGY PREDICTED BY IDOCK:   -0.36 KCAL/MOL
REMARK 927      BINDING AFFINITY PREDICTED BY RF-SCORE:    0.00 PKD
ROOT
HETATM    1  C   UNL     1     -12.301   9.896  71.687  1.00  0.00    -0.406 C  
HETATM    2  O   UNL     1     -11.537  10.198  70.529  1.00  0.00    -0.280 OA 
ENDROOT
BRANCH   2   3
HETATM    3  C   UNL     1     -10.562   9.207  70.100  1.00  0.00    -0.228 C  
HETATM    4  C   UNL     1     -11.053   7.704  70.051  1.00  0.00    -0.191 C  
HETATM    5  O   UNL     1      -8.790   9.046  72.013  1.00  0.00    -0.373 OA 
HETATM    6  S   UNL     1     -10.320   6.527  68.858  1.00  0.00    -0.216 SA 
HETATM    7  C   UNL     1      -9.741   8.670  71.361  1.00  0.00    -0.244 C  
HETATM    8  O   UNL     1     -11.562   5.439  72.462  1.00  0.00    -0.249 OA 
HETATM    9  O   UNL     1      -9.875   3.960  72.273  1.00  0.00    -0.146 OA 
HETATM   10  C   UNL     1     -10.311   5.086  72.072  1.00  0.00    -0.213 C  
HETATM   11  C   UNL     1      -8.994   5.933  69.989  1.00  0.00    -0.141 C  
HETATM   12  C   UNL     1      -8.690   4.467  69.662  1.00  0.00    -0.114 C  
HETATM   13  C   UNL     1      -7.728   6.747  69.660  1.00  0.00    -0.110 C  
HETATM   14  N   UNL     1     -10.349   7.442  71.332  1.00  0.00    -0.195 N  
HETATM   15  C   UNL     1      -9.513   6.225  71.417  1.00  0.00    -0.156 C  
BRANCH   3  16
HETATM   16  N   UNL     1      -9.616   9.732  69.063  1.00  0.00    -0.169 N  
HETATM   17  C   UNL     1      -9.034  12.262  66.833  1.00  0.00    -0.207 A  
HETATM   18  O   UNL     1     -11.129  10.067  67.371  1.00  0.00    -0.257 OA 
HETATM   19  C   UNL     1     -10.171  12.907  66.371  1.00  0.00    -0.267 A  
HETATM   20  O   UNL     1      -7.637  10.124  64.984  1.00  0.00    -0.136 OA 
HETATM   21  O   UNL     1      -9.799   9.523  65.075  1.00  0.00    -0.203 OA 
HETATM   22  C   UNL     1      -8.858  10.761  66.963  1.00  0.00    -0.137 C  
HETATM   23  H   UNL     1      -8.627   9.777  69.308  1.00  0.00     0.000 HD 
HETATM   24  C   UNL     1      -9.979  10.159  67.806  1.00  0.00    -0.168 C  
HETATM   25  S   UNL     1     -10.031  14.611  66.394  1.00  0.00    -0.297 SA 
HETATM   26  C   UNL     1      -8.699  10.109  65.600  1.00  0.00    -0.158 C  
HETATM   27  C   UNL     1      -8.432  14.524  66.983  1.00  0.00    -0.196 A  
HETATM   28  C   UNL     1      -8.019  13.222  67.166  1.00  0.00    -0.077 A  
ENDBRANCH   3  16
ENDBRANCH   2   3
TORSDOF 2
ENDMDL
MODEL       50
REMARK 921   NORMALIZED FREE ENERGY PREDICTED BY IDOCK:   -4.84 KCAL/MOL
REMARK 922        TOTAL FREE ENERGY PREDICTED BY IDOCK:   -5.89 KCAL/MOL
REMARK 923 INTER-LIGAND FREE ENERGY PREDICTED BY IDOCK:   -6.80 KCAL/MOL
REMARK 924 INTRA-LIGAND FREE ENERGY PREDICTED BY IDOCK:    0.91 KCAL/MOL
REMARK 927      BINDING AFFINITY PREDICTED BY RF-SCORE:    0.00 PKD
ROOT
HETATM    1  C   UNL     1     -10.857  19.115  67.580  1.00  0.00    -0.414 C  
HETATM    2  O   UNL     1     -11.160  17.862  66.987  1.00  0.00    -0.058 OA 
ENDROOT
BRANCH   2   3
HETATM    3  C   UNL     1     -10.407  16.707  67.452  1.00  0.00    -0.292 C  
HETATM    4  C   UNL     1      -9.593  16.887  68.797  1.00  0.00    -0.268 C  
HETATM    5  O   UNL     1      -8.437  16.390  65.766  1.00  0.00    -0.346 OA 
HETATM    6  S   UNL     1      -9.289  15.456  69.894  1.00  0.00     0.198 SA 
HETATM    7  C   UNL     1      -8.940  16.723  66.818  1.00  0.00    -0.240 C  
HETATM    8  O   UNL     1      -6.700  18.428  69.470  1.00  0.00    -0.220 OA 
HETATM    9  O   UNL     1      -5.204  16.784  69.830  1.00  0.00    -0.148 OA 
HETATM   10  C   UNL     1      -6.256  17.155  69.324  1.00  0.00    -0.224 C  
HETATM   11  C   UNL     1      -7.684  14.983  69.125  1.00  0.00    -0.179 C  
HETATM   12  C   UNL     1      -6.784  14.368  70.203  1.00  0.00    -0.053 C  
HETATM   13  C   UNL     1      -7.989  13.877  68.097  1.00  0.00    -0.148 C  
HETATM   14  N   UNL     1      -8.344  17.042  68.009  1.00  0.00    -0.206 N  
HETATM   15  C   UNL     1      -7.159  16.272  68.448  1.00  0.00    -0.136 C  
BRANCH   3  16
HETATM   16  N   UNL     1     -11.083  15.408  67.139  1.00  0.00    -0.318 N  
HETATM   17  C   UNL     1     -10.622  12.226  65.965  1.00  0.00    -0.287 A  
HETATM   18  O   UNL     1     -10.307  15.134  64.998  1.00  0.00    -0.383 OA 
HETATM   19  C   UNL     1      -9.546  12.069  65.107  1.00  0.00    -0.072 A  
HETATM   20  O   UNL     1     -13.526  12.402  64.751  1.00  0.00    -0.600 OA 
HETATM   21  O   UNL     1     -12.311  13.926  63.635  1.00  0.00    -0.696 OA 
HETATM   22  C   UNL     1     -11.640  13.350  65.915  1.00  0.00    -0.370 C  
HETATM   23  H   UNL     1     -11.693  15.010  67.854  1.00  0.00     0.000 HD 
HETATM   24  C   UNL     1     -10.944  14.708  65.962  1.00  0.00    -0.325 C  
HETATM   25  S   UNL     1      -8.583  10.707  65.481  1.00  0.00    -0.176 SA 
HETATM   26  C   UNL     1     -12.579  13.183  64.733  1.00  0.00    -0.364 C  
HETATM   27  C   UNL     1      -9.608  10.271  66.774  1.00  0.00    -0.172 A  
HETATM   28  C   UNL     1     -10.656  11.153  66.921  1.00  0.00    -0.304 A  
ENDBRANCH   3  16
ENDBRANCH   2   3
TORSDOF 2
ENDMDL
MODEL       51
REMARK 921   NORMALIZED FREE ENERGY PREDICTED BY IDOCK:   -4.83 KCAL/MOL
REMARK 922        TOTAL FREE ENERGY PREDICTED BY IDOCK:   -5.88 KCAL/MOL
REMARK 923 INTER-LIGAND FREE ENERGY PREDICTED BY IDOCK:   -5.32 KCAL/MOL
REMARK 924 INTRA-LIGAND FREE ENERGY PREDICTED BY IDOCK:   -0.56 KCAL/MOL
REMARK 927      BINDING AFFINITY PREDICTED BY RF-SCORE:    0.00 PKD
ROOT
HETATM    1  C   UNL     1      -9.025   8.031  65.589  1.00  0.00    -0.054 C  
HETATM    2  O   UNL     1     -10.024   8.996  65.876  1.00  0.00    -0.276 OA 
ENDROOT
BRANCH   2   3
HETATM    3  C   UNL     1      -9.677  10.054  66.813  1.00  0.00    -0.189 C  
HETATM    4  C   UNL     1     -10.593  11.344  66.798  1.00  0.00    -0.255 C  
HETATM    5  O   UNL     1      -7.431  11.080  65.961  1.00  0.00    -0.123 OA 
HETATM    6  S   UNL     1     -10.824  12.334  68.318  1.00  0.00    -0.237 SA 
HETATM    7  C   UNL     1      -8.630  11.056  66.140  1.00  0.00    -0.175 C  
HETATM    8  O   UNL     1     -10.764  13.939  64.694  1.00  0.00    -0.397 OA 
HETATM    9  O   UNL     1      -9.865  15.681  65.801  1.00  0.00    -0.315 OA 
HETATM   10  C   UNL     1      -9.963  14.470  65.652  1.00  0.00    -0.347 C  
HETATM   11  C   UNL     1      -9.415  13.476  67.998  1.00  0.00    -0.220 C  
HETATM   12  C   UNL     1      -9.752  14.850  68.589  1.00  0.00    -0.226 C  
HETATM   13  C   UNL     1      -8.206  12.926  68.779  1.00  0.00     0.116 C  
HETATM   14  N   UNL     1      -9.551  12.063  66.023  1.00  0.00    -0.235 N  
HETATM   15  C   UNL     1      -9.186  13.425  66.468  1.00  0.00    -0.169 C  
BRANCH   3  16
HETATM   16  N   UNL     1      -9.122   9.529  68.102  1.00  0.00    -0.127 N  
HETATM   17  C   UNL     1      -9.086   6.870  70.256  1.00  0.00    -0.153 A  
HETATM   18  O   UNL     1     -11.097   8.886  69.077  1.00  0.00    -0.017 OA 
HETATM   19  C   UNL     1     -10.219   6.073  70.221  1.00  0.00    -0.208 A  
HETATM   20  O   UNL     1      -8.758   8.951  72.602  1.00  0.00    -0.373 OA 
HETATM   21  O   UNL     1     -10.792   9.338  71.730  1.00  0.00    -0.368 OA 
HETATM   22  C   UNL     1      -9.069   8.387  70.279  1.00  0.00    -0.149 C  
HETATM   23  H   UNL     1      -8.115   9.607  68.248  1.00  0.00     0.000 HD 
HETATM   24  C   UNL     1      -9.866   8.951  69.105  1.00  0.00    -0.180 C  
HETATM   25  S   UNL     1      -9.863   4.402  70.166  1.00  0.00    -0.181 SA 
HETATM   26  C   UNL     1      -9.510   8.918  71.632  1.00  0.00    -0.281 C  
HETATM   27  C   UNL     1      -8.185   4.704  70.231  1.00  0.00    -0.075 A  
HETATM   28  C   UNL     1      -7.905   6.052  70.284  1.00  0.00    -0.102 A  
ENDBRANCH   3  16
ENDBRANCH   2   3
TORSDOF 2
ENDMDL
MODEL       52
REMARK 921   NORMALIZED FREE ENERGY PREDICTED BY IDOCK:   -4.82 KCAL/MOL
REMARK 922        TOTAL FREE ENERGY PREDICTED BY IDOCK:   -5.86 KCAL/MOL
REMARK 923 INTER-LIGAND FREE ENERGY PREDICTED BY IDOCK:   -5.19 KCAL/MOL
REMARK 924 INTRA-LIGAND FREE ENERGY PREDICTED BY IDOCK:   -0.67 KCAL/MOL
REMARK 927      BINDING AFFINITY PREDICTED BY RF-SCORE:    0.00 PKD
ROOT
HETATM    1  C   UNL     1     -10.831   8.778  71.510  1.00  0.00    -0.304 C  
HETATM    2  O   UNL     1      -9.678   9.147  70.768  1.00  0.00    -0.228 OA 
ENDROOT
BRANCH   2   3
HETATM    3  C   UNL     1      -9.563   8.625  69.415  1.00  0.00    -0.166 C  
HETATM    4  C   UNL     1     -10.426   7.344  69.074  1.00  0.00    -0.210 C  
HETATM    5  O   UNL     1      -7.159   7.620  69.220  1.00  0.00    -0.072 OA 
HETATM    6  S   UNL     1     -11.018   7.052  67.369  1.00  0.00    -0.215 SA 
HETATM    7  C   UNL     1      -8.365   7.570  69.339  1.00  0.00    -0.132 C  
HETATM    8  O   UNL     1     -10.022   4.109  69.831  1.00  0.00    -0.209 OA 
HETATM    9  O   UNL     1      -9.405   3.107  67.911  1.00  0.00    -0.188 OA 
HETATM   10  C   UNL     1      -9.481   4.125  68.587  1.00  0.00    -0.156 C  
HETATM   11  C   UNL     1      -9.557   6.061  66.843  1.00  0.00    -0.140 C  
HETATM   12  C   UNL     1     -10.011   5.027  65.808  1.00  0.00    -0.147 C  
HETATM   13  C   UNL     1      -8.593   7.029  66.131  1.00  0.00    -0.148 C  
HETATM   14  N   UNL     1      -9.212   6.501  69.211  1.00  0.00    -0.139 N  
HETATM   15  C   UNL     1      -8.951   5.501  68.152  1.00  0.00    -0.108 C  
BRANCH   3  16
HETATM   16  N   UNL     1      -9.359   9.700  68.392  1.00  0.00    -0.133 N  
HETATM   17  C   UNL     1      -9.599  13.057  67.776  1.00  0.00    -0.208 A  
HETATM   18  O   UNL     1     -11.422  10.693  68.537  1.00  0.00    -0.286 OA 
HETATM   19  C   UNL     1     -10.540  13.727  68.543  1.00  0.00    -0.253 A  
HETATM   20  O   UNL     1     -10.309  12.320  64.794  1.00  0.00    -0.275 OA 
HETATM   21  O   UNL     1     -12.012  11.538  66.032  1.00  0.00    -0.227 OA 
HETATM   22  C   UNL     1      -9.809  11.728  67.077  1.00  0.00    -0.213 C  
HETATM   23  H   UNL     1      -8.468   9.715  67.896  1.00  0.00     0.000 HD 
HETATM   24  C   UNL     1     -10.282  10.668  68.069  1.00  0.00    -0.175 C  
HETATM   25  S   UNL     1      -9.946  15.184  69.211  1.00  0.00    -0.230 SA 
HETATM   26  C   UNL     1     -10.715  11.884  65.867  1.00  0.00    -0.284 C  
HETATM   27  C   UNL     1      -8.430  14.974  68.456  1.00  0.00    -0.163 A  
HETATM   28  C   UNL     1      -8.378  13.812  67.718  1.00  0.00    -0.180 A  
ENDBRANCH   3  16
ENDBRANCH   2   3
TORSDOF 2
ENDMDL
MODEL       53
REMARK 921   NORMALIZED FREE ENERGY PREDICTED BY IDOCK:   -4.81 KCAL/MOL
REMARK 922        TOTAL FREE ENERGY PREDICTED BY IDOCK:   -5.86 KCAL/MOL
REMARK 923 INTER-LIGAND FREE ENERGY PREDICTED BY IDOCK:   -5.44 KCAL/MOL
REMARK 924 INTRA-LIGAND FREE ENERGY PREDICTED BY IDOCK:   -0.42 KCAL/MOL
REMARK 927      BINDING AFFINITY PREDICTED BY RF-SCORE:    0.00 PKD
ROOT
HETATM    1  C   UNL     1      -7.531   9.816  65.556  1.00  0.00    -0.115 C  
HETATM    2  O   UNL     1      -8.926   9.669  65.769  1.00  0.00    -0.150 OA 
ENDROOT
BRANCH   2   3
HETATM    3  C   UNL     1      -9.389   9.646  67.148  1.00  0.00    -0.139 C  
HETATM    4  C   UNL     1      -8.316   9.277  68.250  1.00  0.00    -0.120 C  
HETATM    5  O   UNL     1     -10.979   7.583  67.352  1.00  0.00    -0.226 OA 
HETATM    6  S   UNL     1      -8.462   9.944  69.946  1.00  0.00    -0.155 SA 
HETATM    7  C   UNL     1      -9.942   8.192  67.512  1.00  0.00    -0.192 C  
HETATM    8  O   UNL     1      -6.969   6.355  69.170  1.00  0.00    -0.063 OA 
HETATM    9  O   UNL     1      -7.881   5.868  71.170  1.00  0.00    -0.106 OA 
HETATM   10  C   UNL     1      -7.949   6.462  70.102  1.00  0.00    -0.112 C  
HETATM   11  C   UNL     1      -9.447   8.535  70.605  1.00  0.00    -0.174 C  
HETATM   12  C   UNL     1      -9.105   8.345  72.086  1.00  0.00    -0.309 C  
HETATM   13  C   UNL     1     -10.929   8.950  70.527  1.00  0.00    -0.280 C  
HETATM   14  N   UNL     1      -8.878   7.905  68.325  1.00  0.00    -0.130 N  
HETATM   15  C   UNL     1      -9.132   7.343  69.670  1.00  0.00    -0.140 C  
BRANCH   3  16
HETATM   16  N   UNL     1     -10.442  10.675  67.425  1.00  0.00    -0.219 N  
HETATM   17  C   UNL     1     -11.577  13.802  66.623  1.00  0.00    -0.392 A  
HETATM   18  O   UNL     1      -9.063  12.469  67.804  1.00  0.00    -0.175 OA 
HETATM   19  C   UNL     1     -10.609  14.672  66.148  1.00  0.00    -0.312 A  
HETATM   20  O   UNL     1     -12.533  14.072  69.615  1.00  0.00    -0.311 OA 
HETATM   21  O   UNL     1     -10.291  13.956  69.704  1.00  0.00     0.185 OA 
HETATM   22  C   UNL     1     -11.435  12.888  67.825  1.00  0.00    -0.369 C  
HETATM   23  H   UNL     1     -11.414  10.367  67.421  1.00  0.00     0.000 HD 
HETATM   24  C   UNL     1     -10.198  12.004  67.685  1.00  0.00    -0.199 C  
HETATM   25  S   UNL     1     -11.100  15.522  64.748  1.00  0.00    -0.341 SA 
HETATM   26  C   UNL     1     -11.480  13.679  69.121  1.00  0.00    -0.297 C  
HETATM   27  C   UNL     1     -12.635  14.777  64.770  1.00  0.00    -0.095 A  
HETATM   28  C   UNL     1     -12.765  13.893  65.818  1.00  0.00    -0.503 A  
ENDBRANCH   3  16
ENDBRANCH   2   3
TORSDOF 2
ENDMDL
MODEL       54
REMARK 921   NORMALIZED FREE ENERGY PREDICTED BY IDOCK:   -4.81 KCAL/MOL
REMARK 922        TOTAL FREE ENERGY PREDICTED BY IDOCK:   -5.85 KCAL/MOL
REMARK 923 INTER-LIGAND FREE ENERGY PREDICTED BY IDOCK:   -6.85 KCAL/MOL
REMARK 924 INTRA-LIGAND FREE ENERGY PREDICTED BY IDOCK:    1.00 KCAL/MOL
REMARK 927      BINDING AFFINITY PREDICTED BY RF-SCORE:    0.00 PKD
ROOT
HETATM    1  C   UNL     1     -10.658  15.735  65.327  1.00  0.00    -0.423 C  
HETATM    2  O   UNL     1     -11.772  14.874  65.504  1.00  0.00    -0.313 OA 
ENDROOT
BRANCH   2   3
HETATM    3  C   UNL     1     -11.495  13.501  65.900  1.00  0.00    -0.320 C  
HETATM    4  C   UNL     1     -10.071  12.927  65.519  1.00  0.00    -0.257 C  
HETATM    5  O   UNL     1     -13.011  11.988  64.405  1.00  0.00    -0.600 OA 
HETATM    6  S   UNL     1      -9.283  11.642  66.553  1.00  0.00    -0.201 SA 
HETATM    7  C   UNL     1     -11.966  12.498  64.749  1.00  0.00    -0.409 C  
HETATM    8  O   UNL     1      -8.805  11.829  62.623  1.00  0.00    -0.210 OA 
HETATM    9  O   UNL     1      -8.664   9.591  62.830  1.00  0.00    -0.201 OA 
HETATM   10  C   UNL     1      -9.178  10.647  63.176  1.00  0.00    -0.294 C  
HETATM   11  C   UNL     1      -9.976  10.215  65.619  1.00  0.00    -0.279 C  
HETATM   12  C   UNL     1      -8.974   9.057  65.675  1.00  0.00    -0.249 C  
HETATM   13  C   UNL     1     -11.242   9.761  66.370  1.00  0.00     0.844 C  
HETATM   14  N   UNL     1     -10.682  12.189  64.385  1.00  0.00    -0.301 N  
HETATM   15  C   UNL     1     -10.306  10.769  64.212  1.00  0.00    -0.331 C  
BRANCH   3  16
HETATM   16  N   UNL     1     -12.143  13.128  67.198  1.00  0.00    -0.335 N  
HETATM   17  C   UNL     1     -12.434  13.928  70.512  1.00  0.00    -0.422 A  
HETATM   18  O   UNL     1     -10.260  13.066  68.506  1.00  0.00    -0.241 OA 
HETATM   19  C   UNL     1     -11.345  14.594  71.051  1.00  0.00    -0.080 A  
HETATM   20  O   UNL     1     -12.774  10.847  71.085  1.00  0.00    -0.370 OA 
HETATM   21  O   UNL     1     -10.680  11.091  70.311  1.00  0.00     0.039 OA 
HETATM   22  C   UNL     1     -12.372  12.711  69.610  1.00  0.00    -0.045 C  
HETATM   23  H   UNL     1     -13.151  12.967  67.192  1.00  0.00     0.000 HD 
HETATM   24  C   UNL     1     -11.485  12.985  68.398  1.00  0.00    -0.310 C  
HETATM   25  S   UNL     1     -11.786  15.950  71.994  1.00  0.00    -0.548 SA 
HETATM   26  C   UNL     1     -11.975  11.471  70.393  1.00  0.00    -0.368 C  
HETATM   27  C   UNL     1     -13.447  15.653  71.738  1.00  0.00    -0.436 A  
HETATM   28  C   UNL     1     -13.658  14.549  70.942  1.00  0.00    -0.196 A  
ENDBRANCH   3  16
ENDBRANCH   2   3
TORSDOF 2
ENDMDL
MODEL       55
REMARK 921   NORMALIZED FREE ENERGY PREDICTED BY IDOCK:   -4.79 KCAL/MOL
REMARK 922        TOTAL FREE ENERGY PREDICTED BY IDOCK:   -5.83 KCAL/MOL
REMARK 923 INTER-LIGAND FREE ENERGY PREDICTED BY IDOCK:   -5.27 KCAL/MOL
REMARK 924 INTRA-LIGAND FREE ENERGY PREDICTED BY IDOCK:   -0.56 KCAL/MOL
REMARK 927      BINDING AFFINITY PREDICTED BY RF-SCORE:    0.00 PKD
ROOT
HETATM    1  C   UNL     1      -8.516   8.779  64.777  1.00  0.00    -0.160 C  
HETATM    2  O   UNL     1      -8.104   9.067  66.104  1.00  0.00    -0.107 OA 
ENDROOT
BRANCH   2   3
HETATM    3  C   UNL     1      -8.855  10.082  66.828  1.00  0.00    -0.132 C  
HETATM    4  C   UNL     1     -10.087  10.726  66.072  1.00  0.00    -0.249 C  
HETATM    5  O   UNL     1      -7.289  12.166  67.003  1.00  0.00    -0.136 OA 
HETATM    6  S   UNL     1     -11.528  11.347  67.010  1.00  0.00    -0.040 SA 
HETATM    7  C   UNL     1      -8.218  11.523  66.562  1.00  0.00    -0.129 C  
HETATM    8  O   UNL     1     -10.269  13.022  63.645  1.00  0.00    -0.302 OA 
HETATM    9  O   UNL     1     -11.040  14.893  64.634  1.00  0.00    -0.372 OA 
HETATM   10  C   UNL     1     -10.469  13.814  64.729  1.00  0.00    -0.428 C  
HETATM   11  C   UNL     1     -10.892  13.066  67.190  1.00  0.00    -0.260 C  
HETATM   12  C   UNL     1     -12.083  14.031  67.212  1.00  0.00    -0.405 C  
HETATM   13  C   UNL     1     -10.210  13.149  68.569  1.00  0.00    -0.218 C  
HETATM   14  N   UNL     1      -9.268  11.929  65.781  1.00  0.00    -0.161 N  
HETATM   15  C   UNL     1      -9.881  13.251  66.033  1.00  0.00    -0.263 C  
BRANCH   3  16
HETATM   16  N   UNL     1      -8.919   9.818  68.301  1.00  0.00    -0.119 N  
HETATM   17  C   UNL     1      -8.441   7.473  70.747  1.00  0.00    -0.126 A  
HETATM   18  O   UNL     1     -10.183   7.905  68.242  1.00  0.00    -0.193 OA 
HETATM   19  C   UNL     1      -8.580   6.158  70.332  1.00  0.00    -0.134 A  
HETATM   20  O   UNL     1     -10.810   8.832  72.322  1.00  0.00    -0.352 OA 
HETATM   21  O   UNL     1     -11.733   7.976  70.462  1.00  0.00    -0.206 OA 
HETATM   22  C   UNL     1      -9.374   8.616  70.397  1.00  0.00    -0.191 C  
HETATM   23  H   UNL     1      -8.472  10.494  68.921  1.00  0.00     0.000 HD 
HETATM   24  C   UNL     1      -9.536   8.735  68.883  1.00  0.00    -0.158 C  
HETATM   25  S   UNL     1      -7.321   5.143  70.885  1.00  0.00    -0.075 SA 
HETATM   26  C   UNL     1     -10.690   8.496  71.147  1.00  0.00    -0.234 C  
HETATM   27  C   UNL     1      -6.583   6.430  71.729  1.00  0.00    -0.058 A  
HETATM   28  C   UNL     1      -7.279   7.610  71.582  1.00  0.00    -0.064 A  
ENDBRANCH   3  16
ENDBRANCH   2   3
TORSDOF 2
ENDMDL
MODEL       56
REMARK 921   NORMALIZED FREE ENERGY PREDICTED BY IDOCK:   -4.76 KCAL/MOL
REMARK 922        TOTAL FREE ENERGY PREDICTED BY IDOCK:   -5.79 KCAL/MOL
REMARK 923 INTER-LIGAND FREE ENERGY PREDICTED BY IDOCK:   -5.33 KCAL/MOL
REMARK 924 INTRA-LIGAND FREE ENERGY PREDICTED BY IDOCK:   -0.46 KCAL/MOL
REMARK 927      BINDING AFFINITY PREDICTED BY RF-SCORE:    0.00 PKD
ROOT
HETATM    1  C   UNL     1      -6.632   7.713  68.229  1.00  0.00    -0.054 C  
HETATM    2  O   UNL     1      -7.400   8.852  67.873  1.00  0.00    -0.083 OA 
ENDROOT
BRANCH   2   3
HETATM    3  C   UNL     1      -8.383   9.320  68.838  1.00  0.00    -0.120 C  
HETATM    4  C   UNL     1      -8.772   8.315  69.996  1.00  0.00    -0.133 C  
HETATM    5  O   UNL     1     -10.659   9.448  67.562  1.00  0.00    -0.262 OA 
HETATM    6  S   UNL     1      -9.303   8.943  71.629  1.00  0.00    -0.199 SA 
HETATM    7  C   UNL     1      -9.856   8.964  68.330  1.00  0.00    -0.174 C  
HETATM    8  O   UNL     1     -10.740   5.608  70.039  1.00  0.00    -0.304 OA 
HETATM    9  O   UNL     1     -12.593   6.221  71.162  1.00  0.00     0.067 OA 
HETATM   10  C   UNL     1     -11.615   6.538  70.497  1.00  0.00    -0.393 C  
HETATM   11  C   UNL     1     -11.099   8.987  71.226  1.00  0.00    -0.312 C  
HETATM   12  C   UNL     1     -11.897   8.709  72.504  1.00  0.00    -0.342 C  
HETATM   13  C   UNL     1     -11.424  10.428  70.787  1.00  0.00    -0.422 C  
HETATM   14  N   UNL     1     -10.032   7.992  69.279  1.00  0.00    -0.186 N  
HETATM   15  C   UNL     1     -11.283   7.976  70.068  1.00  0.00    -0.090 C  
BRANCH   3  16
HETATM   16  N   UNL     1      -8.280  10.789  69.109  1.00  0.00    -0.264 N  
HETATM   17  C   UNL     1      -9.421  13.887  68.207  1.00  0.00    -0.217 A  
HETATM   18  O   UNL     1      -7.925  11.501  66.957  1.00  0.00    -0.148 OA 
HETATM   19  C   UNL     1      -9.877  13.986  66.902  1.00  0.00    -0.267 A  
HETATM   20  O   UNL     1      -6.554  14.995  68.907  1.00  0.00    -0.091 OA 
HETATM   21  O   UNL     1      -6.261  13.629  67.148  1.00  0.00    -0.229 OA 
HETATM   22  C   UNL     1      -8.143  13.201  68.650  1.00  0.00    -0.014 C  
HETATM   23  H   UNL     1      -8.344  11.095  70.080  1.00  0.00     0.000 HD 
HETATM   24  C   UNL     1      -8.105  11.759  68.148  1.00  0.00    -0.150 C  
HETATM   25  S   UNL     1     -11.377  14.797  66.775  1.00  0.00    -0.327 SA 
HETATM   26  C   UNL     1      -6.922  14.018  68.263  1.00  0.00    -0.107 C  
HETATM   27  C   UNL     1     -11.430  15.073  68.458  1.00  0.00    -0.317 A  
HETATM   28  C   UNL     1     -10.331  14.548  69.102  1.00  0.00    -0.197 A  
ENDBRANCH   3  16
ENDBRANCH   2   3
TORSDOF 2
ENDMDL
MODEL       57
REMARK 921   NORMALIZED FREE ENERGY PREDICTED BY IDOCK:   -4.74 KCAL/MOL
REMARK 922        TOTAL FREE ENERGY PREDICTED BY IDOCK:   -5.78 KCAL/MOL
REMARK 923 INTER-LIGAND FREE ENERGY PREDICTED BY IDOCK:   -5.10 KCAL/MOL
REMARK 924 INTRA-LIGAND FREE ENERGY PREDICTED BY IDOCK:   -0.67 KCAL/MOL
REMARK 927      BINDING AFFINITY PREDICTED BY RF-SCORE:    0.00 PKD
ROOT
HETATM    1  C   UNL     1      -9.726   9.254  66.057  1.00  0.00    -0.289 C  
HETATM    2  O   UNL     1     -10.469   8.284  66.778  1.00  0.00    -0.318 OA 
ENDROOT
BRANCH   2   3
HETATM    3  C   UNL     1      -9.713   7.277  67.509  1.00  0.00    -0.145 C  
HETATM    4  C   UNL     1      -8.212   7.053  67.060  1.00  0.00    -0.117 C  
HETATM    5  O   UNL     1     -10.737   4.967  66.844  1.00  0.00    -0.193 OA 
HETATM    6  S   UNL     1      -6.958   6.495  68.267  1.00  0.00    -0.083 SA 
HETATM    7  C   UNL     1      -9.903   5.848  66.820  1.00  0.00    -0.160 C  
HETATM    8  O   UNL     1      -6.876   5.451  64.444  1.00  0.00    -0.045 OA 
HETATM    9  O   UNL     1      -5.970   3.568  65.282  1.00  0.00    -0.021 OA 
HETATM   10  C   UNL     1      -6.783   4.477  65.385  1.00  0.00    -0.052 C  
HETATM   11  C   UNL     1      -7.196   4.697  67.949  1.00  0.00    -0.066 C  
HETATM   12  C   UNL     1      -5.859   3.978  68.162  1.00  0.00    -0.026 C  
HETATM   13  C   UNL     1      -8.172   4.177  69.022  1.00  0.00    -0.078 C  
HETATM   14  N   UNL     1      -8.623   5.825  66.334  1.00  0.00    -0.122 N  
HETATM   15  C   UNL     1      -7.802   4.610  66.527  1.00  0.00    -0.099 C  
BRANCH   3  16
HETATM   16  N   UNL     1     -10.094   7.199  68.955  1.00  0.00    -0.178 N  
HETATM   17  C   UNL     1     -11.660   8.826  71.527  1.00  0.00    -0.374 A  
HETATM   18  O   UNL     1      -9.267   9.231  69.628  1.00  0.00    -0.156 OA 
HETATM   19  C   UNL     1     -11.681  10.208  71.419  1.00  0.00    -0.290 A  
HETATM   20  O   UNL     1      -9.570   7.481  73.467  1.00  0.00    -0.240 OA 
HETATM   21  O   UNL     1      -8.378   8.864  72.159  1.00  0.00    -0.381 OA 
HETATM   22  C   UNL     1     -10.459   7.935  71.272  1.00  0.00    -0.233 C  
HETATM   23  H   UNL     1     -10.546   6.343  69.278  1.00  0.00     0.000 HD 
HETATM   24  C   UNL     1      -9.882   8.193  69.883  1.00  0.00    -0.186 C  
HETATM   25  S   UNL     1     -13.218  10.882  71.743  1.00  0.00    -0.323 SA 
HETATM   26  C   UNL     1      -9.440   8.059  72.392  1.00  0.00    -0.215 C  
HETATM   27  C   UNL     1     -13.880   9.346  72.078  1.00  0.00    -0.340 A  
HETATM   28  C   UNL     1     -12.950   8.340  71.935  1.00  0.00    -0.371 A  
ENDBRANCH   3  16
ENDBRANCH   2   3
TORSDOF 2
ENDMDL
MODEL       58
REMARK 921   NORMALIZED FREE ENERGY PREDICTED BY IDOCK:   -4.71 KCAL/MOL
REMARK 922        TOTAL FREE ENERGY PREDICTED BY IDOCK:   -5.75 KCAL/MOL
REMARK 923 INTER-LIGAND FREE ENERGY PREDICTED BY IDOCK:   -5.49 KCAL/MOL
REMARK 924 INTRA-LIGAND FREE ENERGY PREDICTED BY IDOCK:   -0.26 KCAL/MOL
REMARK 927      BINDING AFFINITY PREDICTED BY RF-SCORE:    0.00 PKD
ROOT
HETATM    1  C   UNL     1      -5.434  16.106  70.252  1.00  0.00    -0.175 C  
HETATM    2  O   UNL     1      -5.520  15.364  69.046  1.00  0.00    -0.097 OA 
ENDROOT
BRANCH   2   3
HETATM    3  C   UNL     1      -6.693  15.583  68.213  1.00  0.00    -0.118 C  
HETATM    4  C   UNL     1      -6.911  17.053  67.671  1.00  0.00    -0.143 C  
HETATM    5  O   UNL     1      -8.764  15.367  69.790  1.00  0.00    -0.220 OA 
HETATM    6  S   UNL     1      -7.768  17.337  66.081  1.00  0.00    -0.207 SA 
HETATM    7  C   UNL     1      -7.946  15.968  69.127  1.00  0.00    -0.238 C  
HETATM    8  O   UNL     1      -8.046  19.835  69.146  1.00  0.00    -0.235 OA 
HETATM    9  O   UNL     1     -10.106  20.173  68.303  1.00  0.00    -0.412 OA 
HETATM   10  C   UNL     1      -9.188  19.403  68.555  1.00  0.00    -0.375 C  
HETATM   11  C   UNL     1      -9.451  17.484  66.811  1.00  0.00    -0.275 C  
HETATM   12  C   UNL     1     -10.275  18.455  65.959  1.00  0.00    -0.354 C  
HETATM   13  C   UNL     1     -10.113  16.097  66.693  1.00  0.00    -0.283 C  
HETATM   14  N   UNL     1      -7.947  17.273  68.711  1.00  0.00    -0.267 N  
HETATM   15  C   UNL     1      -9.223  17.890  68.287  1.00  0.00    -0.282 C  
BRANCH   3  16
HETATM   16  N   UNL     1      -7.030  14.400  67.359  1.00  0.00    -0.228 N  
HETATM   17  C   UNL     1      -9.088  11.685  67.026  1.00  0.00    -0.179 A  
HETATM   18  O   UNL     1      -6.986  12.788  68.991  1.00  0.00    -0.101 OA 
HETATM   19  C   UNL     1      -9.599  11.190  68.215  1.00  0.00    -0.185 A  
HETATM   20  O   UNL     1      -6.667  10.190  65.668  1.00  0.00    -0.101 OA 
HETATM   21  O   UNL     1      -6.039  10.551  67.794  1.00  0.00    -0.048 OA 
HETATM   22  C   UNL     1      -7.646  12.091  66.782  1.00  0.00     0.008 C  
HETATM   23  H   UNL     1      -7.148  14.559  66.358  1.00  0.00     0.000 HD 
HETATM   24  C   UNL     1      -7.192  13.113  67.820  1.00  0.00    -0.147 C  
HETATM   25  S   UNL     1     -11.278  10.873  68.143  1.00  0.00    -0.313 SA 
HETATM   26  C   UNL     1      -6.745  10.871  66.686  1.00  0.00    -0.127 C  
HETATM   27  C   UNL     1     -11.351  11.351  66.506  1.00  0.00    -0.122 A  
HETATM   28  C   UNL     1     -10.122  11.752  66.030  1.00  0.00    -0.263 A  
ENDBRANCH   3  16
ENDBRANCH   2   3
TORSDOF 2
ENDMDL
MODEL       59
REMARK 921   NORMALIZED FREE ENERGY PREDICTED BY IDOCK:   -4.68 KCAL/MOL
REMARK 922        TOTAL FREE ENERGY PREDICTED BY IDOCK:   -5.71 KCAL/MOL
REMARK 923 INTER-LIGAND FREE ENERGY PREDICTED BY IDOCK:   -5.25 KCAL/MOL
REMARK 924 INTRA-LIGAND FREE ENERGY PREDICTED BY IDOCK:   -0.46 KCAL/MOL
REMARK 927      BINDING AFFINITY PREDICTED BY RF-SCORE:    0.00 PKD
ROOT
HETATM    1  C   UNL     1      -7.442   5.570  69.911  1.00  0.00    -0.070 C  
HETATM    2  O   UNL     1      -7.839   6.376  68.812  1.00  0.00    -0.106 OA 
ENDROOT
BRANCH   2   3
HETATM    3  C   UNL     1      -8.701   7.513  69.099  1.00  0.00    -0.136 C  
HETATM    4  C   UNL     1      -9.365   7.555  70.535  1.00  0.00    -0.160 C  
HETATM    5  O   UNL     1     -10.832   7.207  67.620  1.00  0.00    -0.237 OA 
HETATM    6  S   UNL     1      -9.768   9.154  71.323  1.00  0.00    -0.242 SA 
HETATM    7  C   UNL     1     -10.200   7.185  68.654  1.00  0.00    -0.179 C  
HETATM    8  O   UNL     1     -11.950   5.887  71.851  1.00  0.00    -0.206 OA 
HETATM    9  O   UNL     1     -13.622   7.387  72.014  1.00  0.00    -0.237 OA 
HETATM   10  C   UNL     1     -12.576   7.034  71.484  1.00  0.00    -0.385 C  
HETATM   11  C   UNL     1     -11.482   9.251  70.658  1.00  0.00    -0.274 C  
HETATM   12  C   UNL     1     -12.362   9.990  71.673  1.00  0.00    -0.486 C  
HETATM   13  C   UNL     1     -11.421  10.120  69.387  1.00  0.00    -0.202 C  
HETATM   14  N   UNL     1     -10.643   7.081  69.947  1.00  0.00    -0.221 N  
HETATM   15  C   UNL     1     -11.880   7.790  70.340  1.00  0.00     0.040 C  
BRANCH   3  16
HETATM   16  N   UNL     1      -8.239   8.775  68.438  1.00  0.00    -0.117 N  
HETATM   17  C   UNL     1      -8.747  10.902  65.806  1.00  0.00    -0.196 A  
HETATM   18  O   UNL     1      -7.980   7.961  66.309  1.00  0.00    -0.097 OA 
HETATM   19  C   UNL     1      -9.315  10.319  64.684  1.00  0.00    -0.266 A  
HETATM   20  O   UNL     1      -5.643  11.454  65.831  1.00  0.00    -0.213 OA 
HETATM   21  O   UNL     1      -5.868   9.293  65.261  1.00  0.00    -0.059 OA 
HETATM   22  C   UNL     1      -7.615  10.320  66.630  1.00  0.00    -0.110 C  
HETATM   23  H   UNL     1      -8.121   9.600  69.027  1.00  0.00     0.000 HD 
HETATM   24  C   UNL     1      -7.960   8.908  67.097  1.00  0.00    -0.096 C  
HETATM   25  S   UNL     1     -10.597  11.239  64.027  1.00  0.00    -0.386 SA 
HETATM   26  C   UNL     1      -6.293  10.414  65.886  1.00  0.00    -0.119 C  
HETATM   27  C   UNL     1     -10.395  12.459  65.202  1.00  0.00    -0.287 A  
HETATM   28  C   UNL     1      -9.376  12.165  66.082  1.00  0.00    -0.198 A  
ENDBRANCH   3  16
ENDBRANCH   2   3
TORSDOF 2
ENDMDL
MODEL       60
REMARK 921   NORMALIZED FREE ENERGY PREDICTED BY IDOCK:   -4.66 KCAL/MOL
REMARK 922        TOTAL FREE ENERGY PREDICTED BY IDOCK:   -5.69 KCAL/MOL
REMARK 923 INTER-LIGAND FREE ENERGY PREDICTED BY IDOCK:   -5.30 KCAL/MOL
REMARK 924 INTRA-LIGAND FREE ENERGY PREDICTED BY IDOCK:   -0.38 KCAL/MOL
REMARK 927      BINDING AFFINITY PREDICTED BY RF-SCORE:    0.00 PKD
ROOT
HETATM    1  C   UNL     1     -13.860   7.250  71.947  1.00  0.00    -0.228 C  
HETATM    2  O   UNL     1     -12.912   8.191  71.471  1.00  0.00    -0.318 OA 
ENDROOT
BRANCH   2   3
HETATM    3  C   UNL     1     -11.664   7.666  70.936  1.00  0.00    -0.271 C  
HETATM    4  C   UNL     1     -11.377   6.130  71.187  1.00  0.00    -0.275 C  
HETATM    5  O   UNL     1      -9.751   8.727  72.363  1.00  0.00    -0.283 OA 
HETATM    6  S   UNL     1     -10.374   5.169  69.999  1.00  0.00    -0.225 SA 
HETATM    7  C   UNL     1     -10.496   7.837  72.013  1.00  0.00    -0.224 C  
HETATM    8  O   UNL     1     -10.346   4.463  73.899  1.00  0.00    -0.168 OA 
HETATM    9  O   UNL     1      -8.212   3.879  73.479  1.00  0.00    -0.087 OA 
HETATM   10  C   UNL     1      -9.159   4.622  73.260  1.00  0.00    -0.115 C  
HETATM   11  C   UNL     1      -8.763   5.485  70.833  1.00  0.00    -0.135 C  
HETATM   12  C   UNL     1      -7.851   4.272  70.618  1.00  0.00    -0.056 C  
HETATM   13  C   UNL     1      -8.112   6.680  70.111  1.00  0.00    -0.124 C  
HETATM   14  N   UNL     1     -10.438   6.494  72.279  1.00  0.00    -0.199 N  
HETATM   15  C   UNL     1      -9.121   5.822  72.300  1.00  0.00    -0.142 C  
BRANCH   3  16
HETATM   16  N   UNL     1     -11.266   8.313  69.646  1.00  0.00    -0.452 N  
HETATM   17  C   UNL     1      -9.097  10.512  68.171  1.00  0.00    -0.141 A  
HETATM   18  O   UNL     1     -11.274  10.496  70.351  1.00  0.00    -0.304 OA 
HETATM   19  C   UNL     1      -8.586  11.485  69.015  1.00  0.00     0.131 A  
HETATM   20  O   UNL     1     -11.432  11.279  66.198  1.00  0.00    -0.217 OA 
HETATM   21  O   UNL     1     -12.111  11.955  68.229  1.00  0.00    -0.485 OA 
HETATM   22  C   UNL     1     -10.549  10.079  68.093  1.00  0.00    -0.268 C  
HETATM   23  H   UNL     1     -11.137   7.708  68.835  1.00  0.00     0.000 HD 
HETATM   24  C   UNL     1     -11.061   9.663  69.469  1.00  0.00    -0.168 C  
HETATM   25  S   UNL     1      -6.896  11.687  68.862  1.00  0.00    -0.108 SA 
HETATM   26  C   UNL     1     -11.399  11.141  67.417  1.00  0.00    -0.255 C  
HETATM   27  C   UNL     1      -6.814  10.507  67.632  1.00  0.00    -0.074 A  
HETATM   28  C   UNL     1      -8.049   9.965  67.353  1.00  0.00    -0.113 A  
ENDBRANCH   3  16
ENDBRANCH   2   3
TORSDOF 2
ENDMDL
MODEL       61
REMARK 921   NORMALIZED FREE ENERGY PREDICTED BY IDOCK:   -4.63 KCAL/MOL
REMARK 922        TOTAL FREE ENERGY PREDICTED BY IDOCK:   -5.65 KCAL/MOL
REMARK 923 INTER-LIGAND FREE ENERGY PREDICTED BY IDOCK:   -5.18 KCAL/MOL
REMARK 924 INTRA-LIGAND FREE ENERGY PREDICTED BY IDOCK:   -0.47 KCAL/MOL
REMARK 927      BINDING AFFINITY PREDICTED BY RF-SCORE:    0.00 PKD
ROOT
HETATM    1  C   UNL     1     -12.841   8.875  72.013  1.00  0.00    -0.397 C  
HETATM    2  O   UNL     1     -12.520   7.827  71.111  1.00  0.00    -0.296 OA 
ENDROOT
BRANCH   2   3
HETATM    3  C   UNL     1     -11.161   7.308  71.151  1.00  0.00    -0.253 C  
HETATM    4  C   UNL     1     -11.001   5.735  71.117  1.00  0.00    -0.225 C  
HETATM    5  O   UNL     1     -10.257   7.806  73.551  1.00  0.00    -0.323 OA 
HETATM    6  S   UNL     1      -9.512   4.970  70.383  1.00  0.00    -0.184 SA 
HETATM    7  C   UNL     1     -10.701   7.104  72.668  1.00  0.00    -0.268 C  
HETATM    8  O   UNL     1     -11.441   3.392  73.466  1.00  0.00    -0.204 OA 
HETATM    9  O   UNL     1      -9.373   2.696  74.025  1.00  0.00    -0.080 OA 
HETATM   10  C   UNL     1     -10.098   3.567  73.561  1.00  0.00    -0.127 C  
HETATM   11  C   UNL     1      -8.551   4.914  71.953  1.00  0.00    -0.127 C  
HETATM   12  C   UNL     1      -7.626   3.692  71.921  1.00  0.00    -0.057 C  
HETATM   13  C   UNL     1      -7.654   6.167  71.974  1.00  0.00    -0.096 C  
HETATM   14  N   UNL     1     -10.752   5.738  72.581  1.00  0.00    -0.225 N  
HETATM   15  C   UNL     1      -9.610   4.943  73.081  1.00  0.00    -0.137 C  
BRANCH   3  16
HETATM   16  N   UNL     1     -10.181   8.188  70.436  1.00  0.00    -0.198 N  
HETATM   17  C   UNL     1      -9.815  10.576  68.012  1.00  0.00    -0.166 A  
HETATM   18  O   UNL     1     -10.766   7.657  68.283  1.00  0.00    -0.155 OA 
HETATM   19  C   UNL     1     -10.782  10.553  67.019  1.00  0.00    -0.250 A  
HETATM   20  O   UNL     1      -6.981   9.333  67.410  1.00  0.00    -0.076 OA 
HETATM   21  O   UNL     1      -8.468   7.745  66.851  1.00  0.00    -0.120 OA 
HETATM   22  C   UNL     1      -9.093   9.366  68.573  1.00  0.00    -0.131 C  
HETATM   23  H   UNL     1      -9.529   8.727  71.007  1.00  0.00     0.000 HD 
HETATM   24  C   UNL     1     -10.092   8.324  69.070  1.00  0.00    -0.202 C  
HETATM   25  S   UNL     1     -11.410  12.102  66.660  1.00  0.00    -0.355 SA 
HETATM   26  C   UNL     1      -8.085   8.821  67.576  1.00  0.00    -0.106 C  
HETATM   27  C   UNL     1     -10.374  12.844  67.795  1.00  0.00    -0.222 A  
HETATM   28  C   UNL     1      -9.573  11.926  68.439  1.00  0.00    -0.196 A  
ENDBRANCH   3  16
ENDBRANCH   2   3
TORSDOF 2
ENDMDL
MODEL       62
REMARK 921   NORMALIZED FREE ENERGY PREDICTED BY IDOCK:   -4.58 KCAL/MOL
REMARK 922        TOTAL FREE ENERGY PREDICTED BY IDOCK:   -5.59 KCAL/MOL
REMARK 923 INTER-LIGAND FREE ENERGY PREDICTED BY IDOCK:   -5.29 KCAL/MOL
REMARK 924 INTRA-LIGAND FREE ENERGY PREDICTED BY IDOCK:   -0.30 KCAL/MOL
REMARK 927      BINDING AFFINITY PREDICTED BY RF-SCORE:    0.00 PKD
ROOT
HETATM    1  C   UNL     1     -12.570  10.577  70.491  1.00  0.00    -0.339 C  
HETATM    2  O   UNL     1     -11.193  10.551  70.149  1.00  0.00    -0.281 OA 
ENDROOT
BRANCH   2   3
HETATM    3  C   UNL     1     -10.696   9.359  69.478  1.00  0.00    -0.222 C  
HETATM    4  C   UNL     1     -11.039   7.970  70.156  1.00  0.00    -0.191 C  
HETATM    5  O   UNL     1      -8.101   9.381  69.770  1.00  0.00    -0.104 OA 
HETATM    6  S   UNL     1     -11.218   6.462  69.138  1.00  0.00    -0.288 SA 
HETATM    7  C   UNL     1      -9.230   9.008  70.006  1.00  0.00    -0.180 C  
HETATM    8  O   UNL     1      -9.756   6.408  72.822  1.00  0.00    -0.158 OA 
HETATM    9  O   UNL     1      -8.546   4.696  72.000  1.00  0.00    -0.115 OA 
HETATM   10  C   UNL     1      -9.051   5.798  71.835  1.00  0.00    -0.138 C  
HETATM   11  C   UNL     1      -9.453   5.954  69.264  1.00  0.00    -0.128 C  
HETATM   12  C   UNL     1      -9.378   4.423  69.224  1.00  0.00    -0.223 C  
HETATM   13  C   UNL     1      -8.744   6.481  68.002  1.00  0.00    -0.116 C  
HETATM   14  N   UNL     1      -9.659   7.907  70.700  1.00  0.00    -0.166 N  
HETATM   15  C   UNL     1      -8.923   6.632  70.550  1.00  0.00    -0.152 C  
BRANCH   3  16
HETATM   16  N   UNL     1     -10.681   9.494  67.986  1.00  0.00    -0.367 N  
HETATM   17  C   UNL     1      -8.681   9.731  65.219  1.00  0.00    -0.182 A  
HETATM   18  O   UNL     1      -9.241  11.272  67.828  1.00  0.00    -0.150 OA 
HETATM   19  C   UNL     1      -7.421  10.258  65.452  1.00  0.00    -0.145 A  
HETATM   20  O   UNL     1     -10.895  11.579  63.947  1.00  0.00    -0.351 OA 
HETATM   21  O   UNL     1     -10.090  12.723  65.704  1.00  0.00    -0.274 OA 
HETATM   22  C   UNL     1      -9.986  10.280  65.763  1.00  0.00    -0.337 C  
HETATM   23  H   UNL     1     -11.277   8.862  67.450  1.00  0.00     0.000 HD 
HETATM   24  C   UNL     1      -9.926  10.404  67.283  1.00  0.00    -0.188 C  
HETATM   25  S   UNL     1      -6.170   9.358  64.711  1.00  0.00    -0.080 SA 
HETATM   26  C   UNL     1     -10.372  11.569  65.057  1.00  0.00    -0.281 C  
HETATM   27  C   UNL     1      -7.289   8.266  64.027  1.00  0.00    -0.103 A  
HETATM   28  C   UNL     1      -8.588   8.578  64.365  1.00  0.00    -0.033 A  
ENDBRANCH   3  16
ENDBRANCH   2   3
TORSDOF 2
ENDMDL
MODEL       63
REMARK 921   NORMALIZED FREE ENERGY PREDICTED BY IDOCK:   -4.52 KCAL/MOL
REMARK 922        TOTAL FREE ENERGY PREDICTED BY IDOCK:   -5.53 KCAL/MOL
REMARK 923 INTER-LIGAND FREE ENERGY PREDICTED BY IDOCK:   -5.49 KCAL/MOL
REMARK 924 INTRA-LIGAND FREE ENERGY PREDICTED BY IDOCK:   -0.04 KCAL/MOL
REMARK 927      BINDING AFFINITY PREDICTED BY RF-SCORE:    0.00 PKD
ROOT
HETATM    1  C   UNL     1      -6.375  14.462  70.279  1.00  0.00    -0.158 C  
HETATM    2  O   UNL     1      -6.748  13.876  69.042  1.00  0.00    -0.100 OA 
ENDROOT
BRANCH   2   3
HETATM    3  C   UNL     1      -7.899  14.445  68.357  1.00  0.00    -0.138 C  
HETATM    4  C   UNL     1      -7.668  15.817  67.602  1.00  0.00    -0.154 C  
HETATM    5  O   UNL     1      -9.551  15.226  70.224  1.00  0.00    -0.004 OA 
HETATM    6  S   UNL     1      -8.657  16.239  66.124  1.00  0.00    -0.212 SA 
HETATM    7  C   UNL     1      -8.718  15.384  69.357  1.00  0.00    -0.252 C  
HETATM    8  O   UNL     1      -7.393  18.961  68.713  1.00  0.00    -0.303 OA 
HETATM    9  O   UNL     1      -9.310  19.985  68.123  1.00  0.00    -0.323 OA 
HETATM   10  C   UNL     1      -8.706  18.949  68.374  1.00  0.00    -0.345 C  
HETATM   11  C   UNL     1      -9.991  17.109  67.048  1.00  0.00    -0.287 C  
HETATM   12  C   UNL     1     -10.553  18.228  66.163  1.00  0.00    -0.326 C  
HETATM   13  C   UNL     1     -11.123  16.088  67.268  1.00  0.00    -0.131 C  
HETATM   14  N   UNL     1      -8.325  16.534  68.724  1.00  0.00    -0.239 N  
HETATM   15  C   UNL     1      -9.343  17.550  68.382  1.00  0.00    -0.287 C  
BRANCH   3  16
HETATM   16  N   UNL     1      -8.807  13.403  67.779  1.00  0.00    -0.187 N  
HETATM   17  C   UNL     1      -9.558  10.064  67.729  1.00  0.00    -0.168 A  
HETATM   18  O   UNL     1      -7.204  11.933  67.048  1.00  0.00    -0.144 OA 
HETATM   19  C   UNL     1      -8.499   9.222  68.028  1.00  0.00    -0.120 A  
HETATM   20  O   UNL     1     -10.401  10.440  64.715  1.00  0.00    -0.320 OA 
HETATM   21  O   UNL     1      -8.191  10.835  64.778  1.00  0.00    -0.090 OA 
HETATM   22  C   UNL     1      -9.504  11.260  66.797  1.00  0.00    -0.196 C  
HETATM   23  H   UNL     1      -9.811  13.585  67.806  1.00  0.00     0.000 HD 
HETATM   24  C   UNL     1      -8.392  12.218  67.215  1.00  0.00    -0.182 C  
HETATM   25  S   UNL     1      -8.911   7.999  69.149  1.00  0.00    -0.144 SA 
HETATM   26  C   UNL     1      -9.418  10.817  65.346  1.00  0.00    -0.214 C  
HETATM   27  C   UNL     1     -10.527   8.541  69.227  1.00  0.00    -0.215 A  
HETATM   28  C   UNL     1     -10.743   9.638  68.422  1.00  0.00    -0.251 A  
ENDBRANCH   3  16
ENDBRANCH   2   3
TORSDOF 2
ENDMDL
MODEL       64
REMARK 921   NORMALIZED FREE ENERGY PREDICTED BY IDOCK:   -4.51 KCAL/MOL
REMARK 922        TOTAL FREE ENERGY PREDICTED BY IDOCK:   -5.52 KCAL/MOL
REMARK 923 INTER-LIGAND FREE ENERGY PREDICTED BY IDOCK:   -4.99 KCAL/MOL
REMARK 924 INTRA-LIGAND FREE ENERGY PREDICTED BY IDOCK:   -0.53 KCAL/MOL
REMARK 927      BINDING AFFINITY PREDICTED BY RF-SCORE:    0.00 PKD
ROOT
HETATM    1  C   UNL     1     -10.540   5.487  66.676  1.00  0.00    -0.299 C  
HETATM    2  O   UNL     1     -10.964   6.632  67.399  1.00  0.00    -0.321 OA 
ENDROOT
BRANCH   2   3
HETATM    3  C   UNL     1     -10.007   7.229  68.319  1.00  0.00    -0.160 C  
HETATM    4  C   UNL     1      -9.638   6.384  69.604  1.00  0.00    -0.146 C  
HETATM    5  O   UNL     1     -11.229   9.249  69.437  1.00  0.00    -0.107 OA 
HETATM    6  S   UNL     1      -7.993   6.553  70.384  1.00  0.00    -0.117 SA 
HETATM    7  C   UNL     1     -10.775   8.126  69.396  1.00  0.00    -0.156 C  
HETATM    8  O   UNL     1     -11.290   5.821  72.460  1.00  0.00    -0.282 OA 
HETATM    9  O   UNL     1     -10.212   7.020  74.032  1.00  0.00    -0.349 OA 
HETATM   10  C   UNL     1     -10.489   6.844  72.853  1.00  0.00    -0.244 C  
HETATM   11  C   UNL     1      -8.488   7.889  71.550  1.00  0.00    -0.114 C  
HETATM   12  C   UNL     1      -7.662   7.752  72.834  1.00  0.00    -0.137 C  
HETATM   13  C   UNL     1      -8.094   9.226  70.893  1.00  0.00    -0.168 C  
HETATM   14  N   UNL     1     -10.539   7.241  70.415  1.00  0.00    -0.221 N  
HETATM   15  C   UNL     1     -10.021   7.751  71.703  1.00  0.00    -0.174 C  
BRANCH   3  16
HETATM   16  N   UNL     1      -8.965   8.050  67.623  1.00  0.00    -0.134 N  
HETATM   17  C   UNL     1      -8.055  11.217  66.700  1.00  0.00    -0.160 A  
HETATM   18  O   UNL     1     -10.347   9.217  66.212  1.00  0.00    -0.244 OA 
HETATM   19  C   UNL     1      -9.107  12.105  66.539  1.00  0.00    -0.199 A  
HETATM   20  O   UNL     1      -6.732   9.942  64.138  1.00  0.00    -0.116 OA 
HETATM   21  O   UNL     1      -8.938   9.573  63.927  1.00  0.00    -0.228 OA 
HETATM   22  C   UNL     1      -8.009   9.794  66.178  1.00  0.00    -0.110 C  
HETATM   23  H   UNL     1      -7.991   7.891  67.880  1.00  0.00     0.000 HD 
HETATM   24  C   UNL     1      -9.221   9.003  66.664  1.00  0.00    -0.167 C  
HETATM   25  S   UNL     1      -8.832  13.615  67.292  1.00  0.00    -0.231 SA 
HETATM   26  C   UNL     1      -7.825   9.771  64.670  1.00  0.00    -0.136 C  
HETATM   27  C   UNL     1      -7.281  13.131  67.814  1.00  0.00    -0.147 A  
HETATM   28  C   UNL     1      -6.986  11.842  67.429  1.00  0.00    -0.121 A  
ENDBRANCH   3  16
ENDBRANCH   2   3
TORSDOF 2
ENDMDL
MODEL       65
REMARK 921   NORMALIZED FREE ENERGY PREDICTED BY IDOCK:   -4.48 KCAL/MOL
REMARK 922        TOTAL FREE ENERGY PREDICTED BY IDOCK:   -5.48 KCAL/MOL
REMARK 923 INTER-LIGAND FREE ENERGY PREDICTED BY IDOCK:   -5.11 KCAL/MOL
REMARK 924 INTRA-LIGAND FREE ENERGY PREDICTED BY IDOCK:   -0.38 KCAL/MOL
REMARK 927      BINDING AFFINITY PREDICTED BY RF-SCORE:    0.00 PKD
ROOT
HETATM    1  C   UNL     1      -5.315   8.032  69.389  1.00  0.00    -0.026 C  
HETATM    2  O   UNL     1      -6.647   8.281  69.809  1.00  0.00    -0.039 OA 
ENDROOT
BRANCH   2   3
HETATM    3  C   UNL     1      -7.684   7.408  69.281  1.00  0.00    -0.107 C  
HETATM    4  C   UNL     1      -7.266   6.447  68.096  1.00  0.00    -0.085 C  
HETATM    5  O   UNL     1      -9.380   8.956  68.035  1.00  0.00    -0.141 OA 
HETATM    6  S   UNL     1      -8.101   4.836  67.871  1.00  0.00    -0.092 SA 
HETATM    7  C   UNL     1      -8.476   8.151  68.108  1.00  0.00    -0.126 C  
HETATM    8  O   UNL     1      -6.762   7.006  64.835  1.00  0.00    -0.045 OA 
HETATM    9  O   UNL     1      -8.522   6.078  63.780  1.00  0.00    -0.012 OA 
HETATM   10  C   UNL     1      -8.043   6.559  64.799  1.00  0.00    -0.112 C  
HETATM   11  C   UNL     1      -9.405   5.471  66.736  1.00  0.00    -0.132 C  
HETATM   12  C   UNL     1      -9.790   4.357  65.756  1.00  0.00    -0.232 C  
HETATM   13  C   UNL     1     -10.645   5.768  67.602  1.00  0.00    -0.313 C  
HETATM   14  N   UNL     1      -7.927   7.362  67.132  1.00  0.00    -0.112 N  
HETATM   15  C   UNL     1      -8.814   6.759  66.114  1.00  0.00    -0.148 C  
BRANCH   3  16
HETATM   16  N   UNL     1      -8.647   6.946  70.332  1.00  0.00    -0.141 N  
HETATM   17  C   UNL     1     -11.531   7.705  72.011  1.00  0.00    -0.327 A  
HETATM   18  O   UNL     1      -8.705   8.860  71.595  1.00  0.00    -0.274 OA 
HETATM   19  C   UNL     1     -11.818   9.058  72.099  1.00  0.00    -0.313 A  
HETATM   20  O   UNL     1     -10.292   6.245  74.516  1.00  0.00    -0.316 OA 
HETATM   21  O   UNL     1      -8.993   8.042  74.161  1.00  0.00    -0.207 OA 
HETATM   22  C   UNL     1     -10.175   7.069  72.254  1.00  0.00    -0.207 C  
HETATM   23  H   UNL     1      -8.985   5.985  70.271  1.00  0.00     0.000 HD 
HETATM   24  C   UNL     1      -9.111   7.718  71.372  1.00  0.00    -0.134 C  
HETATM   25  S   UNL     1     -13.445   9.423  71.723  1.00  0.00    -0.409 SA 
HETATM   26  C   UNL     1      -9.829   7.068  73.733  1.00  0.00    -0.303 C  
HETATM   27  C   UNL     1     -13.814   7.775  71.476  1.00  0.00    -0.358 A  
HETATM   28  C   UNL     1     -12.715   6.966  71.668  1.00  0.00    -0.396 A  
ENDBRANCH   3  16
ENDBRANCH   2   3
TORSDOF 2
ENDMDL
MODEL       66
REMARK 921   NORMALIZED FREE ENERGY PREDICTED BY IDOCK:   -4.47 KCAL/MOL
REMARK 922        TOTAL FREE ENERGY PREDICTED BY IDOCK:   -5.47 KCAL/MOL
REMARK 923 INTER-LIGAND FREE ENERGY PREDICTED BY IDOCK:   -4.95 KCAL/MOL
REMARK 924 INTRA-LIGAND FREE ENERGY PREDICTED BY IDOCK:   -0.52 KCAL/MOL
REMARK 927      BINDING AFFINITY PREDICTED BY RF-SCORE:    0.00 PKD
ROOT
HETATM    1  C   UNL     1      -7.973   4.232  67.444  1.00  0.00    -0.096 C  
HETATM    2  O   UNL     1      -9.196   4.803  67.880  1.00  0.00    -0.113 OA 
ENDROOT
BRANCH   2   3
HETATM    3  C   UNL     1      -9.129   5.773  68.962  1.00  0.00    -0.116 C  
HETATM    4  C   UNL     1      -8.743   5.215  70.391  1.00  0.00    -0.114 C  
HETATM    5  O   UNL     1     -11.586   6.534  69.418  1.00  0.00    -0.339 OA 
HETATM    6  S   UNL     1      -7.867   6.276  71.595  1.00  0.00    -0.102 SA 
HETATM    7  C   UNL     1     -10.564   5.924  69.648  1.00  0.00    -0.313 C  
HETATM    8  O   UNL     1     -10.502   3.520  72.679  1.00  0.00    -0.162 OA 
HETATM    9  O   UNL     1     -10.905   4.983  74.342  1.00  0.00    -0.340 OA 
HETATM   10  C   UNL     1     -10.643   4.779  73.164  1.00  0.00    -0.217 C  
HETATM   11  C   UNL     1      -9.391   6.932  72.394  1.00  0.00    -0.136 C  
HETATM   12  C   UNL     1      -9.091   7.210  73.871  1.00  0.00    -0.252 C  
HETATM   13  C   UNL     1      -9.699   8.285  71.726  1.00  0.00    -0.278 C  
HETATM   14  N   UNL     1     -10.171   5.277  70.791  1.00  0.00    -0.235 N  
HETATM   15  C   UNL     1     -10.489   5.881  72.103  1.00  0.00    -0.207 C  
BRANCH   3  16
HETATM   16  N   UNL     1      -8.637   7.114  68.511  1.00  0.00    -0.124 N  
HETATM   17  C   UNL     1      -9.578  10.270  67.578  1.00  0.00    -0.180 A  
HETATM   18  O   UNL     1      -9.973   7.355  66.662  1.00  0.00    -0.221 OA 
HETATM   19  C   UNL     1     -10.853  10.366  67.043  1.00  0.00    -0.203 A  
HETATM   20  O   UNL     1      -7.101  10.283  65.628  1.00  0.00    -0.126 OA 
HETATM   21  O   UNL     1      -8.481   8.694  64.842  1.00  0.00    -0.169 OA 
HETATM   22  C   UNL     1      -8.548   9.211  67.231  1.00  0.00    -0.118 C  
HETATM   23  H   UNL     1      -7.882   7.543  69.046  1.00  0.00     0.000 HD 
HETATM   24  C   UNL     1      -9.126   7.813  67.431  1.00  0.00    -0.126 C  
HETATM   25  S   UNL     1     -11.757  11.663  67.693  1.00  0.00    -0.159 SA 
HETATM   26  C   UNL     1      -7.971   9.445  65.845  1.00  0.00    -0.106 C  
HETATM   27  C   UNL     1     -10.449  12.152  68.674  1.00  0.00    -0.216 A  
HETATM   28  C   UNL     1      -9.351  11.336  68.515  1.00  0.00    -0.182 A  
ENDBRANCH   3  16
ENDBRANCH   2   3
TORSDOF 2
ENDMDL
MODEL       67
REMARK 921   NORMALIZED FREE ENERGY PREDICTED BY IDOCK:   -4.42 KCAL/MOL
REMARK 922        TOTAL FREE ENERGY PREDICTED BY IDOCK:   -5.42 KCAL/MOL
REMARK 923 INTER-LIGAND FREE ENERGY PREDICTED BY IDOCK:   -4.82 KCAL/MOL
REMARK 924 INTRA-LIGAND FREE ENERGY PREDICTED BY IDOCK:   -0.60 KCAL/MOL
REMARK 927      BINDING AFFINITY PREDICTED BY RF-SCORE:    0.00 PKD
ROOT
HETATM    1  C   UNL     1      -9.420  11.494  68.362  1.00  0.00    -0.195 C  
HETATM    2  O   UNL     1     -10.344  10.445  68.604  1.00  0.00    -0.167 OA 
ENDROOT
BRANCH   2   3
HETATM    3  C   UNL     1      -9.801   9.168  69.040  1.00  0.00    -0.174 C  
HETATM    4  C   UNL     1     -10.776   8.223  69.852  1.00  0.00    -0.234 C  
HETATM    5  O   UNL     1      -8.044   9.713  70.894  1.00  0.00    -0.293 OA 
HETATM    6  S   UNL     1     -10.584   6.407  69.776  1.00  0.00    -0.284 SA 
HETATM    7  C   UNL     1      -9.114   9.329  70.474  1.00  0.00    -0.259 C  
HETATM    8  O   UNL     1     -11.832   8.300  73.027  1.00  0.00    -0.269 OA 
HETATM    9  O   UNL     1     -10.770   6.606  74.062  1.00  0.00    -0.262 OA 
HETATM   10  C   UNL     1     -10.811   7.414  73.143  1.00  0.00    -0.386 C  
HETATM   11  C   UNL     1      -9.454   6.288  71.224  1.00  0.00    -0.159 C  
HETATM   12  C   UNL     1      -9.693   4.947  71.926  1.00  0.00    -0.218 C  
HETATM   13  C   UNL     1      -8.016   6.264  70.670  1.00  0.00    -0.112 C  
HETATM   14  N   UNL     1     -10.104   8.629  71.112  1.00  0.00    -0.208 N  
HETATM   15  C   UNL     1      -9.728   7.560  72.062  1.00  0.00    -0.159 C  
BRANCH   3  16
HETATM   16  N   UNL     1      -8.818   8.591  68.067  1.00  0.00    -0.141 N  
HETATM   17  C   UNL     1      -7.792   8.578  64.802  1.00  0.00    -0.125 A  
HETATM   18  O   UNL     1     -10.303   7.908  66.458  1.00  0.00    -0.247 OA 
HETATM   19  C   UNL     1      -8.773   8.907  63.880  1.00  0.00    -0.028 A  
HETATM   20  O   UNL     1      -7.029   5.545  65.198  1.00  0.00    -0.057 OA 
HETATM   21  O   UNL     1      -9.263   5.638  65.409  1.00  0.00    -0.088 OA 
HETATM   22  C   UNL     1      -7.960   7.629  65.974  1.00  0.00    -0.112 C  
HETATM   23  H   UNL     1      -7.833   8.599  68.333  1.00  0.00     0.000 HD 
HETATM   24  C   UNL     1      -9.142   8.051  66.843  1.00  0.00    -0.152 C  
HETATM   25  S   UNL     1      -8.243  10.039  62.713  1.00  0.00    -0.163 SA 
HETATM   26  C   UNL     1      -8.030   6.187  65.502  1.00  0.00    -0.117 C  
HETATM   27  C   UNL     1      -6.677  10.082  63.390  1.00  0.00    -0.134 A  
HETATM   28  C   UNL     1      -6.566   9.258  64.487  1.00  0.00    -0.081 A  
ENDBRANCH   3  16
ENDBRANCH   2   3
TORSDOF 2
ENDMDL
MODEL       68
REMARK 921   NORMALIZED FREE ENERGY PREDICTED BY IDOCK:   -4.41 KCAL/MOL
REMARK 922        TOTAL FREE ENERGY PREDICTED BY IDOCK:   -5.41 KCAL/MOL
REMARK 923 INTER-LIGAND FREE ENERGY PREDICTED BY IDOCK:   -4.82 KCAL/MOL
REMARK 924 INTRA-LIGAND FREE ENERGY PREDICTED BY IDOCK:   -0.59 KCAL/MOL
REMARK 927      BINDING AFFINITY PREDICTED BY RF-SCORE:    0.00 PKD
ROOT
HETATM    1  C   UNL     1      -5.419  12.334  67.567  1.00  0.00    -0.118 C  
HETATM    2  O   UNL     1      -6.599  12.834  66.957  1.00  0.00    -0.140 OA 
ENDROOT
BRANCH   2   3
HETATM    3  C   UNL     1      -7.856  12.197  67.320  1.00  0.00    -0.176 C  
HETATM    4  C   UNL     1      -7.767  10.965  68.309  1.00  0.00    -0.111 C  
HETATM    5  O   UNL     1      -8.717  10.993  65.168  1.00  0.00    -0.161 OA 
HETATM    6  S   UNL     1      -9.149  10.586  69.444  1.00  0.00    -0.036 SA 
HETATM    7  C   UNL     1      -8.209  11.048  66.268  1.00  0.00    -0.164 C  
HETATM    8  O   UNL     1      -6.858   7.780  67.835  1.00  0.00    -0.065 OA 
HETATM    9  O   UNL     1      -8.762   6.582  67.936  1.00  0.00    -0.117 OA 
HETATM   10  C   UNL     1      -8.206   7.654  67.735  1.00  0.00    -0.119 C  
HETATM   11  C   UNL     1     -10.017   9.444  68.289  1.00  0.00    -0.174 C  
HETATM   12  C   UNL     1     -10.738   8.369  69.109  1.00  0.00    -0.123 C  
HETATM   13  C   UNL     1     -11.098  10.273  67.569  1.00  0.00    -0.302 C  
HETATM   14  N   UNL     1      -7.947  10.043  67.160  1.00  0.00    -0.109 N  
HETATM   15  C   UNL     1      -8.926   8.944  67.312  1.00  0.00    -0.128 C  
BRANCH   3  16
HETATM   16  N   UNL     1      -8.994  13.168  67.415  1.00  0.00    -0.191 N  
HETATM   17  C   UNL     1      -9.839  16.479  67.587  1.00  0.00    -0.247 A  
HETATM   18  O   UNL     1      -8.236  14.398  69.197  1.00  0.00    -0.085 OA 
HETATM   19  C   UNL     1      -8.865  17.304  68.128  1.00  0.00    -0.239 A  
HETATM   20  O   UNL     1     -12.281  15.621  69.387  1.00  0.00    -0.322 OA 
HETATM   21  O   UNL     1     -10.445  15.127  70.583  1.00  0.00    -0.155 OA 
HETATM   22  C   UNL     1     -10.273  15.137  68.144  1.00  0.00    -0.227 C  
HETATM   23  H   UNL     1      -9.771  13.046  66.765  1.00  0.00     0.000 HD 
HETATM   24  C   UNL     1      -9.071  14.210  68.310  1.00  0.00    -0.190 C  
HETATM   25  S   UNL     1      -8.609  18.727  67.215  1.00  0.00    -0.278 SA 
HETATM   26  C   UNL     1     -11.093  15.310  69.410  1.00  0.00    -0.280 C  
HETATM   27  C   UNL     1      -9.824  18.293  66.099  1.00  0.00    -0.260 A  
HETATM   28  C   UNL     1     -10.405  17.084  66.412  1.00  0.00    -0.304 A  
ENDBRANCH   3  16
ENDBRANCH   2   3
TORSDOF 2
ENDMDL
MODEL       69
REMARK 921   NORMALIZED FREE ENERGY PREDICTED BY IDOCK:   -4.37 KCAL/MOL
REMARK 922        TOTAL FREE ENERGY PREDICTED BY IDOCK:   -5.37 KCAL/MOL
REMARK 923 INTER-LIGAND FREE ENERGY PREDICTED BY IDOCK:   -5.09 KCAL/MOL
REMARK 924 INTRA-LIGAND FREE ENERGY PREDICTED BY IDOCK:   -0.27 KCAL/MOL
REMARK 927      BINDING AFFINITY PREDICTED BY RF-SCORE:    0.00 PKD
ROOT
HETATM    1  C   UNL     1     -12.173  15.134  70.239  1.00  0.00    -0.350 C  
HETATM    2  O   UNL     1     -12.040  15.625  68.915  1.00  0.00    -0.319 OA 
ENDROOT
BRANCH   2   3
HETATM    3  C   UNL     1     -10.958  15.081  68.109  1.00  0.00    -0.279 C  
HETATM    4  C   UNL     1     -11.096  13.568  67.665  1.00  0.00    -0.269 C  
HETATM    5  O   UNL     1      -8.885  14.904  69.689  1.00  0.00    -0.051 OA 
HETATM    6  S   UNL     1     -10.341  12.987  66.105  1.00  0.00    -0.283 SA 
HETATM    7  C   UNL     1      -9.826  14.471  69.058  1.00  0.00    -0.138 C  
HETATM    8  O   UNL     1     -10.644  10.700  69.329  1.00  0.00    -0.208 OA 
HETATM    9  O   UNL     1      -8.728   9.829  68.530  1.00  0.00    -0.118 OA 
HETATM   10  C   UNL     1      -9.435  10.809  68.722  1.00  0.00    -0.182 C  
HETATM   11  C   UNL     1      -8.735  12.494  66.860  1.00  0.00    -0.182 C  
HETATM   12  C   UNL     1      -8.170  11.302  66.081  1.00  0.00    -0.088 C  
HETATM   13  C   UNL     1      -7.765  13.674  66.659  1.00  0.00     0.872 C  
HETATM   14  N   UNL     1     -10.136  13.178  68.728  1.00  0.00    -0.128 N  
HETATM   15  C   UNL     1      -9.045  12.251  68.357  1.00  0.00    -0.146 C  
BRANCH   3  16
HETATM   16  N   UNL     1     -10.355  16.093  67.183  1.00  0.00    -0.287 N  
HETATM   17  C   UNL     1      -7.804  18.336  66.770  1.00  0.00    -0.255 A  
HETATM   18  O   UNL     1     -10.183  17.837  68.663  1.00  0.00    -0.355 OA 
HETATM   19  C   UNL     1      -7.274  18.843  67.946  1.00  0.00    -0.239 A  
HETATM   20  O   UNL     1      -9.816  20.111  65.116  1.00  0.00     0.008 OA 
HETATM   21  O   UNL     1     -10.619  20.082  67.213  1.00  0.00    -0.395 OA 
HETATM   22  C   UNL     1      -9.280  18.181  66.457  1.00  0.00    -0.290 C  
HETATM   23  H   UNL     1     -10.213  15.817  66.211  1.00  0.00     0.000 HD 
HETATM   24  C   UNL     1      -9.977  17.366  67.543  1.00  0.00    -0.298 C  
HETATM   25  S   UNL     1      -5.565  18.837  67.970  1.00  0.00    -0.188 SA 
HETATM   26  C   UNL     1      -9.926  19.530  66.191  1.00  0.00    -0.444 C  
HETATM   27  C   UNL     1      -5.493  18.195  66.390  1.00  0.00    -0.159 A  
HETATM   28  C   UNL     1      -6.747  17.983  65.862  1.00  0.00    -0.323 A  
ENDBRANCH   3  16
ENDBRANCH   2   3
TORSDOF 2
ENDMDL
MODEL       70
REMARK 921   NORMALIZED FREE ENERGY PREDICTED BY IDOCK:   -4.34 KCAL/MOL
REMARK 922        TOTAL FREE ENERGY PREDICTED BY IDOCK:   -5.32 KCAL/MOL
REMARK 923 INTER-LIGAND FREE ENERGY PREDICTED BY IDOCK:   -5.39 KCAL/MOL
REMARK 924 INTRA-LIGAND FREE ENERGY PREDICTED BY IDOCK:    0.06 KCAL/MOL
REMARK 927      BINDING AFFINITY PREDICTED BY RF-SCORE:    0.00 PKD
ROOT
HETATM    1  C   UNL     1     -13.155  14.444  65.632  1.00  0.00     0.086 C  
HETATM    2  O   UNL     1     -12.672  13.526  66.599  1.00  0.00    -0.173 OA 
ENDROOT
BRANCH   2   3
HETATM    3  C   UNL     1     -11.238  13.281  66.625  1.00  0.00    -0.306 C  
HETATM    4  C   UNL     1     -10.754  11.853  66.144  1.00  0.00    -0.278 C  
HETATM    5  O   UNL     1     -10.559  13.168  69.145  1.00  0.00    -0.119 OA 
HETATM    6  S   UNL     1      -9.109  11.642  65.376  1.00  0.00     0.094 SA 
HETATM    7  C   UNL     1     -10.809  12.705  68.052  1.00  0.00    -0.225 C  
HETATM    8  O   UNL     1     -10.797   8.859  67.638  1.00  0.00    -0.205 OA 
HETATM    9  O   UNL     1      -8.655   8.418  68.178  1.00  0.00    -0.137 OA 
HETATM   10  C   UNL     1      -9.525   9.240  67.918  1.00  0.00    -0.137 C  
HETATM   11  C   UNL     1      -8.224  11.281  66.949  1.00  0.00    -0.153 C  
HETATM   12  C   UNL     1      -7.066  10.322  66.654  1.00  0.00    -0.108 C  
HETATM   13  C   UNL     1      -7.608  12.608  67.432  1.00  0.00    -0.150 C  
HETATM   14  N   UNL     1     -10.573  11.448  67.561  1.00  0.00    -0.204 N  
HETATM   15  C   UNL     1      -9.312  10.762  67.920  1.00  0.00    -0.150 C  
BRANCH   3  16
HETATM   16  N   UNL     1     -10.432  14.503  66.307  1.00  0.00    -0.293 N  
HETATM   17  C   UNL     1      -8.096  16.702  67.498  1.00  0.00    -0.184 A  
HETATM   18  O   UNL     1     -10.942  15.733  68.176  1.00  0.00    -0.303 OA 
HETATM   19  C   UNL     1      -8.062  16.829  68.878  1.00  0.00    -0.230 A  
HETATM   20  O   UNL     1      -9.532  18.935  65.798  1.00  0.00    -0.406 OA 
HETATM   21  O   UNL     1     -11.021  18.315  67.361  1.00  0.00    -0.328 OA 
HETATM   22  C   UNL     1      -9.347  16.684  66.641  1.00  0.00    -0.272 C  
HETATM   23  H   UNL     1      -9.933  14.521  65.417  1.00  0.00     0.000 HD 
HETATM   24  C   UNL     1     -10.314  15.606  67.123  1.00  0.00    -0.285 C  
HETATM   25  S   UNL     1      -6.478  16.772  69.518  1.00  0.00    -0.189 SA 
HETATM   26  C   UNL     1      -9.967  18.068  66.550  1.00  0.00    -0.371 C  
HETATM   27  C   UNL     1      -5.798  16.620  67.960  1.00  0.00    -0.119 A  
HETATM   28  C   UNL     1      -6.761  16.603  66.975  1.00  0.00    -0.242 A  
ENDBRANCH   3  16
ENDBRANCH   2   3
TORSDOF 2
ENDMDL
MODEL       71
REMARK 921   NORMALIZED FREE ENERGY PREDICTED BY IDOCK:   -4.29 KCAL/MOL
REMARK 922        TOTAL FREE ENERGY PREDICTED BY IDOCK:   -5.27 KCAL/MOL
REMARK 923 INTER-LIGAND FREE ENERGY PREDICTED BY IDOCK:   -4.89 KCAL/MOL
REMARK 924 INTRA-LIGAND FREE ENERGY PREDICTED BY IDOCK:   -0.38 KCAL/MOL
REMARK 927      BINDING AFFINITY PREDICTED BY RF-SCORE:    0.00 PKD
ROOT
HETATM    1  C   UNL     1      -7.642   9.062  63.743  1.00  0.00    -0.115 C  
HETATM    2  O   UNL     1      -8.887   8.810  64.375  1.00  0.00    -0.095 OA 
ENDROOT
BRANCH   2   3
HETATM    3  C   UNL     1      -9.105   9.415  65.680  1.00  0.00    -0.207 C  
HETATM    4  C   UNL     1     -10.247  10.505  65.775  1.00  0.00    -0.243 C  
HETATM    5  O   UNL     1      -7.012  10.905  66.155  1.00  0.00    -0.135 OA 
HETATM    6  S   UNL     1     -11.161  10.757  67.338  1.00  0.00    -0.149 SA 
HETATM    7  C   UNL     1      -8.167  10.698  65.849  1.00  0.00    -0.159 C  
HETATM    8  O   UNL     1     -10.365  13.709  64.817  1.00  0.00    -0.400 OA 
HETATM    9  O   UNL     1     -10.286  14.916  66.716  1.00  0.00    -0.262 OA 
HETATM   10  C   UNL     1     -10.047  13.871  66.126  1.00  0.00    -0.308 C  
HETATM   11  C   UNL     1     -10.033  12.054  67.996  1.00  0.00    -0.197 C  
HETATM   12  C   UNL     1     -10.847  13.025  68.857  1.00  0.00    -0.244 C  
HETATM   13  C   UNL     1      -9.030  11.346  68.927  1.00  0.00    -0.016 C  
HETATM   14  N   UNL     1      -9.216  11.574  65.755  1.00  0.00    -0.219 N  
HETATM   15  C   UNL     1      -9.337  12.659  66.752  1.00  0.00    -0.232 C  
BRANCH   3  16
HETATM   16  N   UNL     1      -8.868   8.461  66.810  1.00  0.00    -0.133 N  
HETATM   17  C   UNL     1      -8.760   5.160  67.708  1.00  0.00    -0.103 A  
HETATM   18  O   UNL     1     -10.776   7.205  66.591  1.00  0.00    -0.245 OA 
HETATM   19  C   UNL     1      -9.539   4.317  66.932  1.00  0.00    -0.203 A  
HETATM   20  O   UNL     1      -9.822   6.038  70.543  1.00  0.00    -0.173 OA 
HETATM   21  O   UNL     1     -11.486   6.496  69.106  1.00  0.00    -0.306 OA 
HETATM   22  C   UNL     1      -9.191   6.504  68.264  1.00  0.00    -0.116 C  
HETATM   23  H   UNL     1      -8.030   8.598  67.376  1.00  0.00     0.000 HD 
HETATM   24  C   UNL     1      -9.695   7.412  67.145  1.00  0.00    -0.171 C  
HETATM   25  S   UNL     1      -8.717   2.898  66.449  1.00  0.00    -0.141 SA 
HETATM   26  C   UNL     1     -10.178   6.332  69.405  1.00  0.00    -0.193 C  
HETATM   27  C   UNL     1      -7.312   3.359  67.302  1.00  0.00    -0.059 A  
HETATM   28  C   UNL     1      -7.467   4.573  67.933  1.00  0.00    -0.069 A  
ENDBRANCH   3  16
ENDBRANCH   2   3
TORSDOF 2
ENDMDL
MODEL       72
REMARK 921   NORMALIZED FREE ENERGY PREDICTED BY IDOCK:   -4.29 KCAL/MOL
REMARK 922        TOTAL FREE ENERGY PREDICTED BY IDOCK:   -5.27 KCAL/MOL
REMARK 923 INTER-LIGAND FREE ENERGY PREDICTED BY IDOCK:   -4.95 KCAL/MOL
REMARK 924 INTRA-LIGAND FREE ENERGY PREDICTED BY IDOCK:   -0.32 KCAL/MOL
REMARK 927      BINDING AFFINITY PREDICTED BY RF-SCORE:    0.00 PKD
ROOT
HETATM    1  C   UNL     1     -10.528   6.828  73.630  1.00  0.00    -0.347 C  
HETATM    2  O   UNL     1     -10.210   6.080  72.466  1.00  0.00    -0.181 OA 
ENDROOT
BRANCH   2   3
HETATM    3  C   UNL     1      -9.847   6.830  71.273  1.00  0.00    -0.176 C  
HETATM    4  C   UNL     1      -9.801   8.405  71.412  1.00  0.00    -0.197 C  
HETATM    5  O   UNL     1     -11.849   6.578  69.613  1.00  0.00    -0.310 OA 
HETATM    6  S   UNL     1      -8.666   9.394  70.374  1.00  0.00    -0.232 SA 
HETATM    7  C   UNL     1     -11.157   7.162  70.420  1.00  0.00    -0.280 C  
HETATM    8  O   UNL     1     -12.222  10.712  71.528  1.00  0.00    -0.335 OA 
HETATM    9  O   UNL     1     -12.143  11.777  69.546  1.00  0.00    -0.295 OA 
HETATM   10  C   UNL     1     -11.901  10.778  70.211  1.00  0.00    -0.349 C  
HETATM   11  C   UNL     1      -9.871   9.669  69.010  1.00  0.00    -0.182 C  
HETATM   12  C   UNL     1      -9.586  11.032  68.369  1.00  0.00    -0.181 C  
HETATM   13  C   UNL     1      -9.592   8.594  67.942  1.00  0.00    -0.173 C  
HETATM   14  N   UNL     1     -11.119   8.494  70.736  1.00  0.00    -0.250 N  
HETATM   15  C   UNL     1     -11.267   9.493  69.655  1.00  0.00    -0.108 C  
BRANCH   3  16
HETATM   16  N   UNL     1      -8.851   6.112  70.416  1.00  0.00    -0.148 N  
HETATM   17  C   UNL     1      -8.401   4.384  67.496  1.00  0.00    -0.099 A  
HETATM   18  O   UNL     1     -10.017   4.160  70.110  1.00  0.00    -0.209 OA 
HETATM   19  C   UNL     1      -9.532   3.743  67.015  1.00  0.00    -0.200 A  
HETATM   20  O   UNL     1      -6.212   2.685  69.000  1.00  0.00    -0.027 OA 
HETATM   21  O   UNL     1      -8.156   2.196  70.011  1.00  0.00    -0.042 OA 
HETATM   22  C   UNL     1      -7.925   4.380  68.937  1.00  0.00    -0.073 C  
HETATM   23  H   UNL     1      -7.968   6.586  70.222  1.00  0.00     0.000 HD 
HETATM   24  C   UNL     1      -9.033   4.862  69.870  1.00  0.00    -0.099 C  
HETATM   25  S   UNL     1      -9.785   3.993  65.343  1.00  0.00    -0.192 SA 
HETATM   26  C   UNL     1      -7.347   3.027  69.317  1.00  0.00    -0.045 C  
HETATM   27  C   UNL     1      -8.363   4.928  65.215  1.00  0.00    -0.131 A  
HETATM   28  C   UNL     1      -7.717   5.054  66.425  1.00  0.00    -0.092 A  
ENDBRANCH   3  16
ENDBRANCH   2   3
TORSDOF 2
ENDMDL
MODEL       73
REMARK 921   NORMALIZED FREE ENERGY PREDICTED BY IDOCK:   -4.28 KCAL/MOL
REMARK 922        TOTAL FREE ENERGY PREDICTED BY IDOCK:   -5.27 KCAL/MOL
REMARK 923 INTER-LIGAND FREE ENERGY PREDICTED BY IDOCK:   -5.20 KCAL/MOL
REMARK 924 INTRA-LIGAND FREE ENERGY PREDICTED BY IDOCK:   -0.06 KCAL/MOL
REMARK 927      BINDING AFFINITY PREDICTED BY RF-SCORE:    0.00 PKD
ROOT
HETATM    1  C   UNL     1      -7.419   8.374  65.652  1.00  0.00    -0.081 C  
HETATM    2  O   UNL     1      -8.639   7.652  65.582  1.00  0.00    -0.148 OA 
ENDROOT
BRANCH   2   3
HETATM    3  C   UNL     1      -9.345   7.417  66.832  1.00  0.00    -0.157 C  
HETATM    4  C   UNL     1      -8.523   6.722  67.991  1.00  0.00    -0.120 C  
HETATM    5  O   UNL     1     -11.106   5.551  66.339  1.00  0.00    -0.167 OA 
HETATM    6  S   UNL     1      -8.921   7.062  69.743  1.00  0.00    -0.141 SA 
HETATM    7  C   UNL     1     -10.070   5.994  66.789  1.00  0.00    -0.187 C  
HETATM    8  O   UNL     1      -7.604   3.542  68.483  1.00  0.00    -0.053 OA 
HETATM    9  O   UNL     1      -8.900   2.787  70.162  1.00  0.00    -0.069 OA 
HETATM   10  C   UNL     1      -8.725   3.580  69.246  1.00  0.00    -0.084 C  
HETATM   11  C   UNL     1     -10.119   5.676  69.923  1.00  0.00    -0.222 C  
HETATM   12  C   UNL     1     -10.068   5.166  71.367  1.00  0.00    -0.265 C  
HETATM   13  C   UNL     1     -11.525   6.266  69.696  1.00  0.00    -0.425 C  
HETATM   14  N   UNL     1      -9.197   5.435  67.685  1.00  0.00    -0.111 N  
HETATM   15  C   UNL     1      -9.736   4.658  68.822  1.00  0.00    -0.160 C  
BRANCH   3  16
HETATM   16  N   UNL     1     -10.345   8.488  67.145  1.00  0.00    -0.289 N  
HETATM   17  C   UNL     1     -10.951  11.855  67.078  1.00  0.00    -0.326 A  
HETATM   18  O   UNL     1      -8.983   9.868  68.371  1.00  0.00    -0.119 OA 
HETATM   19  C   UNL     1      -9.821  12.655  67.137  1.00  0.00    -0.212 A  
HETATM   20  O   UNL     1     -12.675  11.457  69.687  1.00  0.00    -0.034 OA 
HETATM   21  O   UNL     1     -10.565  10.964  70.276  1.00  0.00     0.043 OA 
HETATM   22  C   UNL     1     -11.225  10.640  67.944  1.00  0.00    -0.376 C  
HETATM   23  H   UNL     1     -11.300   8.352  66.813  1.00  0.00     0.000 HD 
HETATM   24  C   UNL     1     -10.075   9.641  67.846  1.00  0.00    -0.181 C  
HETATM   25  S   UNL     1      -9.831  13.918  65.986  1.00  0.00    -0.259 SA 
HETATM   26  C   UNL     1     -11.563  11.049  69.368  1.00  0.00    -0.312 C  
HETATM   27  C   UNL     1     -11.368  13.451  65.410  1.00  0.00    -0.291 A  
HETATM   28  C   UNL     1     -11.856  12.349  66.077  1.00  0.00    -0.459 A  
ENDBRANCH   3  16
ENDBRANCH   2   3
TORSDOF 2
ENDMDL
MODEL       74
REMARK 921   NORMALIZED FREE ENERGY PREDICTED BY IDOCK:   -4.27 KCAL/MOL
REMARK 922        TOTAL FREE ENERGY PREDICTED BY IDOCK:   -5.25 KCAL/MOL
REMARK 923 INTER-LIGAND FREE ENERGY PREDICTED BY IDOCK:   -4.76 KCAL/MOL
REMARK 924 INTRA-LIGAND FREE ENERGY PREDICTED BY IDOCK:   -0.49 KCAL/MOL
REMARK 927      BINDING AFFINITY PREDICTED BY RF-SCORE:    0.00 PKD
ROOT
HETATM    1  C   UNL     1      -9.466   8.124  73.145  1.00  0.00    -0.246 C  
HETATM    2  O   UNL     1      -8.860   8.848  72.085  1.00  0.00    -0.381 OA 
ENDROOT
BRANCH   2   3
HETATM    3  C   UNL     1      -9.255   8.498  70.729  1.00  0.00    -0.172 C  
HETATM    4  C   UNL     1      -8.507   9.252  69.556  1.00  0.00    -0.144 C  
HETATM    5  O   UNL     1     -11.672   9.437  70.406  1.00  0.00    -0.239 OA 
HETATM    6  S   UNL     1      -8.276   8.442  67.934  1.00  0.00    -0.128 SA 
HETATM    7  C   UNL     1     -10.468   9.427  70.260  1.00  0.00    -0.251 C  
HETATM    8  O   UNL     1      -8.826  12.348  68.326  1.00  0.00    -0.185 OA 
HETATM    9  O   UNL     1      -9.837  12.107  66.329  1.00  0.00    -0.224 OA 
HETATM   10  C   UNL     1      -9.605  11.668  67.447  1.00  0.00    -0.166 C  
HETATM   11  C   UNL     1      -9.834   9.084  67.193  1.00  0.00    -0.203 C  
HETATM   12  C   UNL     1      -9.620   9.276  65.687  1.00  0.00    -0.324 C  
HETATM   13  C   UNL     1     -10.899   7.984  67.366  1.00  0.00    -0.146 C  
HETATM   14  N   UNL     1      -9.689  10.134  69.382  1.00  0.00    -0.219 N  
HETATM   15  C   UNL     1     -10.179  10.355  68.004  1.00  0.00    -0.169 C  
BRANCH   3  16
HETATM   16  N   UNL     1      -9.634   7.056  70.587  1.00  0.00    -0.166 N  
HETATM   17  C   UNL     1      -9.219   3.914  71.879  1.00  0.00    -0.178 A  
HETATM   18  O   UNL     1      -7.526   6.153  70.609  1.00  0.00    -0.083 OA 
HETATM   19  C   UNL     1      -8.025   3.712  72.552  1.00  0.00    -0.073 A  
HETATM   20  O   UNL     1      -9.517   2.816  68.939  1.00  0.00    -0.171 OA 
HETATM   21  O   UNL     1      -7.620   4.018  68.946  1.00  0.00    -0.054 OA 
HETATM   22  C   UNL     1      -9.376   4.612  70.541  1.00  0.00    -0.222 C  
HETATM   23  H   UNL     1     -10.626   6.838  70.486  1.00  0.00     0.000 HD 
HETATM   24  C   UNL     1      -8.749   6.003  70.583  1.00  0.00    -0.138 C  
HETATM   25  S   UNL     1      -8.228   2.922  74.055  1.00  0.00    -0.069 SA 
HETATM   26  C   UNL     1      -8.860   3.741  69.408  1.00  0.00    -0.090 C  
HETATM   27  C   UNL     1      -9.913   2.794  73.820  1.00  0.00    -0.105 A  
HETATM   28  C   UNL     1     -10.312   3.351  72.625  1.00  0.00    -0.217 A  
ENDBRANCH   3  16
ENDBRANCH   2   3
TORSDOF 2
ENDMDL
MODEL       75
REMARK 921   NORMALIZED FREE ENERGY PREDICTED BY IDOCK:   -4.25 KCAL/MOL
REMARK 922        TOTAL FREE ENERGY PREDICTED BY IDOCK:   -5.23 KCAL/MOL
REMARK 923 INTER-LIGAND FREE ENERGY PREDICTED BY IDOCK:   -4.89 KCAL/MOL
REMARK 924 INTRA-LIGAND FREE ENERGY PREDICTED BY IDOCK:   -0.35 KCAL/MOL
REMARK 927      BINDING AFFINITY PREDICTED BY RF-SCORE:    0.00 PKD
ROOT
HETATM    1  C   UNL     1     -12.919  10.960  71.206  1.00  0.00    -0.392 C  
HETATM    2  O   UNL     1     -12.443  10.074  70.205  1.00  0.00    -0.166 OA 
ENDROOT
BRANCH   2   3
HETATM    3  C   UNL     1     -11.194  10.425  69.545  1.00  0.00    -0.269 C  
HETATM    4  C   UNL     1     -11.180  11.782  68.732  1.00  0.00    -0.251 C  
HETATM    5  O   UNL     1     -10.894   8.719  67.590  1.00  0.00    -0.190 OA 
HETATM    6  S   UNL     1      -9.631  12.735  68.546  1.00  0.00    -0.041 SA 
HETATM    7  C   UNL     1     -11.160   9.797  68.076  1.00  0.00    -0.106 C  
HETATM    8  O   UNL     1     -12.425  12.607  65.737  1.00  0.00    -0.607 OA 
HETATM    9  O   UNL     1     -10.645  12.806  64.373  1.00  0.00    -0.333 OA 
HETATM   10  C   UNL     1     -11.142  12.337  65.389  1.00  0.00    -0.311 C  
HETATM   11  C   UNL     1      -9.115  11.926  66.975  1.00  0.00    -0.191 C  
HETATM   12  C   UNL     1      -8.331  12.940  66.134  1.00  0.00     0.837 C  
HETATM   13  C   UNL     1      -8.139  10.794  67.353  1.00  0.00    -0.112 C  
HETATM   14  N   UNL     1     -11.315  11.015  67.468  1.00  0.00    -0.297 N  
HETATM   15  C   UNL     1     -10.420  11.378  66.349  1.00  0.00    -0.254 C  
BRANCH   3  16
HETATM   16  N   UNL     1      -9.986   9.986  70.314  1.00  0.00    -0.395 N  
HETATM   17  C   UNL     1      -7.899   7.359  70.985  1.00  0.00    -0.092 A  
HETATM   18  O   UNL     1     -10.873   8.106  71.285  1.00  0.00    -0.229 OA 
HETATM   19  C   UNL     1      -8.469   6.105  70.833  1.00  0.00    -0.128 A  
HETATM   20  O   UNL     1      -7.568   8.541  73.889  1.00  0.00    -0.340 OA 
HETATM   21  O   UNL     1      -9.722   7.924  73.729  1.00  0.00    -0.225 OA 
HETATM   22  C   UNL     1      -8.538   8.545  71.682  1.00  0.00    -0.247 C  
HETATM   23  H   UNL     1      -9.156  10.578  70.266  1.00  0.00     0.000 HD 
HETATM   24  C   UNL     1      -9.909   8.846  71.082  1.00  0.00    -0.275 C  
HETATM   25  S   UNL     1      -7.478   5.018  69.961  1.00  0.00    -0.060 SA 
HETATM   26  C   UNL     1      -8.557   8.348  73.188  1.00  0.00    -0.138 C  
HETATM   27  C   UNL     1      -6.245   6.187  69.803  1.00  0.00    -0.027 A  
HETATM   28  C   UNL     1      -6.588   7.382  70.396  1.00  0.00    -0.046 A  
ENDBRANCH   3  16
ENDBRANCH   2   3
TORSDOF 2
ENDMDL
MODEL       76
REMARK 921   NORMALIZED FREE ENERGY PREDICTED BY IDOCK:   -4.22 KCAL/MOL
REMARK 922        TOTAL FREE ENERGY PREDICTED BY IDOCK:   -5.20 KCAL/MOL
REMARK 923 INTER-LIGAND FREE ENERGY PREDICTED BY IDOCK:   -4.72 KCAL/MOL
REMARK 924 INTRA-LIGAND FREE ENERGY PREDICTED BY IDOCK:   -0.48 KCAL/MOL
REMARK 927      BINDING AFFINITY PREDICTED BY RF-SCORE:    0.00 PKD
ROOT
HETATM    1  C   UNL     1     -13.133  13.334  71.500  1.00  0.00    -0.328 C  
HETATM    2  O   UNL     1     -12.879  12.289  70.574  1.00  0.00    -0.022 OA 
ENDROOT
BRANCH   2   3
HETATM    3  C   UNL     1     -11.625  12.343  69.839  1.00  0.00    -0.186 C  
HETATM    4  C   UNL     1     -11.140  13.773  69.368  1.00  0.00    -0.156 C  
HETATM    5  O   UNL     1     -12.086  11.231  67.520  1.00  0.00    -0.530 OA 
HETATM    6  S   UNL     1      -9.357  14.133  69.184  1.00  0.00     0.314 SA 
HETATM    7  C   UNL     1     -11.902  12.162  68.276  1.00  0.00    -0.301 C  
HETATM    8  O   UNL     1     -12.128  15.754  66.858  1.00  0.00     0.589 OA 
HETATM    9  O   UNL     1     -10.474  15.674  65.333  1.00  0.00    -0.359 OA 
HETATM   10  C   UNL     1     -11.060  15.155  66.274  1.00  0.00    -0.309 C  
HETATM   11  C   UNL     1      -9.262  13.648  67.410  1.00  0.00    -0.222 C  
HETATM   12  C   UNL     1      -8.197  14.508  66.721  1.00  0.00     0.045 C  
HETATM   13  C   UNL     1      -8.768  12.189  67.371  1.00  0.00    -0.177 C  
HETATM   14  N   UNL     1     -11.617  13.472  67.995  1.00  0.00    -0.316 N  
HETATM   15  C   UNL     1     -10.706  13.784  66.871  1.00  0.00    -0.280 C  
BRANCH   3  16
HETATM   16  N   UNL     1     -10.635  11.318  70.302  1.00  0.00     0.057 N  
HETATM   17  C   UNL     1      -9.475   8.134  69.827  1.00  0.00    -0.159 A  
HETATM   18  O   UNL     1     -12.086   9.569  70.613  1.00  0.00    -0.252 OA 
HETATM   19  C   UNL     1     -10.396   7.250  69.289  1.00  0.00    -0.205 A  
HETATM   20  O   UNL     1      -8.894   8.032  72.924  1.00  0.00    -0.177 OA 
HETATM   21  O   UNL     1     -11.126   8.183  72.733  1.00  0.00    -0.382 OA 
HETATM   22  C   UNL     1      -9.743   9.121  70.948  1.00  0.00    -0.352 C  
HETATM   23  H   UNL     1      -9.662  11.613  70.398  1.00  0.00     0.000 HD 
HETATM   24  C   UNL     1     -10.935  10.011  70.607  1.00  0.00    -0.322 C  
HETATM   25  S   UNL     1      -9.758   6.311  68.011  1.00  0.00    -0.125 SA 
HETATM   26  C   UNL     1      -9.871   8.408  72.284  1.00  0.00    -0.313 C  
HETATM   27  C   UNL     1      -8.222   7.035  68.177  1.00  0.00    -0.120 A  
HETATM   28  C   UNL     1      -8.201   7.979  69.180  1.00  0.00    -0.130 A  
ENDBRANCH   3  16
ENDBRANCH   2   3
TORSDOF 2
ENDMDL
MODEL       77
REMARK 921   NORMALIZED FREE ENERGY PREDICTED BY IDOCK:   -4.18 KCAL/MOL
REMARK 922        TOTAL FREE ENERGY PREDICTED BY IDOCK:   -5.15 KCAL/MOL
REMARK 923 INTER-LIGAND FREE ENERGY PREDICTED BY IDOCK:   -4.81 KCAL/MOL
REMARK 924 INTRA-LIGAND FREE ENERGY PREDICTED BY IDOCK:   -0.34 KCAL/MOL
REMARK 927      BINDING AFFINITY PREDICTED BY RF-SCORE:    0.00 PKD
ROOT
HETATM    1  C   UNL     1      -6.345  12.246  67.135  1.00  0.00    -0.117 C  
HETATM    2  O   UNL     1      -7.480  11.919  67.922  1.00  0.00    -0.099 OA 
ENDROOT
BRANCH   2   3
HETATM    3  C   UNL     1      -8.769  11.886  67.249  1.00  0.00    -0.171 C  
HETATM    4  C   UNL     1      -8.876  12.680  65.884  1.00  0.00     0.442 C  
HETATM    5  O   UNL     1     -10.403  13.292  68.724  1.00  0.00    -0.221 OA 
HETATM    6  S   UNL     1     -10.036  12.133  64.582  1.00  0.00    -0.227 SA 
HETATM    7  C   UNL     1      -9.686  13.087  67.768  1.00  0.00    -0.218 C  
HETATM    8  O   UNL     1      -9.162  15.947  65.216  1.00  0.00    -0.173 OA 
HETATM    9  O   UNL     1     -11.285  16.243  64.524  1.00  0.00    -0.626 OA 
HETATM   10  C   UNL     1     -10.468  15.582  65.153  1.00  0.00    -0.403 C  
HETATM   11  C   UNL     1     -11.447  13.166  65.157  1.00  0.00    -0.300 C  
HETATM   12  C   UNL     1     -12.288  13.572  63.941  1.00  0.00    -0.397 C  
HETATM   13  C   UNL     1     -12.330  12.266  66.043  1.00  0.00     0.193 C  
HETATM   14  N   UNL     1      -9.580  13.780  66.591  1.00  0.00    -0.280 N  
HETATM   15  C   UNL     1     -10.806  14.321  65.964  1.00  0.00    -0.303 C  
BRANCH   3  16
HETATM   16  N   UNL     1      -9.487  10.584  67.429  1.00  0.00    -0.153 N  
HETATM   17  C   UNL     1      -9.484   7.596  69.098  1.00  0.00    -0.154 A  
HETATM   18  O   UNL     1      -7.698   9.175  67.146  1.00  0.00    -0.097 OA 
HETATM   19  C   UNL     1      -8.238   7.164  69.523  1.00  0.00    -0.132 A  
HETATM   20  O   UNL     1     -10.742   6.307  66.510  1.00  0.00    -0.212 OA 
HETATM   21  O   UNL     1      -8.681   6.973  65.913  1.00  0.00    -0.146 OA 
HETATM   22  C   UNL     1      -9.806   8.165  67.728  1.00  0.00    -0.209 C  
HETATM   23  H   UNL     1     -10.496  10.619  67.579  1.00  0.00     0.000 HD 
HETATM   24  C   UNL     1      -8.891   9.343  67.407  1.00  0.00    -0.128 C  
HETATM   25  S   UNL     1      -8.235   6.617  71.143  1.00  0.00    -0.121 SA 
HETATM   26  C   UNL     1      -9.798   7.076  66.669  1.00  0.00    -0.156 C  
HETATM   27  C   UNL     1      -9.909   6.904  71.299  1.00  0.00    -0.175 A  
HETATM   28  C   UNL     1     -10.455   7.416  70.142  1.00  0.00    -0.228 A  
ENDBRANCH   3  16
ENDBRANCH   2   3
TORSDOF 2
ENDMDL
MODEL       78
REMARK 921   NORMALIZED FREE ENERGY PREDICTED BY IDOCK:   -4.18 KCAL/MOL
REMARK 922        TOTAL FREE ENERGY PREDICTED BY IDOCK:   -5.15 KCAL/MOL
REMARK 923 INTER-LIGAND FREE ENERGY PREDICTED BY IDOCK:   -4.64 KCAL/MOL
REMARK 924 INTRA-LIGAND FREE ENERGY PREDICTED BY IDOCK:   -0.51 KCAL/MOL
REMARK 927      BINDING AFFINITY PREDICTED BY RF-SCORE:    0.00 PKD
ROOT
HETATM    1  C   UNL     1     -11.830  10.209  70.573  1.00  0.00    -0.321 C  
HETATM    2  O   UNL     1     -11.256   9.140  69.837  1.00  0.00    -0.206 OA 
ENDROOT
BRANCH   2   3
HETATM    3  C   UNL     1      -9.806   9.019  69.864  1.00  0.00    -0.183 C  
HETATM    4  C   UNL     1      -9.204   7.620  69.435  1.00  0.00    -0.149 C  
HETATM    5  O   UNL     1      -9.113   9.060  72.383  1.00  0.00    -0.316 OA 
HETATM    6  S   UNL     1      -7.549   7.519  68.666  1.00  0.00    -0.112 SA 
HETATM    7  C   UNL     1      -9.327   8.536  71.310  1.00  0.00    -0.203 C  
HETATM    8  O   UNL     1      -8.989   4.692  71.042  1.00  0.00    -0.119 OA 
HETATM    9  O   UNL     1      -6.817   4.455  71.586  1.00  0.00    -0.029 OA 
HETATM   10  C   UNL     1      -7.753   5.190  71.300  1.00  0.00    -0.101 C  
HETATM   11  C   UNL     1      -6.633   7.294  70.247  1.00  0.00    -0.047 C  
HETATM   12  C   UNL     1      -5.398   6.427  69.981  1.00  0.00    -0.014 C  
HETATM   13  C   UNL     1      -6.131   8.687  70.675  1.00  0.00    -0.033 C  
HETATM   14  N   UNL     1      -8.986   7.286  70.865  1.00  0.00    -0.150 N  
HETATM   15  C   UNL     1      -7.671   6.724  71.243  1.00  0.00    -0.093 C  
BRANCH   3  16
HETATM   16  N   UNL     1      -9.108  10.292  69.496  1.00  0.00    -0.329 N  
HETATM   17  C   UNL     1      -9.341  13.187  67.685  1.00  0.00    -0.205 A  
HETATM   18  O   UNL     1      -9.321  10.142  67.216  1.00  0.00    -0.150 OA 
HETATM   19  C   UNL     1     -10.168  13.118  66.576  1.00  0.00    -0.277 A  
HETATM   20  O   UNL     1      -6.220  13.018  67.273  1.00  0.00    -0.279 OA 
HETATM   21  O   UNL     1      -7.070  11.243  66.190  1.00  0.00    -0.060 OA 
HETATM   22  C   UNL     1      -8.314  12.147  68.092  1.00  0.00    -0.170 C  
HETATM   23  H   UNL     1      -8.710  10.847  70.254  1.00  0.00     0.000 HD 
HETATM   24  C   UNL     1      -8.962  10.770  68.213  1.00  0.00    -0.143 C  
HETATM   25  S   UNL     1     -11.231  14.451  66.448  1.00  0.00    -0.352 SA 
HETATM   26  C   UNL     1      -7.110  12.179  67.166  1.00  0.00    -0.120 C  
HETATM   27  C   UNL     1     -10.580  15.172  67.851  1.00  0.00    -0.257 A  
HETATM   28  C   UNL     1      -9.580  14.406  68.408  1.00  0.00    -0.219 A  
ENDBRANCH   3  16
ENDBRANCH   2   3
TORSDOF 2
ENDMDL
MODEL       79
REMARK 921   NORMALIZED FREE ENERGY PREDICTED BY IDOCK:   -4.18 KCAL/MOL
REMARK 922        TOTAL FREE ENERGY PREDICTED BY IDOCK:   -5.15 KCAL/MOL
REMARK 923 INTER-LIGAND FREE ENERGY PREDICTED BY IDOCK:   -4.94 KCAL/MOL
REMARK 924 INTRA-LIGAND FREE ENERGY PREDICTED BY IDOCK:   -0.21 KCAL/MOL
REMARK 927      BINDING AFFINITY PREDICTED BY RF-SCORE:    0.00 PKD
ROOT
HETATM    1  C   UNL     1     -12.259  12.259  64.206  1.00  0.00    -0.425 C  
HETATM    2  O   UNL     1     -11.872  12.001  65.547  1.00  0.00    -0.386 OA 
ENDROOT
BRANCH   2   3
HETATM    3  C   UNL     1     -10.709  12.715  66.052  1.00  0.00    -0.269 C  
HETATM    4  C   UNL     1     -10.802  13.264  67.533  1.00  0.00    -0.263 C  
HETATM    5  O   UNL     1     -10.603  14.968  64.736  1.00  0.00    -0.402 OA 
HETATM    6  S   UNL     1      -9.296  13.437  68.554  1.00  0.00    -0.029 SA 
HETATM    7  C   UNL     1     -10.828  14.269  65.700  1.00  0.00    -0.309 C  
HETATM    8  O   UNL     1     -12.381  15.909  68.840  1.00  0.00    -0.097 OA 
HETATM    9  O   UNL     1     -10.765  17.396  69.340  1.00  0.00    -0.188 OA 
HETATM   10  C   UNL     1     -11.140  16.435  68.680  1.00  0.00    -0.352 C  
HETATM   11  C   UNL     1      -8.945  15.175  68.058  1.00  0.00    -0.172 C  
HETATM   12  C   UNL     1      -8.273  15.895  69.232  1.00  0.00    -0.227 C  
HETATM   13  C   UNL     1      -7.920  15.115  66.910  1.00  0.00    -0.155 C  
HETATM   14  N   UNL     1     -11.066  14.625  67.001  1.00  0.00    -0.324 N  
HETATM   15  C   UNL     1     -10.304  15.748  67.589  1.00  0.00    -0.281 C  
BRANCH   3  16
HETATM   16  N   UNL     1      -9.418  12.171  65.523  1.00  0.00    -0.422 N  
HETATM   17  C   UNL     1      -7.772   9.339  64.529  1.00  0.00    -0.114 A  
HETATM   18  O   UNL     1      -9.110  10.491  67.054  1.00  0.00    -0.143 OA 
HETATM   19  C   UNL     1      -8.229   8.165  65.106  1.00  0.00    -0.154 A  
HETATM   20  O   UNL     1      -5.129  10.653  65.634  1.00  0.00    -0.074 OA 
HETATM   21  O   UNL     1      -6.434  10.317  67.431  1.00  0.00    -0.065 OA 
HETATM   22  C   UNL     1      -7.510  10.642  65.260  1.00  0.00     0.006 C  
HETATM   23  H   UNL     1      -9.001  12.644  64.720  1.00  0.00     0.000 HD 
HETATM   24  C   UNL     1      -8.749  11.083  66.035  1.00  0.00    -0.188 C  
HETATM   25  S   UNL     1      -8.448   6.903  63.973  1.00  0.00     0.445 SA 
HETATM   26  C   UNL     1      -6.255  10.548  66.110  1.00  0.00    -0.111 C  
HETATM   27  C   UNL     1      -7.897   7.885  62.692  1.00  0.00    -0.142 A  
HETATM   28  C   UNL     1      -7.562   9.151  63.119  1.00  0.00    -0.103 A  
ENDBRANCH   3  16
ENDBRANCH   2   3
TORSDOF 2
ENDMDL
MODEL       80
REMARK 921   NORMALIZED FREE ENERGY PREDICTED BY IDOCK:   -4.17 KCAL/MOL
REMARK 922        TOTAL FREE ENERGY PREDICTED BY IDOCK:   -5.14 KCAL/MOL
REMARK 923 INTER-LIGAND FREE ENERGY PREDICTED BY IDOCK:   -4.64 KCAL/MOL
REMARK 924 INTRA-LIGAND FREE ENERGY PREDICTED BY IDOCK:   -0.51 KCAL/MOL
REMARK 927      BINDING AFFINITY PREDICTED BY RF-SCORE:    0.00 PKD
ROOT
HETATM    1  C   UNL     1     -11.293   9.410  70.771  1.00  0.00    -0.300 C  
HETATM    2  O   UNL     1     -11.187   8.172  70.085  1.00  0.00    -0.232 OA 
ENDROOT
BRANCH   2   3
HETATM    3  C   UNL     1     -10.127   8.049  69.096  1.00  0.00    -0.201 C  
HETATM    4  C   UNL     1      -9.641   9.388  68.408  1.00  0.00    -0.146 C  
HETATM    5  O   UNL     1     -11.183   6.836  67.038  1.00  0.00    -0.393 OA 
HETATM    6  S   UNL     1      -7.920   9.553  67.814  1.00  0.00    -0.098 SA 
HETATM    7  C   UNL     1     -10.758   7.792  67.651  1.00  0.00    -0.157 C  
HETATM    8  O   UNL     1     -10.992  11.284  66.004  1.00  0.00    -0.257 OA 
HETATM    9  O   UNL     1      -9.731  10.934  64.172  1.00  0.00    -0.244 OA 
HETATM   10  C   UNL     1     -10.134  10.542  65.259  1.00  0.00    -0.300 C  
HETATM   11  C   UNL     1      -8.261   8.942  66.111  1.00  0.00    -0.116 C  
HETATM   12  C   UNL     1      -7.307   9.641  65.137  1.00  0.00    -0.115 C  
HETATM   13  C   UNL     1      -7.912   7.441  66.096  1.00  0.00    -0.112 C  
HETATM   14  N   UNL     1     -10.434   9.044  67.201  1.00  0.00    -0.272 N  
HETATM   15  C   UNL     1      -9.773   9.186  65.885  1.00  0.00    -0.266 C  
BRANCH   3  16
HETATM   16  N   UNL     1      -9.148   6.963  69.424  1.00  0.00    -0.141 N  
HETATM   17  C   UNL     1      -8.254   3.720  68.799  1.00  0.00    -0.084 A  
HETATM   18  O   UNL     1     -10.649   5.301  69.922  1.00  0.00    -0.306 OA 
HETATM   19  C   UNL     1      -9.290   2.897  68.386  1.00  0.00    -0.192 A  
HETATM   20  O   UNL     1      -7.280   3.556  71.793  1.00  0.00    -0.043 OA 
HETATM   21  O   UNL     1      -9.505   3.842  71.896  1.00  0.00    -0.124 OA 
HETATM   22  C   UNL     1      -8.313   4.711  69.946  1.00  0.00    -0.074 C  
HETATM   23  H   UNL     1      -8.156   7.199  69.393  1.00  0.00     0.000 HD 
HETATM   24  C   UNL     1      -9.485   5.673  69.765  1.00  0.00    -0.148 C  
HETATM   25  S   UNL     1      -8.882   1.932  67.034  1.00  0.00    -0.123 SA 
HETATM   26  C   UNL     1      -8.308   3.996  71.286  1.00  0.00    -0.080 C  
HETATM   27  C   UNL     1      -7.297   2.562  66.997  1.00  0.00    -0.061 A  
HETATM   28  C   UNL     1      -7.088   3.495  67.989  1.00  0.00    -0.051 A  
ENDBRANCH   3  16
ENDBRANCH   2   3
TORSDOF 2
ENDMDL
MODEL       81
REMARK 921   NORMALIZED FREE ENERGY PREDICTED BY IDOCK:   -4.14 KCAL/MOL
REMARK 922        TOTAL FREE ENERGY PREDICTED BY IDOCK:   -5.10 KCAL/MOL
REMARK 923 INTER-LIGAND FREE ENERGY PREDICTED BY IDOCK:   -4.63 KCAL/MOL
REMARK 924 INTRA-LIGAND FREE ENERGY PREDICTED BY IDOCK:   -0.47 KCAL/MOL
REMARK 927      BINDING AFFINITY PREDICTED BY RF-SCORE:    0.00 PKD
ROOT
HETATM    1  C   UNL     1      -8.642  13.252  68.291  1.00  0.00    -0.169 C  
HETATM    2  O   UNL     1      -8.936  11.946  68.762  1.00  0.00    -0.087 OA 
ENDROOT
BRANCH   2   3
HETATM    3  C   UNL     1      -8.561  10.831  67.905  1.00  0.00    -0.125 C  
HETATM    4  C   UNL     1      -8.139  11.186  66.423  1.00  0.00    -0.159 C  
HETATM    5  O   UNL     1     -10.756   9.491  67.445  1.00  0.00    -0.279 OA 
HETATM    6  S   UNL     1      -6.945  10.135  65.522  1.00  0.00    -0.135 SA 
HETATM    7  C   UNL     1      -9.855  10.253  67.166  1.00  0.00    -0.185 C  
HETATM    8  O   UNL     1      -9.935  12.016  63.724  1.00  0.00    -0.349 OA 
HETATM    9  O   UNL     1      -9.859  10.221  62.367  1.00  0.00    -0.154 OA 
HETATM   10  C   UNL     1      -9.772  10.689  63.495  1.00  0.00    -0.339 C  
HETATM   11  C   UNL     1      -8.214   9.033  64.769  1.00  0.00    -0.160 C  
HETATM   12  C   UNL     1      -7.706   8.558  63.404  1.00  0.00    -0.139 C  
HETATM   13  C   UNL     1      -8.322   7.791  65.675  1.00  0.00    -0.143 C  
HETATM   14  N   UNL     1      -9.475  10.748  65.947  1.00  0.00    -0.188 N  
HETATM   15  C   UNL     1      -9.522   9.860  64.765  1.00  0.00    -0.291 C  
BRANCH   3  16
HETATM   16  N   UNL     1      -7.869   9.732  68.651  1.00  0.00    -0.080 N  
HETATM   17  C   UNL     1      -8.268   6.676  70.139  1.00  0.00    -0.133 A  
HETATM   18  O   UNL     1      -9.323   9.558  70.417  1.00  0.00    -0.242 OA 
HETATM   19  C   UNL     1      -9.550   6.411  70.596  1.00  0.00    -0.172 A  
HETATM   20  O   UNL     1      -6.062   7.552  72.214  1.00  0.00    -0.040 OA 
HETATM   21  O   UNL     1      -7.803   8.926  72.567  1.00  0.00    -0.369 OA 
HETATM   22  C   UNL     1      -7.509   7.975  70.333  1.00  0.00    -0.075 C  
HETATM   23  H   UNL     1      -6.990   9.382  68.267  1.00  0.00     0.000 HD 
HETATM   24  C   UNL     1      -8.325   9.157  69.815  1.00  0.00    -0.136 C  
HETATM   25  S   UNL     1     -10.107   4.854  70.163  1.00  0.00    -0.240 SA 
HETATM   26  C   UNL     1      -7.051   8.130  71.773  1.00  0.00    -0.078 C  
HETATM   27  C   UNL     1      -8.631   4.482  69.392  1.00  0.00    -0.081 A  
HETATM   28  C   UNL     1      -7.737   5.528  69.456  1.00  0.00    -0.082 A  
ENDBRANCH   3  16
ENDBRANCH   2   3
TORSDOF 2
ENDMDL
MODEL       82
REMARK 921   NORMALIZED FREE ENERGY PREDICTED BY IDOCK:   -4.13 KCAL/MOL
REMARK 922        TOTAL FREE ENERGY PREDICTED BY IDOCK:   -5.10 KCAL/MOL
REMARK 923 INTER-LIGAND FREE ENERGY PREDICTED BY IDOCK:   -4.79 KCAL/MOL
REMARK 924 INTRA-LIGAND FREE ENERGY PREDICTED BY IDOCK:   -0.31 KCAL/MOL
REMARK 927      BINDING AFFINITY PREDICTED BY RF-SCORE:    0.00 PKD
ROOT
HETATM    1  C   UNL     1      -5.768  11.986  68.942  1.00  0.00    -0.051 C  
HETATM    2  O   UNL     1      -7.107  11.760  69.354  1.00  0.00    -0.076 OA 
ENDROOT
BRANCH   2   3
HETATM    3  C   UNL     1      -8.012  11.172  68.379  1.00  0.00    -0.137 C  
HETATM    4  C   UNL     1      -7.993  11.798  66.926  1.00  0.00    -0.149 C  
HETATM    5  O   UNL     1     -10.426  11.833  69.128  1.00  0.00    -0.147 OA 
HETATM    6  S   UNL     1      -8.396  10.771  65.468  1.00  0.00    -0.083 SA 
HETATM    7  C   UNL     1      -9.430  11.906  68.440  1.00  0.00    -0.189 C  
HETATM    8  O   UNL     1      -9.289  14.627  65.693  1.00  0.00    -0.169 OA 
HETATM    9  O   UNL     1     -11.041  13.993  64.429  1.00  0.00    -0.365 OA 
HETATM   10  C   UNL     1     -10.268  13.753  65.347  1.00  0.00    -0.326 C  
HETATM   11  C   UNL     1     -10.198  11.151  65.479  1.00  0.00    -0.263 C  
HETATM   12  C   UNL     1     -10.714  11.126  64.036  1.00  0.00    -0.409 C  
HETATM   13  C   UNL     1     -10.894  10.001  66.233  1.00  0.00     0.100 C  
HETATM   14  N   UNL     1      -9.244  12.535  67.237  1.00  0.00    -0.183 N  
HETATM   15  C   UNL     1     -10.328  12.497  66.231  1.00  0.00    -0.250 C  
BRANCH   3  16
HETATM   16  N   UNL     1      -8.195   9.697  68.569  1.00  0.00    -0.104 N  
HETATM   17  C   UNL     1      -9.785   7.290  70.409  1.00  0.00    -0.172 A  
HETATM   18  O   UNL     1      -7.789   9.600  70.825  1.00  0.00    -0.292 OA 
HETATM   19  C   UNL     1     -10.138   7.673  71.693  1.00  0.00    -0.180 A  
HETATM   20  O   UNL     1      -7.230   5.488  70.005  1.00  0.00    -0.064 OA 
HETATM   21  O   UNL     1      -6.551   7.229  71.250  1.00  0.00    -0.043 OA 
HETATM   22  C   UNL     1      -8.448   7.552  69.742  1.00  0.00    -0.135 C  
HETATM   23  H   UNL     1      -8.395   9.137  67.740  1.00  0.00     0.000 HD 
HETATM   24  C   UNL     1      -8.113   9.041  69.776  1.00  0.00    -0.109 C  
HETATM   25  S   UNL     1     -11.742   7.244  72.104  1.00  0.00    -0.276 SA 
HETATM   26  C   UNL     1      -7.362   6.665  70.328  1.00  0.00    -0.085 C  
HETATM   27  C   UNL     1     -11.986   6.498  70.588  1.00  0.00    -0.280 A  
HETATM   28  C   UNL     1     -10.870   6.584  69.785  1.00  0.00    -0.351 A  
ENDBRANCH   3  16
ENDBRANCH   2   3
TORSDOF 2
ENDMDL
MODEL       83
REMARK 921   NORMALIZED FREE ENERGY PREDICTED BY IDOCK:   -4.02 KCAL/MOL
REMARK 922        TOTAL FREE ENERGY PREDICTED BY IDOCK:   -4.97 KCAL/MOL
REMARK 923 INTER-LIGAND FREE ENERGY PREDICTED BY IDOCK:   -4.94 KCAL/MOL
REMARK 924 INTRA-LIGAND FREE ENERGY PREDICTED BY IDOCK:   -0.03 KCAL/MOL
REMARK 927      BINDING AFFINITY PREDICTED BY RF-SCORE:    0.00 PKD
ROOT
HETATM    1  C   UNL     1     -12.113  14.639  64.513  1.00  0.00    -0.475 C  
HETATM    2  O   UNL     1     -10.815  14.320  64.989  1.00  0.00    -0.355 OA 
ENDROOT
BRANCH   2   3
HETATM    3  C   UNL     1     -10.359  15.008  66.187  1.00  0.00    -0.299 C  
HETATM    4  C   UNL     1     -11.142  16.322  66.592  1.00  0.00     0.104 C  
HETATM    5  O   UNL     1      -8.027  16.030  65.601  1.00  0.00     0.767 OA 
HETATM    6  S   UNL     1     -11.263  16.825  68.345  1.00  0.00    -0.048 SA 
HETATM    7  C   UNL     1      -9.221  16.064  65.808  1.00  0.00    -0.180 C  
HETATM    8  O   UNL     1     -11.067  19.436  65.368  1.00  0.00    -0.402 OA 
HETATM    9  O   UNL     1      -9.991  20.670  66.914  1.00  0.00    -0.418 OA 
HETATM   10  C   UNL     1     -10.211  19.576  66.412  1.00  0.00    -0.479 C  
HETATM   11  C   UNL     1      -9.750  17.874  68.332  1.00  0.00    -0.340 C  
HETATM   12  C   UNL     1      -9.945  19.030  69.319  1.00  0.00    -0.193 C  
HETATM   13  C   UNL     1      -8.598  17.003  68.868  1.00  0.00    -0.196 C  
HETATM   14  N   UNL     1     -10.038  17.141  66.030  1.00  0.00    -0.312 N  
HETATM   15  C   UNL     1      -9.537  18.265  66.850  1.00  0.00    -0.296 C  
BRANCH   3  16
HETATM   16  N   UNL     1      -9.851  14.070  67.239  1.00  0.00    -0.238 N  
HETATM   17  C   UNL     1      -7.703  11.485  67.882  1.00  0.00    -0.120 A  
HETATM   18  O   UNL     1     -10.138  12.101  66.097  1.00  0.00    -0.219 OA 
HETATM   19  C   UNL     1      -7.392  10.696  66.785  1.00  0.00    -0.120 A  
HETATM   20  O   UNL     1      -9.817  10.429  69.969  1.00  0.00    -0.121 OA 
HETATM   21  O   UNL     1     -10.811  10.257  67.962  1.00  0.00    -0.236 OA 
HETATM   22  C   UNL     1      -9.090  11.968  68.262  1.00  0.00    -0.190 C  
HETATM   23  H   UNL     1      -9.566  14.473  68.132  1.00  0.00     0.000 HD 
HETATM   24  C   UNL     1      -9.741  12.706  67.094  1.00  0.00    -0.211 C  
HETATM   25  S   UNL     1      -5.719  10.373  66.644  1.00  0.00    -0.065 SA 
HETATM   26  C   UNL     1      -9.932  10.831  68.814  1.00  0.00    -0.193 C  
HETATM   27  C   UNL     1      -5.377  11.245  68.070  1.00  0.00    -0.043 A  
HETATM   28  C   UNL     1      -6.515  11.778  68.635  1.00  0.00    -0.060 A  
ENDBRANCH   3  16
ENDBRANCH   2   3
TORSDOF 2
ENDMDL
MODEL       84
REMARK 921   NORMALIZED FREE ENERGY PREDICTED BY IDOCK:   -4.02 KCAL/MOL
REMARK 922        TOTAL FREE ENERGY PREDICTED BY IDOCK:   -4.97 KCAL/MOL
REMARK 923 INTER-LIGAND FREE ENERGY PREDICTED BY IDOCK:   -4.75 KCAL/MOL
REMARK 924 INTRA-LIGAND FREE ENERGY PREDICTED BY IDOCK:   -0.22 KCAL/MOL
REMARK 927      BINDING AFFINITY PREDICTED BY RF-SCORE:    0.00 PKD
ROOT
HETATM    1  C   UNL     1     -10.817   6.053  71.626  1.00  0.00    -0.260 C  
HETATM    2  O   UNL     1     -11.513   6.357  70.427  1.00  0.00    -0.361 OA 
ENDROOT
BRANCH   2   3
HETATM    3  C   UNL     1     -10.726   6.443  69.206  1.00  0.00    -0.292 C  
HETATM    4  C   UNL     1     -10.532   5.100  68.392  1.00  0.00    -0.014 C  
HETATM    5  O   UNL     1      -8.262   6.884  69.952  1.00  0.00    -0.123 OA 
HETATM    6  S   UNL     1     -10.313   5.139  66.577  1.00  0.00    -0.292 SA 
HETATM    7  C   UNL     1      -9.180   6.210  69.537  1.00  0.00    -0.138 C  
HETATM    8  O   UNL     1      -8.556   2.446  68.896  1.00  0.00    -0.063 OA 
HETATM    9  O   UNL     1      -6.944   2.582  67.329  1.00  0.00    -0.043 OA 
HETATM   10  C   UNL     1      -7.793   3.139  68.013  1.00  0.00    -0.066 C  
HETATM   11  C   UNL     1      -8.475   5.237  66.624  1.00  0.00    -0.107 C  
HETATM   12  C   UNL     1      -7.912   4.525  65.389  1.00  0.00    -0.098 C  
HETATM   13  C   UNL     1      -8.102   6.727  66.502  1.00  0.00    -0.108 C  
HETATM   14  N   UNL     1      -9.159   4.975  68.944  1.00  0.00    -0.105 N  
HETATM   15  C   UNL     1      -8.069   4.651  67.998  1.00  0.00    -0.088 C  
BRANCH   3  16
HETATM   16  N   UNL     1     -10.902   7.747  68.491  1.00  0.00    -0.417 N  
HETATM   17  C   UNL     1      -9.485  10.793  67.836  1.00  0.00    -0.165 A  
HETATM   18  O   UNL     1     -10.472   9.154  70.251  1.00  0.00    -0.194 OA 
HETATM   19  C   UNL     1      -8.599  11.245  68.801  1.00  0.00    -0.108 A  
HETATM   20  O   UNL     1     -12.404  11.982  67.769  1.00  0.00    -0.340 OA 
HETATM   21  O   UNL     1     -12.076  11.306  69.885  1.00  0.00    -0.309 OA 
HETATM   22  C   UNL     1     -10.844  10.174  68.101  1.00  0.00    -0.310 C  
HETATM   23  H   UNL     1     -11.179   7.713  67.509  1.00  0.00     0.000 HD 
HETATM   24  C   UNL     1     -10.719   8.989  69.055  1.00  0.00    -0.141 C  
HETATM   25  S   UNL     1      -7.142  11.850  68.143  1.00  0.00    -0.089 SA 
HETATM   26  C   UNL     1     -11.843  11.225  68.555  1.00  0.00    -0.285 C  
HETATM   27  C   UNL     1      -7.679  11.560  66.550  1.00  0.00    -0.052 A  
HETATM   28  C   UNL     1      -8.940  11.005  66.523  1.00  0.00    -0.181 A  
ENDBRANCH   3  16
ENDBRANCH   2   3
TORSDOF 2
ENDMDL
MODEL       85
REMARK 921   NORMALIZED FREE ENERGY PREDICTED BY IDOCK:   -4.01 KCAL/MOL
REMARK 922        TOTAL FREE ENERGY PREDICTED BY IDOCK:   -4.96 KCAL/MOL
REMARK 923 INTER-LIGAND FREE ENERGY PREDICTED BY IDOCK:   -4.69 KCAL/MOL
REMARK 924 INTRA-LIGAND FREE ENERGY PREDICTED BY IDOCK:   -0.27 KCAL/MOL
REMARK 927      BINDING AFFINITY PREDICTED BY RF-SCORE:    0.00 PKD
ROOT
HETATM    1  C   UNL     1      -8.456   4.751  67.248  1.00  0.00    -0.105 C  
HETATM    2  O   UNL     1      -7.651   5.888  67.519  1.00  0.00    -0.090 OA 
ENDROOT
BRANCH   2   3
HETATM    3  C   UNL     1      -8.056   6.740  68.627  1.00  0.00    -0.120 C  
HETATM    4  C   UNL     1      -8.014   6.094  70.071  1.00  0.00    -0.111 C  
HETATM    5  O   UNL     1     -10.630   7.106  68.367  1.00  0.00    -0.201 OA 
HETATM    6  S   UNL     1      -7.706   7.133  71.543  1.00  0.00    -0.089 SA 
HETATM    7  C   UNL     1      -9.633   6.621  68.858  1.00  0.00    -0.129 C  
HETATM    8  O   UNL     1     -10.060   3.944  71.618  1.00  0.00    -0.173 OA 
HETATM    9  O   UNL     1     -11.157   5.156  73.166  1.00  0.00    -0.279 OA 
HETATM   10  C   UNL     1     -10.537   5.115  72.112  1.00  0.00    -0.211 C  
HETATM   11  C   UNL     1      -9.481   7.487  71.883  1.00  0.00    -0.144 C  
HETATM   12  C   UNL     1      -9.669   7.648  73.396  1.00  0.00    -0.363 C  
HETATM   13  C   UNL     1      -9.798   8.848  71.235  1.00  0.00    -0.361 C  
HETATM   14  N   UNL     1      -9.488   5.917  70.024  1.00  0.00    -0.156 N  
HETATM   15  C   UNL     1     -10.263   6.332  71.214  1.00  0.00    -0.200 C  
BRANCH   3  16
HETATM   16  N   UNL     1      -7.679   8.176  68.425  1.00  0.00    -0.111 N  
HETATM   17  C   UNL     1      -8.771  11.227  67.327  1.00  0.00    -0.145 A  
HETATM   18  O   UNL     1      -8.318   8.383  66.232  1.00  0.00    -0.112 OA 
HETATM   19  C   UNL     1      -9.781  11.181  66.379  1.00  0.00    -0.204 A  
HETATM   20  O   UNL     1      -5.817  11.791  66.383  1.00  0.00    -0.212 OA 
HETATM   21  O   UNL     1      -6.546  10.093  65.106  1.00  0.00    -0.113 OA 
HETATM   22  C   UNL     1      -7.519  10.372  67.332  1.00  0.00    -0.094 C  
HETATM   23  H   UNL     1      -7.240   8.662  69.208  1.00  0.00     0.000 HD 
HETATM   24  C   UNL     1      -7.880   8.890  67.266  1.00  0.00    -0.096 C  
HETATM   25  S   UNL     1     -11.062  12.263  66.710  1.00  0.00    -0.314 SA 
HETATM   26  C   UNL     1      -6.550  10.816  66.249  1.00  0.00    -0.132 C  
HETATM   27  C   UNL     1     -10.277  12.849  68.106  1.00  0.00    -0.239 A  
HETATM   28  C   UNL     1      -9.068  12.225  68.319  1.00  0.00    -0.187 A  
ENDBRANCH   3  16
ENDBRANCH   2   3
TORSDOF 2
ENDMDL
MODEL       86
REMARK 921   NORMALIZED FREE ENERGY PREDICTED BY IDOCK:   -4.00 KCAL/MOL
REMARK 922        TOTAL FREE ENERGY PREDICTED BY IDOCK:   -4.95 KCAL/MOL
REMARK 923 INTER-LIGAND FREE ENERGY PREDICTED BY IDOCK:   -4.36 KCAL/MOL
REMARK 924 INTRA-LIGAND FREE ENERGY PREDICTED BY IDOCK:   -0.60 KCAL/MOL
REMARK 927      BINDING AFFINITY PREDICTED BY RF-SCORE:    0.00 PKD
ROOT
HETATM    1  C   UNL     1     -11.617   9.945  70.845  1.00  0.00    -0.373 C  
HETATM    2  O   UNL     1     -11.383   8.710  70.186  1.00  0.00    -0.202 OA 
ENDROOT
BRANCH   2   3
HETATM    3  C   UNL     1     -10.232   8.639  69.298  1.00  0.00    -0.211 C  
HETATM    4  C   UNL     1      -9.783   9.990  68.609  1.00  0.00    -0.159 C  
HETATM    5  O   UNL     1     -11.011   7.294  67.198  1.00  0.00    -0.327 OA 
HETATM    6  S   UNL     1      -8.032  10.266  68.162  1.00  0.00    -0.111 SA 
HETATM    7  C   UNL     1     -10.712   8.295  67.813  1.00  0.00    -0.095 C  
HETATM    8  O   UNL     1     -11.046  11.714  66.033  1.00  0.00    -0.301 OA 
HETATM    9  O   UNL     1      -9.604  11.408  64.331  1.00  0.00    -0.230 OA 
HETATM   10  C   UNL     1     -10.074  11.017  65.392  1.00  0.00    -0.269 C  
HETATM   11  C   UNL     1      -8.176   9.584  66.458  1.00  0.00    -0.119 C  
HETATM   12  C   UNL     1      -7.191  10.325  65.547  1.00  0.00    -0.149 C  
HETATM   13  C   UNL     1      -7.721   8.114  66.524  1.00  0.00    -0.093 C  
HETATM   14  N   UNL     1     -10.439   9.555  67.350  1.00  0.00    -0.262 N  
HETATM   15  C   UNL     1      -9.675   9.709  66.093  1.00  0.00    -0.252 C  
BRANCH   3  16
HETATM   16  N   UNL     1      -9.212   7.638  69.747  1.00  0.00    -0.147 N  
HETATM   17  C   UNL     1      -8.251   5.577  72.304  1.00  0.00    -0.111 A  
HETATM   18  O   UNL     1      -8.690   8.580  71.773  1.00  0.00    -0.168 OA 
HETATM   19  C   UNL     1      -8.664   5.977  73.565  1.00  0.00    -0.125 A  
HETATM   20  O   UNL     1      -5.269   6.115  71.434  1.00  0.00    -0.017 OA 
HETATM   21  O   UNL     1      -6.054   8.091  72.157  1.00  0.00    -0.040 OA 
HETATM   22  C   UNL     1      -7.645   6.475  71.242  1.00  0.00    -0.094 C  
HETATM   23  H   UNL     1      -8.982   6.879  69.105  1.00  0.00     0.000 HD 
HETATM   24  C   UNL     1      -8.560   7.664  70.958  1.00  0.00    -0.131 C  
HETATM   25  S   UNL     1      -9.336   4.704  74.487  1.00  0.00    -0.124 SA 
HETATM   26  C   UNL     1      -6.224   6.868  71.606  1.00  0.00    -0.038 C  
HETATM   27  C   UNL     1      -9.051   3.578  73.237  1.00  0.00    -0.097 A  
HETATM   28  C   UNL     1      -8.464   4.165  72.137  1.00  0.00    -0.110 A  
ENDBRANCH   3  16
ENDBRANCH   2   3
TORSDOF 2
ENDMDL
MODEL       87
REMARK 921   NORMALIZED FREE ENERGY PREDICTED BY IDOCK:   -3.98 KCAL/MOL
REMARK 922        TOTAL FREE ENERGY PREDICTED BY IDOCK:   -4.92 KCAL/MOL
REMARK 923 INTER-LIGAND FREE ENERGY PREDICTED BY IDOCK:   -4.25 KCAL/MOL
REMARK 924 INTRA-LIGAND FREE ENERGY PREDICTED BY IDOCK:   -0.67 KCAL/MOL
REMARK 927      BINDING AFFINITY PREDICTED BY RF-SCORE:    0.00 PKD
ROOT
HETATM    1  C   UNL     1     -10.878   6.095  67.936  1.00  0.00    -0.319 C  
HETATM    2  O   UNL     1     -10.867   7.389  68.518  1.00  0.00    -0.143 OA 
ENDROOT
BRANCH   2   3
HETATM    3  C   UNL     1      -9.642   7.808  69.184  1.00  0.00    -0.155 C  
HETATM    4  C   UNL     1      -8.683   6.657  69.692  1.00  0.00    -0.140 C  
HETATM    5  O   UNL     1     -10.369   8.838  71.472  1.00  0.00    -0.247 OA 
HETATM    6  S   UNL     1      -6.878   6.932  69.793  1.00  0.00    -0.052 SA 
HETATM    7  C   UNL     1      -9.907   7.980  70.750  1.00  0.00    -0.183 C  
HETATM    8  O   UNL     1      -8.845   4.617  72.339  1.00  0.00    -0.117 OA 
HETATM    9  O   UNL     1      -7.262   5.345  73.766  1.00  0.00    -0.084 OA 
HETATM   10  C   UNL     1      -8.023   5.576  72.835  1.00  0.00    -0.101 C  
HETATM   11  C   UNL     1      -6.888   7.529  71.534  1.00  0.00    -0.050 C  
HETATM   12  C   UNL     1      -5.569   7.123  72.201  1.00  0.00    -0.037 C  
HETATM   13  C   UNL     1      -6.920   9.068  71.480  1.00  0.00    -0.045 C  
HETATM   14  N   UNL     1      -9.182   6.863  71.074  1.00  0.00    -0.156 N  
HETATM   15  C   UNL     1      -8.180   6.947  72.158  1.00  0.00    -0.105 C  
BRANCH   3  16
HETATM   16  N   UNL     1      -9.078   9.076  68.621  1.00  0.00    -0.137 N  
HETATM   17  C   UNL     1      -9.165  11.244  65.974  1.00  0.00    -0.224 A  
HETATM   18  O   UNL     1      -8.499   8.290  66.545  1.00  0.00    -0.111 OA 
HETATM   19  C   UNL     1      -9.556  10.681  64.770  1.00  0.00    -0.280 A  
HETATM   20  O   UNL     1      -6.099  11.773  66.485  1.00  0.00    -0.127 OA 
HETATM   21  O   UNL     1      -6.244   9.622  65.854  1.00  0.00    -0.065 OA 
HETATM   22  C   UNL     1      -8.176  10.642  66.954  1.00  0.00    -0.123 C  
HETATM   23  H   UNL     1      -9.049   9.891  69.233  1.00  0.00     0.000 HD 
HETATM   24  C   UNL     1      -8.596   9.226  67.341  1.00  0.00    -0.122 C  
HETATM   25  S   UNL     1     -10.718  11.619  63.937  1.00  0.00    -0.435 SA 
HETATM   26  C   UNL     1      -6.755  10.737  66.424  1.00  0.00    -0.131 C  
HETATM   27  C   UNL     1     -10.693  12.821  65.149  1.00  0.00    -0.294 A  
HETATM   28  C   UNL     1      -9.823  12.507  66.170  1.00  0.00    -0.266 A  
ENDBRANCH   3  16
ENDBRANCH   2   3
TORSDOF 2
ENDMDL
MODEL       88
REMARK 921   NORMALIZED FREE ENERGY PREDICTED BY IDOCK:   -3.92 KCAL/MOL
REMARK 922        TOTAL FREE ENERGY PREDICTED BY IDOCK:   -4.86 KCAL/MOL
REMARK 923 INTER-LIGAND FREE ENERGY PREDICTED BY IDOCK:   -4.39 KCAL/MOL
REMARK 924 INTRA-LIGAND FREE ENERGY PREDICTED BY IDOCK:   -0.47 KCAL/MOL
REMARK 927      BINDING AFFINITY PREDICTED BY RF-SCORE:    0.00 PKD
ROOT
HETATM    1  C   UNL     1     -12.103   8.959  72.115  1.00  0.00    -0.359 C  
HETATM    2  O   UNL     1     -11.769   7.798  71.372  1.00  0.00    -0.269 OA 
ENDROOT
BRANCH   2   3
HETATM    3  C   UNL     1     -10.557   7.847  70.569  1.00  0.00    -0.223 C  
HETATM    4  C   UNL     1     -10.194   9.243  69.919  1.00  0.00    -0.214 C  
HETATM    5  O   UNL     1     -11.047   6.454  68.414  1.00  0.00    -0.315 OA 
HETATM    6  S   UNL     1      -8.450   9.692  69.601  1.00  0.00    -0.191 SA 
HETATM    7  C   UNL     1     -10.892   7.473  69.052  1.00  0.00    -0.061 C  
HETATM    8  O   UNL     1     -11.431  10.861  67.263  1.00  0.00    -0.458 OA 
HETATM    9  O   UNL     1      -9.847  10.713  65.669  1.00  0.00    -0.222 OA 
HETATM   10  C   UNL     1     -10.352  10.268  66.692  1.00  0.00    -0.219 C  
HETATM   11  C   UNL     1      -8.404   9.017  67.889  1.00  0.00    -0.117 C  
HETATM   12  C   UNL     1      -7.433   9.859  67.054  1.00  0.00    -0.091 C  
HETATM   13  C   UNL     1      -7.813   7.597  67.984  1.00  0.00    -0.121 C  
HETATM   14  N   UNL     1     -10.711   8.759  68.614  1.00  0.00    -0.129 N  
HETATM   15  C   UNL     1      -9.877   8.998  67.416  1.00  0.00    -0.190 C  
BRANCH   3  16
HETATM   16  N   UNL     1      -9.478   6.946  71.088  1.00  0.00    -0.166 N  
HETATM   17  C   UNL     1      -8.149   3.796  70.935  1.00  0.00    -0.069 A  
HETATM   18  O   UNL     1     -10.795   5.173  71.710  1.00  0.00    -0.183 OA 
HETATM   19  C   UNL     1      -9.044   2.801  70.573  1.00  0.00    -0.120 A  
HETATM   20  O   UNL     1      -7.380   4.122  73.975  1.00  0.00    -0.065 OA 
HETATM   21  O   UNL     1      -9.626   4.124  73.916  1.00  0.00    -0.104 OA 
HETATM   22  C   UNL     1      -8.412   4.901  71.940  1.00  0.00    -0.123 C  
HETATM   23  H   UNL     1      -8.522   7.304  71.082  1.00  0.00     0.000 HD 
HETATM   24  C   UNL     1      -9.677   5.674  71.572  1.00  0.00    -0.161 C  
HETATM   25  S   UNL     1      -8.424   1.744  69.381  1.00  0.00    -0.054 SA 
HETATM   26  C   UNL     1      -8.416   4.359  73.359  1.00  0.00    -0.097 C  
HETATM   27  C   UNL     1      -6.929   2.567  69.353  1.00  0.00    -0.036 A  
HETATM   28  C   UNL     1      -6.909   3.631  70.228  1.00  0.00    -0.034 A  
ENDBRANCH   3  16
ENDBRANCH   2   3
TORSDOF 2
ENDMDL
MODEL       89
REMARK 921   NORMALIZED FREE ENERGY PREDICTED BY IDOCK:   -3.91 KCAL/MOL
REMARK 922        TOTAL FREE ENERGY PREDICTED BY IDOCK:   -4.85 KCAL/MOL
REMARK 923 INTER-LIGAND FREE ENERGY PREDICTED BY IDOCK:   -4.39 KCAL/MOL
REMARK 924 INTRA-LIGAND FREE ENERGY PREDICTED BY IDOCK:   -0.46 KCAL/MOL
REMARK 927      BINDING AFFINITY PREDICTED BY RF-SCORE:    0.00 PKD
ROOT
HETATM    1  C   UNL     1     -11.962  12.363  70.122  1.00  0.00    -0.298 C  
HETATM    2  O   UNL     1     -10.935  12.446  69.147  1.00  0.00    -0.225 OA 
ENDROOT
BRANCH   2   3
HETATM    3  C   UNL     1     -10.464  11.197  68.568  1.00  0.00    -0.191 C  
HETATM    4  C   UNL     1     -10.313   9.971  69.556  1.00  0.00    -0.235 C  
HETATM    5  O   UNL     1      -7.960  11.582  67.931  1.00  0.00    -0.115 OA 
HETATM    6  S   UNL     1     -10.523   8.259  68.948  1.00  0.00    -0.150 SA 
HETATM    7  C   UNL     1      -8.868  11.146  68.607  1.00  0.00    -0.155 C  
HETATM    8  O   UNL     1      -7.989   9.217  71.843  1.00  0.00    -0.334 OA 
HETATM    9  O   UNL     1      -6.806   7.512  70.969  1.00  0.00    -0.049 OA 
HETATM   10  C   UNL     1      -7.532   8.482  70.797  1.00  0.00    -0.072 C  
HETATM   11  C   UNL     1      -8.746   7.998  68.542  1.00  0.00    -0.131 C  
HETATM   12  C   UNL     1      -8.406   6.518  68.749  1.00  0.00    -0.122 C  
HETATM   13  C   UNL     1      -8.581   8.300  67.040  1.00  0.00    -0.124 C  
HETATM   14  N   UNL     1      -8.845  10.191  69.590  1.00  0.00    -0.190 N  
HETATM   15  C   UNL     1      -7.972   9.009  69.422  1.00  0.00    -0.100 C  
BRANCH   3  16
HETATM   16  N   UNL     1     -10.946  10.988  67.165  1.00  0.00    -0.283 N  
HETATM   17  C   UNL     1     -10.050  11.047  63.862  1.00  0.00    -0.414 A  
HETATM   18  O   UNL     1     -10.219  12.969  66.265  1.00  0.00    -0.274 OA 
HETATM   19  C   UNL     1      -8.995  11.893  63.557  1.00  0.00     0.523 A  
HETATM   20  O   UNL     1     -12.991  11.988  63.224  1.00  0.00    -0.736 OA 
HETATM   21  O   UNL     1     -12.066  13.658  64.407  1.00  0.00    -0.404 OA 
HETATM   22  C   UNL     1     -11.229  11.386  64.755  1.00  0.00    -0.197 C  
HETATM   23  H   UNL     1     -11.461  10.130  66.966  1.00  0.00     0.000 HD 
HETATM   24  C   UNL     1     -10.747  11.865  66.123  1.00  0.00    -0.278 C  
HETATM   25  S   UNL     1      -7.822  11.165  62.549  1.00  0.00     0.170 SA 
HETATM   26  C   UNL     1     -12.176  12.354  64.066  1.00  0.00    -0.490 C  
HETATM   27  C   UNL     1      -8.720   9.716  62.462  1.00  0.00    -0.224 A  
HETATM   28  C   UNL     1      -9.884   9.785  63.195  1.00  0.00     0.708 A  
ENDBRANCH   3  16
ENDBRANCH   2   3
TORSDOF 2
ENDMDL
MODEL       90
REMARK 921   NORMALIZED FREE ENERGY PREDICTED BY IDOCK:   -3.90 KCAL/MOL
REMARK 922        TOTAL FREE ENERGY PREDICTED BY IDOCK:   -4.84 KCAL/MOL
REMARK 923 INTER-LIGAND FREE ENERGY PREDICTED BY IDOCK:   -4.31 KCAL/MOL
REMARK 924 INTRA-LIGAND FREE ENERGY PREDICTED BY IDOCK:   -0.53 KCAL/MOL
REMARK 927      BINDING AFFINITY PREDICTED BY RF-SCORE:    0.00 PKD
ROOT
HETATM    1  C   UNL     1      -6.186   8.010  66.184  1.00  0.00    -0.045 C  
HETATM    2  O   UNL     1      -7.573   7.715  66.222  1.00  0.00    -0.084 OA 
ENDROOT
BRANCH   2   3
HETATM    3  C   UNL     1      -7.977   6.504  66.919  1.00  0.00    -0.112 C  
HETATM    4  C   UNL     1      -7.501   5.132  66.290  1.00  0.00    -0.087 C  
HETATM    5  O   UNL     1     -10.558   6.289  66.581  1.00  0.00    -0.235 OA 
HETATM    6  S   UNL     1      -7.211   3.675  67.356  1.00  0.00    -0.060 SA 
HETATM    7  C   UNL     1      -9.396   6.010  66.376  1.00  0.00    -0.154 C  
HETATM    8  O   UNL     1      -8.588   3.387  63.650  1.00  0.00    -0.090 OA 
HETATM    9  O   UNL     1      -9.660   1.600  64.502  1.00  0.00    -0.130 OA 
HETATM   10  C   UNL     1      -9.256   2.747  64.642  1.00  0.00    -0.135 C  
HETATM   11  C   UNL     1      -8.922   3.010  67.214  1.00  0.00    -0.159 C  
HETATM   12  C   UNL     1      -8.864   1.481  67.299  1.00  0.00    -0.135 C  
HETATM   13  C   UNL     1      -9.700   3.508  68.447  1.00  0.00    -0.050 C  
HETATM   14  N   UNL     1      -8.858   4.932  65.724  1.00  0.00    -0.130 N  
HETATM   15  C   UNL     1      -9.483   3.602  65.899  1.00  0.00    -0.160 C  
BRANCH   3  16
HETATM   16  N   UNL     1      -8.034   6.679  68.406  1.00  0.00    -0.110 N  
HETATM   17  C   UNL     1     -10.083   7.329  71.069  1.00  0.00    -0.195 A  
HETATM   18  O   UNL     1      -9.152   8.682  68.462  1.00  0.00    -0.138 OA 
HETATM   19  C   UNL     1     -11.222   8.058  70.766  1.00  0.00    -0.265 A  
HETATM   20  O   UNL     1      -7.641   8.804  72.411  1.00  0.00    -0.335 OA 
HETATM   21  O   UNL     1      -8.160  10.022  70.596  1.00  0.00    -0.166 OA 
HETATM   22  C   UNL     1      -8.680   7.632  70.578  1.00  0.00    -0.138 C  
HETATM   23  H   UNL     1      -7.581   5.970  68.982  1.00  0.00     0.000 HD 
HETATM   24  C   UNL     1      -8.652   7.724  69.054  1.00  0.00    -0.135 C  
HETATM   25  S   UNL     1     -12.641   7.406  71.463  1.00  0.00    -0.375 SA 
HETATM   26  C   UNL     1      -8.109   8.855  71.277  1.00  0.00    -0.139 C  
HETATM   27  C   UNL     1     -11.757   6.158  72.221  1.00  0.00    -0.302 A  
HETATM   28  C   UNL     1     -10.411   6.234  71.939  1.00  0.00    -0.244 A  
ENDBRANCH   3  16
ENDBRANCH   2   3
TORSDOF 2
ENDMDL
MODEL       91
REMARK 921   NORMALIZED FREE ENERGY PREDICTED BY IDOCK:   -3.89 KCAL/MOL
REMARK 922        TOTAL FREE ENERGY PREDICTED BY IDOCK:   -4.83 KCAL/MOL
REMARK 923 INTER-LIGAND FREE ENERGY PREDICTED BY IDOCK:   -5.20 KCAL/MOL
REMARK 924 INTRA-LIGAND FREE ENERGY PREDICTED BY IDOCK:    0.37 KCAL/MOL
REMARK 927      BINDING AFFINITY PREDICTED BY RF-SCORE:    0.00 PKD
ROOT
HETATM    1  C   UNL     1      -6.464  11.272  69.691  1.00  0.00    -0.132 C  
HETATM    2  O   UNL     1      -7.685  10.572  69.515  1.00  0.00    -0.146 OA 
ENDROOT
BRANCH   2   3
HETATM    3  C   UNL     1      -8.307  10.640  68.200  1.00  0.00    -0.121 C  
HETATM    4  C   UNL     1      -8.072   9.404  67.241  1.00  0.00    -0.110 C  
HETATM    5  O   UNL     1      -7.025  12.493  66.879  1.00  0.00    -0.027 OA 
HETATM    6  S   UNL     1      -9.326   8.950  65.990  1.00  0.00    -0.240 SA 
HETATM    7  C   UNL     1      -7.318  11.352  67.167  1.00  0.00    -0.138 C  
HETATM    8  O   UNL     1      -5.435   8.469  65.404  1.00  0.00    -0.035 OA 
HETATM    9  O   UNL     1      -6.006   8.884  63.266  1.00  0.00    -0.084 OA 
HETATM   10  C   UNL     1      -6.159   9.118  64.458  1.00  0.00    -0.070 C  
HETATM   11  C   UNL     1      -8.612   9.981  64.642  1.00  0.00    -0.181 C  
HETATM   12  C   UNL     1      -8.888   9.295  63.300  1.00  0.00    -0.159 C  
HETATM   13  C   UNL     1      -9.383  11.315  64.642  1.00  0.00    -0.156 C  
HETATM   14  N   UNL     1      -7.052  10.187  66.498  1.00  0.00    -0.099 N  
HETATM   15  C   UNL     1      -7.124  10.174  65.021  1.00  0.00    -0.135 C  
BRANCH   3  16
HETATM   16  N   UNL     1      -9.625  11.351  68.216  1.00  0.00    -0.186 N  
HETATM   17  C   UNL     1     -11.420  13.946  66.891  1.00  0.00    -0.370 A  
HETATM   18  O   UNL     1      -8.848  13.487  68.524  1.00  0.00    -0.166 OA 
HETATM   19  C   UNL     1     -10.659  15.007  66.427  1.00  0.00    -0.310 A  
HETATM   20  O   UNL     1     -12.851  14.203  69.688  1.00  0.00    -0.042 OA 
HETATM   21  O   UNL     1     -10.700  14.732  70.059  1.00  0.00    -0.184 OA 
HETATM   22  C   UNL     1     -11.221  13.221  68.208  1.00  0.00    -0.309 C  
HETATM   23  H   UNL     1     -10.468  10.782  68.135  1.00  0.00     0.000 HD 
HETATM   24  C   UNL     1      -9.787  12.713  68.331  1.00  0.00    -0.200 C  
HETATM   25  S   UNL     1     -11.142  15.555  64.882  1.00  0.00    -0.369 SA 
HETATM   26  C   UNL     1     -11.670  14.081  69.378  1.00  0.00    -0.315 C  
HETATM   27  C   UNL     1     -12.408  14.413  64.815  1.00  0.00    -0.414 A  
HETATM   28  C   UNL     1     -12.453  13.626  65.945  1.00  0.00    -0.502 A  
ENDBRANCH   3  16
ENDBRANCH   2   3
TORSDOF 2
ENDMDL
MODEL       92
REMARK 921   NORMALIZED FREE ENERGY PREDICTED BY IDOCK:   -3.88 KCAL/MOL
REMARK 922        TOTAL FREE ENERGY PREDICTED BY IDOCK:   -4.82 KCAL/MOL
REMARK 923 INTER-LIGAND FREE ENERGY PREDICTED BY IDOCK:   -4.28 KCAL/MOL
REMARK 924 INTRA-LIGAND FREE ENERGY PREDICTED BY IDOCK:   -0.55 KCAL/MOL
REMARK 927      BINDING AFFINITY PREDICTED BY RF-SCORE:    0.00 PKD
ROOT
HETATM    1  C   UNL     1     -10.702   5.239  66.179  1.00  0.00    -0.149 C  
HETATM    2  O   UNL     1     -10.787   6.525  66.773  1.00  0.00    -0.323 OA 
ENDROOT
BRANCH   2   3
HETATM    3  C   UNL     1      -9.670   6.947  67.605  1.00  0.00    -0.127 C  
HETATM    4  C   UNL     1      -8.435   5.962  67.687  1.00  0.00    -0.103 C  
HETATM    5  O   UNL     1     -10.512   6.828  70.075  1.00  0.00    -0.197 OA 
HETATM    6  S   UNL     1      -6.749   6.611  67.971  1.00  0.00    -0.074 SA 
HETATM    7  C   UNL     1      -9.891   6.446  69.107  1.00  0.00    -0.140 C  
HETATM    8  O   UNL     1      -7.963   3.102  69.359  1.00  0.00    -0.049 OA 
HETATM    9  O   UNL     1      -6.537   3.602  71.029  1.00  0.00    -0.029 OA 
HETATM   10  C   UNL     1      -7.377   3.973  70.219  1.00  0.00    -0.042 C  
HETATM   11  C   UNL     1      -6.819   6.486  69.806  1.00  0.00    -0.058 C  
HETATM   12  C   UNL     1      -5.410   6.195  70.333  1.00  0.00    -0.013 C  
HETATM   13  C   UNL     1      -7.228   7.874  70.335  1.00  0.00    -0.053 C  
HETATM   14  N   UNL     1      -8.901   5.503  69.020  1.00  0.00    -0.105 N  
HETATM   15  C   UNL     1      -7.896   5.415  70.102  1.00  0.00    -0.081 C  
BRANCH   3  16
HETATM   16  N   UNL     1      -9.461   8.430  67.590  1.00  0.00    -0.146 N  
HETATM   17  C   UNL     1     -10.104  11.328  65.887  1.00  0.00    -0.291 A  
HETATM   18  O   UNL     1      -8.677   8.634  65.443  1.00  0.00    -0.173 OA 
HETATM   19  C   UNL     1     -10.322  11.172  64.527  1.00  0.00    -0.337 A  
HETATM   20  O   UNL     1      -7.296  12.368  66.871  1.00  0.00    -0.066 OA 
HETATM   21  O   UNL     1      -6.856  10.637  65.509  1.00  0.00    -0.126 OA 
HETATM   22  C   UNL     1      -8.998  10.670  66.689  1.00  0.00    -0.162 C  
HETATM   23  H   UNL     1      -9.655   8.943  68.450  1.00  0.00     0.000 HD 
HETATM   24  C   UNL     1      -9.027   9.155  66.504  1.00  0.00    -0.148 C  
HETATM   25  S   UNL     1     -11.686  12.034  63.963  1.00  0.00    -0.409 SA 
HETATM   26  C   UNL     1      -7.650  11.301  66.379  1.00  0.00    -0.072 C  
HETATM   27  C   UNL     1     -11.992  12.671  65.516  1.00  0.00    -0.456 A  
HETATM   28  C   UNL     1     -11.078  12.227  66.445  1.00  0.00    -0.345 A  
ENDBRANCH   3  16
ENDBRANCH   2   3
TORSDOF 2
ENDMDL
MODEL       93
REMARK 921   NORMALIZED FREE ENERGY PREDICTED BY IDOCK:   -3.85 KCAL/MOL
REMARK 922        TOTAL FREE ENERGY PREDICTED BY IDOCK:   -4.78 KCAL/MOL
REMARK 923 INTER-LIGAND FREE ENERGY PREDICTED BY IDOCK:   -4.26 KCAL/MOL
REMARK 924 INTRA-LIGAND FREE ENERGY PREDICTED BY IDOCK:   -0.52 KCAL/MOL
REMARK 927      BINDING AFFINITY PREDICTED BY RF-SCORE:    0.00 PKD
ROOT
HETATM    1  C   UNL     1      -9.719   9.488  66.022  1.00  0.00    -0.272 C  
HETATM    2  O   UNL     1     -10.233   8.332  66.665  1.00  0.00    -0.290 OA 
ENDROOT
BRANCH   2   3
HETATM    3  C   UNL     1      -9.288   7.269  66.976  1.00  0.00    -0.148 C  
HETATM    4  C   UNL     1      -8.345   6.793  65.799  1.00  0.00    -0.143 C  
HETATM    5  O   UNL     1     -10.709   5.105  67.326  1.00  0.00    -0.142 OA 
HETATM    6  S   UNL     1      -6.681   6.126  66.157  1.00  0.00    -0.057 SA 
HETATM    7  C   UNL     1      -9.966   5.846  66.718  1.00  0.00    -0.175 C  
HETATM    8  O   UNL     1      -8.904   4.846  63.135  1.00  0.00    -0.134 OA 
HETATM    9  O   UNL     1      -7.853   2.903  63.570  1.00  0.00    -0.070 OA 
HETATM   10  C   UNL     1      -8.374   3.930  63.984  1.00  0.00    -0.092 C  
HETATM   11  C   UNL     1      -7.218   4.369  66.279  1.00  0.00    -0.076 C  
HETATM   12  C   UNL     1      -6.072   3.470  65.802  1.00  0.00    -0.027 C  
HETATM   13  C   UNL     1      -7.441   4.071  67.774  1.00  0.00    -0.068 C  
HETATM   14  N   UNL     1      -9.206   5.599  65.605  1.00  0.00    -0.107 N  
HETATM   15  C   UNL     1      -8.535   4.287  65.471  1.00  0.00    -0.114 C  
BRANCH   3  16
HETATM   16  N   UNL     1      -8.775   7.340  68.381  1.00  0.00    -0.123 N  
HETATM   17  C   UNL     1      -9.138   6.120  71.558  1.00  0.00    -0.145 A  
HETATM   18  O   UNL     1     -10.778   7.661  69.453  1.00  0.00    -0.230 OA 
HETATM   19  C   UNL     1     -10.406   5.651  71.863  1.00  0.00    -0.215 A  
HETATM   20  O   UNL     1      -8.274   8.966  72.602  1.00  0.00    -0.387 OA 
HETATM   21  O   UNL     1     -10.238   9.276  71.559  1.00  0.00    -0.330 OA 
HETATM   22  C   UNL     1      -8.822   7.417  70.838  1.00  0.00    -0.148 C  
HETATM   23  H   UNL     1      -7.765   7.277  68.518  1.00  0.00     0.000 HD 
HETATM   24  C   UNL     1      -9.559   7.485  69.503  1.00  0.00    -0.156 C  
HETATM   25  S   UNL     1     -10.388   4.131  72.647  1.00  0.00    -0.145 SA 
HETATM   26  C   UNL     1      -9.072   8.615  71.738  1.00  0.00    -0.247 C  
HETATM   27  C   UNL     1      -8.682   4.086  72.635  1.00  0.00    -0.103 A  
HETATM   28  C   UNL     1      -8.140   5.202  72.037  1.00  0.00    -0.113 A  
ENDBRANCH   3  16
ENDBRANCH   2   3
TORSDOF 2
ENDMDL
MODEL       94
REMARK 921   NORMALIZED FREE ENERGY PREDICTED BY IDOCK:   -3.85 KCAL/MOL
REMARK 922        TOTAL FREE ENERGY PREDICTED BY IDOCK:   -4.78 KCAL/MOL
REMARK 923 INTER-LIGAND FREE ENERGY PREDICTED BY IDOCK:   -4.18 KCAL/MOL
REMARK 924 INTRA-LIGAND FREE ENERGY PREDICTED BY IDOCK:   -0.61 KCAL/MOL
REMARK 927      BINDING AFFINITY PREDICTED BY RF-SCORE:    0.00 PKD
ROOT
HETATM    1  C   UNL     1      -9.101   8.935  71.806  1.00  0.00    -0.171 C  
HETATM    2  O   UNL     1      -8.343   9.657  70.848  1.00  0.00    -0.272 OA 
ENDROOT
BRANCH   2   3
HETATM    3  C   UNL     1      -8.770   9.572  69.460  1.00  0.00    -0.174 C  
HETATM    4  C   UNL     1      -8.156  10.636  68.463  1.00  0.00    -0.125 C  
HETATM    5  O   UNL     1     -11.278  10.303  69.419  1.00  0.00    -0.231 OA 
HETATM    6  S   UNL     1      -7.929  10.226  66.696  1.00  0.00    -0.119 SA 
HETATM    7  C   UNL     1     -10.087  10.450  69.241  1.00  0.00    -0.230 C  
HETATM    8  O   UNL     1      -8.827  13.875  67.958  1.00  0.00    -0.167 OA 
HETATM    9  O   UNL     1      -9.909  13.972  65.985  1.00  0.00    -0.300 OA 
HETATM   10  C   UNL     1      -9.580  13.325  66.972  1.00  0.00    -0.243 C  
HETATM   11  C   UNL     1      -9.576  10.849  66.158  1.00  0.00    -0.202 C  
HETATM   12  C   UNL     1      -9.456  11.386  64.727  1.00  0.00    -0.176 C  
HETATM   13  C   UNL     1     -10.522   9.634  66.113  1.00  0.00    -0.111 C  
HETATM   14  N   UNL     1      -9.423  11.407  68.520  1.00  0.00    -0.187 N  
HETATM   15  C   UNL     1     -10.000  11.871  67.240  1.00  0.00    -0.186 C  
BRANCH   3  16
HETATM   16  N   UNL     1      -9.017   8.164  69.013  1.00  0.00    -0.144 N  
HETATM   17  C   UNL     1      -8.491   4.863  69.746  1.00  0.00    -0.091 A  
HETATM   18  O   UNL     1      -6.857   7.398  69.115  1.00  0.00    -0.057 OA 
HETATM   19  C   UNL     1      -7.361   4.605  70.505  1.00  0.00    -0.050 A  
HETATM   20  O   UNL     1      -8.395   4.331  66.640  1.00  0.00    -0.102 OA 
HETATM   21  O   UNL     1      -6.609   5.618  67.089  1.00  0.00    -0.052 OA 
HETATM   22  C   UNL     1      -8.563   5.793  68.549  1.00  0.00    -0.109 C  
HETATM   23  H   UNL     1      -9.973   7.911  68.758  1.00  0.00     0.000 HD 
HETATM   24  C   UNL     1      -8.055   7.184  68.919  1.00  0.00    -0.121 C  
HETATM   25  S   UNL     1      -7.656   3.532  71.803  1.00  0.00    -0.054 SA 
HETATM   26  C   UNL     1      -7.865   5.186  67.344  1.00  0.00    -0.096 C  
HETATM   27  C   UNL     1      -9.292   3.354  71.354  1.00  0.00    -0.137 A  
HETATM   28  C   UNL     1      -9.607   4.105  70.243  1.00  0.00    -0.269 A  
ENDBRANCH   3  16
ENDBRANCH   2   3
TORSDOF 2
ENDMDL
MODEL       95
REMARK 921   NORMALIZED FREE ENERGY PREDICTED BY IDOCK:   -3.77 KCAL/MOL
REMARK 922        TOTAL FREE ENERGY PREDICTED BY IDOCK:   -4.69 KCAL/MOL
REMARK 923 INTER-LIGAND FREE ENERGY PREDICTED BY IDOCK:   -4.19 KCAL/MOL
REMARK 924 INTRA-LIGAND FREE ENERGY PREDICTED BY IDOCK:   -0.50 KCAL/MOL
REMARK 927      BINDING AFFINITY PREDICTED BY RF-SCORE:    0.00 PKD
ROOT
HETATM    1  C   UNL     1      -5.569   7.115  70.135  1.00  0.00    -0.023 C  
HETATM    2  O   UNL     1      -5.907   7.026  68.759  1.00  0.00    -0.018 OA 
ENDROOT
BRANCH   2   3
HETATM    3  C   UNL     1      -7.006   7.855  68.289  1.00  0.00    -0.073 C  
HETATM    4  C   UNL     1      -7.423   7.687  66.772  1.00  0.00    -0.093 C  
HETATM    5  O   UNL     1      -6.108  10.307  68.246  1.00  0.00    -0.044 OA 
HETATM    6  S   UNL     1      -9.148   7.984  66.246  1.00  0.00    -0.178 SA 
HETATM    7  C   UNL     1      -6.445   9.252  67.754  1.00  0.00    -0.059 C  
HETATM    8  O   UNL     1      -6.028   8.787  63.936  1.00  0.00    -0.070 OA 
HETATM    9  O   UNL     1      -7.373  10.434  63.196  1.00  0.00    -0.136 OA 
HETATM   10  C   UNL     1      -6.960   9.754  64.127  1.00  0.00    -0.123 C  
HETATM   11  C   UNL     1      -8.908   9.768  65.859  1.00  0.00    -0.150 C  
HETATM   12  C   UNL     1      -9.845  10.153  64.709  1.00  0.00    -0.382 C  
HETATM   13  C   UNL     1      -9.360  10.561  67.101  1.00  0.00    -0.173 C  
HETATM   14  N   UNL     1      -6.697   8.940  66.444  1.00  0.00    -0.073 N  
HETATM   15  C   UNL     1      -7.392   9.929  65.592  1.00  0.00    -0.116 C  
BRANCH   3  16
HETATM   16  N   UNL     1      -8.045   8.094  69.341  1.00  0.00    -0.115 N  
HETATM   17  C   UNL     1      -9.373   6.938  72.276  1.00  0.00    -0.148 A  
HETATM   18  O   UNL     1      -8.982   6.000  69.367  1.00  0.00    -0.125 OA 
HETATM   19  C   UNL     1      -9.224   5.577  72.490  1.00  0.00    -0.142 A  
HETATM   20  O   UNL     1     -12.160   8.029  71.285  1.00  0.00    -0.295 OA 
HETATM   21  O   UNL     1     -11.618   6.376  69.864  1.00  0.00    -0.429 OA 
HETATM   22  C   UNL     1      -9.810   7.589  70.977  1.00  0.00    -0.182 C  
HETATM   23  H   UNL     1      -8.115   9.035  69.730  1.00  0.00     0.000 HD 
HETATM   24  C   UNL     1      -8.914   7.142  69.824  1.00  0.00    -0.142 C  
HETATM   25  S   UNL     1      -8.679   5.201  74.066  1.00  0.00    -0.117 SA 
HETATM   26  C   UNL     1     -11.291   7.366  70.726  1.00  0.00    -0.280 C  
HETATM   27  C   UNL     1      -8.672   6.848  74.513  1.00  0.00    -0.188 A  
HETATM   28  C   UNL     1      -9.067   7.665  73.477  1.00  0.00    -0.317 A  
ENDBRANCH   3  16
ENDBRANCH   2   3
TORSDOF 2
ENDMDL
MODEL       96
REMARK 921   NORMALIZED FREE ENERGY PREDICTED BY IDOCK:   -3.75 KCAL/MOL
REMARK 922        TOTAL FREE ENERGY PREDICTED BY IDOCK:   -4.67 KCAL/MOL
REMARK 923 INTER-LIGAND FREE ENERGY PREDICTED BY IDOCK:   -4.90 KCAL/MOL
REMARK 924 INTRA-LIGAND FREE ENERGY PREDICTED BY IDOCK:    0.23 KCAL/MOL
REMARK 927      BINDING AFFINITY PREDICTED BY RF-SCORE:    0.00 PKD
ROOT
HETATM    1  C   UNL     1      -6.363   9.753  70.807  1.00  0.00    -0.095 C  
HETATM    2  O   UNL     1      -7.582  10.321  70.356  1.00  0.00    -0.228 OA 
ENDROOT
BRANCH   2   3
HETATM    3  C   UNL     1      -8.708   9.417  70.171  1.00  0.00    -0.221 C  
HETATM    4  C   UNL     1      -9.671   9.221  71.410  1.00  0.00    -0.199 C  
HETATM    5  O   UNL     1      -7.697   7.015  69.995  1.00  0.00    -0.099 OA 
HETATM    6  S   UNL     1     -11.439   8.828  71.157  1.00  0.00    -0.301 SA 
HETATM    7  C   UNL     1      -8.276   7.926  70.548  1.00  0.00    -0.118 C  
HETATM    8  O   UNL     1      -9.351   7.454  74.234  1.00  0.00    -0.224 OA 
HETATM    9  O   UNL     1     -10.738   5.695  74.011  1.00  0.00    -0.264 OA 
HETATM   10  C   UNL     1     -10.064   6.573  73.488  1.00  0.00    -0.240 C  
HETATM   11  C   UNL     1     -11.218   7.000  71.191  1.00  0.00    -0.270 C  
HETATM   12  C   UNL     1     -12.483   6.363  71.778  1.00  0.00    -0.199 C  
HETATM   13  C   UNL     1     -11.110   6.535  69.726  1.00  0.00    -0.430 C  
HETATM   14  N   UNL     1      -9.023   7.917  71.696  1.00  0.00    -0.131 N  
HETATM   15  C   UNL     1      -9.904   6.761  71.971  1.00  0.00    -0.156 C  
BRANCH   3  16
HETATM   16  N   UNL     1      -9.257   9.451  68.778  1.00  0.00    -0.131 N  
HETATM   17  C   UNL     1      -8.455   9.384  65.451  1.00  0.00    -0.159 A  
HETATM   18  O   UNL     1      -7.936  11.128  67.938  1.00  0.00    -0.108 OA 
HETATM   19  C   UNL     1      -7.187   9.851  65.146  1.00  0.00    -0.133 A  
HETATM   20  O   UNL     1     -10.933  11.269  64.957  1.00  0.00    -0.248 OA 
HETATM   21  O   UNL     1      -9.487  12.479  66.178  1.00  0.00    -0.237 OA 
HETATM   22  C   UNL     1      -9.439  10.044  66.399  1.00  0.00    -0.235 C  
HETATM   23  H   UNL     1     -10.030   8.821  68.561  1.00  0.00     0.000 HD 
HETATM   24  C   UNL     1      -8.801  10.267  67.768  1.00  0.00    -0.125 C  
HETATM   25  S   UNL     1      -6.339   8.832  64.067  1.00  0.00    -0.072 SA 
HETATM   26  C   UNL     1     -10.027  11.303  65.785  1.00  0.00    -0.237 C  
HETATM   27  C   UNL     1      -7.665   7.764  63.950  1.00  0.00    -0.123 A  
HETATM   28  C   UNL     1      -8.727   8.174  64.725  1.00  0.00     0.087 A  
ENDBRANCH   3  16
ENDBRANCH   2   3
TORSDOF 2
ENDMDL
MODEL       97
REMARK 921   NORMALIZED FREE ENERGY PREDICTED BY IDOCK:   -3.72 KCAL/MOL
REMARK 922        TOTAL FREE ENERGY PREDICTED BY IDOCK:   -4.64 KCAL/MOL
REMARK 923 INTER-LIGAND FREE ENERGY PREDICTED BY IDOCK:   -4.23 KCAL/MOL
REMARK 924 INTRA-LIGAND FREE ENERGY PREDICTED BY IDOCK:   -0.40 KCAL/MOL
REMARK 927      BINDING AFFINITY PREDICTED BY RF-SCORE:    0.00 PKD
ROOT
HETATM    1  C   UNL     1      -9.542   2.877  70.770  1.00  0.00    -0.125 C  
HETATM    2  O   UNL     1      -9.731   3.348  69.444  1.00  0.00    -0.133 OA 
ENDROOT
BRANCH   2   3
HETATM    3  C   UNL     1      -9.478   4.760  69.199  1.00  0.00    -0.149 C  
HETATM    4  C   UNL     1      -8.425   5.466  70.144  1.00  0.00    -0.119 C  
HETATM    5  O   UNL     1     -11.649   6.027  69.908  1.00  0.00    -0.326 OA 
HETATM    6  S   UNL     1      -7.433   6.877  69.536  1.00  0.00    -0.099 SA 
HETATM    7  C   UNL     1     -10.504   5.651  70.039  1.00  0.00    -0.297 C  
HETATM    8  O   UNL     1      -8.632   6.557  73.301  1.00  0.00    -0.121 OA 
HETATM    9  O   UNL     1      -8.683   8.804  73.166  1.00  0.00    -0.341 OA 
HETATM   10  C   UNL     1      -8.875   7.716  72.638  1.00  0.00    -0.149 C  
HETATM   11  C   UNL     1      -8.618   8.174  70.085  1.00  0.00    -0.129 C  
HETATM   12  C   UNL     1      -7.830   9.436  70.455  1.00  0.00    -0.179 C  
HETATM   13  C   UNL     1      -9.496   8.523  68.868  1.00  0.00    -0.147 C  
HETATM   14  N   UNL     1      -9.538   6.079  70.911  1.00  0.00    -0.168 N  
HETATM   15  C   UNL     1      -9.441   7.522  71.222  1.00  0.00    -0.150 C  
BRANCH   3  16
HETATM   16  N   UNL     1      -9.561   5.121  67.747  1.00  0.00    -0.132 N  
HETATM   17  C   UNL     1      -9.424   3.910  64.550  1.00  0.00    -0.166 A  
HETATM   18  O   UNL     1      -7.624   4.115  67.042  1.00  0.00    -0.076 OA 
HETATM   19  C   UNL     1      -8.680   2.750  64.395  1.00  0.00    -0.097 A  
HETATM   20  O   UNL     1      -8.145   6.665  63.707  1.00  0.00    -0.094 OA 
HETATM   21  O   UNL     1      -6.647   5.695  65.071  1.00  0.00    -0.040 OA 
HETATM   22  C   UNL     1      -9.009   5.129  65.352  1.00  0.00    -0.157 C  
HETATM   23  H   UNL     1     -10.348   5.699  67.450  1.00  0.00     0.000 HD 
HETATM   24  C   UNL     1      -8.657   4.736  66.784  1.00  0.00    -0.108 C  
HETATM   25  S   UNL     1      -9.475   1.565  63.454  1.00  0.00    -0.106 SA 
HETATM   26  C   UNL     1      -7.912   5.902  64.640  1.00  0.00    -0.123 C  
HETATM   27  C   UNL     1     -10.813   2.591  63.196  1.00  0.00    -0.238 A  
HETATM   28  C   UNL     1     -10.660   3.807  63.823  1.00  0.00    -0.267 A  
ENDBRANCH   3  16
ENDBRANCH   2   3
TORSDOF 2
ENDMDL
MODEL       98
REMARK 921   NORMALIZED FREE ENERGY PREDICTED BY IDOCK:   -3.69 KCAL/MOL
REMARK 922        TOTAL FREE ENERGY PREDICTED BY IDOCK:   -4.61 KCAL/MOL
REMARK 923 INTER-LIGAND FREE ENERGY PREDICTED BY IDOCK:   -4.63 KCAL/MOL
REMARK 924 INTRA-LIGAND FREE ENERGY PREDICTED BY IDOCK:    0.02 KCAL/MOL
REMARK 927      BINDING AFFINITY PREDICTED BY RF-SCORE:    0.00 PKD
ROOT
HETATM    1  C   UNL     1      -8.618  16.664  66.096  1.00  0.00    -0.289 C  
HETATM    2  O   UNL     1      -8.576  15.249  66.001  1.00  0.00    -0.069 OA 
ENDROOT
BRANCH   2   3
HETATM    3  C   UNL     1      -9.487  14.497  66.851  1.00  0.00    -0.252 C  
HETATM    4  C   UNL     1     -10.685  15.306  67.493  1.00  0.00    -0.285 C  
HETATM    5  O   UNL     1      -8.143  13.885  69.005  1.00  0.00    -0.023 OA 
HETATM    6  S   UNL     1     -12.267  14.472  67.874  1.00  0.00     0.048 SA 
HETATM    7  C   UNL     1      -8.958  14.507  68.358  1.00  0.00    -0.186 C  
HETATM    8  O   UNL     1     -10.817  17.436  70.071  1.00  0.00     0.221 OA 
HETATM    9  O   UNL     1     -11.854  16.319  71.730  1.00  0.00    -0.487 OA 
HETATM   10  C   UNL     1     -11.201  16.293  70.695  1.00  0.00    -0.288 C  
HETATM   11  C   UNL     1     -11.812  14.009  69.597  1.00  0.00    -0.330 C  
HETATM   12  C   UNL     1     -13.081  14.006  70.457  1.00  0.00    -0.101 C  
HETATM   13  C   UNL     1     -11.289  12.560  69.548  1.00  0.00    -0.240 C  
HETATM   14  N   UNL     1      -9.952  15.349  68.783  1.00  0.00    -0.201 N  
HETATM   15  C   UNL     1     -10.705  15.009  70.010  1.00  0.00    -0.192 C  
BRANCH   3  16
HETATM   16  N   UNL     1      -9.682  13.086  66.390  1.00  0.00    -0.265 N  
HETATM   17  C   UNL     1      -9.232   9.791  67.198  1.00  0.00    -0.159 A  
HETATM   18  O   UNL     1      -7.544  12.325  66.727  1.00  0.00    -0.046 OA 
HETATM   19  C   UNL     1      -8.189   9.541  68.075  1.00  0.00    -0.114 A  
HETATM   20  O   UNL     1      -8.803   9.238  64.124  1.00  0.00    -0.206 OA 
HETATM   21  O   UNL     1      -7.078  10.533  64.751  1.00  0.00    -0.077 OA 
HETATM   22  C   UNL     1      -9.177  10.712  65.994  1.00  0.00    -0.208 C  
HETATM   23  H   UNL     1     -10.605  12.829  66.036  1.00  0.00     0.000 HD 
HETATM   24  C   UNL     1      -8.714  12.108  66.406  1.00  0.00    -0.052 C  
HETATM   25  S   UNL     1      -8.619   8.476  69.342  1.00  0.00    -0.129 SA 
HETATM   26  C   UNL     1      -8.353  10.099  64.874  1.00  0.00    -0.164 C  
HETATM   27  C   UNL     1     -10.197   8.291  68.722  1.00  0.00    -0.210 A  
HETATM   28  C   UNL     1     -10.393   9.034  67.578  1.00  0.00    -0.328 A  
ENDBRANCH   3  16
ENDBRANCH   2   3
TORSDOF 2
ENDMDL
MODEL       99
REMARK 921   NORMALIZED FREE ENERGY PREDICTED BY IDOCK:   -3.66 KCAL/MOL
REMARK 922        TOTAL FREE ENERGY PREDICTED BY IDOCK:   -4.57 KCAL/MOL
REMARK 923 INTER-LIGAND FREE ENERGY PREDICTED BY IDOCK:   -4.02 KCAL/MOL
REMARK 924 INTRA-LIGAND FREE ENERGY PREDICTED BY IDOCK:   -0.55 KCAL/MOL
REMARK 927      BINDING AFFINITY PREDICTED BY RF-SCORE:    0.00 PKD
ROOT
HETATM    1  C   UNL     1     -12.646  11.145  69.639  1.00  0.00    -0.006 C  
HETATM    2  O   UNL     1     -12.035  10.686  68.443  1.00  0.00    -0.448 OA 
ENDROOT
BRANCH   2   3
HETATM    3  C   UNL     1     -10.692  11.166  68.157  1.00  0.00    -0.204 C  
HETATM    4  C   UNL     1     -10.403  12.691  68.463  1.00  0.00    -0.221 C  
HETATM    5  O   UNL     1     -10.454  11.170  65.555  1.00  0.00    -0.262 OA 
HETATM    6  S   UNL     1      -8.722  13.242  68.923  1.00  0.00     0.405 SA 
HETATM    7  C   UNL     1     -10.607  11.678  66.646  1.00  0.00    -0.243 C  
HETATM    8  O   UNL     1     -11.222  15.493  66.827  1.00  0.00    -0.265 OA 
HETATM    9  O   UNL     1      -9.309  16.238  65.902  1.00  0.00    -0.379 OA 
HETATM   10  C   UNL     1      -9.964  15.308  66.355  1.00  0.00    -0.275 C  
HETATM   11  C   UNL     1      -8.179  13.607  67.202  1.00  0.00    -0.107 C  
HETATM   12  C   UNL     1      -7.180  14.769  67.238  1.00  0.00    -0.114 C  
HETATM   13  C   UNL     1      -7.419  12.365  66.699  1.00  0.00     0.324 C  
HETATM   14  N   UNL     1     -10.526  12.995  67.015  1.00  0.00    -0.246 N  
HETATM   15  C   UNL     1      -9.484  13.849  66.405  1.00  0.00    -0.250 C  
BRANCH   3  16
HETATM   16  N   UNL     1      -9.639  10.128  68.402  1.00  0.00    -0.141 N  
HETATM   17  C   UNL     1      -8.932   7.181  69.991  1.00  0.00    -0.142 A  
HETATM   18  O   UNL     1      -9.759  10.065  70.692  1.00  0.00    -0.054 OA 
HETATM   19  C   UNL     1      -9.681   6.937  71.131  1.00  0.00    -0.173 A  
HETATM   20  O   UNL     1      -5.973   8.220  70.306  1.00  0.00    -0.028 OA 
HETATM   21  O   UNL     1      -7.233   9.600  71.551  1.00  0.00    -0.294 OA 
HETATM   22  C   UNL     1      -8.270   8.497  69.630  1.00  0.00    -0.115 C  
HETATM   23  H   UNL     1      -9.142   9.761  67.590  1.00  0.00     0.000 HD 
HETATM   24  C   UNL     1      -9.291   9.632  69.637  1.00  0.00    -0.211 C  
HETATM   25  S   UNL     1     -10.309   5.348  71.193  1.00  0.00    -0.227 SA 
HETATM   26  C   UNL     1      -7.058   8.757  70.508  1.00  0.00    -0.050 C  
HETATM   27  C   UNL     1      -9.558   4.937  69.717  1.00  0.00    -0.172 A  
HETATM   28  C   UNL     1      -8.852   5.993  69.186  1.00  0.00    -0.119 A  
ENDBRANCH   3  16
ENDBRANCH   2   3
TORSDOF 2
ENDMDL
MODEL      100
REMARK 921   NORMALIZED FREE ENERGY PREDICTED BY IDOCK:   -3.65 KCAL/MOL
REMARK 922        TOTAL FREE ENERGY PREDICTED BY IDOCK:   -4.56 KCAL/MOL
REMARK 923 INTER-LIGAND FREE ENERGY PREDICTED BY IDOCK:   -4.38 KCAL/MOL
REMARK 924 INTRA-LIGAND FREE ENERGY PREDICTED BY IDOCK:   -0.18 KCAL/MOL
REMARK 927      BINDING AFFINITY PREDICTED BY RF-SCORE:    0.00 PKD
ROOT
HETATM    1  C   UNL     1      -8.289   8.423  66.673  1.00  0.00    -0.110 C  
HETATM    2  O   UNL     1      -8.606   7.234  67.380  1.00  0.00    -0.121 OA 
ENDROOT
BRANCH   2   3
HETATM    3  C   UNL     1      -9.140   7.382  68.726  1.00  0.00    -0.131 C  
HETATM    4  C   UNL     1     -10.659   7.808  68.842  1.00  0.00    -0.150 C  
HETATM    5  O   UNL     1      -7.994   9.500  69.739  1.00  0.00    -0.101 OA 
HETATM    6  S   UNL     1     -11.660   7.286  70.280  1.00  0.00    -0.116 SA 
HETATM    7  C   UNL     1      -8.908   8.877  69.241  1.00  0.00    -0.139 C  
HETATM    8  O   UNL     1     -12.192  10.755  68.437  1.00  0.00    -0.470 OA 
HETATM    9  O   UNL     1     -12.770  11.429  70.506  1.00  0.00    -0.229 OA 
HETATM   10  C   UNL     1     -12.048  10.752  69.786  1.00  0.00    -0.318 C  
HETATM   11  C   UNL     1     -11.289   8.772  71.302  1.00  0.00    -0.291 C  
HETATM   12  C   UNL     1     -12.500   9.072  72.192  1.00  0.00    -0.450 C  
HETATM   13  C   UNL     1     -10.120   8.395  72.231  1.00  0.00    -0.382 C  
HETATM   14  N   UNL     1     -10.236   9.197  69.150  1.00  0.00    -0.201 N  
HETATM   15  C   UNL     1     -10.892   9.874  70.291  1.00  0.00    -0.310 C  
BRANCH   3  16
HETATM   16  N   UNL     1      -8.545   6.411  69.698  1.00  0.00    -0.133 N  
HETATM   17  C   UNL     1      -7.169   3.298  70.056  1.00  0.00    -0.041 A  
HETATM   18  O   UNL     1      -9.825   4.582  69.168  1.00  0.00    -0.184 OA 
HETATM   19  C   UNL     1      -7.571   2.368  69.109  1.00  0.00    -0.043 A  
HETATM   20  O   UNL     1      -8.464   3.206  72.928  1.00  0.00    -0.078 OA 
HETATM   21  O   UNL     1     -10.188   3.236  71.489  1.00  0.00    -0.060 OA 
HETATM   22  C   UNL     1      -8.079   4.260  70.795  1.00  0.00    -0.067 C  
HETATM   23  H   UNL     1      -7.820   6.757  70.327  1.00  0.00     0.000 HD 
HETATM   24  C   UNL     1      -8.902   5.086  69.810  1.00  0.00    -0.098 C  
HETATM   25  S   UNL     1      -6.270   1.475  68.452  1.00  0.00    -0.025 SA 
HETATM   26  C   UNL     1      -8.914   3.532  71.834  1.00  0.00    -0.105 C  
HETATM   27  C   UNL     1      -5.144   2.281  69.449  1.00  0.00    -0.007 A  
HETATM   28  C   UNL     1      -5.748   3.217  70.259  1.00  0.00    -0.017 A  
ENDBRANCH   3  16
ENDBRANCH   2   3
TORSDOF 2
ENDMDL
MODEL      101
REMARK 921   NORMALIZED FREE ENERGY PREDICTED BY IDOCK:   -3.64 KCAL/MOL
REMARK 922        TOTAL FREE ENERGY PREDICTED BY IDOCK:   -4.55 KCAL/MOL
REMARK 923 INTER-LIGAND FREE ENERGY PREDICTED BY IDOCK:   -4.35 KCAL/MOL
REMARK 924 INTRA-LIGAND FREE ENERGY PREDICTED BY IDOCK:   -0.20 KCAL/MOL
REMARK 927      BINDING AFFINITY PREDICTED BY RF-SCORE:    0.00 PKD
ROOT
HETATM    1  C   UNL     1      -7.869  14.499  69.025  1.00  0.00    -0.106 C  
HETATM    2  O   UNL     1      -7.677  13.094  68.981  1.00  0.00     0.014 OA 
ENDROOT
BRANCH   2   3
HETATM    3  C   UNL     1      -8.494  12.340  68.043  1.00  0.00    -0.171 C  
HETATM    4  C   UNL     1      -9.048  13.132  66.790  1.00  0.00    -0.209 C  
HETATM    5  O   UNL     1     -10.736  11.818  69.279  1.00  0.00    -0.178 OA 
HETATM    6  S   UNL     1      -9.363  12.266  65.211  1.00  0.00     0.305 SA 
HETATM    7  C   UNL     1     -10.028  12.402  68.486  1.00  0.00    -0.170 C  
HETATM    8  O   UNL     1     -11.557  15.321  66.460  1.00  0.00    -0.189 OA 
HETATM    9  O   UNL     1     -13.185  14.220  65.361  1.00  0.00    -0.688 OA 
HETATM   10  C   UNL     1     -12.189  14.185  66.071  1.00  0.00    -0.443 C  
HETATM   11  C   UNL     1     -11.120  11.858  65.580  1.00  0.00    -0.310 C  
HETATM   12  C   UNL     1     -11.908  11.843  64.266  1.00  0.00    -0.367 C  
HETATM   13  C   UNL     1     -11.138  10.424  66.142  1.00  0.00     0.268 C  
HETATM   14  N   UNL     1     -10.375  13.227  67.449  1.00  0.00    -0.242 N  
HETATM   15  C   UNL     1     -11.567  12.898  66.637  1.00  0.00    -0.372 C  
BRANCH   3  16
HETATM   16  N   UNL     1      -8.061  10.912  67.909  1.00  0.00    -0.111 N  
HETATM   17  C   UNL     1      -8.842   7.669  68.672  1.00  0.00    -0.127 A  
HETATM   18  O   UNL     1      -8.203  10.313  70.119  1.00  0.00    -0.067 OA 
HETATM   19  C   UNL     1      -9.620   7.505  69.807  1.00  0.00    -0.163 A  
HETATM   20  O   UNL     1      -5.744   7.111  68.856  1.00  0.00    -0.018 OA 
HETATM   21  O   UNL     1      -6.203   8.534  70.531  1.00  0.00    -0.034 OA 
HETATM   22  C   UNL     1      -7.633   8.577  68.549  1.00  0.00    -0.095 C  
HETATM   23  H   UNL     1      -7.795  10.585  66.980  1.00  0.00     0.000 HD 
HETATM   24  C   UNL     1      -7.993  10.007  68.944  1.00  0.00    -0.101 C  
HETATM   25  S   UNL     1     -10.927   6.428  69.574  1.00  0.00    -0.391 SA 
HETATM   26  C   UNL     1      -6.445   8.011  69.308  1.00  0.00    -0.036 C  
HETATM   27  C   UNL     1     -10.457   6.122  67.963  1.00  0.00    -0.228 A  
HETATM   28  C   UNL     1      -9.332   6.834  67.609  1.00  0.00    -0.121 A  
ENDBRANCH   3  16
ENDBRANCH   2   3
TORSDOF 2
ENDMDL
MODEL      102
REMARK 921   NORMALIZED FREE ENERGY PREDICTED BY IDOCK:   -3.63 KCAL/MOL
REMARK 922        TOTAL FREE ENERGY PREDICTED BY IDOCK:   -4.53 KCAL/MOL
REMARK 923 INTER-LIGAND FREE ENERGY PREDICTED BY IDOCK:   -4.08 KCAL/MOL
REMARK 924 INTRA-LIGAND FREE ENERGY PREDICTED BY IDOCK:   -0.46 KCAL/MOL
REMARK 927      BINDING AFFINITY PREDICTED BY RF-SCORE:    0.00 PKD
ROOT
HETATM    1  C   UNL     1      -6.869   5.259  65.853  1.00  0.00    -0.061 C  
HETATM    2  O   UNL     1      -6.755   5.719  67.190  1.00  0.00    -0.057 OA 
ENDROOT
BRANCH   2   3
HETATM    3  C   UNL     1      -7.843   6.537  67.707  1.00  0.00    -0.111 C  
HETATM    4  C   UNL     1      -8.485   7.578  66.704  1.00  0.00    -0.130 C  
HETATM    5  O   UNL     1      -6.771   8.173  69.439  1.00  0.00    -0.041 OA 
HETATM    6  S   UNL     1     -10.239   8.065  66.870  1.00  0.00    -0.307 SA 
HETATM    7  C   UNL     1      -7.256   7.867  68.370  1.00  0.00    -0.089 C  
HETATM    8  O   UNL     1      -7.430  10.553  65.593  1.00  0.00    -0.148 OA 
HETATM    9  O   UNL     1      -8.735  12.080  66.611  1.00  0.00    -0.194 OA 
HETATM   10  C   UNL     1      -8.247  10.957  66.598  1.00  0.00    -0.145 C  
HETATM   11  C   UNL     1      -9.919   9.504  67.973  1.00  0.00    -0.167 C  
HETATM   12  C   UNL     1     -10.978  10.578  67.701  1.00  0.00    -0.375 C  
HETATM   13  C   UNL     1     -10.124   9.015  69.419  1.00  0.00    -0.198 C  
HETATM   14  N   UNL     1      -7.718   8.667  67.359  1.00  0.00    -0.097 N  
HETATM   15  C   UNL     1      -8.449   9.907  67.702  1.00  0.00    -0.114 C  
BRANCH   3  16
HETATM   16  N   UNL     1      -8.698   5.808  68.698  1.00  0.00    -0.108 N  
HETATM   17  C   UNL     1      -9.462   5.467  72.016  1.00  0.00    -0.172 A  
HETATM   18  O   UNL     1      -7.042   5.137  70.137  1.00  0.00    -0.051 OA 
HETATM   19  C   UNL     1      -8.442   5.809  72.890  1.00  0.00    -0.122 A  
HETATM   20  O   UNL     1     -10.012   2.418  71.434  1.00  0.00    -0.144 OA 
HETATM   21  O   UNL     1      -7.815   2.716  71.072  1.00  0.00    -0.048 OA 
HETATM   22  C   UNL     1      -9.312   4.625  70.763  1.00  0.00    -0.215 C  
HETATM   23  H   UNL     1      -9.698   5.752  68.505  1.00  0.00     0.000 HD 
HETATM   24  C   UNL     1      -8.238   5.209  69.849  1.00  0.00    -0.086 C  
HETATM   25  S   UNL     1      -8.967   6.802  74.178  1.00  0.00    -0.198 SA 
HETATM   26  C   UNL     1      -9.091   3.163  71.112  1.00  0.00    -0.112 C  
HETATM   27  C   UNL     1     -10.580   6.762  73.621  1.00  0.00    -0.320 A  
HETATM   28  C   UNL     1     -10.710   6.015  72.472  1.00  0.00    -0.264 A  
ENDBRANCH   3  16
ENDBRANCH   2   3
TORSDOF 2
ENDMDL
MODEL      103
REMARK 921   NORMALIZED FREE ENERGY PREDICTED BY IDOCK:   -3.61 KCAL/MOL
REMARK 922        TOTAL FREE ENERGY PREDICTED BY IDOCK:   -4.52 KCAL/MOL
REMARK 923 INTER-LIGAND FREE ENERGY PREDICTED BY IDOCK:   -3.89 KCAL/MOL
REMARK 924 INTRA-LIGAND FREE ENERGY PREDICTED BY IDOCK:   -0.63 KCAL/MOL
REMARK 927      BINDING AFFINITY PREDICTED BY RF-SCORE:    0.00 PKD
ROOT
HETATM    1  C   UNL     1      -9.596  10.258  63.729  1.00  0.00    -0.284 C  
HETATM    2  O   UNL     1     -10.217  10.103  64.995  1.00  0.00    -0.309 OA 
ENDROOT
BRANCH   2   3
HETATM    3  C   UNL     1      -9.410   9.542  66.068  1.00  0.00    -0.216 C  
HETATM    4  C   UNL     1      -8.351   8.441  65.657  1.00  0.00    -0.154 C  
HETATM    5  O   UNL     1     -11.027   8.099  67.525  1.00  0.00    -0.115 OA 
HETATM    6  S   UNL     1      -6.809   8.233  66.616  1.00  0.00    -0.069 SA 
HETATM    7  C   UNL     1     -10.152   8.279  66.705  1.00  0.00    -0.303 C  
HETATM    8  O   UNL     1      -8.682   5.203  64.878  1.00  0.00    -0.149 OA 
HETATM    9  O   UNL     1      -7.854   4.067  66.637  1.00  0.00    -0.091 OA 
HETATM   10  C   UNL     1      -8.348   5.093  66.189  1.00  0.00    -0.114 C  
HETATM   11  C   UNL     1      -7.491   6.976  67.775  1.00  0.00    -0.098 C  
HETATM   12  C   UNL     1      -6.362   6.026  68.190  1.00  0.00    -0.044 C  
HETATM   13  C   UNL     1      -7.942   7.731  69.041  1.00  0.00    -0.123 C  
HETATM   14  N   UNL     1      -9.266   7.387  66.163  1.00  0.00    -0.141 N  
HETATM   15  C   UNL     1      -8.686   6.336  67.028  1.00  0.00    -0.108 C  
BRANCH   3  16
HETATM   16  N   UNL     1      -9.092  10.540  67.139  1.00  0.00    -0.143 N  
HETATM   17  C   UNL     1      -8.882  13.874  67.883  1.00  0.00    -0.184 A  
HETATM   18  O   UNL     1      -7.605  11.831  65.962  1.00  0.00     0.259 OA 
HETATM   19  C   UNL     1      -8.630  14.700  66.800  1.00  0.00    -0.162 A  
HETATM   20  O   UNL     1      -6.510  13.148  69.830  1.00  0.00    -0.097 OA 
HETATM   21  O   UNL     1      -5.766  12.668  67.766  1.00  0.00    -0.095 OA 
HETATM   22  C   UNL     1      -8.174  12.566  68.185  1.00  0.00    -0.170 C  
HETATM   23  H   UNL     1      -9.530  10.407  68.051  1.00  0.00     0.000 HD 
HETATM   24  C   UNL     1      -8.256  11.622  66.988  1.00  0.00    -0.170 C  
HETATM   25  S   UNL     1      -9.645  16.076  66.756  1.00  0.00    -0.245 SA 
HETATM   26  C   UNL     1      -6.757  12.814  68.675  1.00  0.00    -0.088 C  
HETATM   27  C   UNL     1     -10.415  15.619  68.208  1.00  0.00    -0.252 A  
HETATM   28  C   UNL     1      -9.914  14.438  68.709  1.00  0.00    -0.223 A  
ENDBRANCH   3  16
ENDBRANCH   2   3
TORSDOF 2
ENDMDL
MODEL      104
REMARK 921   NORMALIZED FREE ENERGY PREDICTED BY IDOCK:   -3.60 KCAL/MOL
REMARK 922        TOTAL FREE ENERGY PREDICTED BY IDOCK:   -4.51 KCAL/MOL
REMARK 923 INTER-LIGAND FREE ENERGY PREDICTED BY IDOCK:   -4.31 KCAL/MOL
REMARK 924 INTRA-LIGAND FREE ENERGY PREDICTED BY IDOCK:   -0.20 KCAL/MOL
REMARK 927      BINDING AFFINITY PREDICTED BY RF-SCORE:    0.00 PKD
ROOT
HETATM    1  C   UNL     1      -7.007   5.448  66.864  1.00  0.00    -0.065 C  
HETATM    2  O   UNL     1      -6.862   6.122  68.104  1.00  0.00    -0.062 OA 
ENDROOT
BRANCH   2   3
HETATM    3  C   UNL     1      -8.081   6.442  68.833  1.00  0.00    -0.111 C  
HETATM    4  C   UNL     1      -8.113   6.049  70.365  1.00  0.00    -0.111 C  
HETATM    5  O   UNL     1      -9.927   4.839  67.912  1.00  0.00    -0.152 OA 
HETATM    6  S   UNL     1      -9.114   7.018  71.549  1.00  0.00    -0.138 SA 
HETATM    7  C   UNL     1      -9.114   5.228  68.724  1.00  0.00    -0.112 C  
HETATM    8  O   UNL     1      -8.542   3.112  71.912  1.00  0.00    -0.074 OA 
HETATM    9  O   UNL     1     -10.607   3.191  72.805  1.00  0.00    -0.153 OA 
HETATM   10  C   UNL     1      -9.811   3.590  71.966  1.00  0.00    -0.168 C  
HETATM   11  C   UNL     1     -10.633   5.993  71.377  1.00  0.00    -0.246 C  
HETATM   12  C   UNL     1     -11.383   5.996  72.713  1.00  0.00    -0.282 C  
HETATM   13  C   UNL     1     -11.534   6.698  70.344  1.00  0.00    -0.444 C  
HETATM   14  N   UNL     1      -8.946   4.865  70.034  1.00  0.00    -0.100 N  
HETATM   15  C   UNL     1     -10.141   4.616  70.869  1.00  0.00    -0.187 C  
BRANCH   3  16
HETATM   16  N   UNL     1      -8.729   7.706  68.358  1.00  0.00    -0.128 N  
HETATM   17  C   UNL     1      -8.756  10.080  65.893  1.00  0.00    -0.154 A  
HETATM   18  O   UNL     1      -6.829   8.945  68.013  1.00  0.00    -0.068 OA 
HETATM   19  C   UNL     1      -7.553  10.242  65.224  1.00  0.00    -0.143 A  
HETATM   20  O   UNL     1      -9.561  12.173  68.110  1.00  0.00    -0.198 OA 
HETATM   21  O   UNL     1      -7.487  11.495  68.643  1.00  0.00    -0.104 OA 
HETATM   22  C   UNL     1      -8.925   9.960  67.396  1.00  0.00    -0.144 C  
HETATM   23  H   UNL     1      -9.748   7.734  68.338  1.00  0.00     0.000 HD 
HETATM   24  C   UNL     1      -8.054   8.833  67.947  1.00  0.00    -0.107 C  
HETATM   25  S   UNL     1      -7.734  10.304  63.525  1.00  0.00    -0.071 SA 
HETATM   26  C   UNL     1      -8.701  11.298  68.080  1.00  0.00    -0.144 C  
HETATM   27  C   UNL     1      -9.430  10.158  63.648  1.00  0.00    -0.267 A  
HETATM   28  C   UNL     1      -9.846  10.055  64.957  1.00  0.00    -0.374 A  
ENDBRANCH   3  16
ENDBRANCH   2   3
TORSDOF 2
ENDMDL
MODEL      105
REMARK 921   NORMALIZED FREE ENERGY PREDICTED BY IDOCK:   -3.59 KCAL/MOL
REMARK 922        TOTAL FREE ENERGY PREDICTED BY IDOCK:   -4.49 KCAL/MOL
REMARK 923 INTER-LIGAND FREE ENERGY PREDICTED BY IDOCK:   -4.04 KCAL/MOL
REMARK 924 INTRA-LIGAND FREE ENERGY PREDICTED BY IDOCK:   -0.45 KCAL/MOL
REMARK 927      BINDING AFFINITY PREDICTED BY RF-SCORE:    0.00 PKD
ROOT
HETATM    1  C   UNL     1      -6.149   8.187  69.801  1.00  0.00    -0.029 C  
HETATM    2  O   UNL     1      -6.218   8.582  68.440  1.00  0.00    -0.051 OA 
ENDROOT
BRANCH   2   3
HETATM    3  C   UNL     1      -7.524   8.963  67.923  1.00  0.00    -0.092 C  
HETATM    4  C   UNL     1      -7.554  10.150  66.878  1.00  0.00    -0.100 C  
HETATM    5  O   UNL     1      -8.802  10.074  69.913  1.00  0.00    -0.205 OA 
HETATM    6  S   UNL     1      -8.858  10.226  65.598  1.00  0.00    -0.178 SA 
HETATM    7  C   UNL     1      -8.182  10.069  68.871  1.00  0.00    -0.121 C  
HETATM    8  O   UNL     1      -7.280  13.465  67.252  1.00  0.00    -0.139 OA 
HETATM    9  O   UNL     1      -9.346  14.289  66.903  1.00  0.00    -0.235 OA 
HETATM   10  C   UNL     1      -8.632  13.346  67.217  1.00  0.00    -0.213 C  
HETATM   11  C   UNL     1     -10.029  11.234  66.599  1.00  0.00    -0.209 C  
HETATM   12  C   UNL     1     -10.842  12.126  65.654  1.00  0.00    -0.323 C  
HETATM   13  C   UNL     1     -11.014  10.252  67.261  1.00  0.00    -0.277 C  
HETATM   14  N   UNL     1      -8.013  11.070  67.950  1.00  0.00    -0.110 N  
HETATM   15  C   UNL     1      -9.151  11.964  67.644  1.00  0.00    -0.179 C  
BRANCH   3  16
HETATM   16  N   UNL     1      -8.455   7.798  67.779  1.00  0.00    -0.121 N  
HETATM   17  C   UNL     1      -8.760   4.404  68.096  1.00  0.00    -0.115 A  
HETATM   18  O   UNL     1      -7.111   6.455  66.493  1.00  0.00    -0.065 OA 
HETATM   19  C   UNL     1      -7.576   3.696  67.960  1.00  0.00    -0.065 A  
HETATM   20  O   UNL     1     -10.768   4.496  65.668  1.00  0.00    -0.285 OA 
HETATM   21  O   UNL     1      -8.779   5.118  64.830  1.00  0.00    -0.149 OA 
HETATM   22  C   UNL     1      -9.223   5.536  67.198  1.00  0.00    -0.111 C  
HETATM   23  H   UNL     1      -9.379   7.879  68.203  1.00  0.00     0.000 HD 
HETATM   24  C   UNL     1      -8.159   6.628  67.117  1.00  0.00    -0.113 C  
HETATM   25  S   UNL     1      -7.361   2.512  69.174  1.00  0.00    -0.044 SA 
HETATM   26  C   UNL     1      -9.668   5.012  65.844  1.00  0.00    -0.166 C  
HETATM   27  C   UNL     1      -8.865   2.891  69.885  1.00  0.00    -0.088 A  
HETATM   28  C   UNL     1      -9.512   3.905  69.214  1.00  0.00    -0.256 A  
ENDBRANCH   3  16
ENDBRANCH   2   3
TORSDOF 2
ENDMDL
MODEL      106
REMARK 921   NORMALIZED FREE ENERGY PREDICTED BY IDOCK:   -3.59 KCAL/MOL
REMARK 922        TOTAL FREE ENERGY PREDICTED BY IDOCK:   -4.49 KCAL/MOL
REMARK 923 INTER-LIGAND FREE ENERGY PREDICTED BY IDOCK:   -4.60 KCAL/MOL
REMARK 924 INTRA-LIGAND FREE ENERGY PREDICTED BY IDOCK:    0.11 KCAL/MOL
REMARK 927      BINDING AFFINITY PREDICTED BY RF-SCORE:    0.00 PKD
ROOT
HETATM    1  C   UNL     1      -7.784   6.966  66.748  1.00  0.00    -0.102 C  
HETATM    2  O   UNL     1      -7.597   7.407  68.084  1.00  0.00    -0.108 OA 
ENDROOT
BRANCH   2   3
HETATM    3  C   UNL     1      -8.695   7.193  69.014  1.00  0.00    -0.132 C  
HETATM    4  C   UNL     1      -8.303   6.786  70.492  1.00  0.00    -0.129 C  
HETATM    5  O   UNL     1      -9.894   5.004  68.242  1.00  0.00    -0.149 OA 
HETATM    6  S   UNL     1      -9.381   7.245  71.896  1.00  0.00    -0.136 SA 
HETATM    7  C   UNL     1      -9.171   5.669  68.953  1.00  0.00    -0.119 C  
HETATM    8  O   UNL     1      -7.268   3.892  71.814  1.00  0.00    -0.050 OA 
HETATM    9  O   UNL     1      -9.009   3.114  73.013  1.00  0.00    -0.086 OA 
HETATM   10  C   UNL     1      -8.592   3.818  72.102  1.00  0.00    -0.095 C  
HETATM   11  C   UNL     1     -10.381   5.699  71.863  1.00  0.00    -0.215 C  
HETATM   12  C   UNL     1     -10.826   5.371  73.292  1.00  0.00    -0.345 C  
HETATM   13  C   UNL     1     -11.651   6.005  71.046  1.00  0.00    -0.153 C  
HETATM   14  N   UNL     1      -8.649   5.376  70.185  1.00  0.00    -0.117 N  
HETATM   15  C   UNL     1      -9.485   4.648  71.165  1.00  0.00    -0.156 C  
BRANCH   3  16
HETATM   16  N   UNL     1      -9.860   8.100  68.758  1.00  0.00    -0.171 N  
HETATM   17  C   UNL     1     -10.795  11.291  67.950  1.00  0.00    -0.278 A  
HETATM   18  O   UNL     1      -9.274   9.803  70.179  1.00  0.00    -0.234 OA 
HETATM   19  C   UNL     1      -9.887  12.276  68.308  1.00  0.00    -0.217 A  
HETATM   20  O   UNL     1     -13.350  10.849  69.744  1.00  0.00     0.156 OA 
HETATM   21  O   UNL     1     -11.603  10.784  71.154  1.00  0.00    -0.208 OA 
HETATM   22  C   UNL     1     -11.239  10.134  68.825  1.00  0.00    -0.217 C  
HETATM   23  H   UNL     1     -10.580   7.771  68.115  1.00  0.00     0.000 HD 
HETATM   24  C   UNL     1     -10.032   9.343  69.323  1.00  0.00    -0.181 C  
HETATM   25  S   UNL     1      -9.594  13.404  67.059  1.00  0.00    -0.251 SA 
HETATM   26  C   UNL     1     -12.161  10.611  69.934  1.00  0.00    -0.299 C  
HETATM   27  C   UNL     1     -10.706  12.628  66.024  1.00  0.00    -0.269 A  
HETATM   28  C   UNL     1     -11.281  11.526  66.618  1.00  0.00    -0.336 A  
ENDBRANCH   3  16
ENDBRANCH   2   3
TORSDOF 2
ENDMDL
MODEL      107
REMARK 921   NORMALIZED FREE ENERGY PREDICTED BY IDOCK:   -3.57 KCAL/MOL
REMARK 922        TOTAL FREE ENERGY PREDICTED BY IDOCK:   -4.47 KCAL/MOL
REMARK 923 INTER-LIGAND FREE ENERGY PREDICTED BY IDOCK:   -3.85 KCAL/MOL
REMARK 924 INTRA-LIGAND FREE ENERGY PREDICTED BY IDOCK:   -0.62 KCAL/MOL
REMARK 927      BINDING AFFINITY PREDICTED BY RF-SCORE:    0.00 PKD
ROOT
HETATM    1  C   UNL     1     -10.914   6.871  66.964  1.00  0.00    -0.334 C  
HETATM    2  O   UNL     1     -11.099   6.134  68.162  1.00  0.00    -0.332 OA 
ENDROOT
BRANCH   2   3
HETATM    3  C   UNL     1      -9.919   5.877  68.974  1.00  0.00    -0.165 C  
HETATM    4  C   UNL     1     -10.172   5.434  70.471  1.00  0.00    -0.256 C  
HETATM    5  O   UNL     1      -8.783   8.195  69.370  1.00  0.00    -0.140 OA 
HETATM    6  S   UNL     1      -8.974   4.356  71.334  1.00  0.00    -0.127 SA 
HETATM    7  C   UNL     1      -9.442   7.227  69.683  1.00  0.00    -0.155 C  
HETATM    8  O   UNL     1     -11.065   7.163  73.194  1.00  0.00    -0.307 OA 
HETATM    9  O   UNL     1      -9.218   7.274  74.477  1.00  0.00    -0.189 OA 
HETATM   10  C   UNL     1      -9.720   7.132  73.369  1.00  0.00    -0.232 C  
HETATM   11  C   UNL     1      -7.972   5.732  72.035  1.00  0.00    -0.107 C  
HETATM   12  C   UNL     1      -7.396   5.284  73.383  1.00  0.00    -0.095 C  
HETATM   13  C   UNL     1      -6.784   5.953  71.080  1.00  0.00    -0.060 C  
HETATM   14  N   UNL     1      -9.848   6.810  70.923  1.00  0.00    -0.186 N  
HETATM   15  C   UNL     1      -8.922   6.954  72.068  1.00  0.00    -0.133 C  
BRANCH   3  16
HETATM   16  N   UNL     1      -8.789   5.288  68.187  1.00  0.00    -0.105 N  
HETATM   17  C   UNL     1      -7.956   3.539  65.366  1.00  0.00    -0.090 A  
HETATM   18  O   UNL     1      -9.631   3.170  67.925  1.00  0.00    -0.192 OA 
HETATM   19  C   UNL     1      -8.955   2.715  64.872  1.00  0.00    -0.126 A  
HETATM   20  O   UNL     1      -5.601   2.256  67.023  1.00  0.00    -0.017 OA 
HETATM   21  O   UNL     1      -7.491   1.512  67.982  1.00  0.00    -0.046 OA 
HETATM   22  C   UNL     1      -7.548   3.663  66.821  1.00  0.00    -0.080 C  
HETATM   23  H   UNL     1      -7.981   5.884  68.004  1.00  0.00     0.000 HD 
HETATM   24  C   UNL     1      -8.755   4.005  67.691  1.00  0.00    -0.105 C  
HETATM   25  S   UNL     1      -9.170   2.858  63.182  1.00  0.00    -0.094 SA 
HETATM   26  C   UNL     1      -6.788   2.431  67.282  1.00  0.00    -0.040 C  
HETATM   27  C   UNL     1      -7.902   3.995  63.065  1.00  0.00    -0.070 A  
HETATM   28  C   UNL     1      -7.335   4.265  64.291  1.00  0.00    -0.070 A  
ENDBRANCH   3  16
ENDBRANCH   2   3
TORSDOF 2
ENDMDL
MODEL      108
REMARK 921   NORMALIZED FREE ENERGY PREDICTED BY IDOCK:   -3.48 KCAL/MOL
REMARK 922        TOTAL FREE ENERGY PREDICTED BY IDOCK:   -4.37 KCAL/MOL
REMARK 923 INTER-LIGAND FREE ENERGY PREDICTED BY IDOCK:   -3.96 KCAL/MOL
REMARK 924 INTRA-LIGAND FREE ENERGY PREDICTED BY IDOCK:   -0.42 KCAL/MOL
REMARK 927      BINDING AFFINITY PREDICTED BY RF-SCORE:    0.00 PKD
ROOT
HETATM    1  C   UNL     1      -9.198  10.154  67.632  1.00  0.00    -0.141 C  
HETATM    2  O   UNL     1      -9.919   8.932  67.615  1.00  0.00    -0.172 OA 
ENDROOT
BRANCH   2   3
HETATM    3  C   UNL     1      -9.474   7.885  68.523  1.00  0.00    -0.148 C  
HETATM    4  C   UNL     1     -10.539   7.349  69.562  1.00  0.00    -0.237 C  
HETATM    5  O   UNL     1      -7.769   9.006  70.153  1.00  0.00    -0.070 OA 
HETATM    6  S   UNL     1     -10.455   5.627  70.170  1.00  0.00    -0.307 SA 
HETATM    7  C   UNL     1      -8.841   8.538  69.837  1.00  0.00    -0.137 C  
HETATM    8  O   UNL     1     -11.724   8.638  72.414  1.00  0.00    -0.368 OA 
HETATM    9  O   UNL     1     -10.813   7.406  74.064  1.00  0.00    -0.176 OA 
HETATM   10  C   UNL     1     -10.765   7.817  72.912  1.00  0.00    -0.385 C  
HETATM   11  C   UNL     1      -9.398   6.007  71.629  1.00  0.00    -0.148 C  
HETATM   12  C   UNL     1      -9.749   5.032  72.758  1.00  0.00    -0.175 C  
HETATM   13  C   UNL     1      -7.942   5.721  71.213  1.00  0.00    -0.113 C  
HETATM   14  N   UNL     1      -9.898   8.165  70.625  1.00  0.00    -0.181 N  
HETATM   15  C   UNL     1      -9.630   7.508  71.923  1.00  0.00    -0.148 C  
BRANCH   3  16
HETATM   16  N   UNL     1      -8.487   6.950  67.893  1.00  0.00    -0.120 N  
HETATM   17  C   UNL     1      -7.316   5.697  64.932  1.00  0.00    -0.071 A  
HETATM   18  O   UNL     1      -9.938   5.791  66.547  1.00  0.00    -0.159 OA 
HETATM   19  C   UNL     1      -8.230   5.708  63.890  1.00  0.00    -0.094 A  
HETATM   20  O   UNL     1      -6.770   2.990  66.452  1.00  0.00    -0.045 OA 
HETATM   21  O   UNL     1      -9.000   3.251  66.466  1.00  0.00    -0.135 OA 
HETATM   22  C   UNL     1      -7.598   5.252  66.354  1.00  0.00    -0.088 C  
HETATM   23  H   UNL     1      -7.517   7.012  68.203  1.00  0.00     0.000 HD 
HETATM   24  C   UNL     1      -8.789   6.015  66.930  1.00  0.00    -0.116 C  
HETATM   25  S   UNL     1      -7.575   6.309  62.430  1.00  0.00    -0.078 SA 
HETATM   26  C   UNL     1      -7.740   3.741  66.435  1.00  0.00    -0.089 C  
HETATM   27  C   UNL     1      -6.042   6.529  63.146  1.00  0.00    -0.030 A  
HETATM   28  C   UNL     1      -6.035   6.160  64.474  1.00  0.00    -0.025 A  
ENDBRANCH   3  16
ENDBRANCH   2   3
TORSDOF 2
ENDMDL
MODEL      109
REMARK 921   NORMALIZED FREE ENERGY PREDICTED BY IDOCK:   -3.48 KCAL/MOL
REMARK 922        TOTAL FREE ENERGY PREDICTED BY IDOCK:   -4.37 KCAL/MOL
REMARK 923 INTER-LIGAND FREE ENERGY PREDICTED BY IDOCK:   -4.77 KCAL/MOL
REMARK 924 INTRA-LIGAND FREE ENERGY PREDICTED BY IDOCK:    0.40 KCAL/MOL
REMARK 927      BINDING AFFINITY PREDICTED BY RF-SCORE:    0.00 PKD
ROOT
HETATM    1  C   UNL     1      -9.304   3.648  69.675  1.00  0.00    -0.173 C  
HETATM    2  O   UNL     1      -8.359   4.704  69.584  1.00  0.00    -0.070 OA 
ENDROOT
BRANCH   2   3
HETATM    3  C   UNL     1      -8.881   6.062  69.564  1.00  0.00    -0.125 C  
HETATM    4  C   UNL     1      -9.569   6.577  70.892  1.00  0.00    -0.175 C  
HETATM    5  O   UNL     1     -10.946   6.030  67.964  1.00  0.00    -0.304 OA 
HETATM    6  S   UNL     1      -9.542   8.355  71.320  1.00  0.00    -0.203 SA 
HETATM    7  C   UNL     1     -10.391   6.057  69.042  1.00  0.00    -0.225 C  
HETATM    8  O   UNL     1     -12.572   5.968  72.236  1.00  0.00    -0.150 OA 
HETATM    9  O   UNL     1     -13.763   7.857  71.945  1.00  0.00    -0.336 OA 
HETATM   10  C   UNL     1     -12.836   7.137  71.598  1.00  0.00    -0.379 C  
HETATM   11  C   UNL     1     -11.130   8.761  70.482  1.00  0.00    -0.246 C  
HETATM   12  C   UNL     1     -11.812   9.902  71.245  1.00  0.00    -0.479 C  
HETATM   13  C   UNL     1     -10.773   9.297  69.082  1.00  0.00    -0.202 C  
HETATM   14  N   UNL     1     -10.901   6.348  70.280  1.00  0.00    -0.266 N  
HETATM   15  C   UNL     1     -11.907   7.425  70.408  1.00  0.00    -0.083 C  
BRANCH   3  16
HETATM   16  N   UNL     1      -8.056   6.989  68.725  1.00  0.00    -0.120 N  
HETATM   17  C   UNL     1      -8.109   9.170  66.088  1.00  0.00    -0.107 A  
HETATM   18  O   UNL     1      -8.655   6.192  66.659  1.00  0.00    -0.113 OA 
HETATM   19  C   UNL     1      -9.104   8.934  65.153  1.00  0.00    -0.097 A  
HETATM   20  O   UNL     1      -5.164   8.248  65.445  1.00  0.00    -0.031 OA 
HETATM   21  O   UNL     1      -6.451   6.439  65.105  1.00  0.00    -0.037 OA 
HETATM   22  C   UNL     1      -7.210   8.119  66.712  1.00  0.00    -0.082 C  
HETATM   23  H   UNL     1      -7.458   7.658  69.211  1.00  0.00     0.000 HD 
HETATM   24  C   UNL     1      -8.043   7.009  67.349  1.00  0.00    -0.116 C  
HETATM   25  S   UNL     1      -9.945  10.350  64.696  1.00  0.00    -0.297 SA 
HETATM   26  C   UNL     1      -6.182   7.617  65.712  1.00  0.00    -0.038 C  
HETATM   27  C   UNL     1      -8.969  11.319  65.707  1.00  0.00    -0.181 A  
HETATM   28  C   UNL     1      -8.029  10.575  66.384  1.00  0.00    -0.137 A  
ENDBRANCH   3  16
ENDBRANCH   2   3
TORSDOF 2
ENDMDL
MODEL      110
REMARK 921   NORMALIZED FREE ENERGY PREDICTED BY IDOCK:   -3.44 KCAL/MOL
REMARK 922        TOTAL FREE ENERGY PREDICTED BY IDOCK:   -4.32 KCAL/MOL
REMARK 923 INTER-LIGAND FREE ENERGY PREDICTED BY IDOCK:   -4.06 KCAL/MOL
REMARK 924 INTRA-LIGAND FREE ENERGY PREDICTED BY IDOCK:   -0.26 KCAL/MOL
REMARK 927      BINDING AFFINITY PREDICTED BY RF-SCORE:    0.00 PKD
ROOT
HETATM    1  C   UNL     1      -9.623   9.134  66.416  1.00  0.00    -0.245 C  
HETATM    2  O   UNL     1     -10.387   7.941  66.496  1.00  0.00    -0.247 OA 
ENDROOT
BRANCH   2   3
HETATM    3  C   UNL     1     -10.087   7.030  67.590  1.00  0.00    -0.172 C  
HETATM    4  C   UNL     1     -10.741   7.366  68.991  1.00  0.00    -0.148 C  
HETATM    5  O   UNL     1      -7.564   7.386  68.167  1.00  0.00    -0.108 OA 
HETATM    6  S   UNL     1     -11.138   6.029  70.173  1.00  0.00    -0.329 SA 
HETATM    7  C   UNL     1      -8.758   7.503  68.342  1.00  0.00    -0.123 C  
HETATM    8  O   UNL     1      -9.980   9.640  71.325  1.00  0.00    -0.186 OA 
HETATM    9  O   UNL     1      -9.072   8.482  73.030  1.00  0.00    -0.270 OA 
HETATM   10  C   UNL     1      -9.340   8.559  71.837  1.00  0.00    -0.267 C  
HETATM   11  C   UNL     1      -9.520   6.081  71.049  1.00  0.00    -0.168 C  
HETATM   12  C   UNL     1      -9.742   5.696  72.516  1.00  0.00    -0.171 C  
HETATM   13  C   UNL     1      -8.633   4.990  70.418  1.00  0.00    -0.120 C  
HETATM   14  N   UNL     1      -9.442   7.917  69.454  1.00  0.00    -0.156 N  
HETATM   15  C   UNL     1      -8.960   7.501  70.789  1.00  0.00    -0.149 C  
BRANCH   3  16
HETATM   16  N   UNL     1      -9.939   5.609  67.140  1.00  0.00    -0.147 N  
HETATM   17  C   UNL     1      -7.702   3.145  66.344  1.00  0.00    -0.077 A  
HETATM   18  O   UNL     1      -8.503   5.962  65.386  1.00  0.00    -0.148 OA 
HETATM   19  C   UNL     1      -6.471   3.595  65.894  1.00  0.00    -0.033 A  
HETATM   20  O   UNL     1      -9.807   2.104  64.241  1.00  0.00    -0.130 OA 
HETATM   21  O   UNL     1      -9.170   4.129  63.507  1.00  0.00    -0.134 OA 
HETATM   22  C   UNL     1      -9.054   3.675  65.907  1.00  0.00    -0.153 C  
HETATM   23  H   UNL     1     -10.480   4.900  67.636  1.00  0.00     0.000 HD 
HETATM   24  C   UNL     1      -9.131   5.186  66.110  1.00  0.00    -0.144 C  
HETATM   25  S   UNL     1      -5.153   2.794  66.630  1.00  0.00    -0.005 SA 
HETATM   26  C   UNL     1      -9.385   3.229  64.493  1.00  0.00    -0.143 C  
HETATM   27  C   UNL     1      -6.199   1.796  67.537  1.00  0.00    -0.024 A  
HETATM   28  C   UNL     1      -7.524   2.076  67.289  1.00  0.00    -0.060 A  
ENDBRANCH   3  16
ENDBRANCH   2   3
TORSDOF 2
ENDMDL
MODEL      111
REMARK 921   NORMALIZED FREE ENERGY PREDICTED BY IDOCK:   -3.43 KCAL/MOL
REMARK 922        TOTAL FREE ENERGY PREDICTED BY IDOCK:   -4.31 KCAL/MOL
REMARK 923 INTER-LIGAND FREE ENERGY PREDICTED BY IDOCK:   -4.42 KCAL/MOL
REMARK 924 INTRA-LIGAND FREE ENERGY PREDICTED BY IDOCK:    0.11 KCAL/MOL
REMARK 927      BINDING AFFINITY PREDICTED BY RF-SCORE:    0.00 PKD
ROOT
HETATM    1  C   UNL     1     -11.311  16.130  71.346  1.00  0.00    -0.258 C  
HETATM    2  O   UNL     1     -10.341  15.393  70.619  1.00  0.00    -0.197 OA 
ENDROOT
BRANCH   2   3
HETATM    3  C   UNL     1     -10.226  15.668  69.195  1.00  0.00    -0.233 C  
HETATM    4  C   UNL     1     -11.420  15.178  68.280  1.00  0.00    -0.336 C  
HETATM    5  O   UNL     1      -8.310  14.132  68.304  1.00  0.00    -0.143 OA 
HETATM    6  S   UNL     1     -11.835  16.072  66.740  1.00  0.00     1.133 SA 
HETATM    7  C   UNL     1      -9.464  14.466  68.468  1.00  0.00    -0.212 C  
HETATM    8  O   UNL     1     -12.258  12.150  67.128  1.00  0.00    -0.507 OA 
HETATM    9  O   UNL     1     -11.763  12.176  64.931  1.00  0.00    -0.346 OA 
HETATM   10  C   UNL     1     -11.578  12.626  66.055  1.00  0.00    -0.393 C  
HETATM   11  C   UNL     1     -10.745  15.063  65.652  1.00  0.00    -0.354 C  
HETATM   12  C   UNL     1     -11.379  14.983  64.259  1.00  0.00    -0.087 C  
HETATM   13  C   UNL     1      -9.419  15.835  65.507  1.00  0.00    -0.134 C  
HETATM   14  N   UNL     1     -10.600  14.020  67.845  1.00  0.00    -0.242 N  
HETATM   15  C   UNL     1     -10.554  13.720  66.397  1.00  0.00    -0.284 C  
BRANCH   3  16
HETATM   16  N   UNL     1      -9.528  16.961  68.906  1.00  0.00    -0.259 N  
HETATM   17  C   UNL     1      -6.881  18.413  67.294  1.00  0.00    -0.208 A  
HETATM   18  O   UNL     1      -7.404  16.336  69.508  1.00  0.00    -0.216 OA 
HETATM   19  C   UNL     1      -5.790  17.582  67.094  1.00  0.00    -0.136 A  
HETATM   20  O   UNL     1      -6.785  20.518  69.638  1.00  0.00    -0.106 OA 
HETATM   21  O   UNL     1      -6.258  18.545  70.575  1.00  0.00     0.029 OA 
HETATM   22  C   UNL     1      -7.674  18.542  68.581  1.00  0.00    -0.332 C  
HETATM   23  H   UNL     1     -10.099  17.743  68.584  1.00  0.00     0.000 HD 
HETATM   24  C   UNL     1      -8.175  17.177  69.043  1.00  0.00    -0.107 C  
HETATM   25  S   UNL     1      -5.166  17.665  65.505  1.00  0.00     0.190 SA 
HETATM   26  C   UNL     1      -6.881  19.294  69.636  1.00  0.00    -0.174 C  
HETATM   27  C   UNL     1      -6.313  18.847  65.059  1.00  0.00    -0.232 A  
HETATM   28  C   UNL     1      -7.160  19.163  66.099  1.00  0.00    -0.273 A  
ENDBRANCH   3  16
ENDBRANCH   2   3
TORSDOF 2
ENDMDL
MODEL      112
REMARK 921   NORMALIZED FREE ENERGY PREDICTED BY IDOCK:   -3.41 KCAL/MOL
REMARK 922        TOTAL FREE ENERGY PREDICTED BY IDOCK:   -4.30 KCAL/MOL
REMARK 923 INTER-LIGAND FREE ENERGY PREDICTED BY IDOCK:   -4.46 KCAL/MOL
REMARK 924 INTRA-LIGAND FREE ENERGY PREDICTED BY IDOCK:    0.17 KCAL/MOL
REMARK 927      BINDING AFFINITY PREDICTED BY RF-SCORE:    0.00 PKD
ROOT
HETATM    1  C   UNL     1      -8.558  11.436  67.551  1.00  0.00    -0.137 C  
HETATM    2  O   UNL     1      -8.339  10.354  68.443  1.00  0.00    -0.111 OA 
ENDROOT
BRANCH   2   3
HETATM    3  C   UNL     1      -8.447   9.010  67.896  1.00  0.00    -0.121 C  
HETATM    4  C   UNL     1      -7.254   8.519  66.981  1.00  0.00    -0.079 C  
HETATM    5  O   UNL     1     -10.372   9.089  66.132  1.00  0.00    -0.212 OA 
HETATM    6  S   UNL     1      -6.827   6.743  66.887  1.00  0.00    -0.067 SA 
HETATM    7  C   UNL     1      -9.216   9.052  66.496  1.00  0.00    -0.179 C  
HETATM    8  O   UNL     1      -6.437   9.212  63.811  1.00  0.00    -0.088 OA 
HETATM    9  O   UNL     1      -6.924   7.354  62.636  1.00  0.00    -0.067 OA 
HETATM   10  C   UNL     1      -7.110   8.048  63.627  1.00  0.00    -0.078 C  
HETATM   11  C   UNL     1      -7.922   6.375  65.453  1.00  0.00    -0.116 C  
HETATM   12  C   UNL     1      -7.284   5.256  64.623  1.00  0.00    -0.058 C  
HETATM   13  C   UNL     1      -9.241   5.824  66.027  1.00  0.00    -0.155 C  
HETATM   14  N   UNL     1      -8.082   8.780  65.777  1.00  0.00    -0.104 N  
HETATM   15  C   UNL     1      -8.126   7.731  64.736  1.00  0.00    -0.131 C  
BRANCH   3  16
HETATM   16  N   UNL     1      -9.134   8.057  68.826  1.00  0.00    -0.144 N  
HETATM   17  C   UNL     1     -11.499   7.762  71.282  1.00  0.00    -0.294 A  
HETATM   18  O   UNL     1      -8.833   9.223  70.779  1.00  0.00    -0.222 OA 
HETATM   19  C   UNL     1     -11.723   8.913  72.020  1.00  0.00    -0.367 A  
HETATM   20  O   UNL     1      -9.722   5.474  72.526  1.00  0.00    -0.152 OA 
HETATM   21  O   UNL     1      -8.505   7.353  72.711  1.00  0.00    -0.107 OA 
HETATM   22  C   UNL     1     -10.141   7.203  70.900  1.00  0.00    -0.200 C  
HETATM   23  H   UNL     1      -9.500   7.192  68.428  1.00  0.00     0.000 HD 
HETATM   24  C   UNL     1      -9.310   8.260  70.176  1.00  0.00    -0.159 C  
HETATM   25  S   UNL     1     -13.383   9.263  72.230  1.00  0.00    -0.463 SA 
HETATM   26  C   UNL     1      -9.444   6.592  72.103  1.00  0.00    -0.144 C  
HETATM   27  C   UNL     1     -13.841   7.859  71.374  1.00  0.00    -0.281 A  
HETATM   28  C   UNL     1     -12.750   7.146  70.931  1.00  0.00    -0.225 A  
ENDBRANCH   3  16
ENDBRANCH   2   3
TORSDOF 2
ENDMDL
MODEL      113
REMARK 921   NORMALIZED FREE ENERGY PREDICTED BY IDOCK:   -3.41 KCAL/MOL
REMARK 922        TOTAL FREE ENERGY PREDICTED BY IDOCK:   -4.29 KCAL/MOL
REMARK 923 INTER-LIGAND FREE ENERGY PREDICTED BY IDOCK:   -3.85 KCAL/MOL
REMARK 924 INTRA-LIGAND FREE ENERGY PREDICTED BY IDOCK:   -0.45 KCAL/MOL
REMARK 927      BINDING AFFINITY PREDICTED BY RF-SCORE:    0.00 PKD
ROOT
HETATM    1  C   UNL     1      -7.753   3.503  70.883  1.00  0.00    -0.047 C  
HETATM    2  O   UNL     1      -7.968   4.890  70.672  1.00  0.00    -0.075 OA 
ENDROOT
BRANCH   2   3
HETATM    3  C   UNL     1      -8.375   5.305  69.338  1.00  0.00    -0.095 C  
HETATM    4  C   UNL     1      -8.309   4.204  68.203  1.00  0.00    -0.093 C  
HETATM    5  O   UNL     1      -6.530   6.947  68.487  1.00  0.00    -0.033 OA 
HETATM    6  S   UNL     1      -9.456   4.270  66.781  1.00  0.00    -0.198 SA 
HETATM    7  C   UNL     1      -7.118   5.888  68.542  1.00  0.00    -0.081 C  
HETATM    8  O   UNL     1      -5.743   2.913  66.486  1.00  0.00    -0.020 OA 
HETATM    9  O   UNL     1      -5.910   3.767  64.409  1.00  0.00    -0.014 OA 
HETATM   10  C   UNL     1      -6.162   3.855  65.604  1.00  0.00    -0.031 C  
HETATM   11  C   UNL     1      -8.347   5.273  65.707  1.00  0.00    -0.123 C  
HETATM   12  C   UNL     1      -8.594   4.883  64.245  1.00  0.00    -0.141 C  
HETATM   13  C   UNL     1      -8.778   6.743  65.868  1.00  0.00    -0.147 C  
HETATM   14  N   UNL     1      -7.045   4.804  67.708  1.00  0.00    -0.061 N  
HETATM   15  C   UNL     1      -6.919   5.027  66.251  1.00  0.00    -0.067 C  
BRANCH   3  16
HETATM   16  N   UNL     1      -9.480   6.315  69.355  1.00  0.00    -0.139 N  
HETATM   17  C   UNL     1     -10.238   9.638  69.036  1.00  0.00    -0.209 A  
HETATM   18  O   UNL     1      -8.557   7.795  70.845  1.00  0.00    -0.125 OA 
HETATM   19  C   UNL     1      -9.207  10.506  69.357  1.00  0.00    -0.107 A  
HETATM   20  O   UNL     1     -12.546   9.170  71.132  1.00  0.00    -0.301 OA 
HETATM   21  O   UNL     1     -10.632   8.817  72.252  1.00  0.00    -0.337 OA 
HETATM   22  C   UNL     1     -10.655   8.420  69.839  1.00  0.00    -0.228 C  
HETATM   23  H   UNL     1     -10.309   6.116  68.794  1.00  0.00     0.000 HD 
HETATM   24  C   UNL     1      -9.463   7.493  70.067  1.00  0.00    -0.161 C  
HETATM   25  S   UNL     1      -8.994  11.750  68.204  1.00  0.00    -0.184 SA 
HETATM   26  C   UNL     1     -11.368   8.827  71.117  1.00  0.00    -0.285 C  
HETATM   27  C   UNL     1     -10.304  11.180  67.270  1.00  0.00    -0.208 A  
HETATM   28  C   UNL     1     -10.883  10.060  67.823  1.00  0.00    -0.337 A  
ENDBRANCH   3  16
ENDBRANCH   2   3
TORSDOF 2
ENDMDL
MODEL      114
REMARK 921   NORMALIZED FREE ENERGY PREDICTED BY IDOCK:   -3.40 KCAL/MOL
REMARK 922        TOTAL FREE ENERGY PREDICTED BY IDOCK:   -4.28 KCAL/MOL
REMARK 923 INTER-LIGAND FREE ENERGY PREDICTED BY IDOCK:   -3.77 KCAL/MOL
REMARK 924 INTRA-LIGAND FREE ENERGY PREDICTED BY IDOCK:   -0.51 KCAL/MOL
REMARK 927      BINDING AFFINITY PREDICTED BY RF-SCORE:    0.00 PKD
ROOT
HETATM    1  C   UNL     1      -9.358  13.456  66.492  1.00  0.00    -0.215 C  
HETATM    2  O   UNL     1      -9.856  12.131  66.398  1.00  0.00    -0.216 OA 
ENDROOT
BRANCH   2   3
HETATM    3  C   UNL     1      -9.395  11.175  67.394  1.00  0.00    -0.164 C  
HETATM    4  C   UNL     1      -7.912  10.647  67.236  1.00  0.00    -0.116 C  
HETATM    5  O   UNL     1     -10.715   8.964  66.952  1.00  0.00    -0.230 OA 
HETATM    6  S   UNL     1      -6.949  10.139  68.705  1.00  0.00    -0.063 SA 
HETATM    7  C   UNL     1      -9.743   9.688  66.922  1.00  0.00    -0.186 C  
HETATM    8  O   UNL     1      -6.545   8.403  65.164  1.00  0.00    -0.062 OA 
HETATM    9  O   UNL     1      -6.107   6.594  66.431  1.00  0.00    -0.031 OA 
HETATM   10  C   UNL     1      -6.752   7.619  66.252  1.00  0.00    -0.057 C  
HETATM   11  C   UNL     1      -7.457   8.371  68.646  1.00  0.00    -0.093 C  
HETATM   12  C   UNL     1      -6.310   7.510  69.186  1.00  0.00    -0.035 C  
HETATM   13  C   UNL     1      -8.644   8.213  69.616  1.00  0.00    -0.131 C  
HETATM   14  N   UNL     1      -8.433   9.382  66.660  1.00  0.00    -0.125 N  
HETATM   15  C   UNL     1      -7.875   8.114  67.178  1.00  0.00    -0.101 C  
BRANCH   3  16
HETATM   16  N   UNL     1      -9.974  11.426  68.752  1.00  0.00    -0.289 N  
HETATM   17  C   UNL     1     -12.448  10.544  70.946  1.00  0.00    -0.488 A  
HETATM   18  O   UNL     1     -12.156  11.759  68.130  1.00  0.00    -0.556 OA 
HETATM   19  C   UNL     1     -13.601  10.047  70.359  1.00  0.00     0.477 A  
HETATM   20  O   UNL     1     -12.419  13.528  71.963  1.00  0.00    -0.123 OA 
HETATM   21  O   UNL     1     -13.134  13.621  69.836  1.00  0.00     0.265 OA 
HETATM   22  C   UNL     1     -11.678  11.769  70.491  1.00  0.00    -0.146 C  
HETATM   23  H   UNL     1      -9.331  11.429  69.545  1.00  0.00     0.000 HD 
HETATM   24  C   UNL     1     -11.306  11.652  69.015  1.00  0.00    -0.275 C  
HETATM   25  S   UNL     1     -14.179   8.626  71.114  1.00  0.00     0.081 SA 
HETATM   26  C   UNL     1     -12.428  13.045  70.835  1.00  0.00    -0.310 C  
HETATM   27  C   UNL     1     -12.924   8.667  72.270  1.00  0.00    -0.381 A  
HETATM   28  C   UNL     1     -12.079   9.737  72.077  1.00  0.00    -0.197 A  
ENDBRANCH   3  16
ENDBRANCH   2   3
TORSDOF 2
ENDMDL
MODEL      115
REMARK 921   NORMALIZED FREE ENERGY PREDICTED BY IDOCK:   -3.38 KCAL/MOL
REMARK 922        TOTAL FREE ENERGY PREDICTED BY IDOCK:   -4.26 KCAL/MOL
REMARK 923 INTER-LIGAND FREE ENERGY PREDICTED BY IDOCK:   -3.69 KCAL/MOL
REMARK 924 INTRA-LIGAND FREE ENERGY PREDICTED BY IDOCK:   -0.57 KCAL/MOL
REMARK 927      BINDING AFFINITY PREDICTED BY RF-SCORE:    0.00 PKD
ROOT
HETATM    1  C   UNL     1      -9.406   3.830  69.033  1.00  0.00    -0.171 C  
HETATM    2  O   UNL     1      -9.646   4.290  67.713  1.00  0.00    -0.164 OA 
ENDROOT
BRANCH   2   3
HETATM    3  C   UNL     1      -8.704   5.253  67.163  1.00  0.00    -0.107 C  
HETATM    4  C   UNL     1      -8.549   5.274  65.588  1.00  0.00    -0.143 C  
HETATM    5  O   UNL     1      -6.324   4.421  67.845  1.00  0.00    -0.035 OA 
HETATM    6  S   UNL     1      -8.095   6.818  64.721  1.00  0.00    -0.058 SA 
HETATM    7  C   UNL     1      -7.247   4.603  67.080  1.00  0.00    -0.076 C  
HETATM    8  O   UNL     1      -6.944   3.235  63.474  1.00  0.00    -0.045 OA 
HETATM    9  O   UNL     1      -5.139   4.385  62.774  1.00  0.00    -0.005 OA 
HETATM   10  C   UNL     1      -6.006   4.205  63.619  1.00  0.00    -0.017 C  
HETATM   11  C   UNL     1      -6.278   6.524  64.778  1.00  0.00    -0.038 C  
HETATM   12  C   UNL     1      -5.640   7.150  63.533  1.00  0.00    -0.037 C  
HETATM   13  C   UNL     1      -5.739   7.287  66.002  1.00  0.00    -0.032 C  
HETATM   14  N   UNL     1      -7.279   4.514  65.713  1.00  0.00    -0.074 N  
HETATM   15  C   UNL     1      -6.117   4.992  64.934  1.00  0.00    -0.029 C  
BRANCH   3  16
HETATM   16  N   UNL     1      -8.648   6.527  67.949  1.00  0.00    -0.118 N  
HETATM   17  C   UNL     1     -10.136   8.346  70.437  1.00  0.00    -0.202 A  
HETATM   18  O   UNL     1     -10.827   7.189  67.666  1.00  0.00    -0.237 OA 
HETATM   19  C   UNL     1     -11.485   8.089  70.623  1.00  0.00    -0.232 A  
HETATM   20  O   UNL     1      -9.281  10.940  68.863  1.00  0.00    -0.184 OA 
HETATM   21  O   UNL     1     -10.766   9.894  67.542  1.00  0.00    -0.258 OA 
HETATM   22  C   UNL     1      -9.447   8.547  69.100  1.00  0.00    -0.154 C  
HETATM   23  H   UNL     1      -7.749   6.795  68.349  1.00  0.00     0.000 HD 
HETATM   24  C   UNL     1      -9.717   7.364  68.173  1.00  0.00    -0.151 C  
HETATM   25  S   UNL     1     -11.908   7.881  72.266  1.00  0.00    -0.350 SA 
HETATM   26  C   UNL     1      -9.808   9.894  68.497  1.00  0.00    -0.156 C  
HETATM   27  C   UNL     1     -10.304   8.171  72.770  1.00  0.00    -0.313 A  
HETATM   28  C   UNL     1      -9.464   8.413  71.706  1.00  0.00    -0.302 A  
ENDBRANCH   3  16
ENDBRANCH   2   3
TORSDOF 2
ENDMDL
MODEL      116
REMARK 921   NORMALIZED FREE ENERGY PREDICTED BY IDOCK:   -3.36 KCAL/MOL
REMARK 922        TOTAL FREE ENERGY PREDICTED BY IDOCK:   -4.23 KCAL/MOL
REMARK 923 INTER-LIGAND FREE ENERGY PREDICTED BY IDOCK:   -3.88 KCAL/MOL
REMARK 924 INTRA-LIGAND FREE ENERGY PREDICTED BY IDOCK:   -0.35 KCAL/MOL
REMARK 927      BINDING AFFINITY PREDICTED BY RF-SCORE:    0.00 PKD
ROOT
HETATM    1  C   UNL     1     -10.929   6.099  67.764  1.00  0.00    -0.303 C  
HETATM    2  O   UNL     1     -10.876   7.468  68.131  1.00  0.00    -0.129 OA 
ENDROOT
BRANCH   2   3
HETATM    3  C   UNL     1      -9.582   7.999  68.534  1.00  0.00    -0.155 C  
HETATM    4  C   UNL     1      -8.551   6.964  69.142  1.00  0.00    -0.128 C  
HETATM    5  O   UNL     1     -10.024   9.490  70.633  1.00  0.00    -0.263 OA 
HETATM    6  S   UNL     1      -6.752   7.230  68.953  1.00  0.00    -0.062 SA 
HETATM    7  C   UNL     1      -9.647   8.495  70.052  1.00  0.00    -0.169 C  
HETATM    8  O   UNL     1      -8.347   5.518  72.153  1.00  0.00    -0.120 OA 
HETATM    9  O   UNL     1      -6.604   6.504  73.184  1.00  0.00    -0.067 OA 
HETATM   10  C   UNL     1      -7.481   6.548  72.331  1.00  0.00    -0.094 C  
HETATM   11  C   UNL     1      -6.547   8.174  70.520  1.00  0.00    -0.036 C  
HETATM   12  C   UNL     1      -5.149   7.897  71.083  1.00  0.00    -0.026 C  
HETATM   13  C   UNL     1      -6.605   9.669  70.153  1.00  0.00    -0.081 C  
HETATM   14  N   UNL     1      -8.873   7.459  70.505  1.00  0.00    -0.148 N  
HETATM   15  C   UNL     1      -7.741   7.751  71.411  1.00  0.00    -0.082 C  
BRANCH   3  16
HETATM   16  N   UNL     1      -9.111   9.115  67.654  1.00  0.00    -0.123 N  
HETATM   17  C   UNL     1      -9.347  12.470  67.022  1.00  0.00    -0.210 A  
HETATM   18  O   UNL     1     -11.159   9.979  67.085  1.00  0.00    -0.189 OA 
HETATM   19  C   UNL     1     -10.536  13.059  67.422  1.00  0.00    -0.234 A  
HETATM   20  O   UNL     1      -8.936  11.784  63.972  1.00  0.00     0.259 OA 
HETATM   21  O   UNL     1     -10.905  10.865  64.539  1.00  0.00    -0.279 OA 
HETATM   22  C   UNL     1      -9.214  11.152  66.282  1.00  0.00    -0.211 C  
HETATM   23  H   UNL     1      -8.106   9.199  67.497  1.00  0.00     0.000 HD 
HETATM   24  C   UNL     1      -9.929  10.036  67.040  1.00  0.00    -0.205 C  
HETATM   25  S   UNL     1     -10.306  14.527  68.268  1.00  0.00    -0.242 SA 
HETATM   26  C   UNL     1      -9.657  11.292  64.835  1.00  0.00    -0.232 C  
HETATM   27  C   UNL     1      -8.613  14.431  68.080  1.00  0.00    -0.166 A  
HETATM   28  C   UNL     1      -8.232  13.298  67.396  1.00  0.00    -0.185 A  
ENDBRANCH   3  16
ENDBRANCH   2   3
TORSDOF 2
ENDMDL
MODEL      117
REMARK 921   NORMALIZED FREE ENERGY PREDICTED BY IDOCK:   -3.34 KCAL/MOL
REMARK 922        TOTAL FREE ENERGY PREDICTED BY IDOCK:   -4.22 KCAL/MOL
REMARK 923 INTER-LIGAND FREE ENERGY PREDICTED BY IDOCK:   -3.73 KCAL/MOL
REMARK 924 INTRA-LIGAND FREE ENERGY PREDICTED BY IDOCK:   -0.48 KCAL/MOL
REMARK 927      BINDING AFFINITY PREDICTED BY RF-SCORE:    0.00 PKD
ROOT
HETATM    1  C   UNL     1      -6.087   9.810  65.166  1.00  0.00    -0.086 C  
HETATM    2  O   UNL     1      -7.396   9.287  65.326  1.00  0.00    -0.091 OA 
ENDROOT
BRANCH   2   3
HETATM    3  C   UNL     1      -7.541   8.098  66.152  1.00  0.00    -0.089 C  
HETATM    4  C   UNL     1      -7.152   6.718  65.482  1.00  0.00    -0.068 C  
HETATM    5  O   UNL     1     -10.108   7.739  66.478  1.00  0.00    -0.233 OA 
HETATM    6  S   UNL     1      -6.520   5.338  66.502  1.00  0.00    -0.045 SA 
HETATM    7  C   UNL     1      -9.017   7.506  66.001  1.00  0.00    -0.127 C  
HETATM    8  O   UNL     1      -8.749   4.777  63.272  1.00  0.00    -0.128 OA 
HETATM    9  O   UNL     1      -9.467   2.990  64.439  1.00  0.00    -0.136 OA 
HETATM   10  C   UNL     1      -9.111   4.162  64.426  1.00  0.00    -0.147 C  
HETATM   11  C   UNL     1      -8.169   4.584  66.819  1.00  0.00    -0.102 C  
HETATM   12  C   UNL     1      -7.999   3.067  66.952  1.00  0.00    -0.079 C  
HETATM   13  C   UNL     1      -8.648   5.112  68.186  1.00  0.00    -0.102 C  
HETATM   14  N   UNL     1      -8.593   6.421  65.281  1.00  0.00    -0.096 N  
HETATM   15  C   UNL     1      -9.072   5.074  65.662  1.00  0.00    -0.156 C  
BRANCH   3  16
HETATM   16  N   UNL     1      -7.240   8.353  67.597  1.00  0.00    -0.087 N  
HETATM   17  C   UNL     1      -8.604   9.054  70.656  1.00  0.00    -0.245 A  
HETATM   18  O   UNL     1      -8.426  10.302  67.845  1.00  0.00    -0.117 OA 
HETATM   19  C   UNL     1      -9.824   9.711  70.617  1.00  0.00    -0.200 A  
HETATM   20  O   UNL     1      -5.999  10.714  71.284  1.00  0.00    -0.337 OA 
HETATM   21  O   UNL     1      -7.019  11.803  69.605  1.00  0.00    -0.043 OA 
HETATM   22  C   UNL     1      -7.386   9.395  69.819  1.00  0.00    -0.083 C  
HETATM   23  H   UNL     1      -6.617   7.699  68.072  1.00  0.00     0.000 HD 
HETATM   24  C   UNL     1      -7.739   9.403  68.334  1.00  0.00    -0.086 C  
HETATM   25  S   UNL     1     -10.985   9.034  71.672  1.00  0.00    -0.377 SA 
HETATM   26  C   UNL     1      -6.734  10.679  70.302  1.00  0.00    -0.094 C  
HETATM   27  C   UNL     1      -9.871   7.872  72.238  1.00  0.00    -0.215 A  
HETATM   28  C   UNL     1      -8.642   7.995  71.627  1.00  0.00    -0.162 A  
ENDBRANCH   3  16
ENDBRANCH   2   3
TORSDOF 2
ENDMDL
MODEL      118
REMARK 921   NORMALIZED FREE ENERGY PREDICTED BY IDOCK:   -3.32 KCAL/MOL
REMARK 922        TOTAL FREE ENERGY PREDICTED BY IDOCK:   -4.19 KCAL/MOL
REMARK 923 INTER-LIGAND FREE ENERGY PREDICTED BY IDOCK:   -4.16 KCAL/MOL
REMARK 924 INTRA-LIGAND FREE ENERGY PREDICTED BY IDOCK:   -0.03 KCAL/MOL
REMARK 927      BINDING AFFINITY PREDICTED BY RF-SCORE:    0.00 PKD
ROOT
HETATM    1  C   UNL     1      -6.193  14.307  67.982  1.00  0.00    -0.152 C  
HETATM    2  O   UNL     1      -7.203  14.336  66.986  1.00  0.00    -0.032 OA 
ENDROOT
BRANCH   2   3
HETATM    3  C   UNL     1      -8.291  15.285  67.170  1.00  0.00    -0.216 C  
HETATM    4  C   UNL     1      -8.222  16.616  66.318  1.00  0.00    -0.330 C  
HETATM    5  O   UNL     1      -8.007  16.269  69.574  1.00  0.00    -0.156 OA 
HETATM    6  S   UNL     1      -9.756  17.476  65.816  1.00  0.00     0.215 SA 
HETATM    7  C   UNL     1      -7.942  16.289  68.363  1.00  0.00    -0.173 C  
HETATM    8  O   UNL     1      -6.393  19.397  66.659  1.00  0.00    -0.185 OA 
HETATM    9  O   UNL     1      -7.824  20.984  67.370  1.00  0.00    -0.282 OA 
HETATM   10  C   UNL     1      -7.538  19.798  67.266  1.00  0.00    -0.255 C  
HETATM   11  C   UNL     1      -9.837  18.569  67.295  1.00  0.00    -0.313 C  
HETATM   12  C   UNL     1     -10.482  19.899  66.890  1.00  0.00    -0.577 C  
HETATM   13  C   UNL     1     -10.784  17.889  68.303  1.00  0.00    -0.233 C  
HETATM   14  N   UNL     1      -7.744  17.349  67.517  1.00  0.00    -0.190 N  
HETATM   15  C   UNL     1      -8.386  18.645  67.828  1.00  0.00    -0.267 C  
BRANCH   3  16
HETATM   16  N   UNL     1      -9.606  14.619  67.435  1.00  0.00    -0.212 N  
HETATM   17  C   UNL     1     -11.998  13.991  69.801  1.00  0.00    -0.393 A  
HETATM   18  O   UNL     1      -9.009  13.433  69.306  1.00  0.00     0.487 OA 
HETATM   19  C   UNL     1     -11.542  13.995  71.109  1.00  0.00     0.303 A  
HETATM   20  O   UNL     1     -12.493  11.227  68.368  1.00  0.00    -0.403 OA 
HETATM   21  O   UNL     1     -10.406  11.117  69.189  1.00  0.00    -0.211 OA 
HETATM   22  C   UNL     1     -11.317  13.315  68.626  1.00  0.00    -0.324 C  
HETATM   23  H   UNL     1     -10.365  14.795  66.776  1.00  0.00     0.000 HD 
HETATM   24  C   UNL     1      -9.870  13.787  68.499  1.00  0.00    -0.204 C  
HETATM   25  S   UNL     1     -12.545  14.890  72.166  1.00  0.00    -0.344 SA 
HETATM   26  C   UNL     1     -11.464  11.805  68.705  1.00  0.00    -0.288 C  
HETATM   27  C   UNL     1     -13.636  15.256  70.906  1.00  0.00    -0.340 A  
HETATM   28  C   UNL     1     -13.236  14.715  69.704  1.00  0.00     0.911 A  
ENDBRANCH   3  16
ENDBRANCH   2   3
TORSDOF 2
ENDMDL
MODEL      119
REMARK 921   NORMALIZED FREE ENERGY PREDICTED BY IDOCK:   -3.32 KCAL/MOL
REMARK 922        TOTAL FREE ENERGY PREDICTED BY IDOCK:   -4.19 KCAL/MOL
REMARK 923 INTER-LIGAND FREE ENERGY PREDICTED BY IDOCK:   -3.95 KCAL/MOL
REMARK 924 INTRA-LIGAND FREE ENERGY PREDICTED BY IDOCK:   -0.24 KCAL/MOL
REMARK 927      BINDING AFFINITY PREDICTED BY RF-SCORE:    0.00 PKD
ROOT
HETATM    1  C   UNL     1     -10.070   4.832  66.236  1.00  0.00    -0.264 C  
HETATM    2  O   UNL     1      -8.882   5.073  66.973  1.00  0.00    -0.108 OA 
ENDROOT
BRANCH   2   3
HETATM    3  C   UNL     1      -8.970   5.999  68.092  1.00  0.00    -0.112 C  
HETATM    4  C   UNL     1      -8.383   5.498  69.474  1.00  0.00    -0.102 C  
HETATM    5  O   UNL     1     -11.503   6.167  68.707  1.00  0.00    -0.259 OA 
HETATM    6  S   UNL     1      -7.698   6.691  70.677  1.00  0.00    -0.106 SA 
HETATM    7  C   UNL     1     -10.358   5.797  68.857  1.00  0.00    -0.227 C  
HETATM    8  O   UNL     1      -9.575   3.375  71.770  1.00  0.00    -0.133 OA 
HETATM    9  O   UNL     1     -10.198   4.654  73.516  1.00  0.00    -0.153 OA 
HETATM   10  C   UNL     1      -9.967   4.553  72.318  1.00  0.00    -0.179 C  
HETATM   11  C   UNL     1      -9.280   6.957  71.581  1.00  0.00    -0.146 C  
HETATM   12  C   UNL     1      -8.963   7.250  73.052  1.00  0.00    -0.174 C  
HETATM   13  C   UNL     1      -9.925   8.226  70.991  1.00  0.00    -0.226 C  
HETATM   14  N   UNL     1      -9.763   5.220  69.948  1.00  0.00    -0.176 N  
HETATM   15  C   UNL     1     -10.129   5.694  71.300  1.00  0.00    -0.206 C  
BRANCH   3  16
HETATM   16  N   UNL     1      -8.821   7.430  67.677  1.00  0.00    -0.128 N  
HETATM   17  C   UNL     1      -8.630   9.564  65.008  1.00  0.00    -0.187 A  
HETATM   18  O   UNL     1      -7.094   7.169  66.190  1.00  0.00    -0.070 OA 
HETATM   19  C   UNL     1      -8.151   8.996  63.838  1.00  0.00    -0.159 A  
HETATM   20  O   UNL     1      -6.691  11.342  66.745  1.00  0.00    -0.133 OA 
HETATM   21  O   UNL     1      -5.594   9.414  66.398  1.00  0.00    -0.050 OA 
HETATM   22  C   UNL     1      -8.039   9.375  66.392  1.00  0.00    -0.108 C  
HETATM   23  H   UNL     1      -9.425   8.117  68.129  1.00  0.00     0.000 HD 
HETATM   24  C   UNL     1      -7.931   7.891  66.733  1.00  0.00    -0.107 C  
HETATM   25  S   UNL     1      -9.088   9.396  62.466  1.00  0.00    -0.026 SA 
HETATM   26  C   UNL     1      -6.730  10.134  66.535  1.00  0.00    -0.085 C  
HETATM   27  C   UNL     1     -10.132  10.372  63.397  1.00  0.00     0.060 A  
HETATM   28  C   UNL     1      -9.777  10.384  64.728  1.00  0.00    -0.383 A  
ENDBRANCH   3  16
ENDBRANCH   2   3
TORSDOF 2
ENDMDL
MODEL      120
REMARK 921   NORMALIZED FREE ENERGY PREDICTED BY IDOCK:   -3.30 KCAL/MOL
REMARK 922        TOTAL FREE ENERGY PREDICTED BY IDOCK:   -4.17 KCAL/MOL
REMARK 923 INTER-LIGAND FREE ENERGY PREDICTED BY IDOCK:   -4.33 KCAL/MOL
REMARK 924 INTRA-LIGAND FREE ENERGY PREDICTED BY IDOCK:    0.16 KCAL/MOL
REMARK 927      BINDING AFFINITY PREDICTED BY RF-SCORE:    0.00 PKD
ROOT
HETATM    1  C   UNL     1     -10.008  15.711  65.504  1.00  0.00    -0.329 C  
HETATM    2  O   UNL     1      -9.065  14.715  65.867  1.00  0.00    -0.121 OA 
ENDROOT
BRANCH   2   3
HETATM    3  C   UNL     1      -9.544  13.616  66.692  1.00  0.00    -0.283 C  
HETATM    4  C   UNL     1     -11.022  13.735  67.244  1.00  0.00    -0.292 C  
HETATM    5  O   UNL     1      -8.209  13.749  68.934  1.00  0.00    -0.053 OA 
HETATM    6  S   UNL     1     -12.014  12.234  67.568  1.00  0.00     0.017 SA 
HETATM    7  C   UNL     1      -9.182  13.889  68.225  1.00  0.00    -0.207 C  
HETATM    8  O   UNL     1     -12.339  15.536  69.738  1.00  0.00    -0.334 OA 
HETATM    9  O   UNL     1     -12.798  14.061  71.376  1.00  0.00    -0.325 OA 
HETATM   10  C   UNL     1     -12.152  14.354  70.379  1.00  0.00    -0.331 C  
HETATM   11  C   UNL     1     -11.499  12.060  69.327  1.00  0.00    -0.301 C  
HETATM   12  C   UNL     1     -12.654  11.439  70.119  1.00  0.00    -0.174 C  
HETATM   13  C   UNL     1     -10.332  11.054  69.355  1.00  0.00    -0.134 C  
HETATM   14  N   UNL     1     -10.485  14.137  68.568  1.00  0.00    -0.246 N  
HETATM   15  C   UNL     1     -11.050  13.475  69.764  1.00  0.00     0.099 C  
BRANCH   3  16
HETATM   16  N   UNL     1      -8.994  12.288  66.269  1.00  0.00    -0.393 N  
HETATM   17  C   UNL     1      -7.212   9.547  67.280  1.00  0.00    -0.087 A  
HETATM   18  O   UNL     1      -6.828  12.587  66.961  1.00  0.00    -0.097 OA 
HETATM   19  C   UNL     1      -6.321   9.778  68.317  1.00  0.00    -0.055 A  
HETATM   20  O   UNL     1      -6.106   9.351  64.335  1.00  0.00    -0.074 OA 
HETATM   21  O   UNL     1      -5.290  11.274  65.160  1.00  0.00    -0.196 OA 
HETATM   22  C   UNL     1      -7.400  10.428  66.060  1.00  0.00    -0.134 C  
HETATM   23  H   UNL     1      -9.628  11.647  65.791  1.00  0.00     0.000 HD 
HETATM   24  C   UNL     1      -7.701  11.866  66.476  1.00  0.00     0.107 C  
HETATM   25  S   UNL     1      -6.405   8.596  69.549  1.00  0.00    -0.040 SA 
HETATM   26  C   UNL     1      -6.225  10.298  65.107  1.00  0.00    -0.127 C  
HETATM   27  C   UNL     1      -7.604   7.724  68.704  1.00  0.00    -0.105 A  
HETATM   28  C   UNL     1      -7.939   8.329  67.513  1.00  0.00    -0.110 A  
ENDBRANCH   3  16
ENDBRANCH   2   3
TORSDOF 2
ENDMDL
MODEL      121
REMARK 921   NORMALIZED FREE ENERGY PREDICTED BY IDOCK:   -3.27 KCAL/MOL
REMARK 922        TOTAL FREE ENERGY PREDICTED BY IDOCK:   -4.14 KCAL/MOL
REMARK 923 INTER-LIGAND FREE ENERGY PREDICTED BY IDOCK:   -4.16 KCAL/MOL
REMARK 924 INTRA-LIGAND FREE ENERGY PREDICTED BY IDOCK:    0.03 KCAL/MOL
REMARK 927      BINDING AFFINITY PREDICTED BY RF-SCORE:    0.00 PKD
ROOT
HETATM    1  C   UNL     1      -9.542  11.811  68.751  1.00  0.00    -0.042 C  
HETATM    2  O   UNL     1      -9.608  10.519  69.333  1.00  0.00    -0.207 OA 
ENDROOT
BRANCH   2   3
HETATM    3  C   UNL     1      -8.834   9.463  68.697  1.00  0.00    -0.132 C  
HETATM    4  C   UNL     1      -8.004   9.869  67.413  1.00  0.00    -0.106 C  
HETATM    5  O   UNL     1     -10.567   7.830  67.624  1.00  0.00    -0.239 OA 
HETATM    6  S   UNL     1      -6.457   8.990  66.993  1.00  0.00    -0.061 SA 
HETATM    7  C   UNL     1      -9.732   8.709  67.612  1.00  0.00    -0.159 C  
HETATM    8  O   UNL     1      -8.922  10.431  64.244  1.00  0.00    -0.194 OA 
HETATM    9  O   UNL     1      -8.178   8.658  63.071  1.00  0.00    -0.177 OA 
HETATM   10  C   UNL     1      -8.522   9.138  64.144  1.00  0.00    -0.185 C  
HETATM   11  C   UNL     1      -7.259   7.720  65.929  1.00  0.00    -0.072 C  
HETATM   12  C   UNL     1      -6.279   7.315  64.822  1.00  0.00    -0.037 C  
HETATM   13  C   UNL     1      -7.491   6.478  66.811  1.00  0.00    -0.079 C  
HETATM   14  N   UNL     1      -9.045   9.247  66.556  1.00  0.00    -0.147 N  
HETATM   15  C   UNL     1      -8.591   8.356  65.466  1.00  0.00    -0.176 C  
BRANCH   3  16
HETATM   16  N   UNL     1      -8.283   8.474  69.678  1.00  0.00    -0.113 N  
HETATM   17  C   UNL     1      -9.076   6.264  72.167  1.00  0.00    -0.141 A  
HETATM   18  O   UNL     1      -9.301   9.278  71.570  1.00  0.00    -0.287 OA 
HETATM   19  C   UNL     1     -10.247   6.549  72.852  1.00  0.00    -0.193 A  
HETATM   20  O   UNL     1      -6.315   6.989  73.503  1.00  0.00    -0.065 OA 
HETATM   21  O   UNL     1      -7.539   8.870  73.586  1.00  0.00    -0.388 OA 
HETATM   22  C   UNL     1      -7.998   7.265  71.799  1.00  0.00    -0.095 C  
HETATM   23  H   UNL     1      -7.627   7.776  69.325  1.00  0.00     0.000 HD 
HETATM   24  C   UNL     1      -8.593   8.434  71.018  1.00  0.00    -0.155 C  
HETATM   25  S   UNL     1     -11.252   5.182  73.060  1.00  0.00    -0.302 SA 
HETATM   26  C   UNL     1      -7.204   7.687  73.024  1.00  0.00    -0.078 C  
HETATM   27  C   UNL     1     -10.125   4.168  72.277  1.00  0.00    -0.178 A  
HETATM   28  C   UNL     1      -9.011   4.862  71.858  1.00  0.00    -0.152 A  
ENDBRANCH   3  16
ENDBRANCH   2   3
TORSDOF 2
ENDMDL
MODEL      122
REMARK 921   NORMALIZED FREE ENERGY PREDICTED BY IDOCK:   -3.26 KCAL/MOL
REMARK 922        TOTAL FREE ENERGY PREDICTED BY IDOCK:   -4.12 KCAL/MOL
REMARK 923 INTER-LIGAND FREE ENERGY PREDICTED BY IDOCK:   -3.63 KCAL/MOL
REMARK 924 INTRA-LIGAND FREE ENERGY PREDICTED BY IDOCK:   -0.50 KCAL/MOL
REMARK 927      BINDING AFFINITY PREDICTED BY RF-SCORE:    0.00 PKD
ROOT
HETATM    1  C   UNL     1      -6.942   8.876  66.641  1.00  0.00    -0.080 C  
HETATM    2  O   UNL     1      -7.977   8.437  67.507  1.00  0.00    -0.104 OA 
ENDROOT
BRANCH   2   3
HETATM    3  C   UNL     1      -8.040   7.013  67.799  1.00  0.00    -0.114 C  
HETATM    4  C   UNL     1      -7.515   6.034  66.671  1.00  0.00    -0.090 C  
HETATM    5  O   UNL     1     -10.573   6.378  67.810  1.00  0.00    -0.200 OA 
HETATM    6  S   UNL     1      -6.793   4.414  67.113  1.00  0.00    -0.053 SA 
HETATM    7  C   UNL     1      -9.455   6.426  67.345  1.00  0.00    -0.116 C  
HETATM    8  O   UNL     1      -8.878   5.005  63.794  1.00  0.00    -0.124 OA 
HETATM    9  O   UNL     1      -9.469   2.859  64.134  1.00  0.00    -0.123 OA 
HETATM   10  C   UNL     1      -9.216   3.964  64.596  1.00  0.00    -0.148 C  
HETATM   11  C   UNL     1      -8.378   3.483  67.017  1.00  0.00    -0.096 C  
HETATM   12  C   UNL     1      -8.081   2.050  66.562  1.00  0.00    -0.080 C  
HETATM   13  C   UNL     1      -8.937   3.401  68.451  1.00  0.00    -0.185 C  
HETATM   14  N   UNL     1      -8.918   5.740  66.288  1.00  0.00    -0.142 N  
HETATM   15  C   UNL     1      -9.290   4.322  66.089  1.00  0.00    -0.164 C  
BRANCH   3  16
HETATM   16  N   UNL     1      -7.801   6.704  69.245  1.00  0.00    -0.108 N  
HETATM   17  C   UNL     1      -9.295   5.911  72.220  1.00  0.00    -0.152 A  
HETATM   18  O   UNL     1      -9.287   8.197  70.154  1.00  0.00    -0.158 OA 
HETATM   19  C   UNL     1     -10.604   6.347  72.352  1.00  0.00    -0.213 A  
HETATM   20  O   UNL     1      -6.997   7.530  73.648  1.00  0.00    -0.081 OA 
HETATM   21  O   UNL     1      -8.160   9.045  72.466  1.00  0.00    -0.331 OA 
HETATM   22  C   UNL     1      -8.138   6.729  71.680  1.00  0.00    -0.106 C  
HETATM   23  H   UNL     1      -7.087   6.010  69.467  1.00  0.00     0.000 HD 
HETATM   24  C   UNL     1      -8.471   7.285  70.298  1.00  0.00    -0.137 C  
HETATM   25  S   UNL     1     -11.653   5.143  72.962  1.00  0.00    -0.105 SA 
HETATM   26  C   UNL     1      -7.706   7.789  72.679  1.00  0.00    -0.105 C  
HETATM   27  C   UNL     1     -10.373   4.024  73.104  1.00  0.00    -0.167 A  
HETATM   28  C   UNL     1      -9.174   4.556  72.685  1.00  0.00    -0.145 A  
ENDBRANCH   3  16
ENDBRANCH   2   3
TORSDOF 2
ENDMDL
MODEL      123
REMARK 921   NORMALIZED FREE ENERGY PREDICTED BY IDOCK:   -3.25 KCAL/MOL
REMARK 922        TOTAL FREE ENERGY PREDICTED BY IDOCK:   -4.11 KCAL/MOL
REMARK 923 INTER-LIGAND FREE ENERGY PREDICTED BY IDOCK:   -4.70 KCAL/MOL
REMARK 924 INTRA-LIGAND FREE ENERGY PREDICTED BY IDOCK:    0.59 KCAL/MOL
REMARK 927      BINDING AFFINITY PREDICTED BY RF-SCORE:    0.00 PKD
ROOT
HETATM    1  C   UNL     1      -9.382  14.073  66.847  1.00  0.00    -0.257 C  
HETATM    2  O   UNL     1     -10.105  12.863  67.009  1.00  0.00    -0.239 OA 
ENDROOT
BRANCH   2   3
HETATM    3  C   UNL     1      -9.393  11.737  67.593  1.00  0.00    -0.180 C  
HETATM    4  C   UNL     1      -7.860  11.600  67.226  1.00  0.00    -0.157 C  
HETATM    5  O   UNL     1     -10.333   9.594  66.432  1.00  0.00    -0.237 OA 
HETATM    6  S   UNL     1      -6.692  10.824  68.399  1.00  0.00    -0.061 SA 
HETATM    7  C   UNL     1      -9.512  10.462  66.637  1.00  0.00    -0.165 C  
HETATM    8  O   UNL     1      -6.310  10.515  64.466  1.00  0.00    -0.093 OA 
HETATM    9  O   UNL     1      -5.444   8.508  65.004  1.00  0.00    -0.042 OA 
HETATM   10  C   UNL     1      -6.274   9.383  65.212  1.00  0.00    -0.066 C  
HETATM   11  C   UNL     1      -6.881   9.118  67.733  1.00  0.00    -0.076 C  
HETATM   12  C   UNL     1      -5.555   8.371  67.909  1.00  0.00    -0.035 C  
HETATM   13  C   UNL     1      -7.928   8.407  68.613  1.00  0.00    -0.121 C  
HETATM   14  N   UNL     1      -8.198  10.530  66.254  1.00  0.00    -0.141 N  
HETATM   15  C   UNL     1      -7.378   9.300  66.279  1.00  0.00    -0.092 C  
BRANCH   3  16
HETATM   16  N   UNL     1      -9.881  11.389  68.966  1.00  0.00    -0.402 N  
HETATM   17  C   UNL     1     -10.873   8.838  71.021  1.00  0.00    -0.321 A  
HETATM   18  O   UNL     1     -11.717  10.153  68.365  1.00  0.00    -0.147 OA 
HETATM   19  C   UNL     1     -11.393   7.731  70.369  1.00  0.00    -0.207 A  
HETATM   20  O   UNL     1     -12.854  10.883  72.374  1.00  0.00    -0.072 OA 
HETATM   21  O   UNL     1     -13.586  10.637  70.265  1.00  0.00     0.233 OA 
HETATM   22  C   UNL     1     -11.209  10.286  70.716  1.00  0.00    -0.373 C  
HETATM   23  H   UNL     1      -9.365  11.771  69.760  1.00  0.00     0.000 HD 
HETATM   24  C   UNL     1     -10.970  10.594  69.240  1.00  0.00    -0.245 C  
HETATM   25  S   UNL     1     -10.762   6.253  70.950  1.00  0.00    -0.274 SA 
HETATM   26  C   UNL     1     -12.607  10.634  71.198  1.00  0.00    -0.423 C  
HETATM   27  C   UNL     1      -9.809   7.056  72.115  1.00  0.00    -0.154 A  
HETATM   28  C   UNL     1      -9.964   8.424  72.054  1.00  0.00    -0.354 A  
ENDBRANCH   3  16
ENDBRANCH   2   3
TORSDOF 2
ENDMDL
MODEL      124
REMARK 921   NORMALIZED FREE ENERGY PREDICTED BY IDOCK:   -3.12 KCAL/MOL
REMARK 922        TOTAL FREE ENERGY PREDICTED BY IDOCK:   -3.96 KCAL/MOL
REMARK 923 INTER-LIGAND FREE ENERGY PREDICTED BY IDOCK:   -4.18 KCAL/MOL
REMARK 924 INTRA-LIGAND FREE ENERGY PREDICTED BY IDOCK:    0.22 KCAL/MOL
REMARK 927      BINDING AFFINITY PREDICTED BY RF-SCORE:    0.00 PKD
ROOT
HETATM    1  C   UNL     1     -10.462   5.493  66.413  1.00  0.00    -0.236 C  
HETATM    2  O   UNL     1     -11.038   6.432  67.307  1.00  0.00    -0.368 OA 
ENDROOT
BRANCH   2   3
HETATM    3  C   UNL     1     -10.435   6.550  68.627  1.00  0.00    -0.218 C  
HETATM    4  C   UNL     1     -11.375   6.258  69.865  1.00  0.00    -0.434 C  
HETATM    5  O   UNL     1      -9.972   9.095  68.995  1.00  0.00    -0.173 OA 
HETATM    6  S   UNL     1     -10.681   5.593  71.420  1.00  0.00    -0.219 SA 
HETATM    7  C   UNL     1     -10.570   8.052  69.155  1.00  0.00    -0.169 C  
HETATM    8  O   UNL     1     -13.766   8.081  71.334  1.00  0.00    -0.308 OA 
HETATM    9  O   UNL     1     -12.892   8.763  73.294  1.00  0.00     0.034 OA 
HETATM   10  C   UNL     1     -12.719   8.373  72.147  1.00  0.00    -0.356 C  
HETATM   11  C   UNL     1     -10.374   7.237  72.192  1.00  0.00    -0.193 C  
HETATM   12  C   UNL     1     -10.536   7.105  73.710  1.00  0.00    -0.371 C  
HETATM   13  C   UNL     1      -8.900   7.592  71.918  1.00  0.00    -0.134 C  
HETATM   14  N   UNL     1     -11.509   7.719  70.095  1.00  0.00    -0.121 N  
HETATM   15  C   UNL     1     -11.344   8.210  71.480  1.00  0.00    -0.263 C  
BRANCH   3  16
HETATM   16  N   UNL     1      -8.996   6.131  68.648  1.00  0.00    -0.126 N  
HETATM   17  C   UNL     1      -6.695   3.960  67.345  1.00  0.00    -0.047 A  
HETATM   18  O   UNL     1      -9.308   3.882  68.975  1.00  0.00    -0.144 OA 
HETATM   19  C   UNL     1      -7.216   2.758  66.891  1.00  0.00    -0.061 A  
HETATM   20  O   UNL     1      -5.246   4.032  70.144  1.00  0.00    -0.003 OA 
HETATM   21  O   UNL     1      -7.239   3.067  70.520  1.00  0.00    -0.033 OA 
HETATM   22  C   UNL     1      -7.044   4.638  68.656  1.00  0.00    -0.053 C  
HETATM   23  H   UNL     1      -8.291   6.864  68.562  1.00  0.00     0.000 HD 
HETATM   24  C   UNL     1      -8.553   4.835  68.775  1.00  0.00    -0.088 C  
HETATM   25  S   UNL     1      -6.626   2.311  65.350  1.00  0.00    -0.031 SA 
HETATM   26  C   UNL     1      -6.426   3.902  69.833  1.00  0.00    -0.032 C  
HETATM   27  C   UNL     1      -5.627   3.692  65.274  1.00  0.00    -0.014 A  
HETATM   28  C   UNL     1      -5.750   4.481  66.396  1.00  0.00    -0.022 A  
ENDBRANCH   3  16
ENDBRANCH   2   3
TORSDOF 2
ENDMDL
MODEL      125
REMARK 921   NORMALIZED FREE ENERGY PREDICTED BY IDOCK:   -3.03 KCAL/MOL
REMARK 922        TOTAL FREE ENERGY PREDICTED BY IDOCK:   -3.87 KCAL/MOL
REMARK 923 INTER-LIGAND FREE ENERGY PREDICTED BY IDOCK:   -3.35 KCAL/MOL
REMARK 924 INTRA-LIGAND FREE ENERGY PREDICTED BY IDOCK:   -0.51 KCAL/MOL
REMARK 927      BINDING AFFINITY PREDICTED BY RF-SCORE:    0.00 PKD
ROOT
HETATM    1  C   UNL     1      -7.858   8.310  64.500  1.00  0.00    -0.130 C  
HETATM    2  O   UNL     1      -7.398   9.183  65.519  1.00  0.00    -0.087 OA 
ENDROOT
BRANCH   2   3
HETATM    3  C   UNL     1      -8.226   9.310  66.710  1.00  0.00    -0.115 C  
HETATM    4  C   UNL     1      -9.564  10.140  66.557  1.00  0.00    -0.187 C  
HETATM    5  O   UNL     1      -6.913  10.858  68.354  1.00  0.00    -0.066 OA 
HETATM    6  S   UNL     1     -11.017   9.754  67.597  1.00  0.00    -0.045 SA 
HETATM    7  C   UNL     1      -7.780  10.595  67.548  1.00  0.00    -0.101 C  
HETATM    8  O   UNL     1     -10.146  13.432  66.400  1.00  0.00    -0.278 OA 
HETATM    9  O   UNL     1     -11.082  13.979  68.374  1.00  0.00    -0.236 OA 
HETATM   10  C   UNL     1     -10.382  13.217  67.719  1.00  0.00    -0.233 C  
HETATM   11  C   UNL     1     -10.583  10.927  68.948  1.00  0.00    -0.210 C  
HETATM   12  C   UNL     1     -11.878  11.451  69.579  1.00  0.00    -0.426 C  
HETATM   13  C   UNL     1      -9.844  10.113  70.027  1.00  0.00    -0.179 C  
HETATM   14  N   UNL     1      -8.910  11.296  67.221  1.00  0.00    -0.148 N  
HETATM   15  C   UNL     1      -9.663  11.985  68.292  1.00  0.00    -0.205 C  
BRANCH   3  16
HETATM   16  N   UNL     1      -8.181   8.092  67.581  1.00  0.00    -0.126 N  
HETATM   17  C   UNL     1      -6.728   6.678  70.338  1.00  0.00    -0.057 A  
HETATM   18  O   UNL     1      -5.911   7.757  67.570  1.00  0.00    -0.042 OA 
HETATM   19  C   UNL     1      -5.460   7.149  70.638  1.00  0.00    -0.024 A  
HETATM   20  O   UNL     1      -7.015   3.892  68.889  1.00  0.00    -0.046 OA 
HETATM   21  O   UNL     1      -5.562   5.073  67.648  1.00  0.00    -0.012 OA 
HETATM   22  C   UNL     1      -7.227   6.293  68.958  1.00  0.00    -0.083 C  
HETATM   23  H   UNL     1      -9.071   7.714  67.909  1.00  0.00     0.000 HD 
HETATM   24  C   UNL     1      -7.032   7.444  67.975  1.00  0.00    -0.075 C  
HETATM   25  S   UNL     1      -5.257   7.520  72.295  1.00  0.00    -0.036 SA 
HETATM   26  C   UNL     1      -6.609   4.983  68.500  1.00  0.00    -0.049 C  
HETATM   27  C   UNL     1      -6.847   7.017  72.656  1.00  0.00    -0.068 A  
HETATM   28  C   UNL     1      -7.519   6.586  71.535  1.00  0.00    -0.089 A  
ENDBRANCH   3  16
ENDBRANCH   2   3
TORSDOF 2
ENDMDL
MODEL      126
REMARK 921   NORMALIZED FREE ENERGY PREDICTED BY IDOCK:   -3.03 KCAL/MOL
REMARK 922        TOTAL FREE ENERGY PREDICTED BY IDOCK:   -3.86 KCAL/MOL
REMARK 923 INTER-LIGAND FREE ENERGY PREDICTED BY IDOCK:   -3.57 KCAL/MOL
REMARK 924 INTRA-LIGAND FREE ENERGY PREDICTED BY IDOCK:   -0.29 KCAL/MOL
REMARK 927      BINDING AFFINITY PREDICTED BY RF-SCORE:    0.00 PKD
ROOT
HETATM    1  C   UNL     1      -6.319   9.664  64.183  1.00  0.00    -0.109 C  
HETATM    2  O   UNL     1      -7.359  10.430  64.770  1.00  0.00    -0.124 OA 
ENDROOT
BRANCH   2   3
HETATM    3  C   UNL     1      -8.061   9.843  65.901  1.00  0.00    -0.121 C  
HETATM    4  C   UNL     1      -7.167   9.334  67.103  1.00  0.00    -0.087 C  
HETATM    5  O   UNL     1      -9.031   7.567  65.060  1.00  0.00     0.200 OA 
HETATM    6  S   UNL     1      -7.822   9.333  68.810  1.00  0.00    -0.088 SA 
HETATM    7  C   UNL     1      -8.254   8.274  65.667  1.00  0.00    -0.134 C  
HETATM    8  O   UNL     1      -5.278   6.598  67.483  1.00  0.00    -0.007 OA 
HETATM    9  O   UNL     1      -6.397   5.282  68.928  1.00  0.00    -0.032 OA 
HETATM   10  C   UNL     1      -6.413   6.183  68.099  1.00  0.00    -0.049 C  
HETATM   11  C   UNL     1      -8.492   7.619  68.740  1.00  0.00    -0.129 C  
HETATM   12  C   UNL     1      -8.410   7.001  70.139  1.00  0.00    -0.138 C  
HETATM   13  C   UNL     1      -9.986   7.737  68.378  1.00  0.00    -0.195 C  
HETATM   14  N   UNL     1      -7.334   7.939  66.625  1.00  0.00    -0.087 N  
HETATM   15  C   UNL     1      -7.684   6.909  67.627  1.00  0.00    -0.111 C  
BRANCH   3  16
HETATM   16  N   UNL     1      -9.389  10.485  66.160  1.00  0.00    -0.170 N  
HETATM   17  C   UNL     1     -11.224  13.353  65.812  1.00  0.00    -0.305 A  
HETATM   18  O   UNL     1      -8.641  12.394  67.190  1.00  0.00    -0.177 OA 
HETATM   19  C   UNL     1     -10.479  14.520  65.746  1.00  0.00    -0.323 A  
HETATM   20  O   UNL     1     -12.650  12.605  68.522  1.00  0.00     0.307 OA 
HETATM   21  O   UNL     1     -10.506  13.003  69.057  1.00  0.00    -0.135 OA 
HETATM   22  C   UNL     1     -11.011  12.219  66.797  1.00  0.00    -0.321 C  
HETATM   23  H   UNL     1     -10.224   9.968  65.885  1.00  0.00     0.000 HD 
HETATM   24  C   UNL     1      -9.570  11.721  66.739  1.00  0.00    -0.200 C  
HETATM   25  S   UNL     1     -10.975  15.562  64.485  1.00  0.00    -0.043 SA 
HETATM   26  C   UNL     1     -11.468  12.614  68.191  1.00  0.00    -0.313 C  
HETATM   27  C   UNL     1     -12.225  14.496  64.024  1.00  0.00    -0.229 A  
HETATM   28  C   UNL     1     -12.256  13.366  64.811  1.00  0.00    -0.454 A  
ENDBRANCH   3  16
ENDBRANCH   2   3
TORSDOF 2
ENDMDL
MODEL      127
REMARK 921   NORMALIZED FREE ENERGY PREDICTED BY IDOCK:   -3.03 KCAL/MOL
REMARK 922        TOTAL FREE ENERGY PREDICTED BY IDOCK:   -3.86 KCAL/MOL
REMARK 923 INTER-LIGAND FREE ENERGY PREDICTED BY IDOCK:   -3.41 KCAL/MOL
REMARK 924 INTRA-LIGAND FREE ENERGY PREDICTED BY IDOCK:   -0.46 KCAL/MOL
REMARK 927      BINDING AFFINITY PREDICTED BY RF-SCORE:    0.00 PKD
ROOT
HETATM    1  C   UNL     1     -11.517  10.441  68.801  1.00  0.00    -0.175 C  
HETATM    2  O   UNL     1     -10.773   9.915  67.713  1.00  0.00    -0.248 OA 
ENDROOT
BRANCH   2   3
HETATM    3  C   UNL     1      -9.387  10.341  67.588  1.00  0.00    -0.144 C  
HETATM    4  C   UNL     1      -8.888  11.440  68.611  1.00  0.00    -0.125 C  
HETATM    5  O   UNL     1      -9.236  11.692  65.357  1.00  0.00    -0.178 OA 
HETATM    6  S   UNL     1      -7.134  11.500  69.124  1.00  0.00    -0.076 SA 
HETATM    7  C   UNL     1      -9.284  11.562  66.562  1.00  0.00    -0.194 C  
HETATM    8  O   UNL     1      -9.379  14.747  68.755  1.00  0.00    -0.194 OA 
HETATM    9  O   UNL     1      -7.414  15.679  68.169  1.00  0.00    -0.118 OA 
HETATM   10  C   UNL     1      -8.172  14.718  68.135  1.00  0.00    -0.142 C  
HETATM   11  C   UNL     1      -6.604  12.663  67.799  1.00  0.00    -0.130 C  
HETATM   12  C   UNL     1      -5.458  13.529  68.334  1.00  0.00    -0.095 C  
HETATM   13  C   UNL     1      -6.033  11.806  66.653  1.00  0.00    -0.040 C  
HETATM   14  N   UNL     1      -9.016  12.471  67.551  1.00  0.00    -0.176 N  
HETATM   15  C   UNL     1      -7.889  13.413  67.374  1.00  0.00    -0.146 C  
BRANCH   3  16
HETATM   16  N   UNL     1      -8.475   9.234  67.155  1.00  0.00    -0.123 N  
HETATM   17  C   UNL     1      -8.304   5.930  66.279  1.00  0.00    -0.117 A  
HETATM   18  O   UNL     1      -9.104   7.660  68.701  1.00  0.00    -0.136 OA 
HETATM   19  C   UNL     1      -9.300   5.131  66.817  1.00  0.00    -0.134 A  
HETATM   20  O   UNL     1      -5.435   5.875  67.584  1.00  0.00    -0.004 OA 
HETATM   21  O   UNL     1      -6.861   6.255  69.277  1.00  0.00    -0.057 OA 
HETATM   22  C   UNL     1      -7.506   6.978  67.032  1.00  0.00    -0.094 C  
HETATM   23  H   UNL     1      -7.831   9.428  66.387  1.00  0.00     0.000 HD 
HETATM   24  C   UNL     1      -8.438   7.977  67.713  1.00  0.00    -0.128 C  
HETATM   25  S   UNL     1     -10.014   4.085  65.668  1.00  0.00    -0.111 SA 
HETATM   26  C   UNL     1      -6.506   6.330  67.974  1.00  0.00    -0.052 C  
HETATM   27  C   UNL     1      -8.979   4.648  64.434  1.00  0.00    -0.142 A  
HETATM   28  C   UNL     1      -8.114   5.619  64.889  1.00  0.00    -0.127 A  
ENDBRANCH   3  16
ENDBRANCH   2   3
TORSDOF 2
ENDMDL
MODEL      128
REMARK 921   NORMALIZED FREE ENERGY PREDICTED BY IDOCK:   -3.02 KCAL/MOL
REMARK 922        TOTAL FREE ENERGY PREDICTED BY IDOCK:   -3.85 KCAL/MOL
REMARK 923 INTER-LIGAND FREE ENERGY PREDICTED BY IDOCK:   -3.43 KCAL/MOL
REMARK 924 INTRA-LIGAND FREE ENERGY PREDICTED BY IDOCK:   -0.42 KCAL/MOL
REMARK 927      BINDING AFFINITY PREDICTED BY RF-SCORE:    0.00 PKD
ROOT
HETATM    1  C   UNL     1     -10.062   7.478  70.539  1.00  0.00    -0.188 C  
HETATM    2  O   UNL     1      -8.847   7.078  69.925  1.00  0.00    -0.141 OA 
ENDROOT
BRANCH   2   3
HETATM    3  C   UNL     1      -8.907   6.686  68.525  1.00  0.00    -0.122 C  
HETATM    4  C   UNL     1      -9.325   5.190  68.225  1.00  0.00    -0.122 C  
HETATM    5  O   UNL     1      -6.440   6.650  67.667  1.00  0.00    -0.041 OA 
HETATM    6  S   UNL     1     -10.193   4.763  66.673  1.00  0.00    -0.207 SA 
HETATM    7  C   UNL     1      -7.479   6.153  68.047  1.00  0.00    -0.089 C  
HETATM    8  O   UNL     1      -7.638   2.309  68.450  1.00  0.00    -0.050 OA 
HETATM    9  O   UNL     1      -7.224   1.679  66.329  1.00  0.00    -0.049 OA 
HETATM   10  C   UNL     1      -7.474   2.570  67.129  1.00  0.00    -0.061 C  
HETATM   11  C   UNL     1      -8.666   4.404  65.710  1.00  0.00    -0.120 C  
HETATM   12  C   UNL     1      -8.979   3.314  64.679  1.00  0.00    -0.129 C  
HETATM   13  C   UNL     1      -8.317   5.685  64.929  1.00  0.00    -0.139 C  
HETATM   14  N   UNL     1      -7.901   4.852  67.976  1.00  0.00    -0.083 N  
HETATM   15  C   UNL     1      -7.588   4.060  66.766  1.00  0.00    -0.088 C  
BRANCH   3  16
HETATM   16  N   UNL     1      -9.361   7.797  67.628  1.00  0.00    -0.141 N  
HETATM   17  C   UNL     1      -8.368  10.086  65.286  1.00  0.00    -0.157 A  
HETATM   18  O   UNL     1      -7.802   9.369  68.229  1.00  0.00    -0.090 OA 
HETATM   19  C   UNL     1      -7.036  10.463  65.365  1.00  0.00    -0.117 A  
HETATM   20  O   UNL     1     -10.571  12.021  66.443  1.00  0.00    -0.230 OA 
HETATM   21  O   UNL     1      -9.072  11.757  68.094  1.00  0.00    -0.173 OA 
HETATM   22  C   UNL     1      -9.324   9.958  66.457  1.00  0.00    -0.206 C  
HETATM   23  H   UNL     1     -10.188   7.630  67.053  1.00  0.00     0.000 HD 
HETATM   24  C   UNL     1      -8.750   9.025  67.521  1.00  0.00    -0.119 C  
HETATM   25  S   UNL     1      -6.249  10.464  63.848  1.00  0.00    -0.003 SA 
HETATM   26  C   UNL     1      -9.721  11.324  66.989  1.00  0.00    -0.186 C  
HETATM   27  C   UNL     1      -7.681  10.001  63.045  1.00  0.00    -0.143 A  
HETATM   28  C   UNL     1      -8.734   9.840  63.918  1.00  0.00    -0.236 A  
ENDBRANCH   3  16
ENDBRANCH   2   3
TORSDOF 2
ENDMDL
MODEL      129
REMARK 921   NORMALIZED FREE ENERGY PREDICTED BY IDOCK:   -2.95 KCAL/MOL
REMARK 922        TOTAL FREE ENERGY PREDICTED BY IDOCK:   -3.78 KCAL/MOL
REMARK 923 INTER-LIGAND FREE ENERGY PREDICTED BY IDOCK:   -5.37 KCAL/MOL
REMARK 924 INTRA-LIGAND FREE ENERGY PREDICTED BY IDOCK:    1.60 KCAL/MOL
REMARK 927      BINDING AFFINITY PREDICTED BY RF-SCORE:    0.00 PKD
ROOT
HETATM    1  C   UNL     1     -10.153  14.225  64.752  1.00  0.00    -0.133 C  
HETATM    2  O   UNL     1      -9.540  14.060  66.021  1.00  0.00    -0.275 OA 
ENDROOT
BRANCH   2   3
HETATM    3  C   UNL     1     -10.198  14.679  67.163  1.00  0.00    -0.256 C  
HETATM    4  C   UNL     1     -10.010  13.964  68.561  1.00  0.00    -0.221 C  
HETATM    5  O   UNL     1     -12.762  14.325  66.810  1.00  0.00    -0.138 OA 
HETATM    6  S   UNL     1     -10.047  14.934  70.110  1.00  0.00     0.330 SA 
HETATM    7  C   UNL     1     -11.681  14.103  67.313  1.00  0.00    -0.392 C  
HETATM    8  O   UNL     1     -11.400  11.216  69.872  1.00  0.00    -0.273 OA 
HETATM    9  O   UNL     1     -12.834  11.951  71.445  1.00  0.00    -0.389 OA 
HETATM   10  C   UNL     1     -12.202  12.165  70.419  1.00  0.00    -0.294 C  
HETATM   11  C   UNL     1     -11.857  14.748  70.392  1.00  0.00    -0.295 C  
HETATM   12  C   UNL     1     -12.121  14.736  71.902  1.00  0.00    -0.409 C  
HETATM   13  C   UNL     1     -12.531  16.010  69.820  1.00  0.00     0.232 C  
HETATM   14  N   UNL     1     -11.372  13.384  68.437  1.00  0.00    -0.273 N  
HETATM   15  C   UNL     1     -12.263  13.473  69.614  1.00  0.00    -0.247 C  
BRANCH   3  16
HETATM   16  N   UNL     1     -10.239  16.173  67.071  1.00  0.00    -0.279 N  
HETATM   17  C   UNL     1      -8.347  19.024  66.985  1.00  0.00    -0.291 A  
HETATM   18  O   UNL     1      -8.904  16.654  68.874  1.00  0.00    -0.250 OA 
HETATM   19  C   UNL     1      -7.110  18.924  67.603  1.00  0.00    -0.215 A  
HETATM   20  O   UNL     1     -10.699  20.467  68.508  1.00  0.00    -0.092 OA 
HETATM   21  O   UNL     1      -9.901  18.934  69.943  1.00  0.00     0.319 OA 
HETATM   22  C   UNL     1      -9.662  18.515  67.546  1.00  0.00    -0.318 C  
HETATM   23  H   UNL     1     -10.816  16.585  66.337  1.00  0.00     0.000 HD 
HETATM   24  C   UNL     1      -9.558  17.034  67.901  1.00  0.00    -0.249 C  
HETATM   25  S   UNL     1      -5.837  19.572  66.664  1.00  0.00    -0.163 SA 
HETATM   26  C   UNL     1     -10.140  19.390  68.692  1.00  0.00    -0.428 C  
HETATM   27  C   UNL     1      -6.917  20.040  65.428  1.00  0.00    -0.302 A  
HETATM   28  C   UNL     1      -8.218  19.699  65.723  1.00  0.00    -0.074 A  
ENDBRANCH   3  16
ENDBRANCH   2   3
TORSDOF 2
ENDMDL
MODEL      130
REMARK 921   NORMALIZED FREE ENERGY PREDICTED BY IDOCK:   -2.94 KCAL/MOL
REMARK 922        TOTAL FREE ENERGY PREDICTED BY IDOCK:   -3.76 KCAL/MOL
REMARK 923 INTER-LIGAND FREE ENERGY PREDICTED BY IDOCK:   -3.96 KCAL/MOL
REMARK 924 INTRA-LIGAND FREE ENERGY PREDICTED BY IDOCK:    0.20 KCAL/MOL
REMARK 927      BINDING AFFINITY PREDICTED BY RF-SCORE:    0.00 PKD
ROOT
HETATM    1  C   UNL     1      -5.764  10.834  68.186  1.00  0.00    -0.043 C  
HETATM    2  O   UNL     1      -6.346  12.088  67.867  1.00  0.00    -0.060 OA 
ENDROOT
BRANCH   2   3
HETATM    3  C   UNL     1      -7.792  12.201  67.988  1.00  0.00    -0.145 C  
HETATM    4  C   UNL     1      -8.568  12.745  66.722  1.00  0.00    -0.078 C  
HETATM    5  O   UNL     1      -8.237  14.151  69.668  1.00  0.00     0.389 OA 
HETATM    6  S   UNL     1     -10.290  12.224  66.396  1.00  0.00    -0.230 SA 
HETATM    7  C   UNL     1      -8.179  13.637  68.571  1.00  0.00    -0.112 C  
HETATM    8  O   UNL     1      -8.924  15.828  65.472  1.00  0.00    -0.146 OA 
HETATM    9  O   UNL     1     -11.049  16.425  65.921  1.00  0.00    -0.058 OA 
HETATM   10  C   UNL     1     -10.074  15.733  66.186  1.00  0.00    -0.318 C  
HETATM   11  C   UNL     1     -11.071  13.610  67.322  1.00  0.00    -0.293 C  
HETATM   12  C   UNL     1     -12.407  13.957  66.655  1.00  0.00    -0.411 C  
HETATM   13  C   UNL     1     -11.389  13.082  68.735  1.00  0.00    -0.332 C  
HETATM   14  N   UNL     1      -8.684  14.073  67.375  1.00  0.00    -0.195 N  
HETATM   15  C   UNL     1     -10.007  14.733  67.352  1.00  0.00    -0.223 C  
BRANCH   3  16
HETATM   16  N   UNL     1      -8.389  11.126  68.844  1.00  0.00    -0.278 N  
HETATM   17  C   UNL     1      -8.024   7.912  69.961  1.00  0.00    -0.111 A  
HETATM   18  O   UNL     1      -8.379   9.428  67.302  1.00  0.00    -0.123 OA 
HETATM   19  C   UNL     1      -7.301   7.080  69.122  1.00  0.00    -0.092 A  
HETATM   20  O   UNL     1     -11.170   7.706  69.974  1.00  0.00    -0.231 OA 
HETATM   21  O   UNL     1     -10.589   7.949  67.818  1.00  0.00    -0.223 OA 
HETATM   22  C   UNL     1      -9.111   8.879  69.530  1.00  0.00    -0.146 C  
HETATM   23  H   UNL     1      -8.667  11.380  69.792  1.00  0.00     0.000 HD 
HETATM   24  C   UNL     1      -8.593   9.824  68.449  1.00  0.00    -0.119 C  
HETATM   25  S   UNL     1      -6.127   6.151  69.947  1.00  0.00    -0.027 SA 
HETATM   26  C   UNL     1     -10.378   8.137  69.141  1.00  0.00    -0.220 C  
HETATM   27  C   UNL     1      -6.588   6.809  71.452  1.00  0.00    -0.053 A  
HETATM   28  C   UNL     1      -7.609   7.725  71.325  1.00  0.00    -0.080 A  
ENDBRANCH   3  16
ENDBRANCH   2   3
TORSDOF 2
ENDMDL
MODEL      131
REMARK 921   NORMALIZED FREE ENERGY PREDICTED BY IDOCK:   -2.92 KCAL/MOL
REMARK 922        TOTAL FREE ENERGY PREDICTED BY IDOCK:   -3.74 KCAL/MOL
REMARK 923 INTER-LIGAND FREE ENERGY PREDICTED BY IDOCK:   -3.48 KCAL/MOL
REMARK 924 INTRA-LIGAND FREE ENERGY PREDICTED BY IDOCK:   -0.26 KCAL/MOL
REMARK 927      BINDING AFFINITY PREDICTED BY RF-SCORE:    0.00 PKD
ROOT
HETATM    1  C   UNL     1      -9.116  11.067  68.955  1.00  0.00    -0.123 C  
HETATM    2  O   UNL     1      -8.540   9.771  68.911  1.00  0.00    -0.123 OA 
ENDROOT
BRANCH   2   3
HETATM    3  C   UNL     1      -8.146   9.263  67.605  1.00  0.00    -0.104 C  
HETATM    4  C   UNL     1      -7.875  10.339  66.478  1.00  0.00    -0.116 C  
HETATM    5  O   UNL     1     -10.255   8.084  66.612  1.00  0.00    -0.285 OA 
HETATM    6  S   UNL     1      -6.676   9.999  65.140  1.00  0.00    -0.131 SA 
HETATM    7  C   UNL     1      -9.444   8.979  66.718  1.00  0.00    -0.182 C  
HETATM    8  O   UNL     1      -9.945  12.174  64.594  1.00  0.00    -0.260 OA 
HETATM    9  O   UNL     1      -9.833  11.287  62.527  1.00  0.00    -0.161 OA 
HETATM   10  C   UNL     1      -9.694  11.153  63.736  1.00  0.00    -0.301 C  
HETATM   11  C   UNL     1      -7.908   9.270  63.982  1.00  0.00    -0.126 C  
HETATM   12  C   UNL     1      -7.475   9.580  62.544  1.00  0.00    -0.108 C  
HETATM   13  C   UNL     1      -7.841   7.741  64.160  1.00  0.00    -0.133 C  
HETATM   14  N   UNL     1      -9.205  10.044  65.889  1.00  0.00    -0.157 N  
HETATM   15  C   UNL     1      -9.275   9.844  64.425  1.00  0.00    -0.264 C  
BRANCH   3  16
HETATM   16  N   UNL     1      -7.308   8.024  67.692  1.00  0.00    -0.091 N  
HETATM   17  C   UNL     1      -7.291   4.625  67.294  1.00  0.00    -0.074 A  
HETATM   18  O   UNL     1      -8.710   6.764  68.999  1.00  0.00    -0.130 OA 
HETATM   19  C   UNL     1      -8.522   4.011  67.460  1.00  0.00    -0.099 A  
HETATM   20  O   UNL     1      -5.196   4.499  69.648  1.00  0.00     0.000 OA 
HETATM   21  O   UNL     1      -7.098   5.259  70.571  1.00  0.00    -0.056 OA 
HETATM   22  C   UNL     1      -6.705   5.695  68.197  1.00  0.00    -0.054 C  
HETATM   23  H   UNL     1      -6.396   8.040  67.235  1.00  0.00     0.000 HD 
HETATM   24  C   UNL     1      -7.674   6.867  68.340  1.00  0.00    -0.116 C  
HETATM   25  S   UNL     1      -8.875   2.876  66.230  1.00  0.00    -0.149 SA 
HETATM   26  C   UNL     1      -6.257   5.105  69.523  1.00  0.00    -0.026 C  
HETATM   27  C   UNL     1      -7.371   3.150  65.472  1.00  0.00    -0.072 A  
HETATM   28  C   UNL     1      -6.621   4.093  66.139  1.00  0.00    -0.041 A  
ENDBRANCH   3  16
ENDBRANCH   2   3
TORSDOF 2
ENDMDL
MODEL      132
REMARK 921   NORMALIZED FREE ENERGY PREDICTED BY IDOCK:   -2.91 KCAL/MOL
REMARK 922        TOTAL FREE ENERGY PREDICTED BY IDOCK:   -3.74 KCAL/MOL
REMARK 923 INTER-LIGAND FREE ENERGY PREDICTED BY IDOCK:   -3.60 KCAL/MOL
REMARK 924 INTRA-LIGAND FREE ENERGY PREDICTED BY IDOCK:   -0.13 KCAL/MOL
REMARK 927      BINDING AFFINITY PREDICTED BY RF-SCORE:    0.00 PKD
ROOT
HETATM    1  C   UNL     1     -10.043   9.841  69.936  1.00  0.00    -0.251 C  
HETATM    2  O   UNL     1     -11.252  10.279  69.337  1.00  0.00    -0.231 OA 
ENDROOT
BRANCH   2   3
HETATM    3  C   UNL     1     -11.142  11.171  68.193  1.00  0.00    -0.264 C  
HETATM    4  C   UNL     1     -11.170  10.496  66.762  1.00  0.00     0.147 C  
HETATM    5  O   UNL     1      -8.697  12.091  68.215  1.00  0.00    -0.174 OA 
HETATM    6  S   UNL     1     -11.826  11.408  65.320  1.00  0.00     0.773 SA 
HETATM    7  C   UNL     1      -9.603  11.390  67.820  1.00  0.00    -0.172 C  
HETATM    8  O   UNL     1      -8.851   8.803  65.044  1.00  0.00    -0.180 OA 
HETATM    9  O   UNL     1      -8.185  10.185  63.396  1.00  0.00    -0.152 OA 
HETATM   10  C   UNL     1      -8.685  10.036  64.503  1.00  0.00    -0.195 C  
HETATM   11  C   UNL     1     -10.208  12.129  64.817  1.00  0.00    -0.281 C  
HETATM   12  C   UNL     1     -10.193  12.290  63.293  1.00  0.00    -0.245 C  
HETATM   13  C   UNL     1     -10.138  13.542  65.427  1.00  0.00    -0.279 C  
HETATM   14  N   UNL     1      -9.695  10.644  66.674  1.00  0.00    -0.179 N  
HETATM   15  C   UNL     1      -9.136  11.187  65.417  1.00  0.00    -0.177 C  
BRANCH   3  16
HETATM   16  N   UNL     1     -11.802  12.496  68.422  1.00  0.00    -0.327 N  
HETATM   17  C   UNL     1     -11.268  15.825  69.009  1.00  0.00    -0.319 A  
HETATM   18  O   UNL     1     -10.681  13.103  70.329  1.00  0.00     0.961 OA 
HETATM   19  C   UNL     1     -10.066  16.124  69.632  1.00  0.00    -0.212 A  
HETATM   20  O   UNL     1     -13.911  15.804  70.728  1.00  0.00    -0.359 OA 
HETATM   21  O   UNL     1     -12.465  14.483  71.827  1.00  0.00    -0.331 OA 
HETATM   22  C   UNL     1     -12.219  14.711  69.405  1.00  0.00    -0.270 C  
HETATM   23  H   UNL     1     -12.541  12.772  67.774  1.00  0.00     0.000 HD 
HETATM   24  C   UNL     1     -11.490  13.369  69.439  1.00  0.00    -0.274 C  
HETATM   25  S   UNL     1      -9.235  17.423  68.895  1.00  0.00    -0.102 SA 
HETATM   26  C   UNL     1     -12.946  15.046  70.695  1.00  0.00    -0.345 C  
HETATM   27  C   UNL     1     -10.483  17.644  67.753  1.00  0.00    -0.378 A  
HETATM   28  C   UNL     1     -11.507  16.739  67.926  1.00  0.00     0.213 A  
ENDBRANCH   3  16
ENDBRANCH   2   3
TORSDOF 2
ENDMDL
MODEL      133
REMARK 921   NORMALIZED FREE ENERGY PREDICTED BY IDOCK:   -2.91 KCAL/MOL
REMARK 922        TOTAL FREE ENERGY PREDICTED BY IDOCK:   -3.73 KCAL/MOL
REMARK 923 INTER-LIGAND FREE ENERGY PREDICTED BY IDOCK:   -3.46 KCAL/MOL
REMARK 924 INTRA-LIGAND FREE ENERGY PREDICTED BY IDOCK:   -0.27 KCAL/MOL
REMARK 927      BINDING AFFINITY PREDICTED BY RF-SCORE:    0.00 PKD
ROOT
HETATM    1  C   UNL     1     -11.641   6.562  69.437  1.00  0.00    -0.180 C  
HETATM    2  O   UNL     1     -10.907   7.499  68.664  1.00  0.00    -0.133 OA 
ENDROOT
BRANCH   2   3
HETATM    3  C   UNL     1      -9.509   7.193  68.401  1.00  0.00    -0.138 C  
HETATM    4  C   UNL     1      -9.209   5.824  67.667  1.00  0.00    -0.105 C  
HETATM    5  O   UNL     1      -8.414   6.715  70.723  1.00  0.00    -0.131 OA 
HETATM    6  S   UNL     1      -7.738   5.650  66.595  1.00  0.00    -0.101 SA 
HETATM    7  C   UNL     1      -8.879   6.414  69.645  1.00  0.00    -0.137 C  
HETATM    8  O   UNL     1      -9.186   2.661  68.758  1.00  0.00    -0.137 OA 
HETATM    9  O   UNL     1      -7.017   2.063  68.845  1.00  0.00    -0.036 OA 
HETATM   10  C   UNL     1      -7.863   2.948  68.851  1.00  0.00    -0.046 C  
HETATM   11  C   UNL     1      -6.621   5.044  67.926  1.00  0.00    -0.050 C  
HETATM   12  C   UNL     1      -5.595   4.087  67.310  1.00  0.00    -0.021 C  
HETATM   13  C   UNL     1      -5.846   6.268  68.452  1.00  0.00    -0.016 C  
HETATM   14  N   UNL     1      -8.812   5.226  68.966  1.00  0.00    -0.099 N  
HETATM   15  C   UNL     1      -7.556   4.446  69.005  1.00  0.00    -0.055 C  
BRANCH   3  16
HETATM   16  N   UNL     1      -8.694   8.413  68.098  1.00  0.00    -0.142 N  
HETATM   17  C   UNL     1      -8.783  11.601  66.858  1.00  0.00    -0.185 A  
HETATM   18  O   UNL     1      -9.348   8.721  65.921  1.00  0.00    -0.220 OA 
HETATM   19  C   UNL     1      -9.802  11.848  65.951  1.00  0.00    -0.237 A  
HETATM   20  O   UNL     1      -5.863  11.114  65.774  1.00  0.00    -0.117 OA 
HETATM   21  O   UNL     1      -7.177   9.697  64.630  1.00  0.00    -0.111 OA 
HETATM   22  C   UNL     1      -7.882  10.381  66.869  1.00  0.00    -0.114 C  
HETATM   23  H   UNL     1      -8.077   8.761  68.833  1.00  0.00     0.000 HD 
HETATM   24  C   UNL     1      -8.712   9.100  66.906  1.00  0.00    -0.123 C  
HETATM   25  S   UNL     1     -10.638  13.306  66.262  1.00  0.00    -0.293 SA 
HETATM   26  C   UNL     1      -6.882  10.431  65.726  1.00  0.00    -0.132 C  
HETATM   27  C   UNL     1      -9.630  13.662  67.592  1.00  0.00    -0.221 A  
HETATM   28  C   UNL     1      -8.682  12.684  67.797  1.00  0.00    -0.179 A  
ENDBRANCH   3  16
ENDBRANCH   2   3
TORSDOF 2
ENDMDL
MODEL      134
REMARK 921   NORMALIZED FREE ENERGY PREDICTED BY IDOCK:   -2.89 KCAL/MOL
REMARK 922        TOTAL FREE ENERGY PREDICTED BY IDOCK:   -3.71 KCAL/MOL
REMARK 923 INTER-LIGAND FREE ENERGY PREDICTED BY IDOCK:   -5.28 KCAL/MOL
REMARK 924 INTRA-LIGAND FREE ENERGY PREDICTED BY IDOCK:    1.57 KCAL/MOL
REMARK 927      BINDING AFFINITY PREDICTED BY RF-SCORE:    0.00 PKD
ROOT
HETATM    1  C   UNL     1      -6.431   5.419  69.730  1.00  0.00    -0.035 C  
HETATM    2  O   UNL     1      -7.384   5.388  68.679  1.00  0.00    -0.072 OA 
ENDROOT
BRANCH   2   3
HETATM    3  C   UNL     1      -8.458   6.370  68.726  1.00  0.00    -0.121 C  
HETATM    4  C   UNL     1      -8.760   7.155  67.386  1.00  0.00    -0.120 C  
HETATM    5  O   UNL     1      -7.592   8.331  70.218  1.00  0.00    -0.068 OA 
HETATM    6  S   UNL     1     -10.446   7.764  67.030  1.00  0.00    -0.312 SA 
HETATM    7  C   UNL     1      -7.877   7.790  69.171  1.00  0.00    -0.114 C  
HETATM    8  O   UNL     1      -7.177   9.684  65.872  1.00  0.00    -0.094 OA 
HETATM    9  O   UNL     1      -8.487  11.491  66.176  1.00  0.00    -0.154 OA 
HETATM   10  C   UNL     1      -8.134  10.376  66.541  1.00  0.00    -0.122 C  
HETATM   11  C   UNL     1     -10.203   9.417  67.803  1.00  0.00    -0.222 C  
HETATM   12  C   UNL     1     -11.058  10.443  67.051  1.00  0.00    -0.141 C  
HETATM   13  C   UNL     1     -10.755   9.326  69.239  1.00  0.00    -0.211 C  
HETATM   14  N   UNL     1      -8.030   8.331  67.922  1.00  0.00    -0.121 N  
HETATM   15  C   UNL     1      -8.674   9.656  67.786  1.00  0.00    -0.122 C  
BRANCH   3  16
HETATM   16  N   UNL     1      -9.574   5.967  69.641  1.00  0.00    -0.146 N  
HETATM   17  C   UNL     1     -11.956   7.107  71.818  1.00  0.00    -0.348 A  
HETATM   18  O   UNL     1      -8.889   7.092  71.519  1.00  0.00    -0.127 OA 
HETATM   19  C   UNL     1     -11.657   8.312  72.434  1.00  0.00    -0.396 A  
HETATM   20  O   UNL     1     -11.559   4.430  73.436  1.00  0.00    -0.282 OA 
HETATM   21  O   UNL     1      -9.614   5.538  73.615  1.00  0.00    -0.137 OA 
HETATM   22  C   UNL     1     -11.001   5.941  71.642  1.00  0.00    -0.327 C  
HETATM   23  H   UNL     1     -10.278   5.328  69.271  1.00  0.00     0.000 HD 
HETATM   24  C   UNL     1      -9.723   6.393  70.941  1.00  0.00    -0.176 C  
HETATM   25  S   UNL     1     -12.964   9.414  72.420  1.00  0.00    -0.280 SA 
HETATM   26  C   UNL     1     -10.758   5.230  72.963  1.00  0.00    -0.257 C  
HETATM   27  C   UNL     1     -13.973   8.289  71.628  1.00  0.00    -0.396 A  
HETATM   28  C   UNL     1     -13.322   7.102  71.373  1.00  0.00    -0.380 A  
ENDBRANCH   3  16
ENDBRANCH   2   3
TORSDOF 2
ENDMDL
MODEL      135
REMARK 921   NORMALIZED FREE ENERGY PREDICTED BY IDOCK:   -2.87 KCAL/MOL
REMARK 922        TOTAL FREE ENERGY PREDICTED BY IDOCK:   -3.69 KCAL/MOL
REMARK 923 INTER-LIGAND FREE ENERGY PREDICTED BY IDOCK:   -3.35 KCAL/MOL
REMARK 924 INTRA-LIGAND FREE ENERGY PREDICTED BY IDOCK:   -0.34 KCAL/MOL
REMARK 927      BINDING AFFINITY PREDICTED BY RF-SCORE:    0.00 PKD
ROOT
HETATM    1  C   UNL     1     -11.707  11.895  69.211  1.00  0.00    -0.328 C  
HETATM    2  O   UNL     1     -11.182  10.918  68.327  1.00  0.00    -0.241 OA 
ENDROOT
BRANCH   2   3
HETATM    3  C   UNL     1      -9.750  10.952  68.073  1.00  0.00    -0.165 C  
HETATM    4  C   UNL     1      -8.939  12.132  68.746  1.00  0.00     0.118 C  
HETATM    5  O   UNL     1      -9.466  11.582  65.554  1.00  0.00    -0.224 OA 
HETATM    6  S   UNL     1      -7.183  11.907  69.204  1.00  0.00     0.042 SA 
HETATM    7  C   UNL     1      -9.451  11.793  66.748  1.00  0.00    -0.193 C  
HETATM    8  O   UNL     1      -8.655  15.375  67.973  1.00  0.00    -0.149 OA 
HETATM    9  O   UNL     1      -6.581  15.621  67.131  1.00  0.00    -0.269 OA 
HETATM   10  C   UNL     1      -7.537  14.895  67.372  1.00  0.00    -0.204 C  
HETATM   11  C   UNL     1      -6.505  12.513  67.603  1.00  0.00    -0.138 C  
HETATM   12  C   UNL     1      -5.156  13.191  67.865  1.00  0.00    -0.103 C  
HETATM   13  C   UNL     1      -6.231  11.270  66.733  1.00  0.00    -0.134 C  
HETATM   14  N   UNL     1      -8.910  12.842  67.443  1.00  0.00    -0.189 N  
HETATM   15  C   UNL     1      -7.616  13.406  67.000  1.00  0.00     0.206 C  
BRANCH   3  16
HETATM   16  N   UNL     1      -9.147   9.585  67.955  1.00  0.00    -0.126 N  
HETATM   17  C   UNL     1      -7.829   7.287  65.789  1.00  0.00    -0.108 A  
HETATM   18  O   UNL     1     -10.482   8.777  66.274  1.00  0.00    -0.144 OA 
HETATM   19  C   UNL     1      -8.280   7.389  64.482  1.00  0.00    -0.020 A  
HETATM   20  O   UNL     1      -9.038   5.046  67.647  1.00  0.00    -0.110 OA 
HETATM   21  O   UNL     1     -10.804   6.138  66.791  1.00  0.00    -0.319 OA 
HETATM   22  C   UNL     1      -8.695   7.352  67.033  1.00  0.00    -0.123 C  
HETATM   23  H   UNL     1      -8.396   9.344  68.602  1.00  0.00     0.000 HD 
HETATM   24  C   UNL     1      -9.530   8.630  67.041  1.00  0.00    -0.171 C  
HETATM   25  S   UNL     1      -7.019   7.311  63.330  1.00  0.00    -0.063 SA 
HETATM   26  C   UNL     1      -9.514   6.083  67.194  1.00  0.00    -0.118 C  
HETATM   27  C   UNL     1      -5.846   7.096  64.550  1.00  0.00    -0.037 A  
HETATM   28  C   UNL     1      -6.405   7.094  65.809  1.00  0.00    -0.044 A  
ENDBRANCH   3  16
ENDBRANCH   2   3
TORSDOF 2
ENDMDL
MODEL      136
REMARK 921   NORMALIZED FREE ENERGY PREDICTED BY IDOCK:   -2.87 KCAL/MOL
REMARK 922        TOTAL FREE ENERGY PREDICTED BY IDOCK:   -3.69 KCAL/MOL
REMARK 923 INTER-LIGAND FREE ENERGY PREDICTED BY IDOCK:   -3.25 KCAL/MOL
REMARK 924 INTRA-LIGAND FREE ENERGY PREDICTED BY IDOCK:   -0.44 KCAL/MOL
REMARK 927      BINDING AFFINITY PREDICTED BY RF-SCORE:    0.00 PKD
ROOT
HETATM    1  C   UNL     1      -7.636   9.935  64.924  1.00  0.00    -0.135 C  
HETATM    2  O   UNL     1      -8.895   9.394  65.293  1.00  0.00    -0.166 OA 
ENDROOT
BRANCH   2   3
HETATM    3  C   UNL     1      -9.220   9.373  66.711  1.00  0.00    -0.143 C  
HETATM    4  C   UNL     1     -10.644   9.928  67.121  1.00  0.00    -0.228 C  
HETATM    5  O   UNL     1      -7.691  11.166  67.839  1.00  0.00    -0.100 OA 
HETATM    6  S   UNL     1     -11.499   9.281  68.602  1.00  0.00     0.807 SA 
HETATM    7  C   UNL     1      -8.734  10.730  67.401  1.00  0.00    -0.126 C  
HETATM    8  O   UNL     1     -11.835  13.043  67.397  1.00  0.00    -0.358 OA 
HETATM    9  O   UNL     1     -12.038  13.423  69.607  1.00  0.00    -0.312 OA 
HETATM   10  C   UNL     1     -11.511  12.803  68.693  1.00  0.00    -0.303 C  
HETATM   11  C   UNL     1     -10.810  10.532  69.763  1.00  0.00    -0.281 C  
HETATM   12  C   UNL     1     -11.842  10.804  70.863  1.00  0.00    -0.400 C  
HETATM   13  C   UNL     1      -9.582   9.889  70.437  1.00  0.00    -0.117 C  
HETATM   14  N   UNL     1     -10.012  11.196  67.563  1.00  0.00    -0.180 N  
HETATM   15  C   UNL     1     -10.417  11.739  68.878  1.00  0.00    -0.154 C  
BRANCH   3  16
HETATM   16  N   UNL     1      -8.627   8.198  67.427  1.00  0.00    -0.125 N  
HETATM   17  C   UNL     1      -7.461   5.001  67.066  1.00  0.00    -0.087 A  
HETATM   18  O   UNL     1     -10.075   6.585  66.677  1.00  0.00    -0.176 OA 
HETATM   19  C   UNL     1      -8.002   4.297  66.002  1.00  0.00    -0.098 A  
HETATM   20  O   UNL     1      -8.536   4.429  69.974  1.00  0.00    -0.068 OA 
HETATM   21  O   UNL     1     -10.358   4.837  68.726  1.00  0.00    -0.070 OA 
HETATM   22  C   UNL     1      -8.238   5.853  68.052  1.00  0.00    -0.105 C  
HETATM   23  H   UNL     1      -7.831   8.374  68.042  1.00  0.00     0.000 HD 
HETATM   24  C   UNL     1      -9.071   6.900  67.318  1.00  0.00    -0.124 C  
HETATM   25  S   UNL     1      -6.825   3.474  65.075  1.00  0.00    -0.049 SA 
HETATM   26  C   UNL     1      -9.043   4.987  69.006  1.00  0.00    -0.105 C  
HETATM   27  C   UNL     1      -5.570   4.004  66.101  1.00  0.00    -0.018 A  
HETATM   28  C   UNL     1      -6.039   4.800  67.123  1.00  0.00    -0.031 A  
ENDBRANCH   3  16
ENDBRANCH   2   3
TORSDOF 2
ENDMDL
MODEL      137
REMARK 921   NORMALIZED FREE ENERGY PREDICTED BY IDOCK:   -2.73 KCAL/MOL
REMARK 922        TOTAL FREE ENERGY PREDICTED BY IDOCK:   -3.53 KCAL/MOL
REMARK 923 INTER-LIGAND FREE ENERGY PREDICTED BY IDOCK:   -3.30 KCAL/MOL
REMARK 924 INTRA-LIGAND FREE ENERGY PREDICTED BY IDOCK:   -0.24 KCAL/MOL
REMARK 927      BINDING AFFINITY PREDICTED BY RF-SCORE:    0.00 PKD
ROOT
HETATM    1  C   UNL     1      -8.182  10.306  62.523  1.00  0.00    -0.159 C  
HETATM    2  O   UNL     1      -7.853  10.412  63.899  1.00  0.00    -0.140 OA 
ENDROOT
BRANCH   2   3
HETATM    3  C   UNL     1      -8.943  10.686  64.824  1.00  0.00    -0.199 C  
HETATM    4  C   UNL     1      -9.954  11.830  64.409  1.00  0.00    -0.251 C  
HETATM    5  O   UNL     1      -7.857  11.780  66.933  1.00  0.00    -0.160 OA 
HETATM    6  S   UNL     1     -11.696  11.771  64.959  1.00  0.00    -0.005 SA 
HETATM    7  C   UNL     1      -8.485  11.779  65.896  1.00  0.00     0.208 C  
HETATM    8  O   UNL     1      -9.706  15.166  64.482  1.00  0.00     0.228 OA 
HETATM    9  O   UNL     1     -11.031  15.838  66.174  1.00  0.00    -0.280 OA 
HETATM   10  C   UNL     1     -10.361  14.956  65.652  1.00  0.00    -0.349 C  
HETATM   11  C   UNL     1     -11.425  12.735  66.504  1.00  0.00    -0.355 C  
HETATM   12  C   UNL     1     -12.695  13.536  66.814  1.00  0.00     0.213 C  
HETATM   13  C   UNL     1     -11.239  11.713  67.643  1.00  0.00    -0.345 C  
HETATM   14  N   UNL     1      -9.281  12.754  65.356  1.00  0.00     0.325 N  
HETATM   15  C   UNL     1     -10.140  13.559  66.252  1.00  0.00    -0.298 C  
BRANCH   3  16
HETATM   16  N   UNL     1      -9.432   9.457  65.528  1.00  0.00    -0.288 N  
HETATM   17  C   UNL     1      -9.685   7.880  68.555  1.00  0.00    -0.167 A  
HETATM   18  O   UNL     1      -7.502   8.923  66.647  1.00  0.00    -0.084 OA 
HETATM   19  C   UNL     1      -8.718   8.234  69.481  1.00  0.00    -0.138 A  
HETATM   20  O   UNL     1      -9.385   5.152  67.004  1.00  0.00    -0.118 OA 
HETATM   21  O   UNL     1      -7.425   6.218  66.738  1.00  0.00    -0.084 OA 
HETATM   22  C   UNL     1      -9.438   7.561  67.092  1.00  0.00    -0.194 C  
HETATM   23  H   UNL     1     -10.388   9.154  65.337  1.00  0.00     0.000 HD 
HETATM   24  C   UNL     1      -8.691   8.705  66.411  1.00  0.00    -0.130 C  
HETATM   25  S   UNL     1      -9.361   8.562  71.031  1.00  0.00    -0.203 SA 
HETATM   26  C   UNL     1      -8.763   6.209  66.936  1.00  0.00    -0.109 C  
HETATM   27  C   UNL     1     -10.944   8.196  70.509  1.00  0.00    -0.243 A  
HETATM   28  C   UNL     1     -10.980   7.841  69.178  1.00  0.00     0.029 A  
ENDBRANCH   3  16
ENDBRANCH   2   3
TORSDOF 2
ENDMDL
MODEL      138
REMARK 921   NORMALIZED FREE ENERGY PREDICTED BY IDOCK:   -2.72 KCAL/MOL
REMARK 922        TOTAL FREE ENERGY PREDICTED BY IDOCK:   -3.52 KCAL/MOL
REMARK 923 INTER-LIGAND FREE ENERGY PREDICTED BY IDOCK:   -4.95 KCAL/MOL
REMARK 924 INTRA-LIGAND FREE ENERGY PREDICTED BY IDOCK:    1.43 KCAL/MOL
REMARK 927      BINDING AFFINITY PREDICTED BY RF-SCORE:    0.00 PKD
ROOT
HETATM    1  C   UNL     1     -11.756  11.640  68.544  1.00  0.00    -0.315 C  
HETATM    2  O   UNL     1     -10.337  11.662  68.584  1.00  0.00    -0.210 OA 
ENDROOT
BRANCH   2   3
HETATM    3  C   UNL     1      -9.673  10.541  69.231  1.00  0.00    -0.196 C  
HETATM    4  C   UNL     1      -8.098  10.478  69.098  1.00  0.00    -0.152 C  
HETATM    5  O   UNL     1     -10.331   8.413  67.866  1.00  0.00    -0.211 OA 
HETATM    6  S   UNL     1      -7.087   9.699  70.408  1.00  0.00    -0.137 SA 
HETATM    7  C   UNL     1      -9.589   9.303  68.224  1.00  0.00    -0.147 C  
HETATM    8  O   UNL     1      -6.102   9.568  66.570  1.00  0.00    -0.058 OA 
HETATM    9  O   UNL     1      -5.239   7.575  67.164  1.00  0.00    -0.027 OA 
HETATM   10  C   UNL     1      -6.130   8.408  67.273  1.00  0.00    -0.055 C  
HETATM   11  C   UNL     1      -7.098   8.016  69.661  1.00  0.00    -0.061 C  
HETATM   12  C   UNL     1      -5.782   7.314  70.012  1.00  0.00    -0.024 C  
HETATM   13  C   UNL     1      -8.233   7.230  70.346  1.00  0.00    -0.125 C  
HETATM   14  N   UNL     1      -8.237   9.437  68.048  1.00  0.00    -0.114 N  
HETATM   15  C   UNL     1      -7.377   8.239  68.155  1.00  0.00    -0.096 C  
BRANCH   3  16
HETATM   16  N   UNL     1     -10.347  10.119  70.500  1.00  0.00    -0.407 N  
HETATM   17  C   UNL     1     -11.237   7.443  72.440  1.00  0.00    -0.337 A  
HETATM   18  O   UNL     1     -11.774   8.555  69.617  1.00  0.00     0.349 OA 
HETATM   19  C   UNL     1     -11.409   6.253  71.751  1.00  0.00    -0.294 A  
HETATM   20  O   UNL     1     -13.783   9.090  73.300  1.00  0.00    -0.141 OA 
HETATM   21  O   UNL     1     -14.033   8.695  71.104  1.00  0.00    -0.220 OA 
HETATM   22  C   UNL     1     -11.766   8.799  72.013  1.00  0.00    -0.442 C  
HETATM   23  H   UNL     1     -10.074  10.597  71.360  1.00  0.00     0.000 HD 
HETATM   24  C   UNL     1     -11.305   9.136  70.597  1.00  0.00    -0.273 C  
HETATM   25  S   UNL     1     -10.643   4.924  72.505  1.00  0.00    -0.195 SA 
HETATM   26  C   UNL     1     -13.271   8.883  72.205  1.00  0.00    -0.429 C  
HETATM   27  C   UNL     1     -10.099   5.902  73.794  1.00  0.00    -0.221 A  
HETATM   28  C   UNL     1     -10.486   7.215  73.644  1.00  0.00    -0.412 A  
ENDBRANCH   3  16
ENDBRANCH   2   3
TORSDOF 2
ENDMDL
MODEL      139
REMARK 921   NORMALIZED FREE ENERGY PREDICTED BY IDOCK:   -2.59 KCAL/MOL
REMARK 922        TOTAL FREE ENERGY PREDICTED BY IDOCK:   -3.38 KCAL/MOL
REMARK 923 INTER-LIGAND FREE ENERGY PREDICTED BY IDOCK:   -3.75 KCAL/MOL
REMARK 924 INTRA-LIGAND FREE ENERGY PREDICTED BY IDOCK:    0.37 KCAL/MOL
REMARK 927      BINDING AFFINITY PREDICTED BY RF-SCORE:    0.00 PKD
ROOT
HETATM    1  C   UNL     1      -7.317   8.870  65.231  1.00  0.00    -0.088 C  
HETATM    2  O   UNL     1      -8.240   9.292  66.222  1.00  0.00    -0.106 OA 
ENDROOT
BRANCH   2   3
HETATM    3  C   UNL     1      -8.303   8.511  67.449  1.00  0.00    -0.120 C  
HETATM    4  C   UNL     1      -7.069   7.569  67.752  1.00  0.00    -0.085 C  
HETATM    5  O   UNL     1     -10.166   6.718  67.081  1.00  0.00    -0.179 OA 
HETATM    6  S   UNL     1      -6.604   7.177  69.476  1.00  0.00    -0.045 SA 
HETATM    7  C   UNL     1      -9.023   7.113  67.167  1.00  0.00    -0.125 C  
HETATM    8  O   UNL     1      -6.155   4.607  66.492  1.00  0.00    -0.029 OA 
HETATM    9  O   UNL     1      -6.564   3.102  68.116  1.00  0.00    -0.036 OA 
HETATM   10  C   UNL     1      -6.798   4.193  67.613  1.00  0.00    -0.051 C  
HETATM   11  C   UNL     1      -7.640   5.659  69.597  1.00  0.00    -0.075 C  
HETATM   12  C   UNL     1      -6.952   4.667  70.540  1.00  0.00    -0.037 C  
HETATM   13  C   UNL     1      -8.968   6.075  70.259  1.00  0.00    -0.152 C  
HETATM   14  N   UNL     1      -7.859   6.401  67.290  1.00  0.00    -0.103 N  
HETATM   15  C   UNL     1      -7.846   5.188  68.137  1.00  0.00    -0.087 C  
BRANCH   3  16
HETATM   16  N   UNL     1      -9.003   9.229  68.561  1.00  0.00    -0.129 N  
HETATM   17  C   UNL     1     -11.559   9.057  70.830  1.00  0.00    -0.344 A  
HETATM   18  O   UNL     1     -11.151   9.046  67.776  1.00  0.00    -0.040 OA 
HETATM   19  C   UNL     1     -12.618   8.244  70.458  1.00  0.00     0.511 A  
HETATM   20  O   UNL     1     -11.855  12.181  70.527  1.00  0.00    -0.287 OA 
HETATM   21  O   UNL     1     -12.408  11.325  68.526  1.00  0.00    -0.543 OA 
HETATM   22  C   UNL     1     -10.859  10.066  69.939  1.00  0.00    -0.328 C  
HETATM   23  H   UNL     1      -8.426   9.623  69.305  1.00  0.00     0.000 HD 
HETATM   24  C   UNL     1     -10.365   9.399  68.657  1.00  0.00    -0.203 C  
HETATM   25  S   UNL     1     -13.134   7.200  71.709  1.00  0.00    -0.247 SA 
HETATM   26  C   UNL     1     -11.736  11.283  69.699  1.00  0.00    -0.350 C  
HETATM   27  C   UNL     1     -11.980   7.840  72.791  1.00  0.00    -0.129 A  
HETATM   28  C   UNL     1     -11.213   8.823  72.206  1.00  0.00    -0.343 A  
ENDBRANCH   3  16
ENDBRANCH   2   3
TORSDOF 2
ENDMDL
MODEL      140
REMARK 921   NORMALIZED FREE ENERGY PREDICTED BY IDOCK:   -2.59 KCAL/MOL
REMARK 922        TOTAL FREE ENERGY PREDICTED BY IDOCK:   -3.38 KCAL/MOL
REMARK 923 INTER-LIGAND FREE ENERGY PREDICTED BY IDOCK:   -3.26 KCAL/MOL
REMARK 924 INTRA-LIGAND FREE ENERGY PREDICTED BY IDOCK:   -0.12 KCAL/MOL
REMARK 927      BINDING AFFINITY PREDICTED BY RF-SCORE:    0.00 PKD
ROOT
HETATM    1  C   UNL     1     -11.426  13.647  69.816  1.00  0.00    -0.187 C  
HETATM    2  O   UNL     1     -10.541  12.539  69.770  1.00  0.00     0.419 OA 
ENDROOT
BRANCH   2   3
HETATM    3  C   UNL     1     -10.195  12.018  68.456  1.00  0.00    -0.212 C  
HETATM    4  C   UNL     1     -10.150  13.063  67.269  1.00  0.00    -0.235 C  
HETATM    5  O   UNL     1     -12.217  10.550  67.694  1.00  0.00     0.569 OA 
HETATM    6  S   UNL     1      -9.031  12.803  65.847  1.00  0.00     0.511 SA 
HETATM    7  C   UNL     1     -11.516  11.540  67.695  1.00  0.00    -0.285 C  
HETATM    8  O   UNL     1     -12.575  14.545  65.502  1.00  0.00    -0.338 OA 
HETATM    9  O   UNL     1     -12.524  13.578  63.469  1.00  0.00    -0.745 OA 
HETATM   10  C   UNL     1     -12.271  13.521  64.666  1.00  0.00    -0.406 C  
HETATM   11  C   UNL     1     -10.254  11.878  64.828  1.00  0.00    -0.276 C  
HETATM   12  C   UNL     1      -9.981  12.166  63.348  1.00  0.00    -0.305 C  
HETATM   13  C   UNL     1      -9.986  10.378  65.059  1.00  0.00    -0.399 C  
HETATM   14  N   UNL     1     -11.477  12.583  66.809  1.00  0.00    -0.340 N  
HETATM   15  C   UNL     1     -11.641  12.306  65.365  1.00  0.00    -0.363 C  
BRANCH   3  16
HETATM   16  N   UNL     1      -9.207  10.894  68.517  1.00  0.00    -0.174 N  
HETATM   17  C   UNL     1      -6.522   9.618  70.213  1.00  0.00    -0.083 A  
HETATM   18  O   UNL     1      -7.286  12.142  68.620  1.00  0.00    -0.100 OA 
HETATM   19  C   UNL     1      -5.754  10.556  70.884  1.00  0.00    -0.077 A  
HETATM   20  O   UNL     1      -5.489   8.495  67.454  1.00  0.00    -0.037 OA 
HETATM   21  O   UNL     1      -5.415  10.731  67.262  1.00  0.00    -0.040 OA 
HETATM   22  C   UNL     1      -7.048   9.752  68.796  1.00  0.00    -0.067 C  
HETATM   23  H   UNL     1      -9.573   9.942  68.465  1.00  0.00     0.000 HD 
HETATM   24  C   UNL     1      -7.845  11.044  68.638  1.00  0.00    -0.136 C  
HETATM   25  S   UNL     1      -5.370  10.089  72.483  1.00  0.00     0.231 SA 
HETATM   26  C   UNL     1      -5.929   9.593  67.781  1.00  0.00    -0.051 C  
HETATM   27  C   UNL     1      -6.186   8.601  72.300  1.00  0.00    -0.076 A  
HETATM   28  C   UNL     1      -6.747   8.470  71.048  1.00  0.00    -0.054 A  
ENDBRANCH   3  16
ENDBRANCH   2   3
TORSDOF 2
ENDMDL
MODEL      141
REMARK 921   NORMALIZED FREE ENERGY PREDICTED BY IDOCK:   -2.58 KCAL/MOL
REMARK 922        TOTAL FREE ENERGY PREDICTED BY IDOCK:   -3.36 KCAL/MOL
REMARK 923 INTER-LIGAND FREE ENERGY PREDICTED BY IDOCK:   -3.09 KCAL/MOL
REMARK 924 INTRA-LIGAND FREE ENERGY PREDICTED BY IDOCK:   -0.27 KCAL/MOL
REMARK 927      BINDING AFFINITY PREDICTED BY RF-SCORE:    0.00 PKD
ROOT
HETATM    1  C   UNL     1      -9.051   8.444  73.666  1.00  0.00     0.077 C  
HETATM    2  O   UNL     1      -7.964   8.176  72.794  1.00  0.00    -0.136 OA 
ENDROOT
BRANCH   2   3
HETATM    3  C   UNL     1      -8.100   7.043  71.890  1.00  0.00    -0.098 C  
HETATM    4  C   UNL     1      -9.171   5.948  72.284  1.00  0.00    -0.144 C  
HETATM    5  O   UNL     1      -5.907   5.645  72.132  1.00  0.00    -0.024 OA 
HETATM    6  S   UNL     1     -10.016   4.970  70.990  1.00  0.00    -0.219 SA 
HETATM    7  C   UNL     1      -7.082   5.886  72.310  1.00  0.00    -0.084 C  
HETATM    8  O   UNL     1      -9.128   3.496  74.562  1.00  0.00    -0.085 OA 
HETATM    9  O   UNL     1      -8.913   1.584  73.393  1.00  0.00    -0.060 OA 
HETATM   10  C   UNL     1      -8.757   2.796  73.460  1.00  0.00    -0.076 C  
HETATM   11  C   UNL     1      -8.789   3.596  70.980  1.00  0.00    -0.082 C  
HETATM   12  C   UNL     1      -9.515   2.292  70.634  1.00  0.00    -0.189 C  
HETATM   13  C   UNL     1      -7.801   3.888  69.834  1.00  0.00    -0.051 C  
HETATM   14  N   UNL     1      -8.079   5.072  72.779  1.00  0.00    -0.104 N  
HETATM   15  C   UNL     1      -8.101   3.652  72.365  1.00  0.00    -0.073 C  
BRANCH   3  16
HETATM   16  N   UNL     1      -7.884   7.415  70.455  1.00  0.00    -0.096 N  
HETATM   17  C   UNL     1      -8.347   9.850  68.096  1.00  0.00    -0.110 A  
HETATM   18  O   UNL     1     -10.029   8.053  69.949  1.00  0.00    -0.185 OA 
HETATM   19  C   UNL     1      -9.418  10.698  68.332  1.00  0.00    -0.165 A  
HETATM   20  O   UNL     1      -8.674   7.540  65.975  1.00  0.00    -0.151 OA 
HETATM   21  O   UNL     1     -10.423   7.333  67.368  1.00  0.00    -0.229 OA 
HETATM   22  C   UNL     1      -8.367   8.339  68.229  1.00  0.00    -0.132 C  
HETATM   23  H   UNL     1      -6.950   7.277  70.069  1.00  0.00     0.000 HD 
HETATM   24  C   UNL     1      -8.849   7.928  69.618  1.00  0.00    -0.138 C  
HETATM   25  S   UNL     1      -9.025  12.348  68.120  1.00  0.00    -0.186 SA 
HETATM   26  C   UNL     1      -9.151   7.701  67.095  1.00  0.00    -0.127 C  
HETATM   27  C   UNL     1      -7.426  11.964  67.665  1.00  0.00    -0.127 A  
HETATM   28  C   UNL     1      -7.196  10.606  67.684  1.00  0.00    -0.089 A  
ENDBRANCH   3  16
ENDBRANCH   2   3
TORSDOF 2
ENDMDL
MODEL      142
REMARK 921   NORMALIZED FREE ENERGY PREDICTED BY IDOCK:   -2.56 KCAL/MOL
REMARK 922        TOTAL FREE ENERGY PREDICTED BY IDOCK:   -3.34 KCAL/MOL
REMARK 923 INTER-LIGAND FREE ENERGY PREDICTED BY IDOCK:   -3.21 KCAL/MOL
REMARK 924 INTRA-LIGAND FREE ENERGY PREDICTED BY IDOCK:   -0.13 KCAL/MOL
REMARK 927      BINDING AFFINITY PREDICTED BY RF-SCORE:    0.00 PKD
ROOT
HETATM    1  C   UNL     1      -8.527   8.460  73.269  1.00  0.00    -0.122 C  
HETATM    2  O   UNL     1      -7.623   8.791  72.228  1.00  0.00    -0.321 OA 
ENDROOT
BRANCH   2   3
HETATM    3  C   UNL     1      -7.682   7.988  71.015  1.00  0.00    -0.085 C  
HETATM    4  C   UNL     1      -8.201   6.501  71.174  1.00  0.00    -0.121 C  
HETATM    5  O   UNL     1      -5.207   7.534  70.315  1.00  0.00    -0.023 OA 
HETATM    6  S   UNL     1      -9.065   5.669  69.795  1.00  0.00    -0.139 SA 
HETATM    7  C   UNL     1      -6.286   7.245  70.785  1.00  0.00    -0.039 C  
HETATM    8  O   UNL     1      -6.729   3.734  72.348  1.00  0.00    -0.027 OA 
HETATM    9  O   UNL     1      -6.318   2.452  70.543  1.00  0.00    -0.023 OA 
HETATM   10  C   UNL     1      -6.521   3.562  71.018  1.00  0.00    -0.030 C  
HETATM   11  C   UNL     1      -7.548   4.934  69.055  1.00  0.00    -0.068 C  
HETATM   12  C   UNL     1      -7.918   3.599  68.398  1.00  0.00    -0.072 C  
HETATM   13  C   UNL     1      -7.092   5.886  67.932  1.00  0.00    -0.071 C  
HETATM   14  N   UNL     1      -6.800   6.015  71.102  1.00  0.00    -0.064 N  
HETATM   15  C   UNL     1      -6.520   4.869  70.209  1.00  0.00    -0.034 C  
BRANCH   3  16
HETATM   16  N   UNL     1      -8.037   8.791  69.802  1.00  0.00    -0.107 N  
HETATM   17  C   UNL     1      -9.993  11.330  68.601  1.00  0.00    -0.210 A  
HETATM   18  O   UNL     1     -10.316   8.554  69.899  1.00  0.00    -0.200 OA 
HETATM   19  C   UNL     1     -11.176  11.535  69.293  1.00  0.00    -0.272 A  
HETATM   20  O   UNL     1     -10.080   9.779  65.858  1.00  0.00    -0.282 OA 
HETATM   21  O   UNL     1     -11.160   8.469  67.328  1.00  0.00     0.028 OA 
HETATM   22  C   UNL     1      -9.438   9.985  68.172  1.00  0.00    -0.148 C  
HETATM   23  H   UNL     1      -7.269   9.180  69.254  1.00  0.00     0.000 HD 
HETATM   24  C   UNL     1      -9.318   9.046  69.369  1.00  0.00    -0.158 C  
HETATM   25  S   UNL     1     -11.471  13.181  69.644  1.00  0.00    -0.136 SA 
HETATM   26  C   UNL     1     -10.238   9.408  67.017  1.00  0.00    -0.255 C  
HETATM   27  C   UNL     1     -10.045  13.663  68.841  1.00  0.00    -0.038 A  
HETATM   28  C   UNL     1      -9.355  12.588  68.325  1.00  0.00    -0.193 A  
ENDBRANCH   3  16
ENDBRANCH   2   3
TORSDOF 2
ENDMDL
MODEL      143
REMARK 921   NORMALIZED FREE ENERGY PREDICTED BY IDOCK:   -2.51 KCAL/MOL
REMARK 922        TOTAL FREE ENERGY PREDICTED BY IDOCK:   -3.29 KCAL/MOL
REMARK 923 INTER-LIGAND FREE ENERGY PREDICTED BY IDOCK:   -3.12 KCAL/MOL
REMARK 924 INTRA-LIGAND FREE ENERGY PREDICTED BY IDOCK:   -0.17 KCAL/MOL
REMARK 927      BINDING AFFINITY PREDICTED BY RF-SCORE:    0.00 PKD
ROOT
HETATM    1  C   UNL     1     -11.043  18.470  65.431  1.00  0.00     0.731 C  
HETATM    2  O   UNL     1     -11.218  17.459  66.412  1.00  0.00     0.326 OA 
ENDROOT
BRANCH   2   3
HETATM    3  C   UNL     1     -10.068  17.132  67.242  1.00  0.00    -0.294 C  
HETATM    4  C   UNL     1      -9.356  18.340  67.975  1.00  0.00    -0.284 C  
HETATM    5  O   UNL     1      -8.166  16.407  65.605  1.00  0.00    -0.036 OA 
HETATM    6  S   UNL     1      -8.501  18.081  69.570  1.00  0.00     0.933 SA 
HETATM    7  C   UNL     1      -8.735  17.165  66.362  1.00  0.00    -0.256 C  
HETATM    8  O   UNL     1      -7.265  20.707  66.869  1.00  0.00    -0.292 OA 
HETATM    9  O   UNL     1      -5.244  20.172  67.705  1.00  0.00    -0.180 OA 
HETATM   10  C   UNL     1      -6.368  19.821  67.371  1.00  0.00    -0.190 C  
HETATM   11  C   UNL     1      -6.855  17.716  68.829  1.00  0.00    -0.235 C  
HETATM   12  C   UNL     1      -5.764  18.206  69.788  1.00  0.00    -0.239 C  
HETATM   13  C   UNL     1      -6.733  16.183  68.743  1.00  0.00    -0.136 C  
HETATM   14  N   UNL     1      -8.281  18.315  66.952  1.00  0.00    -0.240 N  
HETATM   15  C   UNL     1      -6.882  18.373  67.428  1.00  0.00    -0.198 C  
BRANCH   3  16
HETATM   16  N   UNL     1     -10.199  15.802  67.918  1.00  0.00    -0.238 N  
HETATM   17  C   UNL     1      -9.089  12.565  67.963  1.00  0.00    -0.200 A  
HETATM   18  O   UNL     1     -10.525  14.509  66.052  1.00  0.00    -0.288 OA 
HETATM   19  C   UNL     1      -8.611  12.093  66.750  1.00  0.00    -0.163 A  
HETATM   20  O   UNL     1     -11.985  11.730  68.887  1.00  0.00    -0.311 OA 
HETATM   21  O   UNL     1     -12.225  12.540  66.806  1.00  0.00    -0.532 OA 
HETATM   22  C   UNL     1     -10.364  13.361  68.164  1.00  0.00    -0.249 C  
HETATM   23  H   UNL     1     -10.157  15.786  68.938  1.00  0.00     0.000 HD 
HETATM   24  C   UNL     1     -10.371  14.600  67.271  1.00  0.00    -0.256 C  
HETATM   25  S   UNL     1      -7.122  11.266  66.892  1.00  0.00    -0.141 SA 
HETATM   26  C   UNL     1     -11.590  12.479  67.999  1.00  0.00    -0.342 C  
HETATM   27  C   UNL     1      -7.104  11.481  68.585  1.00  0.00    -0.098 A  
HETATM   28  C   UNL     1      -8.206  12.178  69.029  1.00  0.00     0.282 A  
ENDBRANCH   3  16
ENDBRANCH   2   3
TORSDOF 2
ENDMDL
MODEL      144
REMARK 921   NORMALIZED FREE ENERGY PREDICTED BY IDOCK:   -2.48 KCAL/MOL
REMARK 922        TOTAL FREE ENERGY PREDICTED BY IDOCK:   -3.26 KCAL/MOL
REMARK 923 INTER-LIGAND FREE ENERGY PREDICTED BY IDOCK:   -2.93 KCAL/MOL
REMARK 924 INTRA-LIGAND FREE ENERGY PREDICTED BY IDOCK:   -0.33 KCAL/MOL
REMARK 927      BINDING AFFINITY PREDICTED BY RF-SCORE:    0.00 PKD
ROOT
HETATM    1  C   UNL     1      -9.725   2.306  69.184  1.00  0.00     0.165 C  
HETATM    2  O   UNL     1      -9.473   3.528  68.508  1.00  0.00    -0.168 OA 
ENDROOT
BRANCH   2   3
HETATM    3  C   UNL     1      -8.819   4.584  69.265  1.00  0.00    -0.090 C  
HETATM    4  C   UNL     1      -8.679   4.356  70.824  1.00  0.00    -0.092 C  
HETATM    5  O   UNL     1     -10.457   6.619  69.248  1.00  0.00    -0.188 OA 
HETATM    6  S   UNL     1      -7.285   5.095  71.747  1.00  0.00    -0.082 SA 
HETATM    7  C   UNL     1      -9.899   5.662  69.740  1.00  0.00    -0.185 C  
HETATM    8  O   UNL     1     -10.887   4.602  73.327  1.00  0.00    -0.220 OA 
HETATM    9  O   UNL     1     -10.326   6.470  74.452  1.00  0.00    -0.346 OA 
HETATM   10  C   UNL     1     -10.302   5.823  73.412  1.00  0.00    -0.225 C  
HETATM   11  C   UNL     1      -8.164   6.655  72.175  1.00  0.00    -0.105 C  
HETATM   12  C   UNL     1      -7.650   7.154  73.530  1.00  0.00    -0.102 C  
HETATM   13  C   UNL     1      -7.760   7.701  71.119  1.00  0.00    -0.085 C  
HETATM   14  N   UNL     1      -9.823   5.275  71.052  1.00  0.00    -0.181 N  
HETATM   15  C   UNL     1      -9.671   6.309  72.098  1.00  0.00    -0.152 C  
BRANCH   3  16
HETATM   16  N   UNL     1      -7.729   5.263  68.494  1.00  0.00    -0.079 N  
HETATM   17  C   UNL     1      -6.811   8.145  66.894  1.00  0.00    -0.069 A  
HETATM   18  O   UNL     1      -8.973   5.959  66.697  1.00  0.00    -0.119 OA 
HETATM   19  C   UNL     1      -7.863   8.903  66.405  1.00  0.00    -0.103 A  
HETATM   20  O   UNL     1      -5.168   6.348  64.892  1.00  0.00    -0.019 OA 
HETATM   21  O   UNL     1      -7.323   5.813  64.555  1.00  0.00    -0.063 OA 
HETATM   22  C   UNL     1      -6.664   6.642  66.760  1.00  0.00    -0.056 C  
HETATM   23  H   UNL     1      -6.786   5.229  68.883  1.00  0.00     0.000 HD 
HETATM   24  C   UNL     1      -7.900   5.930  67.303  1.00  0.00    -0.102 C  
HETATM   25  S   UNL     1      -7.719  10.567  66.772  1.00  0.00    -0.123 SA 
HETATM   26  C   UNL     1      -6.309   6.253  65.334  1.00  0.00    -0.038 C  
HETATM   27  C   UNL     1      -6.225  10.318  67.557  1.00  0.00    -0.057 A  
HETATM   28  C   UNL     1      -5.850   8.992  67.546  1.00  0.00    -0.043 A  
ENDBRANCH   3  16
ENDBRANCH   2   3
TORSDOF 2
ENDMDL
MODEL      145
REMARK 921   NORMALIZED FREE ENERGY PREDICTED BY IDOCK:   -2.36 KCAL/MOL
REMARK 922        TOTAL FREE ENERGY PREDICTED BY IDOCK:   -3.11 KCAL/MOL
REMARK 923 INTER-LIGAND FREE ENERGY PREDICTED BY IDOCK:   -2.68 KCAL/MOL
REMARK 924 INTRA-LIGAND FREE ENERGY PREDICTED BY IDOCK:   -0.44 KCAL/MOL
REMARK 927      BINDING AFFINITY PREDICTED BY RF-SCORE:    0.00 PKD
ROOT
HETATM    1  C   UNL     1     -11.519   5.778  65.994  1.00  0.00     1.340 C  
HETATM    2  O   UNL     1     -11.480   5.791  67.412  1.00  0.00     0.403 OA 
ENDROOT
BRANCH   2   3
HETATM    3  C   UNL     1     -10.180   5.970  68.040  1.00  0.00    -0.181 C  
HETATM    4  C   UNL     1      -8.913   5.647  67.149  1.00  0.00    -0.112 C  
HETATM    5  O   UNL     1      -9.967   4.085  69.836  1.00  0.00    -0.186 OA 
HETATM    6  S   UNL     1      -7.332   6.520  67.435  1.00  0.00    -0.092 SA 
HETATM    7  C   UNL     1      -9.738   4.620  68.772  1.00  0.00    -0.160 C  
HETATM    8  O   UNL     1      -7.516   2.753  66.214  1.00  0.00    -0.072 OA 
HETATM    9  O   UNL     1      -5.612   2.584  67.405  1.00  0.00    -0.017 OA 
HETATM   10  C   UNL     1      -6.737   3.051  67.285  1.00  0.00    -0.045 C  
HETATM   11  C   UNL     1      -6.662   5.286  68.625  1.00  0.00    -0.050 C  
HETATM   12  C   UNL     1      -5.136   5.245  68.485  1.00  0.00     0.000 C  
HETATM   13  C   UNL     1      -6.978   5.810  70.039  1.00  0.00    -0.065 C  
HETATM   14  N   UNL     1      -8.766   4.345  67.847  1.00  0.00    -0.103 N  
HETATM   15  C   UNL     1      -7.414   3.969  68.316  1.00  0.00    -0.059 C  
BRANCH   3  16
HETATM   16  N   UNL     1     -10.155   7.108  69.013  1.00  0.00    -0.178 N  
HETATM   17  C   UNL     1     -10.118   7.953  72.330  1.00  0.00    -0.297 A  
HETATM   18  O   UNL     1     -11.923   6.463  70.326  1.00  0.00    -0.361 OA 
HETATM   19  C   UNL     1     -10.681   7.013  73.179  1.00  0.00    -0.326 A  
HETATM   20  O   UNL     1     -11.795  10.508  71.556  1.00  0.00    -0.255 OA 
HETATM   21  O   UNL     1     -13.129   8.754  71.119  1.00  0.00    -0.217 OA 
HETATM   22  C   UNL     1     -10.708   8.425  71.014  1.00  0.00    -0.267 C  
HETATM   23  H   UNL     1      -9.463   7.843  68.862  1.00  0.00     0.000 HD 
HETATM   24  C   UNL     1     -10.994   7.239  70.096  1.00  0.00    -0.260 C  
HETATM   25  S   UNL     1      -9.722   6.695  74.557  1.00  0.00    -0.250 SA 
HETATM   26  C   UNL     1     -11.909   9.325  71.247  1.00  0.00    -0.343 C  
HETATM   27  C   UNL     1      -8.551   7.837  74.072  1.00  0.00    -0.265 A  
HETATM   28  C   UNL     1      -8.882   8.441  72.878  1.00  0.00    -0.258 A  
ENDBRANCH   3  16
ENDBRANCH   2   3
TORSDOF 2
ENDMDL
MODEL      146
REMARK 921   NORMALIZED FREE ENERGY PREDICTED BY IDOCK:   -2.32 KCAL/MOL
REMARK 922        TOTAL FREE ENERGY PREDICTED BY IDOCK:   -3.08 KCAL/MOL
REMARK 923 INTER-LIGAND FREE ENERGY PREDICTED BY IDOCK:   -2.81 KCAL/MOL
REMARK 924 INTRA-LIGAND FREE ENERGY PREDICTED BY IDOCK:   -0.27 KCAL/MOL
REMARK 927      BINDING AFFINITY PREDICTED BY RF-SCORE:    0.00 PKD
ROOT
HETATM    1  C   UNL     1      -6.588  16.098  69.304  1.00  0.00    -0.189 C  
HETATM    2  O   UNL     1      -7.570  15.095  69.512  1.00  0.00    -0.201 OA 
ENDROOT
BRANCH   2   3
HETATM    3  C   UNL     1      -8.022  14.355  68.343  1.00  0.00    -0.141 C  
HETATM    4  C   UNL     1      -8.748  12.975  68.615  1.00  0.00     0.055 C  
HETATM    5  O   UNL     1      -5.866  13.505  67.136  1.00  0.00    -0.275 OA 
HETATM    6  S   UNL     1     -10.014  12.350  67.454  1.00  0.00    -0.204 SA 
HETATM    7  C   UNL     1      -6.857  13.391  67.826  1.00  0.00    -0.160 C  
HETATM    8  O   UNL     1      -7.572   9.959  69.463  1.00  0.00    -0.096 OA 
HETATM    9  O   UNL     1      -7.778   8.685  67.618  1.00  0.00    -0.100 OA 
HETATM   10  C   UNL     1      -7.679   9.797  68.120  1.00  0.00    -0.082 C  
HETATM   11  C   UNL     1      -8.838  11.390  66.412  1.00  0.00    -0.192 C  
HETATM   12  C   UNL     1      -9.565  10.161  65.855  1.00  0.00    -0.274 C  
HETATM   13  C   UNL     1      -8.467  12.285  65.214  1.00  0.00     1.396 C  
HETATM   14  N   UNL     1      -7.501  12.258  68.249  1.00  0.00    -0.110 N  
HETATM   15  C   UNL     1      -7.618  11.110  67.323  1.00  0.00    -0.126 C  
BRANCH   3  16
HETATM   16  N   UNL     1      -8.476  15.247  67.229  1.00  0.00    -0.178 N  
HETATM   17  C   UNL     1     -10.053  18.186  66.464  1.00  0.00    -0.389 A  
HETATM   18  O   UNL     1     -10.656  15.522  67.889  1.00  0.00    -0.260 OA 
HETATM   19  C   UNL     1     -10.954  18.632  67.418  1.00  0.00    -0.179 A  
HETATM   20  O   UNL     1     -11.154  16.762  63.876  1.00  0.00    -0.624 OA 
HETATM   21  O   UNL     1     -12.103  15.689  65.606  1.00  0.00     0.489 OA 
HETATM   22  C   UNL     1      -9.933  16.762  65.955  1.00  0.00    -0.299 C  
HETATM   23  H   UNL     1      -7.800  15.468  66.497  1.00  0.00     0.000 HD 
HETATM   24  C   UNL     1      -9.735  15.791  67.115  1.00  0.00    -0.223 C  
HETATM   25  S   UNL     1     -10.781  20.294  67.779  1.00  0.00     0.228 SA 
HETATM   26  C   UNL     1     -11.100  16.407  65.049  1.00  0.00    -0.208 C  
HETATM   27  C   UNL     1      -9.525  20.466  66.636  1.00  0.00    -0.305 A  
HETATM   28  C   UNL     1      -9.239  19.277  66.001  1.00  0.00    -0.162 A  
ENDBRANCH   3  16
ENDBRANCH   2   3
TORSDOF 2
ENDMDL
MODEL      147
REMARK 921   NORMALIZED FREE ENERGY PREDICTED BY IDOCK:   -2.19 KCAL/MOL
REMARK 922        TOTAL FREE ENERGY PREDICTED BY IDOCK:   -2.93 KCAL/MOL
REMARK 923 INTER-LIGAND FREE ENERGY PREDICTED BY IDOCK:   -2.79 KCAL/MOL
REMARK 924 INTRA-LIGAND FREE ENERGY PREDICTED BY IDOCK:   -0.14 KCAL/MOL
REMARK 927      BINDING AFFINITY PREDICTED BY RF-SCORE:    0.00 PKD
ROOT
HETATM    1  C   UNL     1      -7.585   3.245  65.667  1.00  0.00    -0.077 C  
HETATM    2  O   UNL     1      -7.316   3.740  66.970  1.00  0.00    -0.069 OA 
ENDROOT
BRANCH   2   3
HETATM    3  C   UNL     1      -8.033   4.935  67.387  1.00  0.00    -0.095 C  
HETATM    4  C   UNL     1      -8.784   5.744  66.254  1.00  0.00    -0.134 C  
HETATM    5  O   UNL     1      -6.213   6.682  68.066  1.00  0.00    -0.032 OA 
HETATM    6  S   UNL     1     -10.289   6.706  66.643  1.00  0.00    -0.093 SA 
HETATM    7  C   UNL     1      -7.057   6.200  67.341  1.00  0.00    -0.070 C  
HETATM    8  O   UNL     1      -7.671   7.834  63.889  1.00  0.00    -0.111 OA 
HETATM    9  O   UNL     1      -8.315   9.891  64.543  1.00  0.00    -0.145 OA 
HETATM   10  C   UNL     1      -8.046   8.732  64.835  1.00  0.00    -0.147 C  
HETATM   11  C   UNL     1      -9.404   8.277  67.013  1.00  0.00    -0.160 C  
HETATM   12  C   UNL     1     -10.305   9.453  66.622  1.00  0.00    -0.284 C  
HETATM   13  C   UNL     1      -9.212   8.334  68.540  1.00  0.00    -0.136 C  
HETATM   14  N   UNL     1      -7.681   6.739  66.247  1.00  0.00    -0.096 N  
HETATM   15  C   UNL     1      -8.053   8.170  66.265  1.00  0.00    -0.107 C  
BRANCH   3  16
HETATM   16  N   UNL     1      -8.633   4.806  68.754  1.00  0.00    -0.088 N  
HETATM   17  C   UNL     1      -7.952   4.606  72.102  1.00  0.00    -0.101 A  
HETATM   18  O   UNL     1      -7.369   3.047  69.509  1.00  0.00    -0.044 OA 
HETATM   19  C   UNL     1      -6.702   4.094  72.415  1.00  0.00    -0.037 A  
HETATM   20  O   UNL     1     -10.474   2.733  72.363  1.00  0.00    -0.132 OA 
HETATM   21  O   UNL     1      -9.003   1.594  71.105  1.00  0.00    -0.059 OA 
HETATM   22  C   UNL     1      -8.910   4.037  71.072  1.00  0.00    -0.135 C  
HETATM   23  H   UNL     1      -9.404   5.431  68.991  1.00  0.00     0.000 HD 
HETATM   24  C   UNL     1      -8.226   3.908  69.714  1.00  0.00    -0.053 C  
HETATM   25  S   UNL     1      -5.878   5.013  73.597  1.00  0.00    -0.027 SA 
HETATM   26  C   UNL     1      -9.539   2.746  71.568  1.00  0.00    -0.151 C  
HETATM   27  C   UNL     1      -7.191   6.092  73.749  1.00  0.00    -0.084 A  
HETATM   28  C   UNL     1      -8.231   5.762  72.908  1.00  0.00    -0.119 A  
ENDBRANCH   3  16
ENDBRANCH   2   3
TORSDOF 2
ENDMDL
MODEL      148
REMARK 921   NORMALIZED FREE ENERGY PREDICTED BY IDOCK:   -2.16 KCAL/MOL
REMARK 922        TOTAL FREE ENERGY PREDICTED BY IDOCK:   -2.89 KCAL/MOL
REMARK 923 INTER-LIGAND FREE ENERGY PREDICTED BY IDOCK:   -2.62 KCAL/MOL
REMARK 924 INTRA-LIGAND FREE ENERGY PREDICTED BY IDOCK:   -0.27 KCAL/MOL
REMARK 927      BINDING AFFINITY PREDICTED BY RF-SCORE:    0.00 PKD
ROOT
HETATM    1  C   UNL     1      -6.539   5.170  70.338  1.00  0.00    -0.035 C  
HETATM    2  O   UNL     1      -6.081   5.000  69.006  1.00  0.00    -0.026 OA 
ENDROOT
BRANCH   2   3
HETATM    3  C   UNL     1      -7.078   5.056  67.947  1.00  0.00    -0.062 C  
HETATM    4  C   UNL     1      -7.581   3.671  67.373  1.00  0.00    -0.074 C  
HETATM    5  O   UNL     1      -5.858   6.007  65.842  1.00  0.00    -0.022 OA 
HETATM    6  S   UNL     1      -9.272   3.506  66.697  1.00  0.00    -0.172 SA 
HETATM    7  C   UNL     1      -6.356   5.137  66.524  1.00  0.00    -0.036 C  
HETATM    8  O   UNL     1      -6.178   1.484  65.263  1.00  0.00    -0.020 OA 
HETATM    9  O   UNL     1      -7.320   1.684  63.332  1.00  0.00    -0.045 OA 
HETATM   10  C   UNL     1      -6.961   2.174  64.395  1.00  0.00    -0.047 C  
HETATM   11  C   UNL     1      -8.810   3.922  64.964  1.00  0.00    -0.126 C  
HETATM   12  C   UNL     1      -9.736   3.159  64.011  1.00  0.00    -0.149 C  
HETATM   13  C   UNL     1      -9.093   5.424  64.773  1.00  0.00     0.108 C  
HETATM   14  N   UNL     1      -6.708   3.856  66.186  1.00  0.00    -0.048 N  
HETATM   15  C   UNL     1      -7.299   3.601  64.855  1.00  0.00    -0.072 C  
BRANCH   3  16
HETATM   16  N   UNL     1      -8.027   6.205  68.102  1.00  0.00    -0.106 N  
HETATM   17  C   UNL     1      -8.902   9.291  66.910  1.00  0.00    -0.141 A  
HETATM   18  O   UNL     1      -6.484   7.899  68.217  1.00  0.00    -0.051 OA 
HETATM   19  C   UNL     1      -7.874   9.999  66.308  1.00  0.00    -0.111 A  
HETATM   20  O   UNL     1      -9.746  10.037  69.855  1.00  0.00    -0.227 OA 
HETATM   21  O   UNL     1      -7.522   9.728  69.923  1.00  0.00    -0.104 OA 
HETATM   22  C   UNL     1      -8.808   8.533  68.221  1.00  0.00    -0.142 C  
HETATM   23  H   UNL     1      -9.023   5.989  68.155  1.00  0.00     0.000 HD 
HETATM   24  C   UNL     1      -7.659   7.529  68.180  1.00  0.00    -0.114 C  
HETATM   25  S   UNL     1      -8.326  10.700  64.816  1.00  0.00    -0.004 SA 
HETATM   26  C   UNL     1      -8.746   9.488  69.400  1.00  0.00    -0.165 C  
HETATM   27  C   UNL     1      -9.920  10.108  64.961  1.00  0.00    -0.305 A  
HETATM   28  C   UNL     1     -10.099   9.384  66.119  1.00  0.00    -0.324 A  
ENDBRANCH   3  16
ENDBRANCH   2   3
TORSDOF 2
ENDMDL
MODEL      149
REMARK 921   NORMALIZED FREE ENERGY PREDICTED BY IDOCK:   -1.92 KCAL/MOL
REMARK 922        TOTAL FREE ENERGY PREDICTED BY IDOCK:   -2.62 KCAL/MOL
REMARK 923 INTER-LIGAND FREE ENERGY PREDICTED BY IDOCK:   -3.72 KCAL/MOL
REMARK 924 INTRA-LIGAND FREE ENERGY PREDICTED BY IDOCK:    1.10 KCAL/MOL
REMARK 927      BINDING AFFINITY PREDICTED BY RF-SCORE:    0.00 PKD
ROOT
HETATM    1  C   UNL     1      -8.275  12.159  68.054  1.00  0.00    -0.158 C  
HETATM    2  O   UNL     1      -9.362  11.455  68.635  1.00  0.00    -0.185 OA 
ENDROOT
BRANCH   2   3
HETATM    3  C   UNL     1      -9.272  10.003  68.667  1.00  0.00    -0.152 C  
HETATM    4  C   UNL     1      -9.923   9.280  69.915  1.00  0.00    -0.205 C  
HETATM    5  O   UNL     1      -6.755   9.434  69.073  1.00  0.00    -0.050 OA 
HETATM    6  S   UNL     1     -10.597   7.588  69.759  1.00  0.00    -0.239 SA 
HETATM    7  C   UNL     1      -7.919   9.558  69.391  1.00  0.00    -0.099 C  
HETATM    8  O   UNL     1      -8.895   8.925  73.080  1.00  0.00    -0.253 OA 
HETATM    9  O   UNL     1      -8.278   6.769  73.280  1.00  0.00    -0.110 OA 
HETATM   10  C   UNL     1      -8.473   7.743  72.565  1.00  0.00    -0.131 C  
HETATM   11  C   UNL     1      -9.036   6.733  70.228  1.00  0.00    -0.152 C  
HETATM   12  C   UNL     1      -9.387   5.426  70.948  1.00  0.00    -0.196 C  
HETATM   13  C   UNL     1      -8.320   6.355  68.917  1.00  0.00    -0.121 C  
HETATM   14  N   UNL     1      -8.573   9.105  70.506  1.00  0.00    -0.199 N  
HETATM   15  C   UNL     1      -8.231   7.771  71.047  1.00  0.00    -0.103 C  
BRANCH   3  16
HETATM   16  N   UNL     1      -9.348   9.385  67.305  1.00  0.00    -0.129 N  
HETATM   17  C   UNL     1      -7.939   7.091  65.191  1.00  0.00    -0.128 A  
HETATM   18  O   UNL     1      -7.157   9.669  66.687  1.00  0.00    -0.084 OA 
HETATM   19  C   UNL     1      -6.599   6.826  65.424  1.00  0.00    -0.050 A  
HETATM   20  O   UNL     1      -8.722   9.007  62.813  1.00  0.00    -0.216 OA 
HETATM   21  O   UNL     1      -7.197  10.133  64.019  1.00  0.00    -0.135 OA 
HETATM   22  C   UNL     1      -8.578   8.467  65.158  1.00  0.00    -0.159 C  
HETATM   23  H   UNL     1     -10.260   9.054  66.988  1.00  0.00     0.000 HD 
HETATM   24  C   UNL     1      -8.283   9.228  66.448  1.00  0.00    -0.111 C  
HETATM   25  S   UNL     1      -6.236   5.156  65.427  1.00  0.00    -0.035 SA 
HETATM   26  C   UNL     1      -8.188   9.220  63.898  1.00  0.00    -0.165 C  
HETATM   27  C   UNL     1      -7.855   4.750  65.073  1.00  0.00    -0.094 A  
HETATM   28  C   UNL     1      -8.656   5.866  64.965  1.00  0.00    -0.065 A  
ENDBRANCH   3  16
ENDBRANCH   2   3
TORSDOF 2
ENDMDL
MODEL      150
REMARK 921   NORMALIZED FREE ENERGY PREDICTED BY IDOCK:   -1.91 KCAL/MOL
REMARK 922        TOTAL FREE ENERGY PREDICTED BY IDOCK:   -2.61 KCAL/MOL
REMARK 923 INTER-LIGAND FREE ENERGY PREDICTED BY IDOCK:   -4.03 KCAL/MOL
REMARK 924 INTRA-LIGAND FREE ENERGY PREDICTED BY IDOCK:    1.41 KCAL/MOL
REMARK 927      BINDING AFFINITY PREDICTED BY RF-SCORE:    0.00 PKD
ROOT
HETATM    1  C   UNL     1      -5.286  11.178  70.631  1.00  0.00    -0.119 C  
HETATM    2  O   UNL     1      -5.492  12.307  69.796  1.00  0.00    -0.076 OA 
ENDROOT
BRANCH   2   3
HETATM    3  C   UNL     1      -6.723  12.344  69.020  1.00  0.00    -0.100 C  
HETATM    4  C   UNL     1      -7.556  11.001  68.948  1.00  0.00    -0.134 C  
HETATM    5  O   UNL     1      -6.005  12.570  66.519  1.00  0.00     0.071 OA 
HETATM    6  S   UNL     1      -9.373  11.046  68.749  1.00  0.00    -0.148 SA 
HETATM    7  C   UNL     1      -6.416  11.980  67.495  1.00  0.00    -0.124 C  
HETATM    8  O   UNL     1      -7.112   8.187  67.192  1.00  0.00    -0.076 OA 
HETATM    9  O   UNL     1      -8.698   8.210  65.594  1.00  0.00    -0.161 OA 
HETATM   10  C   UNL     1      -7.996   8.826  66.385  1.00  0.00    -0.103 C  
HETATM   11  C   UNL     1      -9.350  10.992  66.908  1.00  0.00    -0.173 C  
HETATM   12  C   UNL     1     -10.601  10.252  66.423  1.00  0.00    -0.177 C  
HETATM   13  C   UNL     1      -9.458  12.448  66.416  1.00  0.00    -0.240 C  
HETATM   14  N   UNL     1      -7.024  10.756  67.583  1.00  0.00    -0.080 N  
HETATM   15  C   UNL     1      -7.989  10.356  66.535  1.00  0.00    -0.123 C  
BRANCH   3  16
HETATM   16  N   UNL     1      -7.420  13.668  69.097  1.00  0.00    -0.307 N  
HETATM   17  C   UNL     1      -9.318  15.935  67.373  1.00  0.00    -0.214 A  
HETATM   18  O   UNL     1      -6.536  14.620  67.206  1.00  0.00    -0.298 OA 
HETATM   19  C   UNL     1      -9.157  15.905  65.997  1.00  0.00    -0.328 A  
HETATM   20  O   UNL     1      -7.872  18.195  69.028  1.00  0.00    -0.218 OA 
HETATM   21  O   UNL     1      -6.272  17.257  67.762  1.00  0.00    -0.141 OA 
HETATM   22  C   UNL     1      -8.199  15.892  68.397  1.00  0.00    -0.161 C  
HETATM   23  H   UNL     1      -8.025  13.835  69.901  1.00  0.00     0.000 HD 
HETATM   24  C   UNL     1      -7.305  14.676  68.167  1.00  0.00    -0.125 C  
HETATM   25  S   UNL     1     -10.641  15.931  65.148  1.00  0.00    -0.330 SA 
HETATM   26  C   UNL     1      -7.444  17.210  68.436  1.00  0.00    -0.227 C  
HETATM   27  C   UNL     1     -11.531  16.025  66.601  1.00  0.00     0.409 A  
HETATM   28  C   UNL     1     -10.712  16.027  67.709  1.00  0.00    -0.323 A  
ENDBRANCH   3  16
ENDBRANCH   2   3
TORSDOF 2
ENDMDL
MODEL      151
REMARK 921   NORMALIZED FREE ENERGY PREDICTED BY IDOCK:   -1.90 KCAL/MOL
REMARK 922        TOTAL FREE ENERGY PREDICTED BY IDOCK:   -2.60 KCAL/MOL
REMARK 923 INTER-LIGAND FREE ENERGY PREDICTED BY IDOCK:   -3.16 KCAL/MOL
REMARK 924 INTRA-LIGAND FREE ENERGY PREDICTED BY IDOCK:    0.56 KCAL/MOL
REMARK 927      BINDING AFFINITY PREDICTED BY RF-SCORE:    0.00 PKD
ROOT
HETATM    1  C   UNL     1     -10.992  10.100  68.742  1.00  0.00    -0.223 C  
HETATM    2  O   UNL     1     -10.248   8.903  68.910  1.00  0.00    -0.196 OA 
ENDROOT
BRANCH   2   3
HETATM    3  C   UNL     1      -9.119   8.692  68.016  1.00  0.00    -0.140 C  
HETATM    4  C   UNL     1      -8.854   7.204  67.549  1.00  0.00    -0.119 C  
HETATM    5  O   UNL     1      -6.969   9.113  69.439  1.00  0.00    -0.051 OA 
HETATM    6  S   UNL     1      -8.083   6.865  65.926  1.00  0.00    -0.125 SA 
HETATM    7  C   UNL     1      -7.792   8.431  68.868  1.00  0.00    -0.113 C  
HETATM    8  O   UNL     1      -7.478   4.583  69.110  1.00  0.00    -0.055 OA 
HETATM    9  O   UNL     1      -5.459   4.298  68.156  1.00  0.00    -0.014 OA 
HETATM   10  C   UNL     1      -6.400   5.034  68.421  1.00  0.00    -0.036 C  
HETATM   11  C   UNL     1      -6.352   6.851  66.553  1.00  0.00    -0.049 C  
HETATM   12  C   UNL     1      -5.531   5.871  65.708  1.00  0.00    -0.010 C  
HETATM   13  C   UNL     1      -5.776   8.260  66.309  1.00  0.00    -0.040 C  
HETATM   14  N   UNL     1      -7.745   7.104  68.531  1.00  0.00    -0.118 N  
HETATM   15  C   UNL     1      -6.466   6.527  68.062  1.00  0.00    -0.053 C  
BRANCH   3  16
HETATM   16  N   UNL     1      -8.901   9.836  67.073  1.00  0.00    -0.134 N  
HETATM   17  C   UNL     1     -10.253  12.713  65.806  1.00  0.00    -0.288 A  
HETATM   18  O   UNL     1     -10.880   9.698  65.920  1.00  0.00     0.266 OA 
HETATM   19  C   UNL     1     -11.638  12.765  65.821  1.00  0.00    -0.376 A  
HETATM   20  O   UNL     1      -8.780  12.049  63.099  1.00  0.00     0.253 OA 
HETATM   21  O   UNL     1     -10.302  10.420  63.375  1.00  0.00    -0.003 OA 
HETATM   22  C   UNL     1      -9.414  11.528  65.366  1.00  0.00    -0.220 C  
HETATM   23  H   UNL     1      -8.010  10.329  67.129  1.00  0.00     0.000 HD 
HETATM   24  C   UNL     1      -9.811  10.272  66.137  1.00  0.00    -0.225 C  
HETATM   25  S   UNL     1     -12.247  14.247  66.414  1.00  0.00    -0.320 SA 
HETATM   26  C   UNL     1      -9.457  11.360  63.856  1.00  0.00    -0.153 C  
HETATM   27  C   UNL     1     -10.673  14.870  66.626  1.00  0.00    -0.312 A  
HETATM   28  C   UNL     1      -9.705  13.962  66.260  1.00  0.00    -0.304 A  
ENDBRANCH   3  16
ENDBRANCH   2   3
TORSDOF 2
ENDMDL
MODEL      152
REMARK 921   NORMALIZED FREE ENERGY PREDICTED BY IDOCK:   -1.79 KCAL/MOL
REMARK 922        TOTAL FREE ENERGY PREDICTED BY IDOCK:   -2.48 KCAL/MOL
REMARK 923 INTER-LIGAND FREE ENERGY PREDICTED BY IDOCK:   -3.70 KCAL/MOL
REMARK 924 INTRA-LIGAND FREE ENERGY PREDICTED BY IDOCK:    1.22 KCAL/MOL
REMARK 927      BINDING AFFINITY PREDICTED BY RF-SCORE:    0.00 PKD
ROOT
HETATM    1  C   UNL     1     -11.030   6.475  68.531  1.00  0.00    -0.286 C  
HETATM    2  O   UNL     1     -10.640   7.574  69.339  1.00  0.00    -0.226 OA 
ENDROOT
BRANCH   2   3
HETATM    3  C   UNL     1      -9.778   8.575  68.729  1.00  0.00    -0.164 C  
HETATM    4  C   UNL     1      -9.628   9.947  69.503  1.00  0.00    -0.225 C  
HETATM    5  O   UNL     1     -11.016   9.396  66.581  1.00  0.00     0.022 OA 
HETATM    6  S   UNL     1      -8.091  10.927  69.362  1.00  0.00     0.107 SA 
HETATM    7  C   UNL     1     -10.626   9.484  67.725  1.00  0.00    -0.261 C  
HETATM    8  O   UNL     1     -11.666  12.586  69.790  1.00  0.00    -0.307 OA 
HETATM    9  O   UNL     1     -10.734  14.212  68.541  1.00  0.00    -0.240 OA 
HETATM   10  C   UNL     1     -10.865  13.020  68.783  1.00  0.00    -0.244 C  
HETATM   11  C   UNL     1      -8.655  11.934  67.927  1.00  0.00    -0.162 C  
HETATM   12  C   UNL     1      -8.012  13.322  68.018  1.00  0.00    -0.152 C  
HETATM   13  C   UNL     1      -8.103  11.256  66.659  1.00  0.00    -0.160 C  
HETATM   14  N   UNL     1     -10.576  10.577  68.550  1.00  0.00    -0.192 N  
HETATM   15  C   UNL     1     -10.201  11.890  67.980  1.00  0.00    -0.192 C  
BRANCH   3  16
HETATM   16  N   UNL     1      -8.609   7.976  68.009  1.00  0.00    -0.129 N  
HETATM   17  C   UNL     1      -6.910   7.864  65.040  1.00  0.00    -0.051 A  
HETATM   18  O   UNL     1      -9.715   7.226  66.144  1.00  0.00    -0.060 OA 
HETATM   19  C   UNL     1      -7.672   8.153  63.919  1.00  0.00    -0.138 A  
HETATM   20  O   UNL     1      -6.242   4.854  65.695  1.00  0.00    -0.032 OA 
HETATM   21  O   UNL     1      -8.469   4.932  65.421  1.00  0.00    -0.123 OA 
HETATM   22  C   UNL     1      -7.322   6.953  66.181  1.00  0.00    -0.076 C  
HETATM   23  H   UNL     1      -7.703   8.002  68.478  1.00  0.00     0.000 HD 
HETATM   24  C   UNL     1      -8.663   7.393  66.764  1.00  0.00    -0.133 C  
HETATM   25  S   UNL     1      -6.908   9.250  62.854  1.00  0.00    -0.092 SA 
HETATM   26  C   UNL     1      -7.286   5.495  65.756  1.00  0.00    -0.073 C  
HETATM   27  C   UNL     1      -5.523   9.331  63.846  1.00  0.00    -0.062 A  
HETATM   28  C   UNL     1      -5.646   8.545  64.970  1.00  0.00    -0.047 A  
ENDBRANCH   3  16
ENDBRANCH   2   3
TORSDOF 2
ENDMDL
MODEL      153
REMARK 921   NORMALIZED FREE ENERGY PREDICTED BY IDOCK:   -1.71 KCAL/MOL
REMARK 922        TOTAL FREE ENERGY PREDICTED BY IDOCK:   -2.40 KCAL/MOL
REMARK 923 INTER-LIGAND FREE ENERGY PREDICTED BY IDOCK:   -2.97 KCAL/MOL
REMARK 924 INTRA-LIGAND FREE ENERGY PREDICTED BY IDOCK:    0.58 KCAL/MOL
REMARK 927      BINDING AFFINITY PREDICTED BY RF-SCORE:    0.00 PKD
ROOT
HETATM    1  C   UNL     1      -9.546   3.444  70.969  1.00  0.00    -0.169 C  
HETATM    2  O   UNL     1     -10.142   3.980  69.798  1.00  0.00    -0.083 OA 
ENDROOT
BRANCH   2   3
HETATM    3  C   UNL     1      -9.308   4.821  68.953  1.00  0.00    -0.135 C  
HETATM    4  C   UNL     1      -9.188   4.400  67.432  1.00  0.00    -0.143 C  
HETATM    5  O   UNL     1      -6.845   4.427  69.730  1.00  0.00    -0.040 OA 
HETATM    6  S   UNL     1      -8.902   5.662  66.141  1.00  0.00    -0.145 SA 
HETATM    7  C   UNL     1      -7.797   4.301  68.990  1.00  0.00    -0.061 C  
HETATM    8  O   UNL     1      -7.440   1.984  65.912  1.00  0.00    -0.063 OA 
HETATM    9  O   UNL     1      -5.768   3.033  64.829  1.00  0.00    -0.013 OA 
HETATM   10  C   UNL     1      -6.596   3.031  65.731  1.00  0.00    -0.036 C  
HETATM   11  C   UNL     1      -7.064   5.553  66.193  1.00  0.00    -0.068 C  
HETATM   12  C   UNL     1      -6.514   5.847  64.793  1.00  0.00    -0.038 C  
HETATM   13  C   UNL     1      -6.575   6.680  67.123  1.00  0.00    -0.051 C  
HETATM   14  N   UNL     1      -7.850   3.820  67.708  1.00  0.00    -0.080 N  
HETATM   15  C   UNL     1      -6.754   4.152  66.771  1.00  0.00    -0.050 C  
BRANCH   3  16
HETATM   16  N   UNL     1      -9.358   6.267  69.340  1.00  0.00    -0.140 N  
HETATM   17  C   UNL     1      -7.806   8.740  71.125  1.00  0.00    -0.161 A  
HETATM   18  O   UNL     1      -9.152   6.011  71.611  1.00  0.00    -0.143 OA 
HETATM   19  C   UNL     1      -7.055   8.301  72.203  1.00  0.00    -0.090 A  
HETATM   20  O   UNL     1     -10.664   9.961  71.654  1.00  0.00     0.020 OA 
HETATM   21  O   UNL     1     -10.647   7.981  72.714  1.00  0.00    -0.315 OA 
HETATM   22  C   UNL     1      -9.201   8.266  70.763  1.00  0.00    -0.174 C  
HETATM   23  H   UNL     1      -9.496   6.950  68.594  1.00  0.00     0.000 HD 
HETATM   24  C   UNL     1      -9.232   6.746  70.624  1.00  0.00    -0.155 C  
HETATM   25  S   UNL     1      -5.509   9.026  72.285  1.00  0.00    -0.069 SA 
HETATM   26  C   UNL     1     -10.233   8.815  71.733  1.00  0.00    -0.338 C  
HETATM   27  C   UNL     1      -5.825   9.977  70.903  1.00  0.00    -0.088 A  
HETATM   28  C   UNL     1      -7.080   9.738  70.388  1.00  0.00    -0.146 A  
ENDBRANCH   3  16
ENDBRANCH   2   3
TORSDOF 2
ENDMDL
MODEL      154
REMARK 921   NORMALIZED FREE ENERGY PREDICTED BY IDOCK:   -1.70 KCAL/MOL
REMARK 922        TOTAL FREE ENERGY PREDICTED BY IDOCK:   -2.38 KCAL/MOL
REMARK 923 INTER-LIGAND FREE ENERGY PREDICTED BY IDOCK:   -4.38 KCAL/MOL
REMARK 924 INTRA-LIGAND FREE ENERGY PREDICTED BY IDOCK:    2.00 KCAL/MOL
REMARK 927      BINDING AFFINITY PREDICTED BY RF-SCORE:    0.00 PKD
ROOT
HETATM    1  C   UNL     1     -12.472  13.274  69.645  1.00  0.00     0.036 C  
HETATM    2  O   UNL     1     -11.310  12.461  69.701  1.00  0.00    -0.217 OA 
ENDROOT
BRANCH   2   3
HETATM    3  C   UNL     1     -10.633  12.182  68.444  1.00  0.00    -0.226 C  
HETATM    4  C   UNL     1     -10.995  13.118  67.221  1.00  0.00    -0.268 C  
HETATM    5  O   UNL     1     -11.598   9.912  67.581  1.00  0.00     0.019 OA 
HETATM    6  S   UNL     1      -9.765  13.445  65.908  1.00  0.00    -0.118 SA 
HETATM    7  C   UNL     1     -11.474  11.118  67.598  1.00  0.00    -0.250 C  
HETATM    8  O   UNL     1     -13.659  13.224  65.198  1.00  0.00    -0.186 OA 
HETATM    9  O   UNL     1     -12.953  12.414  63.219  1.00  0.00    -0.675 OA 
HETATM   10  C   UNL     1     -12.817  12.484  64.434  1.00  0.00    -0.275 C  
HETATM   11  C   UNL     1     -10.279  12.042  64.832  1.00  0.00    -0.270 C  
HETATM   12  C   UNL     1     -10.045  12.432  63.369  1.00  0.00    -0.156 C  
HETATM   13  C   UNL     1      -9.335  10.866  65.148  1.00  0.00    -0.252 C  
HETATM   14  N   UNL     1     -11.869  12.050  66.674  1.00  0.00    -0.259 N  
HETATM   15  C   UNL     1     -11.741  11.732  65.235  1.00  0.00    -0.065 C  
BRANCH   3  16
HETATM   16  N   UNL     1      -9.232  11.686  68.634  1.00  0.00    -0.338 N  
HETATM   17  C   UNL     1      -6.745   9.748  67.305  1.00  0.00    -0.074 A  
HETATM   18  O   UNL     1      -9.629   9.445  68.347  1.00  0.00    -0.144 OA 
HETATM   19  C   UNL     1      -7.181   8.718  66.486  1.00  0.00    -0.081 A  
HETATM   20  O   UNL     1      -5.874   9.081  70.260  1.00  0.00    -0.032 OA 
HETATM   21  O   UNL     1      -7.913   8.173  70.012  1.00  0.00    -0.100 OA 
HETATM   22  C   UNL     1      -7.337  10.121  68.651  1.00  0.00    -0.082 C  
HETATM   23  H   UNL     1      -8.516  12.376  68.861  1.00  0.00     0.000 HD 
HETATM   24  C   UNL     1      -8.837  10.372  68.527  1.00  0.00    -0.142 C  
HETATM   25  S   UNL     1      -6.304   8.609  65.022  1.00  0.00    -0.061 SA 
HETATM   26  C   UNL     1      -6.971   9.096  69.711  1.00  0.00    -0.056 C  
HETATM   27  C   UNL     1      -5.294   9.909  65.468  1.00  0.00    -0.052 A  
HETATM   28  C   UNL     1      -5.626  10.421  66.704  1.00  0.00    -0.054 A  
ENDBRANCH   3  16
ENDBRANCH   2   3
TORSDOF 2
ENDMDL
MODEL      155
REMARK 921   NORMALIZED FREE ENERGY PREDICTED BY IDOCK:   -1.61 KCAL/MOL
REMARK 922        TOTAL FREE ENERGY PREDICTED BY IDOCK:   -2.29 KCAL/MOL
REMARK 923 INTER-LIGAND FREE ENERGY PREDICTED BY IDOCK:   -3.26 KCAL/MOL
REMARK 924 INTRA-LIGAND FREE ENERGY PREDICTED BY IDOCK:    0.97 KCAL/MOL
REMARK 927      BINDING AFFINITY PREDICTED BY RF-SCORE:    0.00 PKD
ROOT
HETATM    1  C   UNL     1     -12.143   7.097  70.839  1.00  0.00    -0.326 C  
HETATM    2  O   UNL     1     -11.310   6.028  71.258  1.00  0.00    -0.285 OA 
ENDROOT
BRANCH   2   3
HETATM    3  C   UNL     1      -9.991   5.934  70.650  1.00  0.00    -0.189 C  
HETATM    4  C   UNL     1      -9.323   4.500  70.625  1.00  0.00    -0.155 C  
HETATM    5  O   UNL     1      -8.351   7.174  72.260  1.00  0.00    -0.108 OA 
HETATM    6  S   UNL     1      -8.156   4.044  69.294  1.00  0.00    -0.058 SA 
HETATM    7  C   UNL     1      -8.864   6.201  71.750  1.00  0.00    -0.138 C  
HETATM    8  O   UNL     1      -7.813   2.697  73.006  1.00  0.00    -0.049 OA 
HETATM    9  O   UNL     1      -5.618   2.748  72.508  1.00  0.00    -0.007 OA 
HETATM   10  C   UNL     1      -6.727   3.257  72.416  1.00  0.00    -0.022 C  
HETATM   11  C   UNL     1      -6.645   4.602  70.185  1.00  0.00    -0.036 C  
HETATM   12  C   UNL     1      -5.469   3.713  69.765  1.00  0.00    -0.016 C  
HETATM   13  C   UNL     1      -6.338   6.030  69.693  1.00  0.00    -0.037 C  
HETATM   14  N   UNL     1      -8.465   4.891  71.772  1.00  0.00    -0.121 N  
HETATM   15  C   UNL     1      -7.023   4.577  71.685  1.00  0.00    -0.039 C  
BRANCH   3  16
HETATM   16  N   UNL     1      -9.813   6.876  69.499  1.00  0.00    -0.158 N  
HETATM   17  C   UNL     1      -7.973   9.493  68.285  1.00  0.00    -0.094 A  
HETATM   18  O   UNL     1      -9.803   8.844  70.677  1.00  0.00    -0.184 OA 
HETATM   19  C   UNL     1      -7.382  10.291  69.252  1.00  0.00    -0.099 A  
HETATM   20  O   UNL     1     -10.602  10.506  66.871  1.00  0.00    -0.248 OA 
HETATM   21  O   UNL     1     -11.000  10.670  69.075  1.00  0.00    -0.214 OA 
HETATM   22  C   UNL     1      -9.402   8.986  68.306  1.00  0.00    -0.145 C  
HETATM   23  H   UNL     1      -9.781   6.474  68.561  1.00  0.00     0.000 HD 
HETATM   24  C   UNL     1      -9.690   8.242  69.608  1.00  0.00    -0.173 C  
HETATM   25  S   UNL     1      -5.742  10.642  68.922  1.00  0.00    -0.040 SA 
HETATM   26  C   UNL     1     -10.384  10.107  68.011  1.00  0.00    -0.190 C  
HETATM   27  C   UNL     1      -5.796   9.770  67.457  1.00  0.00    -0.050 A  
HETATM   28  C   UNL     1      -7.036   9.216  67.230  1.00  0.00    -0.079 A  
ENDBRANCH   3  16
ENDBRANCH   2   3
TORSDOF 2
ENDMDL
MODEL      156
REMARK 921   NORMALIZED FREE ENERGY PREDICTED BY IDOCK:   -1.57 KCAL/MOL
REMARK 922        TOTAL FREE ENERGY PREDICTED BY IDOCK:   -2.24 KCAL/MOL
REMARK 923 INTER-LIGAND FREE ENERGY PREDICTED BY IDOCK:   -2.05 KCAL/MOL
REMARK 924 INTRA-LIGAND FREE ENERGY PREDICTED BY IDOCK:   -0.19 KCAL/MOL
REMARK 927      BINDING AFFINITY PREDICTED BY RF-SCORE:    0.00 PKD
ROOT
HETATM    1  C   UNL     1      -5.126   9.869  66.524  1.00  0.00    -0.039 C  
HETATM    2  O   UNL     1      -5.598  11.049  67.156  1.00  0.00    -0.043 OA 
ENDROOT
BRANCH   2   3
HETATM    3  C   UNL     1      -6.492  10.883  68.292  1.00  0.00    -0.057 C  
HETATM    4  C   UNL     1      -6.141   9.721  69.307  1.00  0.00    -0.036 C  
HETATM    5  O   UNL     1      -8.744   9.978  67.325  1.00  0.00    -0.125 OA 
HETATM    6  S   UNL     1      -6.601   9.861  71.071  1.00  0.00     0.150 SA 
HETATM    7  C   UNL     1      -7.683   9.890  67.906  1.00  0.00    -0.090 C  
HETATM    8  O   UNL     1      -6.541   6.403  69.133  1.00  0.00    -0.044 OA 
HETATM    9  O   UNL     1      -8.225   5.919  70.547  1.00  0.00    -0.114 OA 
HETATM   10  C   UNL     1      -7.654   6.735  69.835  1.00  0.00    -0.100 C  
HETATM   11  C   UNL     1      -8.241   9.045  70.890  1.00  0.00    -0.185 C  
HETATM   12  C   UNL     1      -8.566   8.299  72.189  1.00  0.00    -0.249 C  
HETATM   13  C   UNL     1      -9.285  10.168  70.734  1.00  0.00     0.942 C  
HETATM   14  N   UNL     1      -7.201   8.880  68.697  1.00  0.00    -0.072 N  
HETATM   15  C   UNL     1      -8.129   8.180  69.612  1.00  0.00    -0.118 C  
BRANCH   3  16
HETATM   16  N   UNL     1      -7.052  12.181  68.786  1.00  0.00    -0.107 N  
HETATM   17  C   UNL     1      -9.596  14.444  68.438  1.00  0.00    -0.219 A  
HETATM   18  O   UNL     1      -7.319  13.223  66.760  1.00  0.00     0.300 OA 
HETATM   19  C   UNL     1     -10.193  14.466  67.187  1.00  0.00    -0.257 A  
HETATM   20  O   UNL     1      -7.511  16.693  69.171  1.00  0.00    -0.232 OA 
HETATM   21  O   UNL     1      -6.823  15.847  67.208  1.00  0.00    -0.179 OA 
HETATM   22  C   UNL     1      -8.104  14.402  68.708  1.00  0.00    -0.127 C  
HETATM   23  H   UNL     1      -7.139  12.303  69.796  1.00  0.00     0.000 HD 
HETATM   24  C   UNL     1      -7.459  13.223  67.984  1.00  0.00    -0.138 C  
HETATM   25  S   UNL     1     -11.901  14.474  67.258  1.00  0.00    -0.340 SA 
HETATM   26  C   UNL     1      -7.455  15.741  68.398  1.00  0.00    -0.121 C  
HETATM   27  C   UNL     1     -11.881  14.492  68.965  1.00  0.00    -0.318 A  
HETATM   28  C   UNL     1     -10.599  14.482  69.467  1.00  0.00    -0.126 A  
ENDBRANCH   3  16
ENDBRANCH   2   3
TORSDOF 2
ENDMDL
MODEL      157
REMARK 921   NORMALIZED FREE ENERGY PREDICTED BY IDOCK:   -1.36 KCAL/MOL
REMARK 922        TOTAL FREE ENERGY PREDICTED BY IDOCK:   -2.00 KCAL/MOL
REMARK 923 INTER-LIGAND FREE ENERGY PREDICTED BY IDOCK:   -2.69 KCAL/MOL
REMARK 924 INTRA-LIGAND FREE ENERGY PREDICTED BY IDOCK:    0.69 KCAL/MOL
REMARK 927      BINDING AFFINITY PREDICTED BY RF-SCORE:    0.00 PKD
ROOT
HETATM    1  C   UNL     1     -10.469   5.327  68.473  1.00  0.00    -0.077 C  
HETATM    2  O   UNL     1      -9.871   6.543  68.052  1.00  0.00    -0.121 OA 
ENDROOT
BRANCH   2   3
HETATM    3  C   UNL     1      -8.704   6.446  67.189  1.00  0.00    -0.110 C  
HETATM    4  C   UNL     1      -8.733   5.318  66.081  1.00  0.00    -0.129 C  
HETATM    5  O   UNL     1      -6.756   5.560  68.689  1.00  0.00    -0.053 OA 
HETATM    6  S   UNL     1      -7.829   5.541  64.507  1.00  0.00    -0.115 SA 
HETATM    7  C   UNL     1      -7.622   5.469  67.845  1.00  0.00    -0.085 C  
HETATM    8  O   UNL     1      -8.276   2.007  66.247  1.00  0.00    -0.081 OA 
HETATM    9  O   UNL     1      -6.262   1.624  65.315  1.00  0.00    -0.020 OA 
HETATM   10  C   UNL     1      -7.029   2.396  65.876  1.00  0.00    -0.048 C  
HETATM   11  C   UNL     1      -6.267   4.761  65.090  1.00  0.00    -0.034 C  
HETATM   12  C   UNL     1      -5.585   4.077  63.900  1.00  0.00    -0.013 C  
HETATM   13  C   UNL     1      -5.342   5.903  65.553  1.00  0.00    -0.013 C  
HETATM   14  N   UNL     1      -7.842   4.481  66.922  1.00  0.00    -0.097 N  
HETATM   15  C   UNL     1      -6.682   3.842  66.264  1.00  0.00    -0.049 C  
BRANCH   3  16
HETATM   16  N   UNL     1      -8.079   7.778  66.904  1.00  0.00    -0.114 N  
HETATM   17  C   UNL     1      -8.687  11.001  65.929  1.00  0.00    -0.182 A  
HETATM   18  O   UNL     1      -8.996   8.138  64.832  1.00  0.00     0.083 OA 
HETATM   19  C   UNL     1      -9.820  11.173  65.149  1.00  0.00    -0.259 A  
HETATM   20  O   UNL     1      -5.863  10.964  64.528  1.00  0.00     0.004 OA 
HETATM   21  O   UNL     1      -7.111   9.467  63.412  1.00  0.00    -0.094 OA 
HETATM   22  C   UNL     1      -7.649   9.909  65.756  1.00  0.00    -0.113 C  
HETATM   23  H   UNL     1      -7.434   8.154  67.599  1.00  0.00     0.000 HD 
HETATM   24  C   UNL     1      -8.309   8.532  65.776  1.00  0.00    -0.140 C  
HETATM   25  S   UNL     1     -10.789  12.488  65.653  1.00  0.00    -0.287 SA 
HETATM   26  C   UNL     1      -6.791  10.160  64.528  1.00  0.00    -0.113 C  
HETATM   27  C   UNL     1      -9.693  12.885  66.899  1.00  0.00    -0.240 A  
HETATM   28  C   UNL     1      -8.617  12.025  66.935  1.00  0.00    -0.189 A  
ENDBRANCH   3  16
ENDBRANCH   2   3
TORSDOF 2
ENDMDL
MODEL      158
REMARK 921   NORMALIZED FREE ENERGY PREDICTED BY IDOCK:   -1.19 KCAL/MOL
REMARK 922        TOTAL FREE ENERGY PREDICTED BY IDOCK:   -1.81 KCAL/MOL
REMARK 923 INTER-LIGAND FREE ENERGY PREDICTED BY IDOCK:   -2.09 KCAL/MOL
REMARK 924 INTRA-LIGAND FREE ENERGY PREDICTED BY IDOCK:    0.27 KCAL/MOL
REMARK 927      BINDING AFFINITY PREDICTED BY RF-SCORE:    0.00 PKD
ROOT
HETATM    1  C   UNL     1     -11.432   7.349  67.802  1.00  0.00     0.781 C  
HETATM    2  O   UNL     1     -10.316   8.050  68.328  1.00  0.00    -0.201 OA 
ENDROOT
BRANCH   2   3
HETATM    3  C   UNL     1      -9.004   7.702  67.803  1.00  0.00    -0.131 C  
HETATM    4  C   UNL     1      -8.346   8.733  66.800  1.00  0.00    -0.108 C  
HETATM    5  O   UNL     1      -9.373   5.675  66.197  1.00  0.00    -0.157 OA 
HETATM    6  S   UNL     1      -6.527   8.884  66.687  1.00  0.00    -0.064 SA 
HETATM    7  C   UNL     1      -9.164   6.838  66.468  1.00  0.00    -0.162 C  
HETATM    8  O   UNL     1      -8.923   9.388  63.570  1.00  0.00    -0.220 OA 
HETATM    9  O   UNL     1      -7.161   8.540  62.453  1.00  0.00    -0.097 OA 
HETATM   10  C   UNL     1      -7.871   8.539  63.450  1.00  0.00    -0.150 C  
HETATM   11  C   UNL     1      -6.329   7.637  65.348  1.00  0.00    -0.038 C  
HETATM   12  C   UNL     1      -5.132   8.034  64.478  1.00  0.00    -0.036 C  
HETATM   13  C   UNL     1      -5.977   6.300  66.029  1.00  0.00    -0.025 C  
HETATM   14  N   UNL     1      -8.731   7.859  65.664  1.00  0.00    -0.145 N  
HETATM   15  C   UNL     1      -7.703   7.578  64.638  1.00  0.00    -0.122 C  
BRANCH   3  16
HETATM   16  N   UNL     1      -8.160   6.958  68.792  1.00  0.00    -0.119 N  
HETATM   17  C   UNL     1      -8.097   4.366  71.026  1.00  0.00    -0.080 A  
HETATM   18  O   UNL     1      -9.605   7.014  70.573  1.00  0.00    -0.169 OA 
HETATM   19  C   UNL     1      -9.328   4.025  71.562  1.00  0.00    -0.142 A  
HETATM   20  O   UNL     1      -6.103   6.088  72.757  1.00  0.00    -0.046 OA 
HETATM   21  O   UNL     1      -8.048   7.210  72.780  1.00  0.00    -0.104 OA 
HETATM   22  C   UNL     1      -7.559   5.775  70.862  1.00  0.00    -0.092 C  
HETATM   23  H   UNL     1      -7.229   6.666  68.492  1.00  0.00     0.000 HD 
HETATM   24  C   UNL     1      -8.543   6.637  70.074  1.00  0.00    -0.140 C  
HETATM   25  S   UNL     1      -9.620   2.341  71.558  1.00  0.00    -0.147 SA 
HETATM   26  C   UNL     1      -7.162   6.367  72.203  1.00  0.00    -0.087 C  
HETATM   27  C   UNL     1      -8.087   2.024  70.877  1.00  0.00    -0.049 A  
HETATM   28  C   UNL     1      -7.374   3.181  70.650  1.00  0.00    -0.037 A  
ENDBRANCH   3  16
ENDBRANCH   2   3
TORSDOF 2
ENDMDL
MODEL      159
REMARK 921   NORMALIZED FREE ENERGY PREDICTED BY IDOCK:   -1.12 KCAL/MOL
REMARK 922        TOTAL FREE ENERGY PREDICTED BY IDOCK:   -1.73 KCAL/MOL
REMARK 923 INTER-LIGAND FREE ENERGY PREDICTED BY IDOCK:   -1.96 KCAL/MOL
REMARK 924 INTRA-LIGAND FREE ENERGY PREDICTED BY IDOCK:    0.23 KCAL/MOL
REMARK 927      BINDING AFFINITY PREDICTED BY RF-SCORE:    0.00 PKD
ROOT
HETATM    1  C   UNL     1      -5.128   6.598  69.604  1.00  0.00    -0.014 C  
HETATM    2  O   UNL     1      -5.820   7.673  70.219  1.00  0.00    -0.024 OA 
ENDROOT
BRANCH   2   3
HETATM    3  C   UNL     1      -6.867   8.320  69.444  1.00  0.00    -0.043 C  
HETATM    4  C   UNL     1      -6.400   9.380  68.366  1.00  0.00    -0.053 C  
HETATM    5  O   UNL     1      -8.144   9.886  71.100  1.00  0.00     0.001 OA 
HETATM    6  S   UNL     1      -7.389   9.663  66.855  1.00  0.00    -0.091 SA 
HETATM    7  C   UNL     1      -7.371   9.634  70.200  1.00  0.00    -0.139 C  
HETATM    8  O   UNL     1      -5.341  12.541  68.653  1.00  0.00    -0.057 OA 
HETATM    9  O   UNL     1      -7.024  13.820  67.876  1.00  0.00    -0.118 OA 
HETATM   10  C   UNL     1      -6.648  12.760  68.361  1.00  0.00    -0.083 C  
HETATM   11  C   UNL     1      -8.415  11.016  67.567  1.00  0.00    -0.127 C  
HETATM   12  C   UNL     1      -8.785  11.995  66.447  1.00  0.00    -0.088 C  
HETATM   13  C   UNL     1      -9.724  10.372  68.064  1.00  0.00    -0.166 C  
HETATM   14  N   UNL     1      -6.786  10.476  69.291  1.00  0.00    -0.061 N  
HETATM   15  C   UNL     1      -7.577  11.594  68.733  1.00  0.00    -0.119 C  
BRANCH   3  16
HETATM   16  N   UNL     1      -8.029   7.415  69.167  1.00  0.00    -0.117 N  
HETATM   17  C   UNL     1     -10.836   5.980  70.498  1.00  0.00    -0.382 A  
HETATM   18  O   UNL     1      -7.790   6.007  70.963  1.00  0.00    -0.106 OA 
HETATM   19  C   UNL     1     -10.810   5.809  71.873  1.00  0.00    -0.252 A  
HETATM   20  O   UNL     1     -10.278   3.494  68.642  1.00  0.00     0.477 OA 
HETATM   21  O   UNL     1      -8.564   3.563  70.091  1.00  0.00    -0.058 OA 
HETATM   22  C   UNL     1      -9.704   5.655  69.542  1.00  0.00    -0.206 C  
HETATM   23  H   UNL     1      -8.571   7.590  68.321  1.00  0.00     0.000 HD 
HETATM   24  C   UNL     1      -8.421   6.366  69.967  1.00  0.00    -0.135 C  
HETATM   25  S   UNL     1     -12.251   6.316  72.640  1.00  0.00     0.306 SA 
HETATM   26  C   UNL     1      -9.546   4.154  69.374  1.00  0.00    -0.194 C  
HETATM   27  C   UNL     1     -12.960   6.737  71.146  1.00  0.00    -0.077 A  
HETATM   28  C   UNL     1     -12.110   6.504  70.088  1.00  0.00    -0.039 A  
ENDBRANCH   3  16
ENDBRANCH   2   3
TORSDOF 2
ENDMDL
MODEL      160
REMARK 921   NORMALIZED FREE ENERGY PREDICTED BY IDOCK:   -0.86 KCAL/MOL
REMARK 922        TOTAL FREE ENERGY PREDICTED BY IDOCK:   -1.45 KCAL/MOL
REMARK 923 INTER-LIGAND FREE ENERGY PREDICTED BY IDOCK:   -1.06 KCAL/MOL
REMARK 924 INTRA-LIGAND FREE ENERGY PREDICTED BY IDOCK:   -0.39 KCAL/MOL
REMARK 927      BINDING AFFINITY PREDICTED BY RF-SCORE:    0.00 PKD
ROOT
HETATM    1  C   UNL     1     -10.209  10.563  63.454  1.00  0.00     0.032 C  
HETATM    2  O   UNL     1     -10.985  11.228  64.438  1.00  0.00    -0.332 OA 
ENDROOT
BRANCH   2   3
HETATM    3  C   UNL     1     -10.289  11.706  65.624  1.00  0.00    -0.262 C  
HETATM    4  C   UNL     1     -11.182  12.352  66.758  1.00  0.00    -0.310 C  
HETATM    5  O   UNL     1      -8.918  13.799  64.875  1.00  0.00     1.508 OA 
HETATM    6  S   UNL     1     -10.666  12.260  68.510  1.00  0.00    -0.241 SA 
HETATM    7  C   UNL     1      -9.838  13.224  65.416  1.00  0.00    -0.108 C  
HETATM    8  O   UNL     1     -12.649  15.349  67.014  1.00  0.00     0.949 OA 
HETATM    9  O   UNL     1     -11.453  16.482  68.549  1.00  0.00    -0.317 OA 
HETATM   10  C   UNL     1     -11.513  15.586  67.717  1.00  0.00    -0.243 C  
HETATM   11  C   UNL     1      -9.735  13.848  68.503  1.00  0.00    -0.202 C  
HETATM   12  C   UNL     1      -9.827  14.479  69.897  1.00  0.00     0.492 C  
HETATM   13  C   UNL     1      -8.255  13.499  68.254  1.00  0.00    -0.157 C  
HETATM   14  N   UNL     1     -10.766  13.702  66.304  1.00  0.00    -0.283 N  
HETATM   15  C   UNL     1     -10.338  14.670  67.338  1.00  0.00    -0.241 C  
BRANCH   3  16
HETATM   16  N   UNL     1      -9.100  10.866  65.977  1.00  0.00    -0.184 N  
HETATM   17  C   UNL     1      -7.514   7.885  65.419  1.00  0.00    -0.080 A  
HETATM   18  O   UNL     1     -10.205   8.925  66.501  1.00  0.00    -0.284 OA 
HETATM   19  C   UNL     1      -8.342   6.848  65.018  1.00  0.00    -0.049 A  
HETATM   20  O   UNL     1      -6.552   7.993  68.420  1.00  0.00    -0.055 OA 
HETATM   21  O   UNL     1      -8.787   7.787  68.508  1.00  0.00    -0.131 OA 
HETATM   22  C   UNL     1      -7.797   8.860  66.546  1.00  0.00    -0.100 C  
HETATM   23  H   UNL     1      -8.182  11.312  65.945  1.00  0.00     0.000 HD 
HETATM   24  C   UNL     1      -9.149   9.540  66.342  1.00  0.00    -0.159 C  
HETATM   25  S   UNL     1      -7.722   5.972  63.687  1.00  0.00    -0.104 SA 
HETATM   26  C   UNL     1      -7.647   8.188  67.900  1.00  0.00    -0.102 C  
HETATM   27  C   UNL     1      -6.312   6.932  63.645  1.00  0.00    -0.043 A  
HETATM   28  C   UNL     1      -6.320   7.906  64.619  1.00  0.00    -0.048 A  
ENDBRANCH   3  16
ENDBRANCH   2   3
TORSDOF 2
ENDMDL
MODEL      161
REMARK 921   NORMALIZED FREE ENERGY PREDICTED BY IDOCK:   -0.67 KCAL/MOL
REMARK 922        TOTAL FREE ENERGY PREDICTED BY IDOCK:   -1.23 KCAL/MOL
REMARK 923 INTER-LIGAND FREE ENERGY PREDICTED BY IDOCK:   -3.44 KCAL/MOL
REMARK 924 INTRA-LIGAND FREE ENERGY PREDICTED BY IDOCK:    2.21 KCAL/MOL
REMARK 927      BINDING AFFINITY PREDICTED BY RF-SCORE:    0.00 PKD
ROOT
HETATM    1  C   UNL     1     -11.184  16.319  70.530  1.00  0.00    -0.309 C  
HETATM    2  O   UNL     1     -10.442  16.472  69.331  1.00  0.00    -0.292 OA 
ENDROOT
BRANCH   2   3
HETATM    3  C   UNL     1     -10.101  15.261  68.600  1.00  0.00    -0.222 C  
HETATM    4  C   UNL     1      -9.434  14.094  69.435  1.00  0.00     0.439 C  
HETATM    5  O   UNL     1      -8.113  15.890  67.027  1.00  0.00    -0.185 OA 
HETATM    6  S   UNL     1      -9.672  12.350  68.943  1.00  0.00     0.284 SA 
HETATM    7  C   UNL     1      -8.624  15.384  68.003  1.00  0.00    -0.151 C  
HETATM    8  O   UNL     1      -6.327  13.677  70.606  1.00  0.00    -0.054 OA 
HETATM    9  O   UNL     1      -5.401  12.079  69.317  1.00  0.00    -0.055 OA 
HETATM   10  C   UNL     1      -6.241  12.959  69.457  1.00  0.00    -0.118 C  
HETATM   11  C   UNL     1      -8.183  12.267  67.863  1.00  0.00    -0.161 C  
HETATM   12  C   UNL     1      -7.625  10.840  67.904  1.00  0.00    -0.091 C  
HETATM   13  C   UNL     1      -8.661  12.531  66.422  1.00  0.00     0.115 C  
HETATM   14  N   UNL     1      -8.108  14.473  68.886  1.00  0.00    -0.145 N  
HETATM   15  C   UNL     1      -7.245  13.386  68.374  1.00  0.00    -0.110 C  
BRANCH   3  16
HETATM   16  N   UNL     1     -11.070  14.952  67.501  1.00  0.00    -0.307 N  
HETATM   17  C   UNL     1     -11.486  13.349  64.506  1.00  0.00    -0.402 A  
HETATM   18  O   UNL     1      -9.778  15.607  65.722  1.00  0.00    -0.328 OA 
HETATM   19  C   UNL     1     -10.327  13.190  63.762  1.00  0.00     0.209 A  
HETATM   20  O   UNL     1     -13.501  15.640  63.716  1.00  0.00     0.473 OA 
HETATM   21  O   UNL     1     -11.497  16.636  63.900  1.00  0.00    -1.186 OA 
HETATM   22  C   UNL     1     -11.916  14.618  65.216  1.00  0.00    -0.302 C  
HETATM   23  H   UNL     1     -11.990  14.599  67.769  1.00  0.00     0.000 HD 
HETATM   24  C   UNL     1     -10.817  15.106  66.157  1.00  0.00    -0.330 C  
HETATM   25  S   UNL     1     -10.145  11.610  63.134  1.00  0.00    -0.300 SA 
HETATM   26  C   UNL     1     -12.384  15.668  64.223  1.00  0.00     0.087 C  
HETATM   27  C   UNL     1     -11.633  11.114  63.806  1.00  0.00     0.403 A  
HETATM   28  C   UNL     1     -12.249  12.131  64.503  1.00  0.00    -0.404 A  
ENDBRANCH   3  16
ENDBRANCH   2   3
TORSDOF 2
ENDMDL
MODEL      162
REMARK 921   NORMALIZED FREE ENERGY PREDICTED BY IDOCK:   -0.18 KCAL/MOL
REMARK 922        TOTAL FREE ENERGY PREDICTED BY IDOCK:   -0.68 KCAL/MOL
REMARK 923 INTER-LIGAND FREE ENERGY PREDICTED BY IDOCK:   -1.02 KCAL/MOL
REMARK 924 INTRA-LIGAND FREE ENERGY PREDICTED BY IDOCK:    0.34 KCAL/MOL
REMARK 927      BINDING AFFINITY PREDICTED BY RF-SCORE:    0.00 PKD
ROOT
HETATM    1  C   UNL     1      -5.419   8.238  65.890  1.00  0.00    -0.032 C  
HETATM    2  O   UNL     1      -5.735   7.033  65.210  1.00  0.00    -0.031 OA 
ENDROOT
BRANCH   2   3
HETATM    3  C   UNL     1      -6.982   6.374  65.570  1.00  0.00    -0.053 C  
HETATM    4  C   UNL     1      -6.946   4.796  65.673  1.00  0.00    -0.063 C  
HETATM    5  O   UNL     1      -8.579   6.661  63.523  1.00  0.00     0.225 OA 
HETATM    6  S   UNL     1      -8.069   3.916  66.815  1.00  0.00    -0.097 SA 
HETATM    7  C   UNL     1      -7.827   6.052  64.253  1.00  0.00    -0.113 C  
HETATM    8  O   UNL     1      -6.928   2.403  63.334  1.00  0.00    -0.034 OA 
HETATM    9  O   UNL     1      -8.976   1.470  63.402  1.00  0.00    -0.085 OA 
HETATM   10  C   UNL     1      -8.253   2.432  63.626  1.00  0.00    -0.081 C  
HETATM   11  C   UNL     1      -9.423   3.686  65.589  1.00  0.00    -0.156 C  
HETATM   12  C   UNL     1     -10.156   2.378  65.904  1.00  0.00     1.185 C  
HETATM   13  C   UNL     1     -10.425   4.836  65.806  1.00  0.00    -0.275 C  
HETATM   14  N   UNL     1      -7.598   4.704  64.343  1.00  0.00    -0.071 N  
HETATM   15  C   UNL     1      -8.738   3.771  64.203  1.00  0.00    -0.107 C  
BRANCH   3  16
HETATM   16  N   UNL     1      -7.812   7.180  66.522  1.00  0.00    -0.103 N  
HETATM   17  C   UNL     1      -7.747   9.108  69.349  1.00  0.00    -0.080 A  
HETATM   18  O   UNL     1      -7.095   6.225  68.481  1.00  0.00    -0.077 OA 
HETATM   19  C   UNL     1      -6.705   8.834  70.220  1.00  0.00    -0.041 A  
HETATM   20  O   UNL     1     -10.621   7.992  70.009  1.00  0.00    -0.234 OA 
HETATM   21  O   UNL     1      -9.243   6.223  70.130  1.00  0.00    -0.154 OA 
HETATM   22  C   UNL     1      -8.623   8.078  68.662  1.00  0.00    -0.128 C  
HETATM   23  H   UNL     1      -8.458   7.861  66.123  1.00  0.00     0.000 HD 
HETATM   24  C   UNL     1      -7.769   7.072  67.893  1.00  0.00    -0.113 C  
HETATM   25  S   UNL     1      -5.909  10.240  70.777  1.00  0.00    -0.077 SA 
HETATM   26  C   UNL     1      -9.587   7.438  69.647  1.00  0.00    -0.156 C  
HETATM   27  C   UNL     1      -6.967  11.251  69.899  1.00  0.00     0.063 A  
HETATM   28  C   UNL     1      -7.901  10.528  69.189  1.00  0.00    -0.138 A  
ENDBRANCH   3  16
ENDBRANCH   2   3
TORSDOF 2
ENDMDL
MODEL      163
REMARK 921   NORMALIZED FREE ENERGY PREDICTED BY IDOCK:    0.35 KCAL/MOL
REMARK 922        TOTAL FREE ENERGY PREDICTED BY IDOCK:   -0.09 KCAL/MOL
REMARK 923 INTER-LIGAND FREE ENERGY PREDICTED BY IDOCK:   -1.35 KCAL/MOL
REMARK 924 INTRA-LIGAND FREE ENERGY PREDICTED BY IDOCK:    1.26 KCAL/MOL
REMARK 927      BINDING AFFINITY PREDICTED BY RF-SCORE:    0.00 PKD
ROOT
HETATM    1  C   UNL     1      -7.250  17.334  68.766  1.00  0.00    -0.245 C  
HETATM    2  O   UNL     1      -7.928  16.662  67.716  1.00  0.00    -0.167 OA 
ENDROOT
BRANCH   2   3
HETATM    3  C   UNL     1      -8.789  15.548  68.087  1.00  0.00    -0.169 C  
HETATM    4  C   UNL     1     -10.256  15.911  68.555  1.00  0.00    -0.226 C  
HETATM    5  O   UNL     1      -7.824  14.587  70.316  1.00  0.00     0.481 OA 
HETATM    6  S   UNL     1     -11.632  14.738  68.286  1.00  0.00    -0.320 SA 
HETATM    7  C   UNL     1      -8.610  15.215  69.639  1.00  0.00    -0.056 C  
HETATM    8  O   UNL     1     -11.444  17.147  71.429  1.00  0.00     0.397 OA 
HETATM    9  O   UNL     1     -12.506  15.434  72.434  1.00  0.00    -0.325 OA 
HETATM   10  C   UNL     1     -11.662  15.824  71.637  1.00  0.00    -0.464 C  
HETATM   11  C   UNL     1     -11.453  13.884  69.908  1.00  0.00    -0.183 C  
HETATM   12  C   UNL     1     -12.836  13.409  70.369  1.00  0.00    -0.027 C  
HETATM   13  C   UNL     1     -10.596  12.628  69.661  1.00  0.00     0.572 C  
HETATM   14  N   UNL     1      -9.845  15.709  69.967  1.00  0.00    -0.203 N  
HETATM   15  C   UNL     1     -10.736  14.901  70.828  1.00  0.00     0.121 C  
BRANCH   3  16
HETATM   16  N   UNL     1      -8.533  14.319  67.270  1.00  0.00    -0.202 N  
HETATM   17  C   UNL     1      -8.272  10.907  67.356  1.00  0.00    -0.117 A  
HETATM   18  O   UNL     1      -6.902  13.380  68.582  1.00  0.00    -0.086 OA 
HETATM   19  C   UNL     1      -7.896  10.380  68.581  1.00  0.00    -0.108 A  
HETATM   20  O   UNL     1      -6.111  11.153  65.074  1.00  0.00     0.176 OA 
HETATM   21  O   UNL     1      -5.204  12.142  66.875  1.00  0.00    -0.269 OA 
HETATM   22  C   UNL     1      -7.640  12.107  66.675  1.00  0.00     0.152 C  
HETATM   23  H   UNL     1      -9.055  14.215  66.399  1.00  0.00     0.000 HD 
HETATM   24  C   UNL     1      -7.649  13.318  67.604  1.00  0.00    -0.170 C  
HETATM   25  S   UNL     1      -8.854   9.047  69.060  1.00  0.00    -0.137 SA 
HETATM   26  C   UNL     1      -6.265  11.762  66.128  1.00  0.00     0.578 C  
HETATM   27  C   UNL     1      -9.766   9.118  67.620  1.00  0.00    -0.159 A  
HETATM   28  C   UNL     1      -9.354  10.143  66.797  1.00  0.00    -0.190 A  
ENDBRANCH   3  16
ENDBRANCH   2   3
TORSDOF 2
ENDMDL
MODEL      164
REMARK 921   NORMALIZED FREE ENERGY PREDICTED BY IDOCK:    0.55 KCAL/MOL
REMARK 922        TOTAL FREE ENERGY PREDICTED BY IDOCK:    0.13 KCAL/MOL
REMARK 923 INTER-LIGAND FREE ENERGY PREDICTED BY IDOCK:   -0.24 KCAL/MOL
REMARK 924 INTRA-LIGAND FREE ENERGY PREDICTED BY IDOCK:    0.37 KCAL/MOL
REMARK 927      BINDING AFFINITY PREDICTED BY RF-SCORE:    0.00 PKD
ROOT
HETATM    1  C   UNL     1     -11.709  17.257  69.735  1.00  0.00     2.194 C  
HETATM    2  O   UNL     1     -11.548  16.594  68.491  1.00  0.00    -0.183 OA 
ENDROOT
BRANCH   2   3
HETATM    3  C   UNL     1     -10.609  15.483  68.446  1.00  0.00    -0.252 C  
HETATM    4  C   UNL     1     -11.139  14.132  67.818  1.00  0.00    -0.276 C  
HETATM    5  O   UNL     1     -10.252  14.726  70.921  1.00  0.00     0.505 OA 
HETATM    6  S   UNL     1      -9.989  12.985  66.979  1.00  0.00    -0.247 SA 
HETATM    7  C   UNL     1     -10.702  14.637  69.798  1.00  0.00    -0.104 C  
HETATM    8  O   UNL     1     -13.150  11.743  69.023  1.00  0.00     0.998 OA 
HETATM    9  O   UNL     1     -11.814   9.981  69.448  1.00  0.00    -0.043 OA 
HETATM   10  C   UNL     1     -11.941  11.189  69.296  1.00  0.00    -0.351 C  
HETATM   11  C   UNL     1      -9.600  11.995  68.482  1.00  0.00    -0.143 C  
HETATM   12  C   UNL     1      -9.319  10.549  68.059  1.00  0.00    -0.150 C  
HETATM   13  C   UNL     1      -8.293  12.563  69.067  1.00  0.00     0.408 C  
HETATM   14  N   UNL     1     -11.311  13.575  69.183  1.00  0.00    -0.271 N  
HETATM   15  C   UNL     1     -10.801  12.210  69.434  1.00  0.00     0.027 C  
BRANCH   3  16
HETATM   16  N   UNL     1      -9.196  15.925  68.219  1.00  0.00    -0.187 N  
HETATM   17  C   UNL     1      -6.880  18.352  68.895  1.00  0.00    -0.278 A  
HETATM   18  O   UNL     1      -9.624  18.068  67.522  1.00  0.00    -0.266 OA 
HETATM   19  C   UNL     1      -7.408  19.604  69.171  1.00  0.00    -0.304 A  
HETATM   20  O   UNL     1      -5.673  17.804  66.035  1.00  0.00    -0.185 OA 
HETATM   21  O   UNL     1      -7.727  18.636  65.674  1.00  0.00    -0.495 OA 
HETATM   22  C   UNL     1      -7.312  17.437  67.765  1.00  0.00    -0.184 C  
HETATM   23  H   UNL     1      -8.457  15.237  68.371  1.00  0.00     0.000 HD 
HETATM   24  C   UNL     1      -8.817  17.186  67.821  1.00  0.00    -0.225 C  
HETATM   25  S   UNL     1      -6.707  20.339  70.546  1.00  0.00     0.433 SA 
HETATM   26  C   UNL     1      -6.827  17.961  66.424  1.00  0.00    -0.242 C  
HETATM   27  C   UNL     1      -5.651  19.019  70.779  1.00  0.00    -0.186 A  
HETATM   28  C   UNL     1      -5.838  18.035  69.833  1.00  0.00    -0.237 A  
ENDBRANCH   3  16
ENDBRANCH   2   3
TORSDOF 2
ENDMDL
MODEL      165
REMARK 921   NORMALIZED FREE ENERGY PREDICTED BY IDOCK:    1.04 KCAL/MOL
REMARK 922        TOTAL FREE ENERGY PREDICTED BY IDOCK:    0.68 KCAL/MOL
REMARK 923 INTER-LIGAND FREE ENERGY PREDICTED BY IDOCK:    1.29 KCAL/MOL
REMARK 924 INTRA-LIGAND FREE ENERGY PREDICTED BY IDOCK:   -0.61 KCAL/MOL
REMARK 927      BINDING AFFINITY PREDICTED BY RF-SCORE:    0.00 PKD
ROOT
HETATM    1  C   UNL     1     -11.860   5.993  66.127  1.00  0.00     2.437 C  
HETATM    2  O   UNL     1     -11.632   6.163  67.517  1.00  0.00     0.210 OA 
ENDROOT
BRANCH   2   3
HETATM    3  C   UNL     1     -10.250   6.131  67.973  1.00  0.00    -0.175 C  
HETATM    4  C   UNL     1      -9.227   5.324  67.076  1.00  0.00    -0.116 C  
HETATM    5  O   UNL     1     -10.225   4.659  70.131  1.00  0.00    -0.240 OA 
HETATM    6  S   UNL     1      -7.465   5.808  67.017  1.00  0.00    -0.081 SA 
HETATM    7  C   UNL     1     -10.030   4.891  68.957  1.00  0.00    -0.167 C  
HETATM    8  O   UNL     1      -8.670   2.043  66.721  1.00  0.00    -0.109 OA 
HETATM    9  O   UNL     1      -6.708   1.644  67.752  1.00  0.00    -0.031 OA 
HETATM   10  C   UNL     1      -7.703   2.346  67.623  1.00  0.00    -0.060 C  
HETATM   11  C   UNL     1      -6.934   4.713  68.399  1.00  0.00    -0.056 C  
HETATM   12  C   UNL     1      -5.493   4.260  68.142  1.00  0.00    -0.016 C  
HETATM   13  C   UNL     1      -6.923   5.576  69.675  1.00  0.00    -0.062 C  
HETATM   14  N   UNL     1      -9.285   4.197  68.041  1.00  0.00    -0.137 N  
HETATM   15  C   UNL     1      -8.002   3.595  68.467  1.00  0.00    -0.070 C  
BRANCH   3  16
HETATM   16  N   UNL     1      -9.832   7.399  68.651  1.00  0.00    -0.159 N  
HETATM   17  C   UNL     1     -10.721  10.634  69.328  1.00  0.00    -0.275 A  
HETATM   18  O   UNL     1     -10.146   8.838  66.892  1.00  0.00    -0.226 OA 
HETATM   19  C   UNL     1     -11.583  11.209  68.408  1.00  0.00    -0.306 A  
HETATM   20  O   UNL     1      -7.655  11.357  69.202  1.00  0.00    -0.113 OA 
HETATM   21  O   UNL     1      -8.211  10.718  67.122  1.00  0.00    -0.120 OA 
HETATM   22  C   UNL     1      -9.491   9.809  68.997  1.00  0.00    -0.173 C  
HETATM   23  H   UNL     1      -9.504   7.332  69.615  1.00  0.00     0.000 HD 
HETATM   24  C   UNL     1      -9.856   8.648  68.074  1.00  0.00    -0.169 C  
HETATM   25  S   UNL     1     -12.887  12.038  69.139  1.00  0.00     1.751 SA 
HETATM   26  C   UNL     1      -8.372  10.688  68.464  1.00  0.00    -0.130 C  
HETATM   27  C   UNL     1     -12.305  11.685  70.703  1.00  0.00    -0.344 A  
HETATM   28  C   UNL     1     -11.145  10.941  70.667  1.00  0.00     0.227 A  
ENDBRANCH   3  16
ENDBRANCH   2   3
TORSDOF 2
ENDMDL
MODEL      166
REMARK 921   NORMALIZED FREE ENERGY PREDICTED BY IDOCK:    1.23 KCAL/MOL
REMARK 922        TOTAL FREE ENERGY PREDICTED BY IDOCK:    0.89 KCAL/MOL
REMARK 923 INTER-LIGAND FREE ENERGY PREDICTED BY IDOCK:    1.40 KCAL/MOL
REMARK 924 INTRA-LIGAND FREE ENERGY PREDICTED BY IDOCK:   -0.51 KCAL/MOL
REMARK 927      BINDING AFFINITY PREDICTED BY RF-SCORE:    0.00 PKD
ROOT
HETATM    1  C   UNL     1     -11.922  10.534  67.822  1.00  0.00     1.074 C  
HETATM    2  O   UNL     1     -10.772   9.828  67.382  1.00  0.00    -0.268 OA 
ENDROOT
BRANCH   2   3
HETATM    3  C   UNL     1      -9.531  10.066  68.103  1.00  0.00    -0.138 C  
HETATM    4  C   UNL     1      -9.194  11.571  68.457  1.00  0.00    -0.167 C  
HETATM    5  O   UNL     1      -7.598   9.549  66.423  1.00  0.00    -0.096 OA 
HETATM    6  S   UNL     1      -8.207  11.976  69.942  1.00  0.00     2.647 SA 
HETATM    7  C   UNL     1      -8.331  10.269  67.067  1.00  0.00    -0.126 C  
HETATM    8  O   UNL     1      -8.026  14.097  66.598  1.00  0.00     0.227 OA 
HETATM    9  O   UNL     1      -5.894  14.400  67.254  1.00  0.00    -0.293 OA 
HETATM   10  C   UNL     1      -6.867  13.664  67.155  1.00  0.00     0.395 C  
HETATM   11  C   UNL     1      -6.577  11.937  69.086  1.00  0.00    -0.103 C  
HETATM   12  C   UNL     1      -5.642  12.944  69.763  1.00  0.00    -0.103 C  
HETATM   13  C   UNL     1      -5.983  10.534  69.317  1.00  0.00    -0.038 C  
HETATM   14  N   UNL     1      -8.229  11.610  67.329  1.00  0.00    -0.152 N  
HETATM   15  C   UNL     1      -6.894  12.191  67.592  1.00  0.00    -0.119 C  
BRANCH   3  16
HETATM   16  N   UNL     1      -9.194   8.966  69.062  1.00  0.00    -0.140 N  
HETATM   17  C   UNL     1      -7.462   6.042  69.470  1.00  0.00    -0.088 A  
HETATM   18  O   UNL     1      -9.732   7.181  67.724  1.00  0.00    -0.134 OA 
HETATM   19  C   UNL     1      -7.239   5.327  68.304  1.00  0.00    -0.067 A  
HETATM   20  O   UNL     1      -9.764   5.111  71.412  1.00  0.00    -0.155 OA 
HETATM   21  O   UNL     1     -10.717   5.283  69.385  1.00  0.00    -0.233 OA 
HETATM   22  C   UNL     1      -8.774   6.685  69.878  1.00  0.00    -0.141 C  
HETATM   23  H   UNL     1      -8.878   9.234  69.994  1.00  0.00     0.000 HD 
HETATM   24  C   UNL     1      -9.279   7.621  68.782  1.00  0.00    -0.142 C  
HETATM   25  S   UNL     1      -5.628   4.777  68.152  1.00  0.00    -0.017 SA 
HETATM   26  C   UNL     1      -9.787   5.636  70.303  1.00  0.00    -0.194 C  
HETATM   27  C   UNL     1      -5.202   5.446  69.663  1.00  0.00    -0.004 A  
HETATM   28  C   UNL     1      -6.265   6.083  70.264  1.00  0.00    -0.031 A  
ENDBRANCH   3  16
ENDBRANCH   2   3
TORSDOF 2
ENDMDL
MODEL      167
REMARK 921   NORMALIZED FREE ENERGY PREDICTED BY IDOCK:    1.27 KCAL/MOL
REMARK 922        TOTAL FREE ENERGY PREDICTED BY IDOCK:    0.94 KCAL/MOL
REMARK 923 INTER-LIGAND FREE ENERGY PREDICTED BY IDOCK:   -2.02 KCAL/MOL
REMARK 924 INTRA-LIGAND FREE ENERGY PREDICTED BY IDOCK:    2.96 KCAL/MOL
REMARK 927      BINDING AFFINITY PREDICTED BY RF-SCORE:    0.00 PKD
ROOT
HETATM    1  C   UNL     1     -10.140   5.123  68.642  1.00  0.00    -0.150 C  
HETATM    2  O   UNL     1     -10.266   6.536  68.623  1.00  0.00    -0.152 OA 
ENDROOT
BRANCH   2   3
HETATM    3  C   UNL     1      -9.417   7.266  67.694  1.00  0.00    -0.131 C  
HETATM    4  C   UNL     1      -8.302   8.191  68.330  1.00  0.00    -0.126 C  
HETATM    5  O   UNL     1     -10.935   9.080  66.585  1.00  0.00     0.052 OA 
HETATM    6  S   UNL     1      -6.741   8.511  67.433  1.00  0.00    -0.063 SA 
HETATM    7  C   UNL     1     -10.080   8.677  67.345  1.00  0.00    -0.229 C  
HETATM    8  O   UNL     1      -8.457  11.199  69.788  1.00  0.00     0.445 OA 
HETATM    9  O   UNL     1      -7.548  12.638  68.313  1.00  0.00    -0.116 OA 
HETATM   10  C   UNL     1      -8.103  11.569  68.531  1.00  0.00    -0.146 C  
HETATM   11  C   UNL     1      -7.339  10.026  66.574  1.00  0.00    -0.101 C  
HETATM   12  C   UNL     1      -6.154  10.976  66.371  1.00  0.00    -0.141 C  
HETATM   13  C   UNL     1      -7.819   9.588  65.177  1.00  0.00    -0.113 C  
HETATM   14  N   UNL     1      -9.150   9.380  68.064  1.00  0.00    -0.127 N  
HETATM   15  C   UNL     1      -8.503  10.557  67.445  1.00  0.00    -0.122 C  
BRANCH   3  16
HETATM   16  N   UNL     1      -9.146   6.506  66.432  1.00  0.00    -0.153 N  
HETATM   17  C   UNL     1      -7.288   4.003  65.018  1.00  0.00    -0.072 A  
HETATM   18  O   UNL     1      -6.863   6.729  66.392  1.00  0.00    -0.057 OA 
HETATM   19  C   UNL     1      -6.065   3.769  65.626  1.00  0.00    -0.027 A  
HETATM   20  O   UNL     1      -7.365   5.652  62.332  1.00  0.00    -0.043 OA 
HETATM   21  O   UNL     1      -6.184   6.904  63.776  1.00  0.00    -0.041 OA 
HETATM   22  C   UNL     1      -7.860   5.366  64.674  1.00  0.00    -0.105 C  
HETATM   23  H   UNL     1      -9.950   6.140  65.920  1.00  0.00     0.000 HD 
HETATM   24  C   UNL     1      -7.896   6.261  65.910  1.00  0.00    -0.104 C  
HETATM   25  S   UNL     1      -5.758   2.109  65.897  1.00  0.00    -0.018 SA 
HETATM   26  C   UNL     1      -7.131   5.981  63.492  1.00  0.00    -0.048 C  
HETATM   27  C   UNL     1      -7.236   1.663  65.170  1.00  0.00    -0.049 A  
HETATM   28  C   UNL     1      -7.951   2.759  64.739  1.00  0.00    -0.082 A  
ENDBRANCH   3  16
ENDBRANCH   2   3
TORSDOF 2
ENDMDL
MODEL      168
REMARK 921   NORMALIZED FREE ENERGY PREDICTED BY IDOCK:    1.31 KCAL/MOL
REMARK 922        TOTAL FREE ENERGY PREDICTED BY IDOCK:    0.98 KCAL/MOL
REMARK 923 INTER-LIGAND FREE ENERGY PREDICTED BY IDOCK:   -1.55 KCAL/MOL
REMARK 924 INTRA-LIGAND FREE ENERGY PREDICTED BY IDOCK:    2.54 KCAL/MOL
REMARK 927      BINDING AFFINITY PREDICTED BY RF-SCORE:    0.00 PKD
ROOT
HETATM    1  C   UNL     1     -12.828   7.537  69.770  1.00  0.00     2.245 C  
HETATM    2  O   UNL     1     -11.894   6.804  70.546  1.00  0.00    -0.372 OA 
ENDROOT
BRANCH   2   3
HETATM    3  C   UNL     1     -10.486   7.128  70.374  1.00  0.00    -0.218 C  
HETATM    4  C   UNL     1      -9.461   6.348  71.293  1.00  0.00    -0.166 C  
HETATM    5  O   UNL     1     -10.175   9.552  71.299  1.00  0.00    -0.296 OA 
HETATM    6  S   UNL     1      -7.758   6.022  70.712  1.00  0.00    -0.099 SA 
HETATM    7  C   UNL     1     -10.086   8.343  71.332  1.00  0.00    -0.215 C  
HETATM    8  O   UNL     1      -8.640   6.693  74.519  1.00  0.00    -0.141 OA 
HETATM    9  O   UNL     1      -6.582   7.606  74.528  1.00  0.00    -0.091 OA 
HETATM   10  C   UNL     1      -7.642   7.413  73.947  1.00  0.00    -0.111 C  
HETATM   11  C   UNL     1      -7.035   7.562  71.416  1.00  0.00    -0.054 C  
HETATM   12  C   UNL     1      -5.580   7.286  71.813  1.00  0.00    -0.036 C  
HETATM   13  C   UNL     1      -7.009   8.605  70.282  1.00  0.00    -0.041 C  
HETATM   14  N   UNL     1      -9.349   7.544  72.166  1.00  0.00    -0.138 N  
HETATM   15  C   UNL     1      -7.991   7.977  72.560  1.00  0.00    -0.131 C  
BRANCH   3  16
HETATM   16  N   UNL     1     -10.135   7.463  68.956  1.00  0.00    -0.187 N  
HETATM   17  C   UNL     1      -7.869   9.036  66.931  1.00  0.00    -0.101 A  
HETATM   18  O   UNL     1      -9.823   9.721  69.213  1.00  0.00    -0.179 OA 
HETATM   19  C   UNL     1      -7.173  10.075  67.529  1.00  0.00    -0.089 A  
HETATM   20  O   UNL     1     -10.271   9.720  65.007  1.00  0.00    -0.126 OA 
HETATM   21  O   UNL     1     -10.676  10.851  66.905  1.00  0.00    -0.253 OA 
HETATM   22  C   UNL     1      -9.363   8.793  67.039  1.00  0.00    -0.200 C  
HETATM   23  H   UNL     1     -10.153   6.703  68.275  1.00  0.00     0.000 HD 
HETATM   24  C   UNL     1      -9.791   8.715  68.502  1.00  0.00    -0.169 C  
HETATM   25  S   UNL     1      -5.492  10.018  67.224  1.00  0.00    -0.042 SA 
HETATM   26  C   UNL     1     -10.142   9.812  66.224  1.00  0.00    -0.243 C  
HETATM   27  C   UNL     1      -5.662   8.627  66.250  1.00  0.00    -0.043 A  
HETATM   28  C   UNL     1      -6.973   8.211  66.169  1.00  0.00    -0.058 A  
ENDBRANCH   3  16
ENDBRANCH   2   3
TORSDOF 2
ENDMDL
MODEL      169
REMARK 921   NORMALIZED FREE ENERGY PREDICTED BY IDOCK:    1.81 KCAL/MOL
REMARK 922        TOTAL FREE ENERGY PREDICTED BY IDOCK:    1.54 KCAL/MOL
REMARK 923 INTER-LIGAND FREE ENERGY PREDICTED BY IDOCK:    0.72 KCAL/MOL
REMARK 924 INTRA-LIGAND FREE ENERGY PREDICTED BY IDOCK:    0.82 KCAL/MOL
REMARK 927      BINDING AFFINITY PREDICTED BY RF-SCORE:    0.00 PKD
ROOT
HETATM    1  C   UNL     1     -12.725  13.186  71.756  1.00  0.00    -0.168 C  
HETATM    2  O   UNL     1     -12.077  13.654  70.584  1.00  0.00    -0.342 OA 
ENDROOT
BRANCH   2   3
HETATM    3  C   UNL     1     -11.690  12.658  69.596  1.00  0.00    -0.303 C  
HETATM    4  C   UNL     1     -11.558  11.167  70.107  1.00  0.00    -0.323 C  
HETATM    5  O   UNL     1      -9.199  13.156  68.990  1.00  0.00     0.214 OA 
HETATM    6  S   UNL     1     -11.873   9.768  68.973  1.00  0.00     0.758 SA 
HETATM    7  C   UNL     1     -10.098  12.547  69.529  1.00  0.00     0.950 C  
HETATM    8  O   UNL     1      -9.182   9.615  71.880  1.00  0.00     0.291 OA 
HETATM    9  O   UNL     1      -8.118   8.268  70.422  1.00  0.00    -0.101 OA 
HETATM   10  C   UNL     1      -8.803   9.261  70.625  1.00  0.00    -0.237 C  
HETATM   11  C   UNL     1     -10.129   9.603  68.407  1.00  0.00    -0.176 C  
HETATM   12  C   UNL     1      -9.852   8.130  68.088  1.00  0.00    -0.194 C  
HETATM   13  C   UNL     1     -10.011  10.388  67.086  1.00  0.00    -0.239 C  
HETATM   14  N   UNL     1     -10.081  11.317  70.132  1.00  0.00     1.045 N  
HETATM   15  C   UNL     1      -9.273  10.234  69.532  1.00  0.00    -0.170 C  
BRANCH   3  16
HETATM   16  N   UNL     1     -12.237  12.950  68.232  1.00  0.00    -0.100 N  
HETATM   17  C   UNL     1     -11.518  13.028  64.887  1.00  0.00    -0.348 A  
HETATM   18  O   UNL     1     -10.582  14.361  67.503  1.00  0.00    -0.261 OA 
HETATM   19  C   UNL     1     -10.181  13.226  64.581  1.00  0.00    -0.313 A  
HETATM   20  O   UNL     1     -13.511  15.459  64.656  1.00  0.00     0.689 OA 
HETATM   21  O   UNL     1     -11.812  16.190  65.929  1.00  0.00     0.738 OA 
HETATM   22  C   UNL     1     -12.313  13.797  65.925  1.00  0.00    -0.516 C  
HETATM   23  H   UNL     1     -13.136  12.533  67.986  1.00  0.00     0.000 HD 
HETATM   24  C   UNL     1     -11.622  13.736  67.285  1.00  0.00    -0.361 C  
HETATM   25  S   UNL     1      -9.601  12.152  63.384  1.00  0.00     0.329 SA 
HETATM   26  C   UNL     1     -12.609  15.209  65.450  1.00  0.00     0.472 C  
HETATM   27  C   UNL     1     -11.136  11.426  63.217  1.00  0.00    -0.113 A  
HETATM   28  C   UNL     1     -12.067  11.985  64.064  1.00  0.00    -0.506 A  
ENDBRANCH   3  16
ENDBRANCH   2   3
TORSDOF 2
ENDMDL
MODEL      170
REMARK 921   NORMALIZED FREE ENERGY PREDICTED BY IDOCK:    2.19 KCAL/MOL
REMARK 922        TOTAL FREE ENERGY PREDICTED BY IDOCK:    1.97 KCAL/MOL
REMARK 923 INTER-LIGAND FREE ENERGY PREDICTED BY IDOCK:    0.61 KCAL/MOL
REMARK 924 INTRA-LIGAND FREE ENERGY PREDICTED BY IDOCK:    1.36 KCAL/MOL
REMARK 927      BINDING AFFINITY PREDICTED BY RF-SCORE:    0.00 PKD
ROOT
HETATM    1  C   UNL     1      -9.133  15.129  66.101  1.00  0.00    -0.241 C  
HETATM    2  O   UNL     1      -7.950  14.462  66.512  1.00  0.00     0.342 OA 
ENDROOT
BRANCH   2   3
HETATM    3  C   UNL     1      -8.096  13.385  67.480  1.00  0.00    -0.181 C  
HETATM    4  C   UNL     1      -6.792  12.555  67.819  1.00  0.00    -0.120 C  
HETATM    5  O   UNL     1      -9.522  11.536  66.310  1.00  0.00    -0.204 OA 
HETATM    6  S   UNL     1      -6.585  11.786  69.464  1.00  0.00    -0.068 SA 
HETATM    7  C   UNL     1      -8.499  12.032  66.733  1.00  0.00    -0.155 C  
HETATM    8  O   UNL     1      -5.165  10.162  66.138  1.00  0.00    -0.044 OA 
HETATM    9  O   UNL     1      -5.594   8.246  67.242  1.00  0.00    -0.036 OA 
HETATM   10  C   UNL     1      -5.919   9.394  66.966  1.00  0.00    -0.056 C  
HETATM   11  C   UNL     1      -7.347  10.174  69.002  1.00  0.00    -0.087 C  
HETATM   12  C   UNL     1      -6.678   9.062  69.817  1.00  0.00    -0.049 C  
HETATM   13  C   UNL     1      -8.824  10.236  69.436  1.00  0.00    -0.177 C  
HETATM   14  N   UNL     1      -7.271  11.461  66.938  1.00  0.00    -0.139 N  
HETATM   15  C   UNL     1      -7.201  10.080  67.464  1.00  0.00    -0.089 C  
BRANCH   3  16
HETATM   16  N   UNL     1      -9.099  13.695  68.548  1.00  0.00    -0.324 N  
HETATM   17  C   UNL     1     -12.056  12.728  69.974  1.00  0.00    -0.355 A  
HETATM   18  O   UNL     1     -10.988  13.681  67.246  1.00  0.00    -0.280 OA 
HETATM   19  C   UNL     1     -12.910  12.031  69.135  1.00  0.00     1.340 A  
HETATM   20  O   UNL     1     -12.625  15.778  70.533  1.00  0.00    -0.421 OA 
HETATM   21  O   UNL     1     -12.625  15.564  68.298  1.00  0.00     0.513 OA 
HETATM   22  C   UNL     1     -11.295  13.990  69.615  1.00  0.00    -0.270 C  
HETATM   23  H   UNL     1      -8.747  13.861  69.491  1.00  0.00     0.000 HD 
HETATM   24  C   UNL     1     -10.460  13.774  68.355  1.00  0.00    -0.252 C  
HETATM   25  S   UNL     1     -13.569  10.630  69.862  1.00  0.00     2.105 SA 
HETATM   26  C   UNL     1     -12.227  15.187  69.534  1.00  0.00    -0.233 C  
HETATM   27  C   UNL     1     -12.760  10.948  71.330  1.00  0.00    -0.434 A  
HETATM   28  C   UNL     1     -11.998  12.093  71.262  1.00  0.00     0.527 A  
ENDBRANCH   3  16
ENDBRANCH   2   3
TORSDOF 2
ENDMDL
MODEL      171
REMARK 921   NORMALIZED FREE ENERGY PREDICTED BY IDOCK:    2.34 KCAL/MOL
REMARK 922        TOTAL FREE ENERGY PREDICTED BY IDOCK:    2.13 KCAL/MOL
REMARK 923 INTER-LIGAND FREE ENERGY PREDICTED BY IDOCK:    1.19 KCAL/MOL
REMARK 924 INTRA-LIGAND FREE ENERGY PREDICTED BY IDOCK:    0.94 KCAL/MOL
REMARK 927      BINDING AFFINITY PREDICTED BY RF-SCORE:    0.00 PKD
ROOT
HETATM    1  C   UNL     1      -6.239  16.268  66.707  1.00  0.00     0.174 C  
HETATM    2  O   UNL     1      -6.778  14.964  66.852  1.00  0.00    -0.038 OA 
ENDROOT
BRANCH   2   3
HETATM    3  C   UNL     1      -8.193  14.861  67.179  1.00  0.00    -0.215 C  
HETATM    4  C   UNL     1      -9.167  15.857  66.430  1.00  0.00    -0.309 C  
HETATM    5  O   UNL     1      -8.443  15.734  69.628  1.00  0.00    -0.206 OA 
HETATM    6  S   UNL     1     -10.901  15.382  66.097  1.00  0.00    -0.285 SA 
HETATM    7  C   UNL     1      -8.534  15.807  68.421  1.00  0.00    -0.170 C  
HETATM    8  O   UNL     1      -9.805  19.113  66.867  1.00  0.00    -0.306 OA 
HETATM    9  O   UNL     1     -11.856  19.212  67.791  1.00  0.00     1.061 OA 
HETATM   10  C   UNL     1     -10.831  18.578  67.577  1.00  0.00    -0.291 C  
HETATM   11  C   UNL     1     -11.579  16.083  67.659  1.00  0.00     0.092 C  
HETATM   12  C   UNL     1     -13.009  16.568  67.401  1.00  0.00     4.590 C  
HETATM   13  C   UNL     1     -11.664  14.923  68.670  1.00  0.00    -0.358 C  
HETATM   14  N   UNL     1      -9.226  16.702  67.649  1.00  0.00    -0.208 N  
HETATM   15  C   UNL     1     -10.558  17.159  68.101  1.00  0.00    -0.380 C  
BRANCH   3  16
HETATM   16  N   UNL     1      -8.621  13.457  67.476  1.00  0.00    -0.188 N  
HETATM   17  C   UNL     1      -8.617  10.231  66.334  1.00  0.00    -0.138 A  
HETATM   18  O   UNL     1      -9.668  13.000  65.486  1.00  0.00    -0.182 OA 
HETATM   19  C   UNL     1      -8.537  10.097  64.957  1.00  0.00    -0.167 A  
HETATM   20  O   UNL     1     -11.417   9.876  67.738  1.00  0.00    -0.121 OA 
HETATM   21  O   UNL     1     -11.748  11.378  66.102  1.00  0.00    -0.266 OA 
HETATM   22  C   UNL     1      -9.514  11.201  67.080  1.00  0.00    -0.187 C  
HETATM   23  H   UNL     1      -8.407  13.085  68.402  1.00  0.00     0.000 HD 
HETATM   24  C   UNL     1      -9.281  12.629  66.596  1.00  0.00    -0.218 C  
HETATM   25  S   UNL     1      -7.390   8.929  64.462  1.00  0.00    -0.105 SA 
HETATM   26  C   UNL     1     -10.966  10.760  67.017  1.00  0.00    -0.227 C  
HETATM   27  C   UNL     1      -7.006   8.544  66.080  1.00  0.00    -0.068 A  
HETATM   28  C   UNL     1      -7.731   9.298  66.976  1.00  0.00    -0.095 A  
ENDBRANCH   3  16
ENDBRANCH   2   3
TORSDOF 2
ENDMDL
MODEL      172
REMARK 921   NORMALIZED FREE ENERGY PREDICTED BY IDOCK:    2.55 KCAL/MOL
REMARK 922        TOTAL FREE ENERGY PREDICTED BY IDOCK:    2.36 KCAL/MOL
REMARK 923 INTER-LIGAND FREE ENERGY PREDICTED BY IDOCK:    2.65 KCAL/MOL
REMARK 924 INTRA-LIGAND FREE ENERGY PREDICTED BY IDOCK:   -0.29 KCAL/MOL
REMARK 927      BINDING AFFINITY PREDICTED BY RF-SCORE:    0.00 PKD
ROOT
HETATM    1  C   UNL     1     -12.630  10.544  67.736  1.00  0.00     4.077 C  
HETATM    2  O   UNL     1     -11.468   9.751  67.549  1.00  0.00     0.030 OA 
ENDROOT
BRANCH   2   3
HETATM    3  C   UNL     1     -10.293  10.099  68.333  1.00  0.00    -0.183 C  
HETATM    4  C   UNL     1      -9.388  11.269  67.773  1.00  0.00    -0.163 C  
HETATM    5  O   UNL     1      -8.637   8.091  68.101  1.00  0.00    -0.126 OA 
HETATM    6  S   UNL     1      -8.427  12.326  68.914  1.00  0.00     0.362 SA 
HETATM    7  C   UNL     1      -9.048   9.209  67.872  1.00  0.00    -0.127 C  
HETATM    8  O   UNL     1      -7.152  11.371  65.285  1.00  0.00     0.590 OA 
HETATM    9  O   UNL     1      -5.137  11.491  66.282  1.00  0.00    -0.227 OA 
HETATM   10  C   UNL     1      -6.318  11.176  66.338  1.00  0.00    -0.116 C  
HETATM   11  C   UNL     1      -6.905  11.290  68.875  1.00  0.00    -0.086 C  
HETATM   12  C   UNL     1      -5.686  12.201  69.051  1.00  0.00    -0.062 C  
HETATM   13  C   UNL     1      -6.964  10.361  70.102  1.00  0.00    -0.146 C  
HETATM   14  N   UNL     1      -8.418  10.265  67.269  1.00  0.00    -0.125 N  
HETATM   15  C   UNL     1      -6.984  10.499  67.547  1.00  0.00    -0.080 C  
BRANCH   3  16
HETATM   16  N   UNL     1     -10.510   9.945  69.807  1.00  0.00    -0.242 N  
HETATM   17  C   UNL     1     -10.290   7.790  72.457  1.00  0.00    -0.328 A  
HETATM   18  O   UNL     1     -11.762   8.023  69.761  1.00  0.00     0.241 OA 
HETATM   19  C   UNL     1     -10.386   6.447  72.129  1.00  0.00    -0.189 A  
HETATM   20  O   UNL     1     -12.809   9.246  73.672  1.00  0.00     1.469 OA 
HETATM   21  O   UNL     1     -13.535   8.247  71.796  1.00  0.00    -0.336 OA 
HETATM   22  C   UNL     1     -11.181   8.898  71.928  1.00  0.00    -0.447 C  
HETATM   23  H   UNL     1     -10.129  10.668  70.418  1.00  0.00     0.000 HD 
HETATM   24  C   UNL     1     -11.185   8.903  70.402  1.00  0.00    -0.230 C  
HETATM   25  S   UNL     1      -9.192   5.486  72.885  1.00  0.00    -0.133 SA 
HETATM   26  C   UNL     1     -12.568   8.825  72.545  1.00  0.00    -0.306 C  
HETATM   27  C   UNL     1      -8.545   6.837  73.702  1.00  0.00    -0.131 A  
HETATM   28  C   UNL     1      -9.222   7.997  73.396  1.00  0.00    -0.332 A  
ENDBRANCH   3  16
ENDBRANCH   2   3
TORSDOF 2
ENDMDL
MODEL      173
REMARK 921   NORMALIZED FREE ENERGY PREDICTED BY IDOCK:    2.62 KCAL/MOL
REMARK 922        TOTAL FREE ENERGY PREDICTED BY IDOCK:    2.45 KCAL/MOL
REMARK 923 INTER-LIGAND FREE ENERGY PREDICTED BY IDOCK:   -0.50 KCAL/MOL
REMARK 924 INTRA-LIGAND FREE ENERGY PREDICTED BY IDOCK:    2.94 KCAL/MOL
REMARK 927      BINDING AFFINITY PREDICTED BY RF-SCORE:    0.00 PKD
ROOT
HETATM    1  C   UNL     1     -13.141  16.085  69.411  1.00  0.00     1.724 C  
HETATM    2  O   UNL     1     -11.885  16.444  69.967  1.00  0.00    -0.064 OA 
ENDROOT
BRANCH   2   3
HETATM    3  C   UNL     1     -10.696  16.081  69.211  1.00  0.00    -0.275 C  
HETATM    4  C   UNL     1      -9.449  17.045  69.347  1.00  0.00     0.109 C  
HETATM    5  O   UNL     1     -11.286  16.452  66.694  1.00  0.00     0.196 OA 
HETATM    6  S   UNL     1      -7.750  16.393  69.169  1.00  0.00    -0.173 SA 
HETATM    7  C   UNL     1     -10.761  16.727  67.751  1.00  0.00    -0.321 C  
HETATM    8  O   UNL     1      -8.783  20.042  68.014  1.00  0.00    -0.297 OA 
HETATM    9  O   UNL     1      -7.203  19.675  66.452  1.00  0.00    -0.223 OA 
HETATM   10  C   UNL     1      -8.123  19.245  67.135  1.00  0.00    -0.266 C  
HETATM   11  C   UNL     1      -7.635  16.694  67.357  1.00  0.00    -0.165 C  
HETATM   12  C   UNL     1      -6.177  17.007  67.001  1.00  0.00    -0.225 C  
HETATM   13  C   UNL     1      -8.003  15.371  66.659  1.00  0.00    -0.068 C  
HETATM   14  N   UNL     1      -9.775  17.638  68.026  1.00  0.00    -0.289 N  
HETATM   15  C   UNL     1      -8.667  17.809  67.061  1.00  0.00    -0.244 C  
BRANCH   3  16
HETATM   16  N   UNL     1     -10.504  14.600  69.104  1.00  0.00    -0.257 N  
HETATM   17  C   UNL     1      -8.852  12.105  67.443  1.00  0.00    -0.181 A  
HETATM   18  O   UNL     1     -10.841  14.382  66.845  1.00  0.00    -0.292 OA 
HETATM   19  C   UNL     1      -8.461  12.422  66.151  1.00  0.00     0.389 A  
HETATM   20  O   UNL     1     -11.414  10.317  67.864  1.00  0.00    -0.346 OA 
HETATM   21  O   UNL     1     -12.059  11.987  66.508  1.00  0.00    -0.617 OA 
HETATM   22  C   UNL     1     -10.209  12.396  68.054  1.00  0.00    -0.219 C  
HETATM   23  H   UNL     1     -10.328  14.084  69.967  1.00  0.00     0.000 HD 
HETATM   24  C   UNL     1     -10.547  13.880  67.932  1.00  0.00    -0.245 C  
HETATM   25  S   UNL     1      -6.845  11.979  65.812  1.00  0.00     2.348 SA 
HETATM   26  C   UNL     1     -11.274  11.475  67.483  1.00  0.00    -0.298 C  
HETATM   27  C   UNL     1      -6.645  11.315  67.371  1.00  0.00    -0.081 A  
HETATM   28  C   UNL     1      -7.784  11.438  68.135  1.00  0.00    -0.118 A  
ENDBRANCH   3  16
ENDBRANCH   2   3
TORSDOF 2
ENDMDL
MODEL      174
REMARK 921   NORMALIZED FREE ENERGY PREDICTED BY IDOCK:    2.73 KCAL/MOL
REMARK 922        TOTAL FREE ENERGY PREDICTED BY IDOCK:    2.57 KCAL/MOL
REMARK 923 INTER-LIGAND FREE ENERGY PREDICTED BY IDOCK:   -0.95 KCAL/MOL
REMARK 924 INTRA-LIGAND FREE ENERGY PREDICTED BY IDOCK:    3.51 KCAL/MOL
REMARK 927      BINDING AFFINITY PREDICTED BY RF-SCORE:    0.00 PKD
ROOT
HETATM    1  C   UNL     1     -12.149  13.511  70.141  1.00  0.00    -0.354 C  
HETATM    2  O   UNL     1     -12.218  12.545  69.104  1.00  0.00    -0.187 OA 
ENDROOT
BRANCH   2   3
HETATM    3  C   UNL     1     -11.067  12.435  68.220  1.00  0.00    -0.243 C  
HETATM    4  C   UNL     1      -9.662  12.213  68.912  1.00  0.00     0.119 C  
HETATM    5  O   UNL     1     -10.701  14.809  67.194  1.00  0.00    -0.287 OA 
HETATM    6  S   UNL     1      -8.337  11.298  68.045  1.00  0.00    -0.143 SA 
HETATM    7  C   UNL     1     -10.456  13.884  67.939  1.00  0.00    -0.242 C  
HETATM    8  O   UNL     1      -7.607  14.307  70.521  1.00  0.00     0.813 OA 
HETATM    9  O   UNL     1      -5.869  14.643  69.129  1.00  0.00    -0.096 OA 
HETATM   10  C   UNL     1      -7.042  14.330  69.287  1.00  0.00    -0.107 C  
HETATM   11  C   UNL     1      -7.583  12.783  67.260  1.00  0.00    -0.112 C  
HETATM   12  C   UNL     1      -6.075  12.551  67.115  1.00  0.00    -0.036 C  
HETATM   13  C   UNL     1      -8.169  12.885  65.839  1.00  0.00     1.559 C  
HETATM   14  N   UNL     1      -9.342  13.647  68.701  1.00  0.00    -0.119 N  
HETATM   15  C   UNL     1      -8.011  13.977  68.148  1.00  0.00    -0.149 C  
BRANCH   3  16
HETATM   16  N   UNL     1     -11.392  11.759  66.923  1.00  0.00    -0.325 N  
HETATM   17  C   UNL     1     -10.247  11.039  63.780  1.00  0.00    -0.425 A  
HETATM   18  O   UNL     1     -10.910  13.501  65.510  1.00  0.00    -0.280 OA 
HETATM   19  C   UNL     1      -9.314  11.933  63.278  1.00  0.00     0.073 A  
HETATM   20  O   UNL     1     -13.235  11.239  62.795  1.00  0.00     0.418 OA 
HETATM   21  O   UNL     1     -12.681  13.308  63.470  1.00  0.00    -0.708 OA 
HETATM   22  C   UNL     1     -11.533  11.407  64.494  1.00  0.00    -0.123 C  
HETATM   23  H   UNL     1     -11.750  10.804  66.966  1.00  0.00     0.000 HD 
HETATM   24  C   UNL     1     -11.247  12.327  65.678  1.00  0.00    -0.333 C  
HETATM   25  S   UNL     1      -7.963  11.164  62.567  1.00  0.00     0.112 SA 
HETATM   26  C   UNL     1     -12.559  11.962  63.520  1.00  0.00    -0.459 C  
HETATM   27  C   UNL     1      -8.614   9.617  62.876  1.00  0.00    -0.202 A  
HETATM   28  C   UNL     1      -9.832   9.688  63.516  1.00  0.00     0.894 A  
ENDBRANCH   3  16
ENDBRANCH   2   3
TORSDOF 2
ENDMDL
MODEL      175
REMARK 921   NORMALIZED FREE ENERGY PREDICTED BY IDOCK:    3.52 KCAL/MOL
REMARK 922        TOTAL FREE ENERGY PREDICTED BY IDOCK:    3.45 KCAL/MOL
REMARK 923 INTER-LIGAND FREE ENERGY PREDICTED BY IDOCK:   -2.23 KCAL/MOL
REMARK 924 INTRA-LIGAND FREE ENERGY PREDICTED BY IDOCK:    5.68 KCAL/MOL
REMARK 927      BINDING AFFINITY PREDICTED BY RF-SCORE:    0.00 PKD
ROOT
HETATM    1  C   UNL     1      -5.230   8.303  65.923  1.00  0.00    -0.027 C  
HETATM    2  O   UNL     1      -5.642   6.963  65.699  1.00  0.00    -0.029 OA 
ENDROOT
BRANCH   2   3
HETATM    3  C   UNL     1      -6.435   6.328  66.741  1.00  0.00    -0.046 C  
HETATM    4  C   UNL     1      -6.370   4.750  66.818  1.00  0.00    -0.037 C  
HETATM    5  O   UNL     1      -8.935   6.650  66.056  1.00  0.00    -0.154 OA 
HETATM    6  S   UNL     1      -6.599   3.889  68.414  1.00  0.00    -0.046 SA 
HETATM    7  C   UNL     1      -7.906   6.024  66.196  1.00  0.00    -0.104 C  
HETATM    8  O   UNL     1      -7.798   2.361  64.959  1.00  0.00    -0.075 OA 
HETATM    9  O   UNL     1      -9.411   1.468  66.251  1.00  0.00     0.070 OA 
HETATM   10  C   UNL     1      -8.683   2.415  65.986  1.00  0.00    -0.123 C  
HETATM   11  C   UNL     1      -8.422   3.688  68.246  1.00  0.00    -0.092 C  
HETATM   12  C   UNL     1      -8.841   2.394  68.951  1.00  0.00    -0.149 C  
HETATM   13  C   UNL     1      -9.074   4.857  69.009  1.00  0.00    -0.150 C  
HETATM   14  N   UNL     1      -7.691   4.672  66.145  1.00  0.00    -0.090 N  
HETATM   15  C   UNL     1      -8.702   3.762  66.726  1.00  0.00    -0.118 C  
BRANCH   3  16
HETATM   16  N   UNL     1      -6.515   7.148  67.992  1.00  0.00    -0.046 N  
HETATM   17  C   UNL     1      -7.122   7.063  71.359  1.00  0.00    -0.070 A  
HETATM   18  O   UNL     1      -8.580   6.456  68.713  1.00  0.00    -0.123 OA 
HETATM   19  C   UNL     1      -7.945   6.030  71.779  1.00  0.00    -0.107 A  
HETATM   20  O   UNL     1      -8.337   9.958  71.073  1.00  0.00    -0.020 OA 
HETATM   21  O   UNL     1      -9.705   8.611  69.907  1.00  0.00    -0.170 OA 
HETATM   22  C   UNL     1      -7.363   7.954  70.154  1.00  0.00    -0.070 C  
HETATM   23  H   UNL     1      -5.740   7.781  68.191  1.00  0.00     0.000 HD 
HETATM   24  C   UNL     1      -7.554   7.114  68.894  1.00  0.00    -0.100 C  
HETATM   25  S   UNL     1      -7.345   5.212  73.155  1.00  0.00    -0.092 SA 
HETATM   26  C   UNL     1      -8.494   8.933  70.417  1.00  0.00    -0.166 C  
HETATM   27  C   UNL     1      -5.992   6.248  73.246  1.00  0.00    -0.057 A  
HETATM   28  C   UNL     1      -5.996   7.191  72.242  1.00  0.00    -0.041 A  
ENDBRANCH   3  16
ENDBRANCH   2   3
TORSDOF 2
ENDMDL
MODEL      176
REMARK 921   NORMALIZED FREE ENERGY PREDICTED BY IDOCK:    3.54 KCAL/MOL
REMARK 922        TOTAL FREE ENERGY PREDICTED BY IDOCK:    3.47 KCAL/MOL
REMARK 923 INTER-LIGAND FREE ENERGY PREDICTED BY IDOCK:   -1.75 KCAL/MOL
REMARK 924 INTRA-LIGAND FREE ENERGY PREDICTED BY IDOCK:    5.22 KCAL/MOL
REMARK 927      BINDING AFFINITY PREDICTED BY RF-SCORE:    0.00 PKD
ROOT
HETATM    1  C   UNL     1      -5.382   8.246  65.890  1.00  0.00    -0.031 C  
HETATM    2  O   UNL     1      -5.632   7.065  65.145  1.00  0.00    -0.030 OA 
ENDROOT
BRANCH   2   3
HETATM    3  C   UNL     1      -6.860   6.341  65.439  1.00  0.00    -0.048 C  
HETATM    4  C   UNL     1      -6.825   4.773  65.231  1.00  0.00    -0.060 C  
HETATM    5  O   UNL     1      -8.568   7.010  63.578  1.00  0.00     0.261 OA 
HETATM    6  S   UNL     1      -7.887   3.681  66.242  1.00  0.00    -0.089 SA 
HETATM    7  C   UNL     1      -7.779   6.275  64.133  1.00  0.00    -0.104 C  
HETATM    8  O   UNL     1      -6.948   2.880  62.475  1.00  0.00    -0.029 OA 
HETATM    9  O   UNL     1      -8.993   1.938  62.475  1.00  0.00    -0.073 OA 
HETATM   10  C   UNL     1      -8.255   2.843  62.840  1.00  0.00    -0.074 C  
HETATM   11  C   UNL     1      -9.308   3.685  65.071  1.00  0.00    -0.156 C  
HETATM   12  C   UNL     1     -10.028   2.335  65.167  1.00  0.00     0.497 C  
HETATM   13  C   UNL     1     -10.291   4.764  65.563  1.00  0.00    -0.162 C  
HETATM   14  N   UNL     1      -7.551   4.937  63.947  1.00  0.00    -0.063 N  
HETATM   15  C   UNL     1      -8.701   4.042  63.693  1.00  0.00    -0.107 C  
BRANCH   3  16
HETATM   16  N   UNL     1      -7.632   6.942  66.574  1.00  0.00    -0.087 N  
HETATM   17  C   UNL     1      -9.293   9.728  67.663  1.00  0.00    -0.157 A  
HETATM   18  O   UNL     1      -6.460   8.904  66.773  1.00  0.00    -0.062 OA 
HETATM   19  C   UNL     1      -8.873  10.920  67.093  1.00  0.00    -0.135 A  
HETATM   20  O   UNL     1      -8.317   9.004  70.572  1.00  0.00    -0.143 OA 
HETATM   21  O   UNL     1      -6.456   9.496  69.415  1.00  0.00    -0.043 OA 
HETATM   22  C   UNL     1      -8.388   8.631  68.191  1.00  0.00    -0.127 C  
HETATM   23  H   UNL     1      -8.387   6.386  66.975  1.00  0.00     0.000 HD 
HETATM   24  C   UNL     1      -7.400   8.185  67.117  1.00  0.00    -0.088 C  
HETATM   25  S   UNL     1     -10.168  11.908  66.573  1.00  0.00    -0.208 SA 
HETATM   26  C   UNL     1      -7.729   9.048  69.495  1.00  0.00    -0.082 C  
HETATM   27  C   UNL     1     -11.321  10.784  67.138  1.00  0.00    -0.028 A  
HETATM   28  C   UNL     1     -10.728   9.675  67.701  1.00  0.00    -0.324 A  
ENDBRANCH   3  16
ENDBRANCH   2   3
TORSDOF 2
ENDMDL
MODEL      177
REMARK 921   NORMALIZED FREE ENERGY PREDICTED BY IDOCK:    3.95 KCAL/MOL
REMARK 922        TOTAL FREE ENERGY PREDICTED BY IDOCK:    3.93 KCAL/MOL
REMARK 923 INTER-LIGAND FREE ENERGY PREDICTED BY IDOCK:   -3.89 KCAL/MOL
REMARK 924 INTRA-LIGAND FREE ENERGY PREDICTED BY IDOCK:    7.82 KCAL/MOL
REMARK 927      BINDING AFFINITY PREDICTED BY RF-SCORE:    0.00 PKD
ROOT
HETATM    1  C   UNL     1      -7.394  17.638  68.591  1.00  0.00    -0.257 C  
HETATM    2  O   UNL     1      -8.401  17.292  67.653  1.00  0.00    -0.200 OA 
ENDROOT
BRANCH   2   3
HETATM    3  C   UNL     1      -9.185  16.098  67.930  1.00  0.00    -0.200 C  
HETATM    4  C   UNL     1     -10.600  16.319  68.602  1.00  0.00    -0.297 C  
HETATM    5  O   UNL     1      -7.953  14.845  69.862  1.00  0.00    -0.044 OA 
HETATM    6  S   UNL     1     -11.965  15.141  68.296  1.00  0.00    -0.042 SA 
HETATM    7  C   UNL     1      -8.826  15.535  69.381  1.00  0.00    -0.257 C  
HETATM    8  O   UNL     1     -11.494  17.038  71.745  1.00  0.00     0.086 OA 
HETATM    9  O   UNL     1     -12.391  15.144  72.571  1.00  0.00    -0.331 OA 
HETATM   10  C   UNL     1     -11.651  15.690  71.762  1.00  0.00    -0.450 C  
HETATM   11  C   UNL     1     -11.585  14.055  69.733  1.00  0.00    -0.281 C  
HETATM   12  C   UNL     1     -12.894  13.453  70.255  1.00  0.00     0.044 C  
HETATM   13  C   UNL     1     -10.727  12.891  69.200  1.00  0.00    -0.060 C  
HETATM   14  N   UNL     1     -10.030  15.917  69.912  1.00  0.00    -0.221 N  
HETATM   15  C   UNL     1     -10.797  14.946  70.723  1.00  0.00     0.028 C  
BRANCH   3  16
HETATM   16  N   UNL     1      -8.989  15.023  66.905  1.00  0.00    -0.235 N  
HETATM   17  C   UNL     1     -10.550  12.610  65.048  1.00  0.00    -0.329 A  
HETATM   18  O   UNL     1     -10.052  13.314  68.006  1.00  0.00    -0.222 OA 
HETATM   19  C   UNL     1     -11.714  12.104  65.606  1.00  0.00    -0.323 A  
HETATM   20  O   UNL     1      -7.897  10.921  65.264  1.00  0.00    -0.030 OA 
HETATM   21  O   UNL     1      -8.696  11.062  67.358  1.00  0.00    -0.131 OA 
HETATM   22  C   UNL     1      -9.246  12.850  65.784  1.00  0.00     0.219 C  
HETATM   23  H   UNL     1      -8.455  15.261  66.068  1.00  0.00     0.000 HD 
HETATM   24  C   UNL     1      -9.473  13.739  67.004  1.00  0.00    -0.255 C  
HETATM   25  S   UNL     1     -13.004  12.001  64.489  1.00  0.00     0.652 SA 
HETATM   26  C   UNL     1      -8.548  11.539  66.101  1.00  0.00    -0.094 C  
HETATM   27  C   UNL     1     -12.024  12.590  63.222  1.00  0.00    -0.426 A  
HETATM   28  C   UNL     1     -10.743  12.868  63.647  1.00  0.00    -0.229 A  
ENDBRANCH   3  16
ENDBRANCH   2   3
TORSDOF 2
ENDMDL
MODEL      178
REMARK 921   NORMALIZED FREE ENERGY PREDICTED BY IDOCK:    5.16 KCAL/MOL
REMARK 922        TOTAL FREE ENERGY PREDICTED BY IDOCK:    5.28 KCAL/MOL
REMARK 923 INTER-LIGAND FREE ENERGY PREDICTED BY IDOCK:    4.19 KCAL/MOL
REMARK 924 INTRA-LIGAND FREE ENERGY PREDICTED BY IDOCK:    1.09 KCAL/MOL
REMARK 927      BINDING AFFINITY PREDICTED BY RF-SCORE:    0.00 PKD
ROOT
HETATM    1  C   UNL     1      -5.135   7.702  66.853  1.00  0.00    -0.023 C  
HETATM    2  O   UNL     1      -5.913   6.632  66.341  1.00  0.00    -0.027 OA 
ENDROOT
BRANCH   2   3
HETATM    3  C   UNL     1      -7.311   6.576  66.741  1.00  0.00    -0.079 C  
HETATM    4  C   UNL     1      -7.689   5.512  67.850  1.00  0.00    -0.092 C  
HETATM    5  O   UNL     1      -8.618   5.595  64.703  1.00  0.00    -0.119 OA 
HETATM    6  S   UNL     1      -9.086   5.818  68.989  1.00  0.00    -0.116 SA 
HETATM    7  C   UNL     1      -8.106   5.557  65.802  1.00  0.00    -0.112 C  
HETATM    8  O   UNL     1      -8.105   2.195  67.715  1.00  0.00    -0.062 OA 
HETATM    9  O   UNL     1     -10.323   1.851  67.897  1.00  0.00     1.276 OA 
HETATM   10  C   UNL     1      -9.396   2.595  67.601  1.00  0.00    -0.163 C  
HETATM   11  C   UNL     1     -10.354   4.996  67.937  1.00  0.00    -0.035 C  
HETATM   12  C   UNL     1     -11.421   4.375  68.846  1.00  0.00     5.996 C  
HETATM   13  C   UNL     1     -11.041   6.104  67.116  1.00  0.00    -0.335 C  
HETATM   14  N   UNL     1      -8.239   4.623  66.795  1.00  0.00    -0.106 N  
HETATM   15  C   UNL     1      -9.565   4.015  67.037  1.00  0.00    -0.201 C  
BRANCH   3  16
HETATM   16  N   UNL     1      -7.978   7.917  66.715  1.00  0.00    -0.105 N  
HETATM   17  C   UNL     1      -7.852  11.127  67.896  1.00  0.00    -0.111 A  
HETATM   18  O   UNL     1      -8.133   8.257  68.979  1.00  0.00    -0.114 OA 
HETATM   19  C   UNL     1      -7.214  11.277  69.117  1.00  0.00    -0.115 A  
HETATM   20  O   UNL     1     -11.003  11.136  67.810  1.00  0.00    -0.222 OA 
HETATM   21  O   UNL     1     -10.445   9.614  69.365  1.00  0.00    -0.200 OA 
HETATM   22  C   UNL     1      -8.865  10.053  67.550  1.00  0.00    -0.130 C  
HETATM   23  H   UNL     1      -8.217   8.307  65.803  1.00  0.00     0.000 HD 
HETATM   24  C   UNL     1      -8.293   8.665  67.827  1.00  0.00    -0.118 C  
HETATM   25  S   UNL     1      -6.104  12.577  69.139  1.00  0.00    -0.095 SA 
HETATM   26  C   UNL     1     -10.195  10.316  68.236  1.00  0.00    -0.159 C  
HETATM   27  C   UNL     1      -6.482  12.996  67.529  1.00  0.00    -0.154 A  
HETATM   28  C   UNL     1      -7.428  12.155  66.985  1.00  0.00    -0.086 A  
ENDBRANCH   3  16
ENDBRANCH   2   3
TORSDOF 2
ENDMDL
MODEL      179
REMARK 921   NORMALIZED FREE ENERGY PREDICTED BY IDOCK:    8.05 KCAL/MOL
REMARK 922        TOTAL FREE ENERGY PREDICTED BY IDOCK:    8.50 KCAL/MOL
REMARK 923 INTER-LIGAND FREE ENERGY PREDICTED BY IDOCK:    4.08 KCAL/MOL
REMARK 924 INTRA-LIGAND FREE ENERGY PREDICTED BY IDOCK:    4.42 KCAL/MOL
REMARK 927      BINDING AFFINITY PREDICTED BY RF-SCORE:    0.00 PKD
ROOT
HETATM    1  C   UNL     1      -6.859  10.783  69.000  1.00  0.00    -0.075 C  
HETATM    2  O   UNL     1      -6.442  11.573  67.898  1.00  0.00    -0.053 OA 
ENDROOT
BRANCH   2   3
HETATM    3  C   UNL     1      -7.453  12.391  67.246  1.00  0.00    -0.135 C  
HETATM    4  C   UNL     1      -8.953  12.147  67.685  1.00  0.00    -0.178 C  
HETATM    5  O   UNL     1      -7.567  11.577  64.766  1.00  0.00     1.075 OA 
HETATM    6  S   UNL     1     -10.172  13.508  67.616  1.00  0.00    -0.243 SA 
HETATM    7  C   UNL     1      -7.957  11.672  65.910  1.00  0.00     0.379 C  
HETATM    8  O   UNL     1     -11.136   9.723  66.938  1.00  0.00    -0.041 OA 
HETATM    9  O   UNL     1     -12.634  10.662  65.544  1.00  0.00     3.719 OA 
HETATM   10  C   UNL     1     -11.511  10.661  66.032  1.00  0.00     0.916 C  
HETATM   11  C   UNL     1     -10.741  13.147  65.902  1.00  0.00    -0.274 C  
HETATM   12  C   UNL     1     -12.219  13.534  65.782  1.00  0.00    -0.505 C  
HETATM   13  C   UNL     1      -9.948  14.076  64.962  1.00  0.00    -0.216 C  
HETATM   14  N   UNL     1      -9.179  11.363  66.445  1.00  0.00    -0.192 N  
HETATM   15  C   UNL     1     -10.400  11.656  65.664  1.00  0.00    -0.262 C  
BRANCH   3  16
HETATM   16  N   UNL     1      -6.968  13.772  66.928  1.00  0.00     0.126 N  
HETATM   17  C   UNL     1      -6.662  16.970  68.108  1.00  0.00    -0.153 A  
HETATM   18  O   UNL     1      -8.877  14.927  67.463  1.00  0.00    -0.173 OA 
HETATM   19  C   UNL     1      -7.598  17.333  69.063  1.00  0.00    -0.177 A  
HETATM   20  O   UNL     1      -7.055  17.956  65.139  1.00  0.00    -0.175 OA 
HETATM   21  O   UNL     1      -9.001  16.996  65.719  1.00  0.00    -0.526 OA 
HETATM   22  C   UNL     1      -6.955  16.228  66.817  1.00  0.00    -0.165 C  
HETATM   23  H   UNL     1      -6.024  13.865  66.553  1.00  0.00     0.000 HD 
HETATM   24  C   UNL     1      -7.698  14.925  67.103  1.00  0.00    -0.142 C  
HETATM   25  S   UNL     1      -6.907  18.126  70.411  1.00  0.00     1.612 SA 
HETATM   26  C   UNL     1      -7.659  17.129  65.817  1.00  0.00     0.300 C  
HETATM   27  C   UNL     1      -5.346  18.041  69.728  1.00  0.00    -0.212 A  
HETATM   28  C   UNL     1      -5.353  17.412  68.502  1.00  0.00    -0.146 A  
ENDBRANCH   3  16
ENDBRANCH   2   3
TORSDOF 2
ENDMDL
MODEL      180
REMARK 921   NORMALIZED FREE ENERGY PREDICTED BY IDOCK:    8.05 KCAL/MOL
REMARK 922        TOTAL FREE ENERGY PREDICTED BY IDOCK:    8.50 KCAL/MOL
REMARK 923 INTER-LIGAND FREE ENERGY PREDICTED BY IDOCK:    5.11 KCAL/MOL
REMARK 924 INTRA-LIGAND FREE ENERGY PREDICTED BY IDOCK:    3.39 KCAL/MOL
REMARK 927      BINDING AFFINITY PREDICTED BY RF-SCORE:    0.00 PKD
ROOT
HETATM    1  C   UNL     1     -11.417  18.137  72.549  1.00  0.00     3.064 C  
HETATM    2  O   UNL     1     -11.748  16.758  72.506  1.00  0.00    -0.421 OA 
ENDROOT
BRANCH   2   3
HETATM    3  C   UNL     1     -11.603  16.079  71.227  1.00  0.00    -0.449 C  
HETATM    4  C   UNL     1     -12.610  14.895  70.935  1.00  0.00    -0.341 C  
HETATM    5  O   UNL     1      -9.359  14.747  71.357  1.00  0.00     2.479 OA 
HETATM    6  S   UNL     1     -13.102  14.499  69.219  1.00  0.00     1.726 SA 
HETATM    7  C   UNL     1     -10.565  14.872  71.367  1.00  0.00     0.821 C  
HETATM    8  O   UNL     1     -12.732  11.739  72.040  1.00  0.00    -0.213 OA 
HETATM    9  O   UNL     1     -12.116  10.458  70.293  1.00  0.00    -0.277 OA 
HETATM   10  C   UNL     1     -12.098  11.546  70.856  1.00  0.00    -0.247 C  
HETATM   11  C   UNL     1     -11.761  13.270  68.931  1.00  0.00    -0.327 C  
HETATM   12  C   UNL     1     -12.275  12.198  67.964  1.00  0.00     0.218 C  
HETATM   13  C   UNL     1     -10.615  14.016  68.220  1.00  0.00    -0.253 C  
HETATM   14  N   UNL     1     -11.543  13.918  71.266  1.00  0.00     0.330 N  
HETATM   15  C   UNL     1     -11.345  12.782  70.339  1.00  0.00     0.623 C  
BRANCH   3  16
HETATM   16  N   UNL     1     -11.168  16.998  70.127  1.00  0.00    -0.202 N  
HETATM   17  C   UNL     1     -10.094  17.165  66.882  1.00  0.00    -0.298 A  
HETATM   18  O   UNL     1      -9.206  15.947  69.569  1.00  0.00    -0.255 OA 
HETATM   19  C   UNL     1      -9.449  16.028  66.420  1.00  0.00    -0.293 A  
HETATM   20  O   UNL     1      -8.364  19.661  67.728  1.00  0.00    -0.297 OA 
HETATM   21  O   UNL     1      -7.495  17.917  68.844  1.00  0.00    -0.275 OA 
HETATM   22  C   UNL     1      -9.858  17.835  68.222  1.00  0.00    -0.340 C  
HETATM   23  H   UNL     1     -11.757  17.807  69.929  1.00  0.00     0.000 HD 
HETATM   24  C   UNL     1     -10.036  16.835  69.362  1.00  0.00    -0.140 C  
HETATM   25  S   UNL     1      -9.992  15.529  64.877  1.00  0.00     0.472 SA 
HETATM   26  C   UNL     1      -8.522  18.558  68.243  1.00  0.00    -0.318 C  
HETATM   27  C   UNL     1     -11.072  16.846  64.773  1.00  0.00     0.102 A  
HETATM   28  C   UNL     1     -11.024  17.643  65.896  1.00  0.00     0.223 A  
ENDBRANCH   3  16
ENDBRANCH   2   3
TORSDOF 2
ENDMDL
MODEL      181
REMARK 921   NORMALIZED FREE ENERGY PREDICTED BY IDOCK:    8.11 KCAL/MOL
REMARK 922        TOTAL FREE ENERGY PREDICTED BY IDOCK:    8.57 KCAL/MOL
REMARK 923 INTER-LIGAND FREE ENERGY PREDICTED BY IDOCK:    6.57 KCAL/MOL
REMARK 924 INTRA-LIGAND FREE ENERGY PREDICTED BY IDOCK:    2.01 KCAL/MOL
REMARK 927      BINDING AFFINITY PREDICTED BY RF-SCORE:    0.00 PKD
ROOT
HETATM    1  C   UNL     1      -8.309  19.373  69.819  1.00  0.00     0.623 C  
HETATM    2  O   UNL     1      -8.077  18.695  68.595  1.00  0.00    -0.327 OA 
ENDROOT
BRANCH   2   3
HETATM    3  C   UNL     1      -8.388  17.274  68.553  1.00  0.00    -0.267 C  
HETATM    4  C   UNL     1      -8.052  16.437  69.852  1.00  0.00     0.901 C  
HETATM    5  O   UNL     1      -6.698  16.205  66.872  1.00  0.00    -0.222 OA 
HETATM    6  S   UNL     1      -9.035  14.956  70.280  1.00  0.00     1.297 SA 
HETATM    7  C   UNL     1      -7.141  16.462  67.971  1.00  0.00    -0.136 C  
HETATM    8  O   UNL     1      -5.164  15.269  71.075  1.00  0.00    -0.139 OA 
HETATM    9  O   UNL     1      -5.215  13.044  70.736  1.00  0.00    -0.118 OA 
HETATM   10  C   UNL     1      -5.606  14.162  70.427  1.00  0.00    -0.132 C  
HETATM   11  C   UNL     1      -7.959  13.764  69.379  1.00  0.00     0.511 C  
HETATM   12  C   UNL     1      -7.990  12.420  70.114  1.00  0.00     3.093 C  
HETATM   13  C   UNL     1      -8.597  13.543  67.994  1.00  0.00    -0.177 C  
HETATM   14  N   UNL     1      -6.833  15.912  69.187  1.00  0.00    -0.158 N  
HETATM   15  C   UNL     1      -6.579  14.457  69.274  1.00  0.00    -0.122 C  
BRANCH   3  16
HETATM   16  N   UNL     1      -9.613  16.970  67.747  1.00  0.00    -0.241 N  
HETATM   17  C   UNL     1     -11.202  14.600  65.857  1.00  0.00    -0.336 A  
HETATM   18  O   UNL     1      -8.582  16.221  65.839  1.00  0.00    -0.364 OA 
HETATM   19  C   UNL     1     -10.364  13.680  65.247  1.00  0.00    -0.348 A  
HETATM   20  O   UNL     1     -12.381  16.962  64.134  1.00  0.00     0.606 OA 
HETATM   21  O   UNL     1     -10.163  17.010  63.787  1.00  0.00     3.597 OA 
HETATM   22  C   UNL     1     -10.987  16.101  65.902  1.00  0.00    -0.072 C  
HETATM   23  H   UNL     1     -10.518  17.179  68.169  1.00  0.00     0.000 HD 
HETATM   24  C   UNL     1      -9.613  16.430  66.481  1.00  0.00    -0.270 C  
HETATM   25  S   UNL     1     -10.898  12.065  65.425  1.00  0.00    -0.300 SA 
HETATM   26  C   UNL     1     -11.247  16.731  64.545  1.00  0.00     0.219 C  
HETATM   27  C   UNL     1     -12.285  12.563  66.284  1.00  0.00    -0.084 A  
HETATM   28  C   UNL     1     -12.333  13.931  66.440  1.00  0.00    -0.468 A  
ENDBRANCH   3  16
ENDBRANCH   2   3
TORSDOF 2
ENDMDL
MODEL      182
REMARK 921   NORMALIZED FREE ENERGY PREDICTED BY IDOCK:   13.42 KCAL/MOL
REMARK 922        TOTAL FREE ENERGY PREDICTED BY IDOCK:   14.51 KCAL/MOL
REMARK 923 INTER-LIGAND FREE ENERGY PREDICTED BY IDOCK:    7.36 KCAL/MOL
REMARK 924 INTRA-LIGAND FREE ENERGY PREDICTED BY IDOCK:    7.15 KCAL/MOL
REMARK 927      BINDING AFFINITY PREDICTED BY RF-SCORE:    0.00 PKD
ROOT
HETATM    1  C   UNL     1     -10.870   3.153  68.521  1.00  0.00     4.803 C  
HETATM    2  O   UNL     1     -10.629   4.379  69.194  1.00  0.00     0.451 OA 
ENDROOT
BRANCH   2   3
HETATM    3  C   UNL     1      -9.615   5.257  68.631  1.00  0.00    -0.136 C  
HETATM    4  C   UNL     1      -8.154   5.126  69.226  1.00  0.00    -0.084 C  
HETATM    5  O   UNL     1     -10.214   7.672  69.426  1.00  0.00    -0.195 OA 
HETATM    6  S   UNL     1      -6.695   5.499  68.190  1.00  0.00    -0.056 SA 
HETATM    7  C   UNL     1      -9.583   6.637  69.436  1.00  0.00    -0.145 C  
HETATM    8  O   UNL     1      -6.800   6.206  72.089  1.00  0.00    -0.069 OA 
HETATM    9  O   UNL     1      -5.451   7.915  71.517  1.00  0.00    -0.034 OA 
HETATM   10  C   UNL     1      -6.416   7.207  71.258  1.00  0.00    -0.041 C  
HETATM   11  C   UNL     1      -6.597   7.277  68.659  1.00  0.00    -0.045 C  
HETATM   12  C   UNL     1      -5.128   7.713  68.630  1.00  0.00    -0.025 C  
HETATM   13  C   UNL     1      -7.331   8.071  67.561  1.00  0.00    -0.089 C  
HETATM   14  N   UNL     1      -8.381   6.353  70.030  1.00  0.00    -0.128 N  
HETATM   15  C   UNL     1      -7.317   7.380  70.025  1.00  0.00    -0.082 C  
BRANCH   3  16
HETATM   16  N   UNL     1      -9.821   5.524  67.172  1.00  0.00    -0.140 N  
HETATM   17  C   UNL     1      -8.607   4.950  64.024  1.00  0.00    -0.133 A  
HETATM   18  O   UNL     1      -7.707   6.257  66.665  1.00  0.00    -0.096 OA 
HETATM   19  C   UNL     1      -7.247   4.689  63.960  1.00  0.00    -0.050 A  
HETATM   20  O   UNL     1      -9.647   7.823  63.248  1.00  0.00     2.579 OA 
HETATM   21  O   UNL     1      -8.021   8.157  64.761  1.00  0.00    -0.132 OA 
HETATM   22  C   UNL     1      -9.262   6.051  64.836  1.00  0.00     0.511 C  
HETATM   23  H   UNL     1     -10.756   5.374  66.793  1.00  0.00     0.000 HD 
HETATM   24  C   UNL     1      -8.846   5.957  66.302  1.00  0.00    -0.142 C  
HETATM   25  S   UNL     1      -6.868   3.345  62.973  1.00  0.00    -0.032 SA 
HETATM   26  C   UNL     1      -9.009   7.413  64.213  1.00  0.00     1.077 C  
HETATM   27  C   UNL     1      -8.510   3.107  62.575  1.00  0.00    -0.074 A  
HETATM   28  C   UNL     1      -9.329   4.028  63.190  1.00  0.00    -0.131 A  
ENDBRANCH   3  16
ENDBRANCH   2   3
TORSDOF 2
ENDMDL
MODEL      183
REMARK 921   NORMALIZED FREE ENERGY PREDICTED BY IDOCK:   13.84 KCAL/MOL
REMARK 922        TOTAL FREE ENERGY PREDICTED BY IDOCK:   14.98 KCAL/MOL
REMARK 923 INTER-LIGAND FREE ENERGY PREDICTED BY IDOCK:   15.03 KCAL/MOL
REMARK 924 INTRA-LIGAND FREE ENERGY PREDICTED BY IDOCK:   -0.05 KCAL/MOL
REMARK 927      BINDING AFFINITY PREDICTED BY RF-SCORE:    0.00 PKD
ROOT
HETATM    1  C   UNL     1     -11.865  17.473  66.625  1.00  0.00     2.582 C  
HETATM    2  O   UNL     1     -10.734  16.772  67.120  1.00  0.00    -0.287 OA 
ENDROOT
BRANCH   2   3
HETATM    3  C   UNL     1     -10.880  16.096  68.400  1.00  0.00    -0.318 C  
HETATM    4  C   UNL     1     -11.823  16.788  69.465  1.00  0.00     0.929 C  
HETATM    5  O   UNL     1      -8.578  16.324  69.615  1.00  0.00    -0.006 OA 
HETATM    6  S   UNL     1     -12.722  15.784  70.700  1.00  0.00    -0.098 SA 
HETATM    7  C   UNL     1      -9.743  16.590  69.409  1.00  0.00    -0.128 C  
HETATM    8  O   UNL     1     -11.372  19.431  71.468  1.00  0.00     4.649 OA 
HETATM    9  O   UNL     1     -11.140  18.588  73.543  1.00  0.00     0.934 OA 
HETATM   10  C   UNL     1     -11.065  18.430  72.332  1.00  0.00     3.268 C  
HETATM   11  C   UNL     1     -11.407  15.869  71.986  1.00  0.00    -0.179 C  
HETATM   12  C   UNL     1     -12.068  15.834  73.368  1.00  0.00    -0.596 C  
HETATM   13  C   UNL     1     -10.563  14.587  71.850  1.00  0.00     2.365 C  
HETATM   14  N   UNL     1     -10.627  17.299  70.179  1.00  0.00     0.310 N  
HETATM   15  C   UNL     1     -10.588  17.138  71.649  1.00  0.00     2.751 C  
BRANCH   3  16
HETATM   16  N   UNL     1     -10.838  14.604  68.278  1.00  0.00    -0.239 N  
HETATM   17  C   UNL     1      -8.979  11.935  67.213  1.00  0.00    -0.176 A  
HETATM   18  O   UNL     1     -10.298  14.466  66.052  1.00  0.00    -0.287 OA 
HETATM   19  C   UNL     1      -8.084  12.215  66.192  1.00  0.00     0.485 A  
HETATM   20  O   UNL     1     -11.696  10.500  66.507  1.00  0.00     0.370 OA 
HETATM   21  O   UNL     1     -11.564  12.262  65.120  1.00  0.00    -0.340 OA 
HETATM   22  C   UNL     1     -10.422  12.396  67.278  1.00  0.00    -0.237 C  
HETATM   23  H   UNL     1     -11.071  14.056  69.107  1.00  0.00     0.000 HD 
HETATM   24  C   UNL     1     -10.509  13.914  67.133  1.00  0.00    -0.269 C  
HETATM   25  S   UNL     1      -6.527  11.565  66.467  1.00  0.00     0.037 SA 
HETATM   26  C   UNL     1     -11.284  11.635  66.285  1.00  0.00    -0.271 C  
HETATM   27  C   UNL     1      -7.026  10.857  67.938  1.00  0.00    -0.073 A  
HETATM   28  C   UNL     1      -8.349  11.120  68.215  1.00  0.00    -0.143 A  
ENDBRANCH   3  16
ENDBRANCH   2   3
TORSDOF 2
ENDMDL
MODEL      184
REMARK 921   NORMALIZED FREE ENERGY PREDICTED BY IDOCK:   16.24 KCAL/MOL
REMARK 922        TOTAL FREE ENERGY PREDICTED BY IDOCK:   17.65 KCAL/MOL
REMARK 923 INTER-LIGAND FREE ENERGY PREDICTED BY IDOCK:   10.19 KCAL/MOL
REMARK 924 INTRA-LIGAND FREE ENERGY PREDICTED BY IDOCK:    7.46 KCAL/MOL
REMARK 927      BINDING AFFINITY PREDICTED BY RF-SCORE:    0.00 PKD
ROOT
HETATM    1  C   UNL     1      -7.717  17.019  67.318  1.00  0.00    -0.171 C  
HETATM    2  O   UNL     1      -8.979  16.699  67.881  1.00  0.00    -0.211 OA 
ENDROOT
BRANCH   2   3
HETATM    3  C   UNL     1      -9.225  15.304  68.213  1.00  0.00    -0.189 C  
HETATM    4  C   UNL     1     -10.719  14.799  68.091  1.00  0.00    -0.247 C  
HETATM    5  O   UNL     1      -8.881  15.093  70.794  1.00  0.00     1.185 OA 
HETATM    6  S   UNL     1     -11.077  13.052  67.688  1.00  0.00    -0.279 SA 
HETATM    7  C   UNL     1      -9.534  15.162  69.774  1.00  0.00    -0.032 C  
HETATM    8  O   UNL     1     -13.391  15.227  70.060  1.00  0.00     0.089 OA 
HETATM    9  O   UNL     1     -13.740  13.237  71.053  1.00  0.00     0.185 OA 
HETATM   10  C   UNL     1     -12.973  14.012  70.497  1.00  0.00    -0.133 C  
HETATM   11  C   UNL     1     -11.152  12.479  69.436  1.00  0.00    -0.079 C  
HETATM   12  C   UNL     1     -12.155  11.325  69.533  1.00  0.00    -0.386 C  
HETATM   13  C   UNL     1      -9.762  11.908  69.780  1.00  0.00     1.591 C  
HETATM   14  N   UNL     1     -10.860  14.891  69.566  1.00  0.00    -0.256 N  
HETATM   15  C   UNL     1     -11.477  13.744  70.267  1.00  0.00    -0.019 C  
BRANCH   3  16
HETATM   16  N   UNL     1      -8.085  14.407  67.836  1.00  0.00    -0.138 N  
HETATM   17  C   UNL     1      -7.096  11.851  65.787  1.00  0.00     1.399 A  
HETATM   18  O   UNL     1      -9.178  12.396  67.992  1.00  0.00    -0.190 OA 
HETATM   19  C   UNL     1      -8.118  11.022  65.351  1.00  0.00     0.103 A  
HETATM   20  O   UNL     1      -5.235  10.872  68.135  1.00  0.00    -0.037 OA 
HETATM   21  O   UNL     1      -7.337  10.623  68.886  1.00  0.00    -0.083 OA 
HETATM   22  C   UNL     1      -6.901  12.346  67.207  1.00  0.00    -0.127 C  
HETATM   23  H   UNL     1      -7.181  14.844  67.657  1.00  0.00     0.000 HD 
HETATM   24  C   UNL     1      -8.164  13.039  67.714  1.00  0.00    -0.168 C  
HETATM   25  S   UNL     1      -8.048  10.696  63.674  1.00  0.00     0.117 SA 
HETATM   26  C   UNL     1      -6.409  11.230  68.112  1.00  0.00    -0.052 C  
HETATM   27  C   UNL     1      -6.626  11.622  63.500  1.00  0.00     2.759 A  
HETATM   28  C   UNL     1      -6.220  12.175  64.695  1.00  0.00     5.566 A  
ENDBRANCH   3  16
ENDBRANCH   2   3
TORSDOF 2
ENDMDL
MODEL      185
REMARK 921   NORMALIZED FREE ENERGY PREDICTED BY IDOCK:   17.25 KCAL/MOL
REMARK 922        TOTAL FREE ENERGY PREDICTED BY IDOCK:   18.78 KCAL/MOL
REMARK 923 INTER-LIGAND FREE ENERGY PREDICTED BY IDOCK:   15.59 KCAL/MOL
REMARK 924 INTRA-LIGAND FREE ENERGY PREDICTED BY IDOCK:    3.20 KCAL/MOL
REMARK 927      BINDING AFFINITY PREDICTED BY RF-SCORE:    0.00 PKD
ROOT
HETATM    1  C   UNL     1     -12.066  10.417  71.535  1.00  0.00    -0.270 C  
HETATM    2  O   UNL     1     -11.093  11.442  71.659  1.00  0.00     2.673 OA 
ENDROOT
BRANCH   2   3
HETATM    3  C   UNL     1      -9.903  11.334  70.828  1.00  0.00     4.142 C  
HETATM    4  C   UNL     1      -9.019  12.638  70.684  1.00  0.00     7.868 C  
HETATM    5  O   UNL     1     -10.749  11.083  68.369  1.00  0.00    -0.179 OA 
HETATM    6  S   UNL     1      -7.217  12.509  70.401  1.00  0.00     2.735 SA 
HETATM    7  C   UNL     1     -10.267  11.677  69.310  1.00  0.00     0.129 C  
HETATM    8  O   UNL     1      -9.427  15.428  68.882  1.00  0.00    -0.194 OA 
HETATM    9  O   UNL     1      -7.921  15.300  67.213  1.00  0.00    -0.169 OA 
HETATM   10  C   UNL     1      -8.609  14.733  68.051  1.00  0.00    -0.166 C  
HETATM   11  C   UNL     1      -7.326  12.523  68.563  1.00  0.00    -0.115 C  
HETATM   12  C   UNL     1      -6.069  13.197  68.002  1.00  0.00    -0.118 C  
HETATM   13  C   UNL     1      -7.302  11.053  68.102  1.00  0.00    -0.086 C  
HETATM   14  N   UNL     1      -9.604  12.875  69.340  1.00  0.00     0.861 N  
HETATM   15  C   UNL     1      -8.675  13.209  68.239  1.00  0.00    -0.165 C  
BRANCH   3  16
HETATM   16  N   UNL     1      -9.261   9.984  70.904  1.00  0.00     0.096 N  
HETATM   17  C   UNL     1      -9.476   6.721  69.893  1.00  0.00    -0.156 A  
HETATM   18  O   UNL     1     -11.108   8.769  71.517  1.00  0.00    -0.260 OA 
HETATM   19  C   UNL     1     -10.758   6.284  69.597  1.00  0.00    -0.306 A  
HETATM   20  O   UNL     1      -8.196   5.923  72.661  1.00  0.00    -0.112 OA 
HETATM   21  O   UNL     1     -10.197   6.816  73.156  1.00  0.00    -0.194 OA 
HETATM   22  C   UNL     1      -9.077   7.540  71.106  1.00  0.00    -0.149 C  
HETATM   23  H   UNL     1      -8.257   9.929  70.726  1.00  0.00     0.000 HD 
HETATM   24  C   UNL     1      -9.919   8.811  71.198  1.00  0.00    -0.248 C  
HETATM   25  S   UNL     1     -10.847   5.416  68.127  1.00  0.00     0.337 SA 
HETATM   26  C   UNL     1      -9.104   6.695  72.369  1.00  0.00    -0.135 C  
HETATM   27  C   UNL     1      -9.166   5.568  67.874  1.00  0.00    -0.108 A  
HETATM   28  C   UNL     1      -8.554   6.274  68.886  1.00  0.00    -0.125 A  
ENDBRANCH   3  16
ENDBRANCH   2   3
TORSDOF 2
ENDMDL
MODEL      186
REMARK 921   NORMALIZED FREE ENERGY PREDICTED BY IDOCK:   17.91 KCAL/MOL
REMARK 922        TOTAL FREE ENERGY PREDICTED BY IDOCK:   19.52 KCAL/MOL
REMARK 923 INTER-LIGAND FREE ENERGY PREDICTED BY IDOCK:   14.24 KCAL/MOL
REMARK 924 INTRA-LIGAND FREE ENERGY PREDICTED BY IDOCK:    5.27 KCAL/MOL
REMARK 927      BINDING AFFINITY PREDICTED BY RF-SCORE:    0.00 PKD
ROOT
HETATM    1  C   UNL     1      -7.667  18.763  63.784  1.00  0.00     8.494 C  
HETATM    2  O   UNL     1      -7.264  18.758  65.144  1.00  0.00    -0.425 OA 
ENDROOT
BRANCH   2   3
HETATM    3  C   UNL     1      -8.236  18.294  66.123  1.00  0.00    -0.139 C  
HETATM    4  C   UNL     1      -8.398  16.727  66.274  1.00  0.00    -0.318 C  
HETATM    5  O   UNL     1     -10.589  18.905  65.167  1.00  0.00    -0.314 OA 
HETATM    6  S   UNL     1      -8.899  15.996  67.873  1.00  0.00    -0.181 SA 
HETATM    7  C   UNL     1      -9.674  18.158  65.440  1.00  0.00     1.065 C  
HETATM    8  O   UNL     1      -9.951  14.448  64.379  1.00  0.00    -0.009 OA 
HETATM    9  O   UNL     1     -11.792  13.852  65.531  1.00  0.00    -0.335 OA 
HETATM   10  C   UNL     1     -10.917  14.677  65.304  1.00  0.00    -0.367 C  
HETATM   11  C   UNL     1     -10.707  16.030  67.522  1.00  0.00    -0.314 C  
HETATM   12  C   UNL     1     -11.368  14.845  68.234  1.00  0.00    -0.325 C  
HETATM   13  C   UNL     1     -11.263  17.316  68.162  1.00  0.00     0.088 C  
HETATM   14  N   UNL     1      -9.644  16.788  65.470  1.00  0.00     0.088 N  
HETATM   15  C   UNL     1     -10.823  16.055  65.979  1.00  0.00    -0.190 C  
BRANCH   3  16
HETATM   16  N   UNL     1      -8.325  19.186  67.323  1.00  0.00    -0.274 N  
HETATM   17  C   UNL     1      -7.165  19.732  70.496  1.00  0.00     0.568 A  
HETATM   18  O   UNL     1      -8.690  17.573  68.913  1.00  0.00    -0.240 OA 
HETATM   19  C   UNL     1      -6.718  18.600  71.159  1.00  0.00     2.165 A  
HETATM   20  O   UNL     1     -10.018  20.879  71.193  1.00  0.00     1.710 OA 
HETATM   21  O   UNL     1     -10.335  18.702  70.745  1.00  0.00     1.503 OA 
HETATM   22  C   UNL     1      -8.446  19.840  69.690  1.00  0.00     0.525 C  
HETATM   23  H   UNL     1      -8.251  20.192  67.168  1.00  0.00     0.000 HD 
HETATM   24  C   UNL     1      -8.499  18.755  68.618  1.00  0.00    -0.329 C  
HETATM   25  S   UNL     1      -5.213  18.828  71.936  1.00  0.00     0.226 SA 
HETATM   26  C   UNL     1      -9.663  19.866  70.599  1.00  0.00     1.386 C  
HETATM   27  C   UNL     1      -5.145  20.460  71.441  1.00  0.00    -0.301 A  
HETATM   28  C   UNL     1      -6.243  20.818  70.690  1.00  0.00     0.488 A  
ENDBRANCH   3  16
ENDBRANCH   2   3
TORSDOF 2
ENDMDL
MODEL      187
REMARK 921   NORMALIZED FREE ENERGY PREDICTED BY IDOCK:   30.27 KCAL/MOL
REMARK 922        TOTAL FREE ENERGY PREDICTED BY IDOCK:   33.32 KCAL/MOL
REMARK 923 INTER-LIGAND FREE ENERGY PREDICTED BY IDOCK:   25.16 KCAL/MOL
REMARK 924 INTRA-LIGAND FREE ENERGY PREDICTED BY IDOCK:    8.16 KCAL/MOL
REMARK 927      BINDING AFFINITY PREDICTED BY RF-SCORE:    0.00 PKD
ROOT
HETATM    1  C   UNL     1      -9.592  12.461  71.575  1.00  0.00    14.495 C  
HETATM    2  O   UNL     1     -10.422  11.344  71.852  1.00  0.00     6.048 OA 
ENDROOT
BRANCH   2   3
HETATM    3  C   UNL     1     -10.435  10.266  70.874  1.00  0.00     0.461 C  
HETATM    4  C   UNL     1      -9.304  10.300  69.768  1.00  0.00    -0.080 C  
HETATM    5  O   UNL     1     -12.543  10.656  69.382  1.00  0.00    -0.279 OA 
HETATM    6  S   UNL     1      -8.687   8.747  69.026  1.00  0.00    -0.133 SA 
HETATM    7  C   UNL     1     -11.357  10.669  69.633  1.00  0.00    -0.294 C  
HETATM    8  O   UNL     1      -8.936  12.147  67.002  1.00  0.00    -0.187 OA 
HETATM    9  O   UNL     1      -9.335  10.750  65.281  1.00  0.00    -0.190 OA 
HETATM   10  C   UNL     1      -9.486  11.029  66.463  1.00  0.00    -0.187 C  
HETATM   11  C   UNL     1      -9.887   8.732  67.629  1.00  0.00    -0.180 C  
HETATM   12  C   UNL     1      -9.222   8.071  66.416  1.00  0.00    -0.245 C  
HETATM   13  C   UNL     1     -11.060   7.829  68.056  1.00  0.00     0.237 C  
HETATM   14  N   UNL     1     -10.288  10.831  68.791  1.00  0.00    -0.182 N  
HETATM   15  C   UNL     1     -10.327  10.205  67.452  1.00  0.00    -0.238 C  
BRANCH   3  16
HETATM   16  N   UNL     1     -10.897   8.963  71.450  1.00  0.00    -0.280 N  
HETATM   17  C   UNL     1     -10.205   5.623  71.724  1.00  0.00    -0.253 A  
HETATM   18  O   UNL     1     -10.813   7.703  69.534  1.00  0.00    -0.234 OA 
HETATM   19  C   UNL     1      -9.453   5.094  70.687  1.00  0.00    -0.170 A  
HETATM   20  O   UNL     1     -13.317   5.122  71.761  1.00  0.00     2.665 OA 
HETATM   21  O   UNL     1     -12.861   5.941  69.720  1.00  0.00     3.368 OA 
HETATM   22  C   UNL     1     -11.390   6.558  71.574  1.00  0.00    -0.339 C  
HETATM   23  H   UNL     1     -11.151   8.949  72.438  1.00  0.00     0.000 HD 
HETATM   24  C   UNL     1     -11.006   7.784  70.749  1.00  0.00    -0.252 C  
HETATM   25  S   UNL     1      -8.166   4.107  71.227  1.00  0.00    -0.078 SA 
HETATM   26  C   UNL     1     -12.605   5.817  71.042  1.00  0.00     1.953 C  
HETATM   27  C   UNL     1      -8.611   4.329  72.859  1.00  0.00    -0.101 A  
HETATM   28  C   UNL     1      -9.712   5.147  72.988  1.00  0.00    -0.165 A  
ENDBRANCH   3  16
ENDBRANCH   2   3
TORSDOF 2
ENDMDL
MODEL      188
REMARK 921   NORMALIZED FREE ENERGY PREDICTED BY IDOCK:   34.98 KCAL/MOL
REMARK 922        TOTAL FREE ENERGY PREDICTED BY IDOCK:   38.59 KCAL/MOL
REMARK 923 INTER-LIGAND FREE ENERGY PREDICTED BY IDOCK:   32.17 KCAL/MOL
REMARK 924 INTRA-LIGAND FREE ENERGY PREDICTED BY IDOCK:    6.42 KCAL/MOL
REMARK 927      BINDING AFFINITY PREDICTED BY RF-SCORE:    0.00 PKD
ROOT
HETATM    1  C   UNL     1      -9.480  12.504  71.760  1.00  0.00    17.595 C  
HETATM    2  O   UNL     1     -10.299  11.450  72.241  1.00  0.00     8.733 OA 
ENDROOT
BRANCH   2   3
HETATM    3  C   UNL     1     -10.391  10.253  71.419  1.00  0.00     1.680 C  
HETATM    4  C   UNL     1     -11.848   9.756  71.051  1.00  0.00    -0.356 C  
HETATM    5  O   UNL     1      -9.600   8.269  72.923  1.00  0.00    -0.270 OA 
HETATM    6  S   UNL     1     -12.153   8.853  69.492  1.00  0.00     1.641 SA 
HETATM    7  C   UNL     1     -10.420   8.954  72.350  1.00  0.00    -0.010 C  
HETATM    8  O   UNL     1     -14.167   8.123  72.827  1.00  0.00    -0.060 OA 
HETATM    9  O   UNL     1     -14.209   6.031  71.994  1.00  0.00     0.258 OA 
HETATM   10  C   UNL     1     -13.602   7.079  72.168  1.00  0.00     0.070 C  
HETATM   11  C   UNL     1     -11.890   7.176  70.205  1.00  0.00    -0.065 C  
HETATM   12  C   UNL     1     -12.784   6.178  69.460  1.00  0.00     4.164 C  
HETATM   13  C   UNL     1     -10.428   6.788  69.911  1.00  0.00    -0.242 C  
HETATM   14  N   UNL     1     -11.741   8.703  72.093  1.00  0.00    -0.364 N  
HETATM   15  C   UNL     1     -12.153   7.331  71.722  1.00  0.00    -0.319 C  
BRANCH   3  16
HETATM   16  N   UNL     1      -9.276  10.142  70.425  1.00  0.00    -0.263 N  
HETATM   17  C   UNL     1      -8.368   8.904  67.366  1.00  0.00    -0.108 A  
HETATM   18  O   UNL     1      -9.343   7.871  70.101  1.00  0.00    -0.156 OA 
HETATM   19  C   UNL     1      -9.077   7.787  66.953  1.00  0.00    -0.144 A  
HETATM   20  O   UNL     1      -5.466   8.519  68.538  1.00  0.00    -0.036 OA 
HETATM   21  O   UNL     1      -6.777   7.108  69.694  1.00  0.00    -0.046 OA 
HETATM   22  C   UNL     1      -7.790   9.125  68.752  1.00  0.00    -0.096 C  
HETATM   23  H   UNL     1      -8.777  10.997  70.180  1.00  0.00     0.000 HD 
HETATM   24  C   UNL     1      -8.874   8.975  69.816  1.00  0.00    -0.153 C  
HETATM   25  S   UNL     1      -9.612   7.895  65.333  1.00  0.00     1.080 SA 
HETATM   26  C   UNL     1      -6.576   8.241  68.984  1.00  0.00    -0.048 C  
HETATM   27  C   UNL     1      -8.870   9.418  65.133  1.00  0.00    -0.195 A  
HETATM   28  C   UNL     1      -8.237   9.839  66.282  1.00  0.00    -0.116 A  
ENDBRANCH   3  16
ENDBRANCH   2   3
TORSDOF 2
ENDMDL
MODEL      189
REMARK 921   NORMALIZED FREE ENERGY PREDICTED BY IDOCK:   61.97 KCAL/MOL
REMARK 922        TOTAL FREE ENERGY PREDICTED BY IDOCK:   68.73 KCAL/MOL
REMARK 923 INTER-LIGAND FREE ENERGY PREDICTED BY IDOCK:   66.59 KCAL/MOL
REMARK 924 INTRA-LIGAND FREE ENERGY PREDICTED BY IDOCK:    2.15 KCAL/MOL
REMARK 927      BINDING AFFINITY PREDICTED BY RF-SCORE:    0.00 PKD
ROOT
HETATM    1  C   UNL     1     -12.598  13.220  70.875  1.00  0.00    -0.306 C  
HETATM    2  O   UNL     1     -12.109  11.943  70.498  1.00  0.00    -0.366 OA 
ENDROOT
BRANCH   2   3
HETATM    3  C   UNL     1     -10.681  11.827  70.243  1.00  0.00     1.329 C  
HETATM    4  C   UNL     1      -9.761  11.513  71.492  1.00  0.00    10.498 C  
HETATM    5  O   UNL     1      -9.845  14.230  69.653  1.00  0.00     0.235 OA 
HETATM    6  S   UNL     1      -8.199  10.587  71.283  1.00  0.00     4.568 SA 
HETATM    7  C   UNL     1      -9.988  13.261  70.367  1.00  0.00     3.740 C  
HETATM    8  O   UNL     1      -8.660  13.441  73.996  1.00  0.00     8.545 OA 
HETATM    9  O   UNL     1      -6.469  13.770  73.592  1.00  0.00     0.351 OA 
HETATM   10  C   UNL     1      -7.586  13.499  73.169  1.00  0.00     8.814 C  
HETATM   11  C   UNL     1      -7.145  12.075  71.030  1.00  0.00     3.997 C  
HETATM   12  C   UNL     1      -5.746  11.788  71.587  1.00  0.00     0.664 C  
HETATM   13  C   UNL     1      -7.001  12.269  69.509  1.00  0.00     0.140 C  
HETATM   14  N   UNL     1      -9.360  12.942  71.542  1.00  0.00    14.181 N  
HETATM   15  C   UNL     1      -7.919  13.242  71.690  1.00  0.00    10.112 C  
BRANCH   3  16
HETATM   16  N   UNL     1     -10.375  11.228  68.904  1.00  0.00    -0.231 N  
HETATM   17  C   UNL     1      -8.103  11.103  66.349  1.00  0.00    -0.159 A  
HETATM   18  O   UNL     1      -9.893  13.166  67.775  1.00  0.00    -0.216 OA 
HETATM   19  C   UNL     1      -7.307  12.230  66.217  1.00  0.00     0.915 A  
HETATM   20  O   UNL     1     -10.539  10.720  64.385  1.00  0.00    -0.347 OA 
HETATM   21  O   UNL     1     -10.773  12.783  65.243  1.00  0.00    -0.282 OA 
HETATM   22  C   UNL     1      -9.603  11.098  66.574  1.00  0.00    -0.222 C  
HETATM   23  H   UNL     1     -10.479  10.218  68.805  1.00  0.00     0.000 HD 
HETATM   24  C   UNL     1      -9.966  11.936  67.797  1.00  0.00    -0.186 C  
HETATM   25  S   UNL     1      -5.651  11.861  66.011  1.00  0.00     1.268 SA 
HETATM   26  C   UNL     1     -10.346  11.501  65.312  1.00  0.00    -0.272 C  
HETATM   27  C   UNL     1      -5.965  10.185  66.050  1.00  0.00    -0.081 A  
HETATM   28  C   UNL     1      -7.304   9.914  66.226  1.00  0.00    -0.102 A  
ENDBRANCH   3  16
ENDBRANCH   2   3
TORSDOF 2
ENDMDL
MODEL      190
REMARK 921   NORMALIZED FREE ENERGY PREDICTED BY IDOCK:   62.80 KCAL/MOL
REMARK 922        TOTAL FREE ENERGY PREDICTED BY IDOCK:   69.66 KCAL/MOL
REMARK 923 INTER-LIGAND FREE ENERGY PREDICTED BY IDOCK:   66.10 KCAL/MOL
REMARK 924 INTRA-LIGAND FREE ENERGY PREDICTED BY IDOCK:    3.56 KCAL/MOL
REMARK 927      BINDING AFFINITY PREDICTED BY RF-SCORE:    0.00 PKD
ROOT
HETATM    1  C   UNL     1     -13.705   8.365  68.917  1.00  0.00    11.830 C  
HETATM    2  O   UNL     1     -12.786   8.013  69.939  1.00  0.00     1.358 OA 
ENDROOT
BRANCH   2   3
HETATM    3  C   UNL     1     -11.444   8.569  69.846  1.00  0.00     0.167 C  
HETATM    4  C   UNL     1     -10.795   9.083  71.194  1.00  0.00    -0.294 C  
HETATM    5  O   UNL     1     -11.676  10.831  68.560  1.00  0.00    -0.383 OA 
HETATM    6  S   UNL     1      -8.982   9.047  71.423  1.00  0.00    -0.089 SA 
HETATM    7  C   UNL     1     -11.524  10.136  69.542  1.00  0.00    -0.168 C  
HETATM    8  O   UNL     1     -11.291  11.859  72.997  1.00  0.00     7.927 OA 
HETATM    9  O   UNL     1      -9.459  13.129  72.674  1.00  0.00    14.332 OA 
HETATM   10  C   UNL     1     -10.202  12.239  72.281  1.00  0.00    15.580 C  
HETATM   11  C   UNL     1      -8.689  10.745  70.773  1.00  0.00     3.280 C  
HETATM   12  C   UNL     1      -7.480  11.347  71.498  1.00  0.00     6.632 C  
HETATM   13  C   UNL     1      -8.305  10.596  69.289  1.00  0.00    -0.112 C  
HETATM   14  N   UNL     1     -11.107  10.480  70.800  1.00  0.00    -0.143 N  
HETATM   15  C   UNL     1     -10.035  11.488  70.950  1.00  0.00     5.346 C  
BRANCH   3  16
HETATM   16  N   UNL     1     -10.604   7.891  68.808  1.00  0.00    -0.349 N  
HETATM   17  C   UNL     1      -7.622   7.974  67.131  1.00  0.00    -0.097 A  
HETATM   18  O   UNL     1     -10.128   9.725  67.514  1.00  0.00    -0.174 OA 
HETATM   19  C   UNL     1      -7.045   9.230  67.024  1.00  0.00    -0.086 A  
HETATM   20  O   UNL     1      -9.145   6.779  64.643  1.00  0.00     0.590 OA 
HETATM   21  O   UNL     1     -10.021   8.822  64.964  1.00  0.00     0.689 OA 
HETATM   22  C   UNL     1      -9.083   7.646  66.892  1.00  0.00    -0.171 C  
HETATM   23  H   UNL     1     -10.484   6.881  68.885  1.00  0.00     0.000 HD 
HETATM   24  C   UNL     1      -9.981   8.526  67.758  1.00  0.00    -0.190 C  
HETATM   25  S   UNL     1      -5.378   9.237  67.402  1.00  0.00    -0.037 SA 
HETATM   26  C   UNL     1      -9.419   7.697  65.411  1.00  0.00     0.744 C  
HETATM   27  C   UNL     1      -5.379   7.553  67.677  1.00  0.00    -0.030 A  
HETATM   28  C   UNL     1      -6.628   7.001  67.492  1.00  0.00    -0.055 A  
ENDBRANCH   3  16
ENDBRANCH   2   3
TORSDOF 2
ENDMDL
MODEL      191
REMARK 921   NORMALIZED FREE ENERGY PREDICTED BY IDOCK:   62.95 KCAL/MOL
REMARK 922        TOTAL FREE ENERGY PREDICTED BY IDOCK:   69.82 KCAL/MOL
REMARK 923 INTER-LIGAND FREE ENERGY PREDICTED BY IDOCK:   69.79 KCAL/MOL
REMARK 924 INTRA-LIGAND FREE ENERGY PREDICTED BY IDOCK:    0.03 KCAL/MOL
REMARK 927      BINDING AFFINITY PREDICTED BY RF-SCORE:    0.00 PKD
ROOT
HETATM    1  C   UNL     1     -11.651  12.935  74.089  1.00  0.00    10.936 C  
HETATM    2  O   UNL     1     -11.278  13.790  73.019  1.00  0.00     2.999 OA 
ENDROOT
BRANCH   2   3
HETATM    3  C   UNL     1     -11.197  13.197  71.692  1.00  0.00     3.892 C  
HETATM    4  C   UNL     1     -11.475  11.643  71.592  1.00  0.00     2.836 C  
HETATM    5  O   UNL     1      -8.674  13.253  71.018  1.00  0.00     6.986 OA 
HETATM    6  S   UNL     1     -12.182  10.924  70.067  1.00  0.00    -0.328 SA 
HETATM    7  C   UNL     1      -9.698  12.727  71.397  1.00  0.00    12.470 C  
HETATM    8  O   UNL     1      -9.596   8.982  72.360  1.00  0.00    -0.243 OA 
HETATM    9  O   UNL     1      -8.968   8.092  70.389  1.00  0.00    -0.142 OA 
HETATM   10  C   UNL     1      -9.348   9.064  71.028  1.00  0.00    -0.271 C  
HETATM   11  C   UNL     1     -10.560  10.564  69.274  1.00  0.00    -0.236 C  
HETATM   12  C   UNL     1     -10.706   9.315  68.399  1.00  0.00    -0.192 C  
HETATM   13  C   UNL     1     -10.248  11.746  68.335  1.00  0.00    -0.208 C  
HETATM   14  N   UNL     1     -10.014  11.398  71.493  1.00  0.00     7.683 N  
HETATM   15  C   UNL     1      -9.546  10.471  70.440  1.00  0.00     0.923 C  
BRANCH   3  16
HETATM   16  N   UNL     1     -11.662  14.124  70.611  1.00  0.00    -0.485 N  
HETATM   17  C   UNL     1     -11.339  17.264  69.288  1.00  0.00     0.849 A  
HETATM   18  O   UNL     1     -12.202  15.925  71.926  1.00  0.00    -0.407 OA 
HETATM   19  C   UNL     1     -10.934  18.238  70.187  1.00  0.00     2.400 A  
HETATM   20  O   UNL     1     -14.386  17.094  68.497  1.00  0.00     6.516 OA 
HETATM   21  O   UNL     1     -14.344  17.086  70.742  1.00  0.00     6.929 OA 
HETATM   22  C   UNL     1     -12.401  16.211  69.542  1.00  0.00     0.344 C  
HETATM   23  H   UNL     1     -11.667  13.768  69.655  1.00  0.00     0.000 HD 
HETATM   24  C   UNL     1     -12.082  15.420  70.808  1.00  0.00    -0.366 C  
HETATM   25  S   UNL     1      -9.685  19.235  69.577  1.00  0.00     0.191 SA 
HETATM   26  C   UNL     1     -13.791  16.825  69.536  1.00  0.00     7.437 C  
HETATM   27  C   UNL     1      -9.688  18.413  68.082  1.00  0.00    -0.331 A  
HETATM   28  C   UNL     1     -10.615  17.395  68.053  1.00  0.00    -0.389 A  
ENDBRANCH   3  16
ENDBRANCH   2   3
TORSDOF 2
ENDMDL
MODEL      192
REMARK 921   NORMALIZED FREE ENERGY PREDICTED BY IDOCK:   72.08 KCAL/MOL
REMARK 922        TOTAL FREE ENERGY PREDICTED BY IDOCK:   80.03 KCAL/MOL
REMARK 923 INTER-LIGAND FREE ENERGY PREDICTED BY IDOCK:   77.46 KCAL/MOL
REMARK 924 INTRA-LIGAND FREE ENERGY PREDICTED BY IDOCK:    2.56 KCAL/MOL
REMARK 927      BINDING AFFINITY PREDICTED BY RF-SCORE:    0.00 PKD
ROOT
HETATM    1  C   UNL     1     -12.787  13.441  70.794  1.00  0.00    -0.150 C  
HETATM    2  O   UNL     1     -11.383  13.558  70.619  1.00  0.00     0.195 OA 
ENDROOT
BRANCH   2   3
HETATM    3  C   UNL     1     -10.856  14.885  70.340  1.00  0.00    -0.076 C  
HETATM    4  C   UNL     1     -11.212  16.022  71.381  1.00  0.00    -0.170 C  
HETATM    5  O   UNL     1     -12.152  15.763  68.248  1.00  0.00    -0.106 OA 
HETATM    6  S   UNL     1     -10.071  17.426  71.645  1.00  0.00     5.907 SA 
HETATM    7  C   UNL     1     -11.887  15.699  69.429  1.00  0.00    -0.375 C  
HETATM    8  O   UNL     1     -14.011  17.779  71.904  1.00  0.00    10.986 OA 
HETATM    9  O   UNL     1     -13.580  19.852  71.138  1.00  0.00    20.030 OA 
HETATM   10  C   UNL     1     -13.331  18.654  71.120  1.00  0.00    25.009 C  
HETATM   11  C   UNL     1     -10.838  18.516  70.374  1.00  0.00     2.560 C  
HETATM   12  C   UNL     1     -10.689  19.974  70.822  1.00  0.00     2.522 C  
HETATM   13  C   UNL     1     -10.013  18.347  69.083  1.00  0.00    -0.206 C  
HETATM   14  N   UNL     1     -12.249  16.536  70.452  1.00  0.00     0.682 N  
HETATM   15  C   UNL     1     -12.285  17.994  70.207  1.00  0.00     9.315 C  
BRANCH   3  16
HETATM   16  N   UNL     1      -9.512  14.851  69.680  1.00  0.00    -0.445 N  
HETATM   17  C   UNL     1      -7.317  16.586  67.710  1.00  0.00    -0.154 A  
HETATM   18  O   UNL     1     -10.167  15.425  67.558  1.00  0.00    -0.239 OA 
HETATM   19  C   UNL     1      -7.900  17.513  66.861  1.00  0.00    -0.228 A  
HETATM   20  O   UNL     1      -6.393  13.811  66.533  1.00  0.00     1.481 OA 
HETATM   21  O   UNL     1      -8.530  14.061  65.886  1.00  0.00     0.927 OA 
HETATM   22  C   UNL     1      -7.803  15.168  67.942  1.00  0.00    -0.144 C  
HETATM   23  H   UNL     1      -8.714  14.573  70.252  1.00  0.00     0.000 HD 
HETATM   24  C   UNL     1      -9.270  15.164  68.362  1.00  0.00    -0.189 C  
HETATM   25  S   UNL     1      -7.108  19.028  66.876  1.00  0.00    -0.207 SA 
HETATM   26  C   UNL     1      -7.506  14.286  66.741  1.00  0.00     0.861 C  
HETATM   27  C   UNL     1      -5.941  18.466  67.987  1.00  0.00    -0.177 A  
HETATM   28  C   UNL     1      -6.158  17.153  68.344  1.00  0.00    -0.146 A  
ENDBRANCH   3  16
ENDBRANCH   2   3
TORSDOF 2
ENDMDL
