MODEL        1
REMARK 921   NORMALIZED FREE ENERGY PREDICTED BY IDOCK:   -6.27 KCAL/MOL
REMARK 922        TOTAL FREE ENERGY PREDICTED BY IDOCK:   -6.91 KCAL/MOL
REMARK 923 INTER-LIGAND FREE ENERGY PREDICTED BY IDOCK:   -6.63 KCAL/MOL
REMARK 924 INTRA-LIGAND FREE ENERGY PREDICTED BY IDOCK:   -0.28 KCAL/MOL
REMARK 927      BINDING AFFINITY PREDICTED BY RF-SCORE:    0.00 PKD
ROOT
HETATM    1  C   UNL     1     -10.217  19.266  66.208  1.00  0.00    -0.464 C  
HETATM    2  N   UNL     1     -10.419  17.878  65.856  1.00  0.00    -0.333 N  
HETATM    3  N   UNL     1     -11.134  17.642  64.706  1.00  0.00    -0.717 NA 
HETATM    4  N   UNL     1     -11.353  16.468  64.328  1.00  0.00    -1.032 NA 
HETATM    5  C   UNL     1     -10.891  15.421  65.042  1.00  0.00    -0.444 A  
HETATM    6  C   UNL     1     -10.951  14.045  64.909  1.00  0.00    -0.392 A  
HETATM    7  N   UNL     1     -10.284  13.430  65.967  1.00  0.00    -0.295 NA 
HETATM    8  O   UNL     1      -9.252  17.022  67.709  1.00  0.00    -0.231 OA 
HETATM    9  C   UNL     1      -9.894  16.898  66.677  1.00  0.00    -0.287 C  
HETATM   10  C   UNL     1      -9.838  14.420  66.708  1.00  0.00    -0.264 A  
HETATM   11  N   UNL     1     -10.181  15.640  66.187  1.00  0.00    -0.291 N  
ENDROOT
BRANCH   6  12
HETATM   12  C   UNL     1     -11.603  13.298  63.841  1.00  0.00    -0.400 C  
HETATM   13  H2  UNL     1     -12.654  15.036  63.283  1.00  0.00     0.000 HD 
HETATM   14  O   UNL     1     -11.414  12.112  63.600  1.00  0.00    -0.412 OA 
HETATM   15  N   UNL     1     -12.476  14.047  63.104  1.00  0.00    -1.070 N  
HETATM   16  H1  UNL     1     -12.932  13.524  62.356  1.00  0.00     0.000 HD 
ENDBRANCH   6  12
TORSDOF 1
ENDMDL
MODEL        2
REMARK 921   NORMALIZED FREE ENERGY PREDICTED BY IDOCK:   -5.90 KCAL/MOL
REMARK 922        TOTAL FREE ENERGY PREDICTED BY IDOCK:   -6.52 KCAL/MOL
REMARK 923 INTER-LIGAND FREE ENERGY PREDICTED BY IDOCK:   -6.22 KCAL/MOL
REMARK 924 INTRA-LIGAND FREE ENERGY PREDICTED BY IDOCK:   -0.30 KCAL/MOL
REMARK 927      BINDING AFFINITY PREDICTED BY RF-SCORE:    0.00 PKD
ROOT
HETATM    1  C   UNL     1      -9.824  18.369  67.264  1.00  0.00    -0.317 C  
HETATM    2  N   UNL     1     -10.360  17.119  66.771  1.00  0.00    -0.314 N  
HETATM    3  N   UNL     1     -10.314  16.935  65.410  1.00  0.00    -0.638 NA 
HETATM    4  N   UNL     1     -10.756  15.879  64.901  1.00  0.00    -0.584 NA 
HETATM    5  C   UNL     1     -11.281  14.910  65.678  1.00  0.00    -0.347 A  
HETATM    6  C   UNL     1     -11.834  13.663  65.445  1.00  0.00    -0.353 A  
HETATM    7  N   UNL     1     -12.224  13.078  66.649  1.00  0.00    -0.407 NA 
HETATM    8  O   UNL     1     -10.949  16.294  68.893  1.00  0.00    -0.293 OA 
HETATM    9  C   UNL     1     -10.872  16.208  67.677  1.00  0.00    -0.297 C  
HETATM   10  C   UNL     1     -11.906  13.959  67.572  1.00  0.00    -0.396 A  
HETATM   11  N   UNL     1     -11.334  15.079  67.032  1.00  0.00    -0.341 N  
ENDROOT
BRANCH   6  12
HETATM   12  C   UNL     1     -12.009  13.012  64.154  1.00  0.00    -0.427 C  
HETATM   13  H2  UNL     1     -12.497  14.872  63.295  1.00  0.00     0.000 HD 
HETATM   14  O   UNL     1     -11.861  11.813  63.949  1.00  0.00    -0.396 OA 
HETATM   15  N   UNL     1     -12.366  13.870  63.152  1.00  0.00    -1.106 N  
HETATM   16  H1  UNL     1     -12.488  13.414  62.248  1.00  0.00     0.000 HD 
ENDBRANCH   6  12
TORSDOF 1
ENDMDL
MODEL        3
REMARK 921   NORMALIZED FREE ENERGY PREDICTED BY IDOCK:   -5.61 KCAL/MOL
REMARK 922        TOTAL FREE ENERGY PREDICTED BY IDOCK:   -6.22 KCAL/MOL
REMARK 923 INTER-LIGAND FREE ENERGY PREDICTED BY IDOCK:   -6.10 KCAL/MOL
REMARK 924 INTRA-LIGAND FREE ENERGY PREDICTED BY IDOCK:   -0.12 KCAL/MOL
REMARK 927      BINDING AFFINITY PREDICTED BY RF-SCORE:    0.00 PKD
ROOT
HETATM    1  C   UNL     1     -12.201  11.475  70.496  1.00  0.00    -0.377 C  
HETATM    2  N   UNL     1     -12.001  12.068  69.192  1.00  0.00    -0.296 N  
HETATM    3  N   UNL     1     -12.029  11.206  68.122  1.00  0.00    -0.632 NA 
HETATM    4  N   UNL     1     -11.866  11.638  66.958  1.00  0.00    -0.575 NA 
HETATM    5  C   UNL     1     -11.662  12.953  66.738  1.00  0.00    -0.383 A  
HETATM    6  C   UNL     1     -11.456  13.735  65.615  1.00  0.00    -0.310 A  
HETATM    7  N   UNL     1     -11.299  15.071  65.981  1.00  0.00    -0.313 NA 
HETATM    8  O   UNL     1     -11.761  14.264  69.999  1.00  0.00    -0.274 OA 
HETATM    9  C   UNL     1     -11.800  13.434  69.104  1.00  0.00    -0.336 C  
HETATM   10  C   UNL     1     -11.410  15.078  67.291  1.00  0.00    -0.332 A  
HETATM   11  N   UNL     1     -11.631  13.822  67.791  1.00  0.00    -0.325 N  
ENDROOT
BRANCH   6  12
HETATM   12  C   UNL     1     -11.402  13.281  64.231  1.00  0.00    -0.393 C  
HETATM   13  H2  UNL     1     -13.038  14.525  63.772  1.00  0.00     0.000 HD 
HETATM   14  O   UNL     1     -10.596  12.470  63.792  1.00  0.00    -0.414 OA 
HETATM   15  N   UNL     1     -12.354  13.848  63.432  1.00  0.00    -1.139 N  
HETATM   16  H1  UNL     1     -12.316  13.531  62.464  1.00  0.00     0.000 HD 
ENDBRANCH   6  12
TORSDOF 1
ENDMDL
MODEL        4
REMARK 921   NORMALIZED FREE ENERGY PREDICTED BY IDOCK:   -5.55 KCAL/MOL
REMARK 922        TOTAL FREE ENERGY PREDICTED BY IDOCK:   -6.15 KCAL/MOL
REMARK 923 INTER-LIGAND FREE ENERGY PREDICTED BY IDOCK:   -5.85 KCAL/MOL
REMARK 924 INTRA-LIGAND FREE ENERGY PREDICTED BY IDOCK:   -0.30 KCAL/MOL
REMARK 927      BINDING AFFINITY PREDICTED BY RF-SCORE:    0.00 PKD
ROOT
HETATM    1  C   UNL     1     -11.828  14.212  63.980  1.00  0.00    -0.271 C  
HETATM    2  N   UNL     1     -11.353  15.297  64.810  1.00  0.00    -0.415 N  
HETATM    3  N   UNL     1     -11.375  16.549  64.243  1.00  0.00    -1.032 NA 
HETATM    4  N   UNL     1     -10.982  17.544  64.895  1.00  0.00    -0.827 NA 
HETATM    5  C   UNL     1     -10.533  17.402  66.159  1.00  0.00    -0.284 A  
HETATM    6  C   UNL     1     -10.047  18.264  67.125  1.00  0.00    -0.356 A  
HETATM    7  N   UNL     1      -9.722  17.557  68.282  1.00  0.00    -0.296 NA 
HETATM    8  O   UNL     1     -10.865  13.939  66.667  1.00  0.00    -0.286 OA 
HETATM    9  C   UNL     1     -10.917  15.015  66.092  1.00  0.00    -0.334 C  
HETATM   10  C   UNL     1     -10.011  16.304  68.005  1.00  0.00    -0.240 A  
HETATM   11  N   UNL     1     -10.505  16.164  66.735  1.00  0.00    -0.298 N  
ENDROOT
BRANCH   6  12
HETATM   12  C   UNL     1      -9.877  19.707  67.005  1.00  0.00    -0.374 C  
HETATM   13  H2  UNL     1      -9.126  19.443  65.055  1.00  0.00     0.000 HD 
HETATM   14  O   UNL     1     -10.154  20.519  67.879  1.00  0.00    -0.350 OA 
HETATM   15  N   UNL     1      -9.366  20.098  65.800  1.00  0.00    -0.490 N  
HETATM   16  H1  UNL     1      -9.247  21.107  65.716  1.00  0.00     0.000 HD 
ENDBRANCH   6  12
TORSDOF 1
ENDMDL
MODEL        5
REMARK 921   NORMALIZED FREE ENERGY PREDICTED BY IDOCK:   -5.52 KCAL/MOL
REMARK 922        TOTAL FREE ENERGY PREDICTED BY IDOCK:   -6.11 KCAL/MOL
REMARK 923 INTER-LIGAND FREE ENERGY PREDICTED BY IDOCK:   -5.85 KCAL/MOL
REMARK 924 INTRA-LIGAND FREE ENERGY PREDICTED BY IDOCK:   -0.26 KCAL/MOL
REMARK 927      BINDING AFFINITY PREDICTED BY RF-SCORE:    0.00 PKD
ROOT
HETATM    1  C   UNL     1      -9.933  18.459  66.264  1.00  0.00    -0.366 C  
HETATM    2  N   UNL     1     -10.399  17.102  66.448  1.00  0.00    -0.323 N  
HETATM    3  N   UNL     1     -10.169  16.544  67.682  1.00  0.00    -0.271 NA 
HETATM    4  N   UNL     1     -10.542  15.373  67.925  1.00  0.00    -0.260 NA 
HETATM    5  C   UNL     1     -11.174  14.645  66.981  1.00  0.00    -0.344 A  
HETATM    6  C   UNL     1     -11.702  13.367  66.924  1.00  0.00    -0.389 A  
HETATM    7  N   UNL     1     -12.252  13.130  65.665  1.00  0.00    -0.446 NA 
HETATM    8  O   UNL     1     -11.274  16.887  64.275  1.00  0.00    -1.204 OA 
HETATM    9  C   UNL     1     -11.032  16.465  65.396  1.00  0.00    -0.160 C  
HETATM   10  C   UNL     1     -12.055  14.244  64.994  1.00  0.00    -0.425 A  
HETATM   11  N   UNL     1     -11.408  15.186  65.750  1.00  0.00    -0.289 N  
ENDROOT
BRANCH   6  12
HETATM   12  C   UNL     1     -11.707  12.374  67.991  1.00  0.00    -0.356 C  
HETATM   13  H2  UNL     1     -10.781  13.765  69.273  1.00  0.00     0.000 HD 
HETATM   14  O   UNL     1     -12.151  11.237  67.887  1.00  0.00    -0.634 OA 
HETATM   15  N   UNL     1     -11.159  12.824  69.159  1.00  0.00    -0.385 N  
HETATM   16  H1  UNL     1     -11.163  12.129  69.905  1.00  0.00     0.000 HD 
ENDBRANCH   6  12
TORSDOF 1
ENDMDL
MODEL        6
REMARK 921   NORMALIZED FREE ENERGY PREDICTED BY IDOCK:   -5.51 KCAL/MOL
REMARK 922        TOTAL FREE ENERGY PREDICTED BY IDOCK:   -6.11 KCAL/MOL
REMARK 923 INTER-LIGAND FREE ENERGY PREDICTED BY IDOCK:   -5.81 KCAL/MOL
REMARK 924 INTRA-LIGAND FREE ENERGY PREDICTED BY IDOCK:   -0.30 KCAL/MOL
REMARK 927      BINDING AFFINITY PREDICTED BY RF-SCORE:    0.00 PKD
ROOT
HETATM    1  C   UNL     1     -10.792  10.535  68.770  1.00  0.00    -0.231 C  
HETATM    2  N   UNL     1     -10.846  11.634  67.831  1.00  0.00    -0.199 N  
HETATM    3  N   UNL     1     -11.928  11.654  66.984  1.00  0.00    -0.539 NA 
HETATM    4  N   UNL     1     -12.053  12.572  66.141  1.00  0.00    -0.615 NA 
HETATM    5  C   UNL     1     -11.130  13.552  66.053  1.00  0.00    -0.293 A  
HETATM    6  C   UNL     1     -10.972  14.677  65.263  1.00  0.00    -0.367 A  
HETATM    7  N   UNL     1      -9.802  15.350  65.612  1.00  0.00    -0.354 NA 
HETATM    8  O   UNL     1      -8.843  12.628  68.558  1.00  0.00    -0.146 OA 
HETATM    9  C   UNL     1      -9.832  12.574  67.843  1.00  0.00    -0.207 C  
HETATM   10  C   UNL     1      -9.281  14.638  66.588  1.00  0.00    -0.267 A  
HETATM   11  N   UNL     1     -10.050  13.545  66.887  1.00  0.00    -0.251 N  
ENDROOT
BRANCH   6  12
HETATM   12  C   UNL     1     -11.866  15.137  64.207  1.00  0.00    -0.251 C  
HETATM   13  H2  UNL     1     -12.334  13.135  63.749  1.00  0.00     0.000 HD 
HETATM   14  O   UNL     1     -12.066  16.311  63.922  1.00  0.00    -0.986 OA 
HETATM   15  N   UNL     1     -12.484  14.121  63.534  1.00  0.00    -1.106 N  
HETATM   16  H1  UNL     1     -13.109  14.443  62.795  1.00  0.00     0.000 HD 
ENDBRANCH   6  12
TORSDOF 1
ENDMDL
MODEL        7
REMARK 921   NORMALIZED FREE ENERGY PREDICTED BY IDOCK:   -5.45 KCAL/MOL
REMARK 922        TOTAL FREE ENERGY PREDICTED BY IDOCK:   -6.04 KCAL/MOL
REMARK 923 INTER-LIGAND FREE ENERGY PREDICTED BY IDOCK:   -5.74 KCAL/MOL
REMARK 924 INTRA-LIGAND FREE ENERGY PREDICTED BY IDOCK:   -0.30 KCAL/MOL
REMARK 927      BINDING AFFINITY PREDICTED BY RF-SCORE:    0.00 PKD
ROOT
HETATM    1  C   UNL     1     -12.037  12.678  70.391  1.00  0.00    -0.300 C  
HETATM    2  N   UNL     1     -11.857  13.265  69.081  1.00  0.00    -0.321 N  
HETATM    3  N   UNL     1     -11.705  14.631  69.046  1.00  0.00    -0.291 NA 
HETATM    4  N   UNL     1     -11.542  15.219  67.952  1.00  0.00    -0.326 NA 
HETATM    5  C   UNL     1     -11.513  14.523  66.796  1.00  0.00    -0.367 A  
HETATM    6  C   UNL     1     -11.354  14.852  65.462  1.00  0.00    -0.339 A  
HETATM    7  N   UNL     1     -11.411  13.704  64.674  1.00  0.00    -0.352 NA 
HETATM    8  O   UNL     1     -11.978  11.224  67.920  1.00  0.00    -0.630 OA 
HETATM    9  C   UNL     1     -11.849  12.438  67.973  1.00  0.00    -0.316 C  
HETATM   10  C   UNL     1     -11.597  12.718  65.524  1.00  0.00    -0.362 A  
HETATM   11  N   UNL     1     -11.665  13.167  66.817  1.00  0.00    -0.365 N  
ENDROOT
BRANCH   6  12
HETATM   12  C   UNL     1     -11.155  16.185  64.907  1.00  0.00    -0.325 C  
HETATM   13  H2  UNL     1      -9.912  16.665  66.538  1.00  0.00     0.000 HD 
HETATM   14  O   UNL     1     -11.655  16.592  63.865  1.00  0.00    -1.175 OA 
HETATM   15  N   UNL     1     -10.340  16.977  65.666  1.00  0.00    -0.273 N  
HETATM   16  H1  UNL     1     -10.201  17.909  65.278  1.00  0.00     0.000 HD 
ENDBRANCH   6  12
TORSDOF 1
ENDMDL
MODEL        8
REMARK 921   NORMALIZED FREE ENERGY PREDICTED BY IDOCK:   -5.43 KCAL/MOL
REMARK 922        TOTAL FREE ENERGY PREDICTED BY IDOCK:   -6.02 KCAL/MOL
REMARK 923 INTER-LIGAND FREE ENERGY PREDICTED BY IDOCK:   -5.72 KCAL/MOL
REMARK 924 INTRA-LIGAND FREE ENERGY PREDICTED BY IDOCK:   -0.30 KCAL/MOL
REMARK 927      BINDING AFFINITY PREDICTED BY RF-SCORE:    0.00 PKD
ROOT
HETATM    1  C   UNL     1     -11.643  15.209  71.227  1.00  0.00    -0.358 C  
HETATM    2  N   UNL     1     -11.728  14.863  69.825  1.00  0.00    -0.287 N  
HETATM    3  N   UNL     1     -11.700  15.914  68.940  1.00  0.00    -0.396 NA 
HETATM    4  N   UNL     1     -11.767  15.701  67.707  1.00  0.00    -0.143 NA 
HETATM    5  C   UNL     1     -11.866  14.443  67.232  1.00  0.00    -0.405 A  
HETATM    6  C   UNL     1     -11.953  13.878  65.972  1.00  0.00    -0.412 A  
HETATM    7  N   UNL     1     -12.037  12.490  66.071  1.00  0.00    -0.612 NA 
HETATM    8  O   UNL     1     -11.858  12.544  70.191  1.00  0.00    -0.324 OA 
HETATM    9  C   UNL     1     -11.827  13.530  69.471  1.00  0.00    -0.334 C  
HETATM   10  C   UNL     1     -11.999  12.241  67.362  1.00  0.00    -0.133 A  
HETATM   11  N   UNL     1     -11.895  13.390  68.100  1.00  0.00    -0.358 N  
ENDROOT
BRANCH   6  12
HETATM   12  C   UNL     1     -11.961  14.583  64.696  1.00  0.00    -0.468 C  
HETATM   13  H2  UNL     1     -10.517  15.924  65.442  1.00  0.00     0.000 HD 
HETATM   14  O   UNL     1     -12.655  14.280  63.733  1.00  0.00    -0.821 OA 
HETATM   15  N   UNL     1     -11.106  15.648  64.655  1.00  0.00    -0.672 N  
HETATM   16  H1  UNL     1     -11.111  16.141  63.762  1.00  0.00     0.000 HD 
ENDBRANCH   6  12
TORSDOF 1
ENDMDL
MODEL        9
REMARK 921   NORMALIZED FREE ENERGY PREDICTED BY IDOCK:   -5.40 KCAL/MOL
REMARK 922        TOTAL FREE ENERGY PREDICTED BY IDOCK:   -5.99 KCAL/MOL
REMARK 923 INTER-LIGAND FREE ENERGY PREDICTED BY IDOCK:   -5.70 KCAL/MOL
REMARK 924 INTRA-LIGAND FREE ENERGY PREDICTED BY IDOCK:   -0.29 KCAL/MOL
REMARK 927      BINDING AFFINITY PREDICTED BY RF-SCORE:    0.00 PKD
ROOT
HETATM    1  C   UNL     1      -7.906  15.569  67.437  1.00  0.00    -0.186 C  
HETATM    2  N   UNL     1      -8.956  15.044  66.591  1.00  0.00    -0.271 N  
HETATM    3  N   UNL     1      -9.045  13.675  66.516  1.00  0.00    -0.176 NA 
HETATM    4  N   UNL     1      -9.927  13.138  65.807  1.00  0.00    -0.275 NA 
HETATM    5  C   UNL     1     -10.800  13.894  65.109  1.00  0.00    -0.358 A  
HETATM    6  C   UNL     1     -11.861  13.629  64.261  1.00  0.00    -0.425 A  
HETATM    7  N   UNL     1     -12.425  14.822  63.810  1.00  0.00    -0.716 NA 
HETATM    8  O   UNL     1      -9.771  17.152  65.940  1.00  0.00    -0.490 OA 
HETATM    9  C   UNL     1      -9.784  15.930  65.927  1.00  0.00    -0.351 C  
HETATM   10  C   UNL     1     -11.713  15.769  64.380  1.00  0.00    -0.201 A  
HETATM   11  N   UNL     1     -10.723  15.255  65.173  1.00  0.00    -0.407 N  
ENDROOT
BRANCH   6  12
HETATM   12  C   UNL     1     -12.357  12.317  63.864  1.00  0.00    -0.509 C  
HETATM   13  H2  UNL     1     -10.396  11.745  63.350  1.00  0.00     0.000 HD 
HETATM   14  O   UNL     1     -13.529  11.966  63.919  1.00  0.00    -0.559 OA 
HETATM   15  N   UNL     1     -11.380  11.479  63.408  1.00  0.00    -0.778 N  
HETATM   16  H1  UNL     1     -11.727  10.561  63.130  1.00  0.00     0.000 HD 
ENDBRANCH   6  12
TORSDOF 1
ENDMDL
MODEL       10
REMARK 921   NORMALIZED FREE ENERGY PREDICTED BY IDOCK:   -5.37 KCAL/MOL
REMARK 922        TOTAL FREE ENERGY PREDICTED BY IDOCK:   -5.96 KCAL/MOL
REMARK 923 INTER-LIGAND FREE ENERGY PREDICTED BY IDOCK:   -5.85 KCAL/MOL
REMARK 924 INTRA-LIGAND FREE ENERGY PREDICTED BY IDOCK:   -0.11 KCAL/MOL
REMARK 927      BINDING AFFINITY PREDICTED BY RF-SCORE:    0.00 PKD
ROOT
HETATM    1  C   UNL     1     -11.537  15.824  70.545  1.00  0.00    -0.375 C  
HETATM    2  N   UNL     1     -11.456  15.531  69.131  1.00  0.00    -0.324 N  
HETATM    3  N   UNL     1     -11.983  14.326  68.731  1.00  0.00    -0.327 NA 
HETATM    4  N   UNL     1     -11.955  13.996  67.523  1.00  0.00    -0.405 NA 
HETATM    5  C   UNL     1     -11.411  14.814  66.600  1.00  0.00    -0.347 A  
HETATM    6  C   UNL     1     -11.227  14.757  65.230  1.00  0.00    -0.366 A  
HETATM    7  N   UNL     1     -10.589  15.913  64.781  1.00  0.00    -0.549 NA 
HETATM    8  O   UNL     1     -10.380  17.543  68.563  1.00  0.00    -0.348 OA 
HETATM    9  C   UNL     1     -10.869  16.458  68.289  1.00  0.00    -0.347 C  
HETATM   10  C   UNL     1     -10.401  16.637  65.862  1.00  0.00    -0.340 A  
HETATM   11  N   UNL     1     -10.882  16.014  66.983  1.00  0.00    -0.277 N  
ENDROOT
BRANCH   6  12
HETATM   12  C   UNL     1     -11.621  13.673  64.339  1.00  0.00    -0.393 C  
HETATM   13  H2  UNL     1     -12.622  15.061  63.112  1.00  0.00     0.000 HD 
HETATM   14  O   UNL     1     -11.333  12.493  64.501  1.00  0.00    -0.304 OA 
HETATM   15  N   UNL     1     -12.366  14.087  63.271  1.00  0.00    -1.145 N  
HETATM   16  H1  UNL     1     -12.642  13.328  62.648  1.00  0.00     0.000 HD 
ENDBRANCH   6  12
TORSDOF 1
ENDMDL
MODEL       11
REMARK 921   NORMALIZED FREE ENERGY PREDICTED BY IDOCK:   -5.35 KCAL/MOL
REMARK 922        TOTAL FREE ENERGY PREDICTED BY IDOCK:   -5.94 KCAL/MOL
REMARK 923 INTER-LIGAND FREE ENERGY PREDICTED BY IDOCK:   -5.64 KCAL/MOL
REMARK 924 INTRA-LIGAND FREE ENERGY PREDICTED BY IDOCK:   -0.30 KCAL/MOL
REMARK 927      BINDING AFFINITY PREDICTED BY RF-SCORE:    0.00 PKD
ROOT
HETATM    1  C   UNL     1     -13.233  15.404  71.154  1.00  0.00    -0.513 C  
HETATM    2  N   UNL     1     -12.996  13.979  71.229  1.00  0.00    -0.339 N  
HETATM    3  N   UNL     1     -13.560  13.326  72.299  1.00  0.00    -0.581 NA 
HETATM    4  N   UNL     1     -13.405  12.091  72.438  1.00  0.00    -0.258 NA 
HETATM    5  C   UNL     1     -12.685  11.385  71.541  1.00  0.00    -0.357 A  
HETATM    6  C   UNL     1     -12.334  10.054  71.401  1.00  0.00    -0.415 A  
HETATM    7  N   UNL     1     -11.557   9.880  70.257  1.00  0.00    -0.259 NA 
HETATM    8  O   UNL     1     -11.703  13.880  69.267  1.00  0.00    -0.287 OA 
HETATM    9  C   UNL     1     -12.237  13.375  70.244  1.00  0.00    -0.335 C  
HETATM   10  C   UNL     1     -11.452  11.081  69.733  1.00  0.00    -0.311 A  
HETATM   11  N   UNL     1     -12.118  12.020  70.474  1.00  0.00    -0.364 N  
ENDROOT
BRANCH   6  12
HETATM   12  C   UNL     1     -12.696   8.956  72.289  1.00  0.00    -0.397 C  
HETATM   13  H2  UNL     1     -14.566   9.863  72.630  1.00  0.00     0.000 HD 
HETATM   14  O   UNL     1     -11.975   8.001  72.550  1.00  0.00    -0.358 OA 
HETATM   15  N   UNL     1     -13.945   9.079  72.829  1.00  0.00    -0.867 N  
HETATM   16  H1  UNL     1     -14.197   8.310  73.450  1.00  0.00     0.000 HD 
ENDBRANCH   6  12
TORSDOF 1
ENDMDL
MODEL       12
REMARK 921   NORMALIZED FREE ENERGY PREDICTED BY IDOCK:   -5.32 KCAL/MOL
REMARK 922        TOTAL FREE ENERGY PREDICTED BY IDOCK:   -5.91 KCAL/MOL
REMARK 923 INTER-LIGAND FREE ENERGY PREDICTED BY IDOCK:   -5.61 KCAL/MOL
REMARK 924 INTRA-LIGAND FREE ENERGY PREDICTED BY IDOCK:   -0.30 KCAL/MOL
REMARK 927      BINDING AFFINITY PREDICTED BY RF-SCORE:    0.00 PKD
ROOT
HETATM    1  C   UNL     1      -7.570  18.548  66.987  1.00  0.00    -0.223 C  
HETATM    2  N   UNL     1      -8.465  17.477  66.609  1.00  0.00    -0.247 N  
HETATM    3  N   UNL     1      -9.581  17.843  65.895  1.00  0.00    -0.530 NA 
HETATM    4  N   UNL     1     -10.407  16.976  65.527  1.00  0.00    -0.623 NA 
HETATM    5  C   UNL     1     -10.215  15.675  65.825  1.00  0.00    -0.367 A  
HETATM    6  C   UNL     1     -10.907  14.503  65.577  1.00  0.00    -0.336 A  
HETATM    7  N   UNL     1     -10.232  13.418  66.134  1.00  0.00    -0.295 NA 
HETATM    8  O   UNL     1      -7.188  15.776  67.611  1.00  0.00    -0.135 OA 
HETATM    9  C   UNL     1      -8.152  16.182  66.980  1.00  0.00    -0.210 C  
HETATM   10  C   UNL     1      -9.163  13.938  66.697  1.00  0.00    -0.236 A  
HETATM   11  N   UNL     1      -9.112  15.297  66.535  1.00  0.00    -0.280 N  
ENDROOT
BRANCH   6  12
HETATM   12  C   UNL     1     -12.161  14.366  64.848  1.00  0.00    -0.433 C  
HETATM   13  H2  UNL     1     -11.557  15.905  63.543  1.00  0.00     0.000 HD 
HETATM   14  O   UNL     1     -13.048  13.568  65.124  1.00  0.00    -0.737 OA 
HETATM   15  N   UNL     1     -12.278  15.229  63.795  1.00  0.00    -0.962 N  
HETATM   16  H1  UNL     1     -13.156  15.133  63.284  1.00  0.00     0.000 HD 
ENDBRANCH   6  12
TORSDOF 1
ENDMDL
MODEL       13
REMARK 921   NORMALIZED FREE ENERGY PREDICTED BY IDOCK:   -5.27 KCAL/MOL
REMARK 922        TOTAL FREE ENERGY PREDICTED BY IDOCK:   -5.85 KCAL/MOL
REMARK 923 INTER-LIGAND FREE ENERGY PREDICTED BY IDOCK:   -5.55 KCAL/MOL
REMARK 924 INTRA-LIGAND FREE ENERGY PREDICTED BY IDOCK:   -0.30 KCAL/MOL
REMARK 927      BINDING AFFINITY PREDICTED BY RF-SCORE:    0.00 PKD
ROOT
HETATM    1  C   UNL     1     -11.865  12.966  63.484  1.00  0.00    -0.536 C  
HETATM    2  N   UNL     1     -11.839  13.235  64.905  1.00  0.00    -0.345 N  
HETATM    3  N   UNL     1     -12.112  12.168  65.728  1.00  0.00    -0.554 NA 
HETATM    4  N   UNL     1     -12.109  12.315  66.972  1.00  0.00    -0.543 NA 
HETATM    5  C   UNL     1     -11.838  13.517  67.521  1.00  0.00    -0.368 A  
HETATM    6  C   UNL     1     -11.753  14.004  68.813  1.00  0.00    -0.353 A  
HETATM    7  N   UNL     1     -11.434  15.361  68.795  1.00  0.00    -0.321 NA 
HETATM    8  O   UNL     1     -11.298  15.512  64.676  1.00  0.00    -0.424 OA 
HETATM    9  C   UNL     1     -11.549  14.516  65.337  1.00  0.00    -0.355 C  
HETATM   10  C   UNL     1     -11.332  15.668  67.521  1.00  0.00    -0.198 A  
HETATM   11  N   UNL     1     -11.567  14.585  66.715  1.00  0.00    -0.369 N  
ENDROOT
BRANCH   6  12
HETATM   12  C   UNL     1     -11.958  13.254  70.046  1.00  0.00    -0.329 C  
HETATM   13  H2  UNL     1     -11.123  11.550  69.133  1.00  0.00     0.000 HD 
HETATM   14  O   UNL     1     -12.455  13.710  71.068  1.00  0.00    -0.354 OA 
HETATM   15  N   UNL     1     -11.539  11.956  69.971  1.00  0.00    -0.501 N  
HETATM   16  H1  UNL     1     -11.682  11.431  70.834  1.00  0.00     0.000 HD 
ENDBRANCH   6  12
TORSDOF 1
ENDMDL
MODEL       14
REMARK 921   NORMALIZED FREE ENERGY PREDICTED BY IDOCK:   -5.24 KCAL/MOL
REMARK 922        TOTAL FREE ENERGY PREDICTED BY IDOCK:   -5.82 KCAL/MOL
REMARK 923 INTER-LIGAND FREE ENERGY PREDICTED BY IDOCK:   -5.52 KCAL/MOL
REMARK 924 INTRA-LIGAND FREE ENERGY PREDICTED BY IDOCK:   -0.30 KCAL/MOL
REMARK 927      BINDING AFFINITY PREDICTED BY RF-SCORE:    0.00 PKD
ROOT
HETATM    1  C   UNL     1      -9.012   9.542  64.695  1.00  0.00    -0.221 C  
HETATM    2  N   UNL     1      -9.470  10.908  64.826  1.00  0.00    -0.225 N  
HETATM    3  N   UNL     1     -10.156  11.423  63.752  1.00  0.00    -0.323 NA 
HETATM    4  N   UNL     1     -10.589  12.598  63.785  1.00  0.00    -0.422 NA 
HETATM    5  C   UNL     1     -10.390  13.373  64.871  1.00  0.00    -0.366 A  
HETATM    6  C   UNL     1     -10.727  14.668  65.222  1.00  0.00    -0.381 A  
HETATM    7  N   UNL     1     -10.252  14.958  66.500  1.00  0.00    -0.268 NA 
HETATM    8  O   UNL     1      -8.598  11.213  66.989  1.00  0.00    -0.139 OA 
HETATM    9  C   UNL     1      -9.197  11.595  65.995  1.00  0.00    -0.208 C  
HETATM   10  C   UNL     1      -9.650  13.859  66.896  1.00  0.00    -0.269 A  
HETATM   11  N   UNL     1      -9.709  12.875  65.944  1.00  0.00    -0.227 N  
ENDROOT
BRANCH   6  12
HETATM   12  C   UNL     1     -11.466  15.629  64.413  1.00  0.00    -0.262 C  
HETATM   13  H2  UNL     1     -12.769  14.093  63.800  1.00  0.00     0.000 HD 
HETATM   14  O   UNL     1     -11.195  16.820  64.319  1.00  0.00    -1.163 OA 
HETATM   15  N   UNL     1     -12.522  15.081  63.741  1.00  0.00    -1.049 N  
HETATM   16  H1  UNL     1     -13.039  15.754  63.176  1.00  0.00     0.000 HD 
ENDBRANCH   6  12
TORSDOF 1
ENDMDL
MODEL       15
REMARK 921   NORMALIZED FREE ENERGY PREDICTED BY IDOCK:   -5.23 KCAL/MOL
REMARK 922        TOTAL FREE ENERGY PREDICTED BY IDOCK:   -5.81 KCAL/MOL
REMARK 923 INTER-LIGAND FREE ENERGY PREDICTED BY IDOCK:   -5.82 KCAL/MOL
REMARK 924 INTRA-LIGAND FREE ENERGY PREDICTED BY IDOCK:    0.01 KCAL/MOL
REMARK 927      BINDING AFFINITY PREDICTED BY RF-SCORE:    0.00 PKD
ROOT
HETATM    1  C   UNL     1     -10.371   8.986  68.614  1.00  0.00    -0.209 C  
HETATM    2  N   UNL     1     -10.691   9.925  67.562  1.00  0.00    -0.274 N  
HETATM    3  N   UNL     1     -11.645  10.868  67.860  1.00  0.00    -0.549 NA 
HETATM    4  N   UNL     1     -11.980  11.720  67.005  1.00  0.00    -0.575 NA 
HETATM    5  C   UNL     1     -11.410  11.726  65.783  1.00  0.00    -0.250 A  
HETATM    6  C   UNL     1     -11.543  12.503  64.646  1.00  0.00    -0.343 A  
HETATM    7  N   UNL     1     -10.683  12.048  63.648  1.00  0.00    -0.407 NA 
HETATM    8  O   UNL     1      -9.178   9.018  66.006  1.00  0.00    -0.192 OA 
HETATM    9  C   UNL     1     -10.033   9.821  66.350  1.00  0.00    -0.247 C  
HETATM   10  C   UNL     1     -10.054  11.025  64.184  1.00  0.00    -0.344 A  
HETATM   11  N   UNL     1     -10.461  10.795  65.472  1.00  0.00    -0.230 N  
ENDROOT
BRANCH   6  12
HETATM   12  C   UNL     1     -12.436  13.641  64.465  1.00  0.00    -0.287 C  
HETATM   13  H2  UNL     1     -11.721  13.872  62.497  1.00  0.00     0.000 HD 
HETATM   14  O   UNL     1     -13.202  14.073  65.317  1.00  0.00    -0.782 OA 
HETATM   15  N   UNL     1     -12.350  14.211  63.226  1.00  0.00    -1.133 N  
HETATM   16  H1  UNL     1     -12.975  15.006  63.099  1.00  0.00     0.000 HD 
ENDBRANCH   6  12
TORSDOF 1
ENDMDL
MODEL       16
REMARK 921   NORMALIZED FREE ENERGY PREDICTED BY IDOCK:   -5.18 KCAL/MOL
REMARK 922        TOTAL FREE ENERGY PREDICTED BY IDOCK:   -5.76 KCAL/MOL
REMARK 923 INTER-LIGAND FREE ENERGY PREDICTED BY IDOCK:   -5.46 KCAL/MOL
REMARK 924 INTRA-LIGAND FREE ENERGY PREDICTED BY IDOCK:   -0.30 KCAL/MOL
REMARK 927      BINDING AFFINITY PREDICTED BY RF-SCORE:    0.00 PKD
ROOT
HETATM    1  C   UNL     1     -10.550  16.768  69.561  1.00  0.00    -0.283 C  
HETATM    2  N   UNL     1     -10.852  15.864  68.473  1.00  0.00    -0.282 N  
HETATM    3  N   UNL     1     -10.750  16.386  67.205  1.00  0.00    -0.296 NA 
HETATM    4  N   UNL     1     -10.992  15.671  66.207  1.00  0.00    -0.257 NA 
HETATM    5  C   UNL     1     -11.357  14.381  66.359  1.00  0.00    -0.350 A  
HETATM    6  C   UNL     1     -11.683  13.349  65.497  1.00  0.00    -0.340 A  
HETATM    7  N   UNL     1     -11.989  12.197  66.220  1.00  0.00    -0.613 NA 
HETATM    8  O   UNL     1     -11.331  14.025  69.857  1.00  0.00    -0.232 OA 
HETATM    9  C   UNL     1     -11.217  14.563  68.767  1.00  0.00    -0.261 C  
HETATM   10  C   UNL     1     -11.846  12.540  67.481  1.00  0.00    -0.323 A  
HETATM   11  N   UNL     1     -11.464  13.849  67.612  1.00  0.00    -0.306 N  
ENDROOT
BRANCH   6  12
HETATM   12  C   UNL     1     -11.718  13.405  64.041  1.00  0.00    -0.416 C  
HETATM   13  H2  UNL     1     -12.599  15.315  64.147  1.00  0.00     0.000 HD 
HETATM   14  O   UNL     1     -11.315  12.519  63.297  1.00  0.00    -0.456 OA 
HETATM   15  N   UNL     1     -12.255  14.561  63.551  1.00  0.00    -1.046 N  
HETATM   16  H1  UNL     1     -12.280  14.600  62.532  1.00  0.00     0.000 HD 
ENDBRANCH   6  12
TORSDOF 1
ENDMDL
MODEL       17
REMARK 921   NORMALIZED FREE ENERGY PREDICTED BY IDOCK:   -5.14 KCAL/MOL
REMARK 922        TOTAL FREE ENERGY PREDICTED BY IDOCK:   -5.71 KCAL/MOL
REMARK 923 INTER-LIGAND FREE ENERGY PREDICTED BY IDOCK:   -5.47 KCAL/MOL
REMARK 924 INTRA-LIGAND FREE ENERGY PREDICTED BY IDOCK:   -0.24 KCAL/MOL
REMARK 927      BINDING AFFINITY PREDICTED BY RF-SCORE:    0.00 PKD
ROOT
HETATM    1  C   UNL     1     -11.200  13.584  64.367  1.00  0.00    -0.379 C  
HETATM    2  N   UNL     1     -11.286  14.194  65.676  1.00  0.00    -0.313 N  
HETATM    3  N   UNL     1     -12.033  13.518  66.611  1.00  0.00    -0.396 NA 
HETATM    4  N   UNL     1     -12.157  13.976  67.770  1.00  0.00    -0.348 NA 
HETATM    5  C   UNL     1     -11.562  15.136  68.117  1.00  0.00    -0.341 A  
HETATM    6  C   UNL     1     -11.497  15.893  69.273  1.00  0.00    -0.374 A  
HETATM    7  N   UNL     1     -10.721  17.032  69.059  1.00  0.00    -0.308 NA 
HETATM    8  O   UNL     1      -9.949  16.050  65.129  1.00  0.00    -0.443 OA 
HETATM    9  C   UNL     1     -10.628  15.389  65.900  1.00  0.00    -0.339 C  
HETATM   10  C   UNL     1     -10.335  16.947  67.805  1.00  0.00    -0.327 A  
HETATM   11  N   UNL     1     -10.818  15.819  67.198  1.00  0.00    -0.315 N  
ENDROOT
BRANCH   6  12
HETATM   12  C   UNL     1     -12.129  15.593  70.551  1.00  0.00    -0.395 C  
HETATM   13  H2  UNL     1     -14.017  15.658  69.621  1.00  0.00     0.000 HD 
HETATM   14  O   UNL     1     -11.528  15.420  71.605  1.00  0.00    -0.373 OA 
HETATM   15  N   UNL     1     -13.491  15.518  70.484  1.00  0.00    -0.820 N  
HETATM   16  H1  UNL     1     -13.933  15.307  71.379  1.00  0.00     0.000 HD 
ENDBRANCH   6  12
TORSDOF 1
ENDMDL
MODEL       18
REMARK 921   NORMALIZED FREE ENERGY PREDICTED BY IDOCK:   -5.12 KCAL/MOL
REMARK 922        TOTAL FREE ENERGY PREDICTED BY IDOCK:   -5.70 KCAL/MOL
REMARK 923 INTER-LIGAND FREE ENERGY PREDICTED BY IDOCK:   -5.43 KCAL/MOL
REMARK 924 INTRA-LIGAND FREE ENERGY PREDICTED BY IDOCK:   -0.26 KCAL/MOL
REMARK 927      BINDING AFFINITY PREDICTED BY RF-SCORE:    0.00 PKD
ROOT
HETATM    1  C   UNL     1      -8.142   9.085  63.440  1.00  0.00    -0.167 C  
HETATM    2  N   UNL     1      -9.129  10.012  63.949  1.00  0.00    -0.243 N  
HETATM    3  N   UNL     1      -9.589  10.956  63.061  1.00  0.00    -0.331 NA 
HETATM    4  N   UNL     1     -10.446  11.795  63.421  1.00  0.00    -0.423 NA 
HETATM    5  C   UNL     1     -10.929  11.786  64.680  1.00  0.00    -0.310 A  
HETATM    6  C   UNL     1     -11.852  12.545  65.378  1.00  0.00    -0.428 A  
HETATM    7  N   UNL     1     -11.964  12.081  66.688  1.00  0.00    -0.603 NA 
HETATM    8  O   UNL     1      -9.183   9.091  66.112  1.00  0.00    -0.183 OA 
HETATM    9  C   UNL     1      -9.540   9.895  65.264  1.00  0.00    -0.295 C  
HETATM   10  C   UNL     1     -11.127  11.070  66.762  1.00  0.00    -0.172 A  
HETATM   11  N   UNL     1     -10.481  10.856  65.573  1.00  0.00    -0.247 N  
ENDROOT
BRANCH   6  12
HETATM   12  C   UNL     1     -12.621  13.673  64.868  1.00  0.00    -0.336 C  
HETATM   13  H2  UNL     1     -11.683  13.451  62.995  1.00  0.00     0.000 HD 
HETATM   14  O   UNL     1     -13.434  14.318  65.519  1.00  0.00    -0.580 OA 
HETATM   15  N   UNL     1     -12.355  13.969  63.561  1.00  0.00    -1.118 N  
HETATM   16  H1  UNL     1     -12.894  14.759  63.204  1.00  0.00     0.000 HD 
ENDBRANCH   6  12
TORSDOF 1
ENDMDL
MODEL       19
REMARK 921   NORMALIZED FREE ENERGY PREDICTED BY IDOCK:   -5.09 KCAL/MOL
REMARK 922        TOTAL FREE ENERGY PREDICTED BY IDOCK:   -5.67 KCAL/MOL
REMARK 923 INTER-LIGAND FREE ENERGY PREDICTED BY IDOCK:   -5.40 KCAL/MOL
REMARK 924 INTRA-LIGAND FREE ENERGY PREDICTED BY IDOCK:   -0.26 KCAL/MOL
REMARK 927      BINDING AFFINITY PREDICTED BY RF-SCORE:    0.00 PKD
ROOT
HETATM    1  C   UNL     1      -8.140  16.820  67.271  1.00  0.00    -0.177 C  
HETATM    2  N   UNL     1      -8.924  15.832  66.564  1.00  0.00    -0.277 N  
HETATM    3  N   UNL     1      -9.874  16.318  65.697  1.00  0.00    -0.503 NA 
HETATM    4  N   UNL     1     -10.595  15.529  65.043  1.00  0.00    -0.426 NA 
HETATM    5  C   UNL     1     -10.451  14.195  65.180  1.00  0.00    -0.402 A  
HETATM    6  C   UNL     1     -11.061  13.085  64.625  1.00  0.00    -0.332 A  
HETATM    7  N   UNL     1     -10.501  11.918  65.143  1.00  0.00    -0.276 NA 
HETATM    8  O   UNL     1      -7.858  13.980  67.546  1.00  0.00    -0.161 OA 
HETATM    9  C   UNL     1      -8.677  14.492  66.797  1.00  0.00    -0.185 C  
HETATM   10  C   UNL     1      -9.579  12.331  65.985  1.00  0.00    -0.222 A  
HETATM   11  N   UNL     1      -9.513  13.698  66.038  1.00  0.00    -0.158 N  
ENDROOT
BRANCH   6  12
HETATM   12  C   UNL     1     -12.137  13.078  63.641  1.00  0.00    -0.531 C  
HETATM   13  H2  UNL     1     -12.056  15.181  63.558  1.00  0.00     0.000 HD 
HETATM   14  O   UNL     1     -12.688  12.072  63.213  1.00  0.00    -0.685 OA 
HETATM   15  N   UNL     1     -12.497  14.326  63.218  1.00  0.00    -1.068 N  
HETATM   16  H1  UNL     1     -13.250  14.321  62.529  1.00  0.00     0.000 HD 
ENDBRANCH   6  12
TORSDOF 1
ENDMDL
MODEL       20
REMARK 921   NORMALIZED FREE ENERGY PREDICTED BY IDOCK:   -5.09 KCAL/MOL
REMARK 922        TOTAL FREE ENERGY PREDICTED BY IDOCK:   -5.66 KCAL/MOL
REMARK 923 INTER-LIGAND FREE ENERGY PREDICTED BY IDOCK:   -5.38 KCAL/MOL
REMARK 924 INTRA-LIGAND FREE ENERGY PREDICTED BY IDOCK:   -0.28 KCAL/MOL
REMARK 927      BINDING AFFINITY PREDICTED BY RF-SCORE:    0.00 PKD
ROOT
HETATM    1  C   UNL     1     -10.833  11.723  67.847  1.00  0.00    -0.211 C  
HETATM    2  N   UNL     1     -11.388  12.458  68.962  1.00  0.00    -0.266 N  
HETATM    3  N   UNL     1     -11.103  13.802  69.004  1.00  0.00    -0.256 NA 
HETATM    4  N   UNL     1     -11.546  14.512  69.936  1.00  0.00    -0.274 NA 
HETATM    5  C   UNL     1     -12.309  13.970  70.908  1.00  0.00    -0.372 A  
HETATM    6  C   UNL     1     -12.939  14.456  72.040  1.00  0.00    -0.353 A  
HETATM    7  N   UNL     1     -13.608  13.424  72.698  1.00  0.00    -0.685 NA 
HETATM    8  O   UNL     1     -12.452  10.596  69.928  1.00  0.00    -0.300 OA 
HETATM    9  C   UNL     1     -12.153  11.781  69.893  1.00  0.00    -0.287 C  
HETATM   10  C   UNL     1     -13.378  12.354  71.970  1.00  0.00    -0.407 A  
HETATM   11  N   UNL     1     -12.599  12.636  70.879  1.00  0.00    -0.309 N  
ENDROOT
BRANCH   6  12
HETATM   12  C   UNL     1     -12.936  15.832  72.520  1.00  0.00    -0.470 C  
HETATM   13  H2  UNL     1     -11.204  16.212  71.383  1.00  0.00     0.000 HD 
HETATM   14  O   UNL     1     -13.760  16.305  73.293  1.00  0.00    -0.549 OA 
HETATM   15  N   UNL     1     -11.905  16.581  72.027  1.00  0.00    -0.643 N  
HETATM   16  H1  UNL     1     -11.904  17.543  72.363  1.00  0.00     0.000 HD 
ENDBRANCH   6  12
TORSDOF 1
ENDMDL
MODEL       21
REMARK 921   NORMALIZED FREE ENERGY PREDICTED BY IDOCK:   -5.09 KCAL/MOL
REMARK 922        TOTAL FREE ENERGY PREDICTED BY IDOCK:   -5.66 KCAL/MOL
REMARK 923 INTER-LIGAND FREE ENERGY PREDICTED BY IDOCK:   -5.54 KCAL/MOL
REMARK 924 INTRA-LIGAND FREE ENERGY PREDICTED BY IDOCK:   -0.12 KCAL/MOL
REMARK 927      BINDING AFFINITY PREDICTED BY RF-SCORE:    0.00 PKD
ROOT
HETATM    1  C   UNL     1     -12.036  13.640  65.917  1.00  0.00    -0.439 C  
HETATM    2  N   UNL     1     -11.382  14.893  66.222  1.00  0.00    -0.334 N  
HETATM    3  N   UNL     1     -10.905  15.605  65.147  1.00  0.00    -0.416 NA 
HETATM    4  N   UNL     1     -10.327  16.702  65.323  1.00  0.00    -0.636 NA 
HETATM    5  C   UNL     1     -10.163  17.200  66.566  1.00  0.00    -0.322 A  
HETATM    6  C   UNL     1      -9.591  18.344  67.093  1.00  0.00    -0.295 A  
HETATM    7  N   UNL     1      -9.707  18.344  68.482  1.00  0.00    -0.345 NA 
HETATM    8  O   UNL     1     -11.671  14.718  68.549  1.00  0.00    -0.306 OA 
HETATM    9  C   UNL     1     -11.278  15.289  67.543  1.00  0.00    -0.317 C  
HETATM   10  C   UNL     1     -10.334  17.224  68.770  1.00  0.00    -0.358 A  
HETATM   11  N   UNL     1     -10.630  16.503  67.643  1.00  0.00    -0.320 N  
ENDROOT
BRANCH   6  12
HETATM   12  C   UNL     1      -8.949  19.422  66.351  1.00  0.00    -0.363 C  
HETATM   13  H2  UNL     1     -10.587  20.675  66.778  1.00  0.00     0.000 HD 
HETATM   14  O   UNL     1      -7.862  19.337  65.793  1.00  0.00    -0.444 OA 
HETATM   15  N   UNL     1      -9.679  20.576  66.324  1.00  0.00    -0.648 N  
HETATM   16  H1  UNL     1      -9.229  21.331  65.805  1.00  0.00     0.000 HD 
ENDBRANCH   6  12
TORSDOF 1
ENDMDL
MODEL       22
REMARK 921   NORMALIZED FREE ENERGY PREDICTED BY IDOCK:   -5.06 KCAL/MOL
REMARK 922        TOTAL FREE ENERGY PREDICTED BY IDOCK:   -5.63 KCAL/MOL
REMARK 923 INTER-LIGAND FREE ENERGY PREDICTED BY IDOCK:   -5.60 KCAL/MOL
REMARK 924 INTRA-LIGAND FREE ENERGY PREDICTED BY IDOCK:   -0.03 KCAL/MOL
REMARK 927      BINDING AFFINITY PREDICTED BY RF-SCORE:    0.00 PKD
ROOT
HETATM    1  C   UNL     1     -12.645  11.852  63.374  1.00  0.00    -0.431 C  
HETATM    2  N   UNL     1     -12.043  12.993  64.028  1.00  0.00    -0.428 N  
HETATM    3  N   UNL     1     -12.545  14.225  63.681  1.00  0.00    -0.755 NA 
HETATM    4  N   UNL     1     -12.080  15.265  64.202  1.00  0.00    -0.532 NA 
HETATM    5  C   UNL     1     -11.084  15.192  65.109  1.00  0.00    -0.403 A  
HETATM    6  C   UNL     1     -10.370  16.115  65.852  1.00  0.00    -0.367 A  
HETATM    7  N   UNL     1      -9.431  15.466  66.652  1.00  0.00    -0.242 NA 
HETATM    8  O   UNL     1     -10.525  11.726  65.300  1.00  0.00    -0.254 OA 
HETATM    9  C   UNL     1     -11.025  12.780  64.939  1.00  0.00    -0.294 C  
HETATM   10  C   UNL     1      -9.587  14.187  66.387  1.00  0.00    -0.293 A  
HETATM   11  N   UNL     1     -10.575  13.975  65.462  1.00  0.00    -0.303 N  
ENDROOT
BRANCH   6  12
HETATM   12  C   UNL     1     -10.534  17.563  65.839  1.00  0.00    -0.249 C  
HETATM   13  H2  UNL     1      -9.688  17.664  67.765  1.00  0.00     0.000 HD 
HETATM   14  O   UNL     1     -11.018  18.205  64.914  1.00  0.00    -0.718 OA 
HETATM   15  N   UNL     1     -10.094  18.173  66.980  1.00  0.00    -0.334 N  
HETATM   16  H1  UNL     1     -10.208  19.187  66.970  1.00  0.00     0.000 HD 
ENDBRANCH   6  12
TORSDOF 1
ENDMDL
MODEL       23
REMARK 921   NORMALIZED FREE ENERGY PREDICTED BY IDOCK:   -5.04 KCAL/MOL
REMARK 922        TOTAL FREE ENERGY PREDICTED BY IDOCK:   -5.61 KCAL/MOL
REMARK 923 INTER-LIGAND FREE ENERGY PREDICTED BY IDOCK:   -5.49 KCAL/MOL
REMARK 924 INTRA-LIGAND FREE ENERGY PREDICTED BY IDOCK:   -0.12 KCAL/MOL
REMARK 927      BINDING AFFINITY PREDICTED BY RF-SCORE:    0.00 PKD
ROOT
HETATM    1  C   UNL     1     -11.433  12.229  64.867  1.00  0.00    -0.332 C  
HETATM    2  N   UNL     1     -11.627  12.725  66.211  1.00  0.00    -0.358 N  
HETATM    3  N   UNL     1     -11.828  14.079  66.335  1.00  0.00    -0.397 NA 
HETATM    4  N   UNL     1     -12.006  14.590  67.464  1.00  0.00    -0.369 NA 
HETATM    5  C   UNL     1     -12.005  13.821  68.573  1.00  0.00    -0.367 A  
HETATM    6  C   UNL     1     -12.169  14.058  69.926  1.00  0.00    -0.340 A  
HETATM    7  N   UNL     1     -12.069  12.865  70.639  1.00  0.00    -0.314 NA 
HETATM    8  O   UNL     1     -11.430  10.619  67.240  1.00  0.00    -0.412 OA 
HETATM    9  C   UNL     1     -11.601  11.828  67.264  1.00  0.00    -0.269 C  
HETATM   10  C   UNL     1     -11.851  11.943  69.727  1.00  0.00    -0.340 A  
HETATM   11  N   UNL     1     -11.806  12.475  68.466  1.00  0.00    -0.315 N  
ENDROOT
BRANCH   6  12
HETATM   12  C   UNL     1     -12.412  15.345  70.565  1.00  0.00    -0.422 C  
HETATM   13  H2  UNL     1     -14.477  14.931  70.587  1.00  0.00     0.000 HD 
HETATM   14  O   UNL     1     -11.542  16.157  70.858  1.00  0.00    -0.400 OA 
HETATM   15  N   UNL     1     -13.732  15.588  70.821  1.00  0.00    -0.859 N  
HETATM   16  H1  UNL     1     -13.901  16.488  71.269  1.00  0.00     0.000 HD 
ENDBRANCH   6  12
TORSDOF 1
ENDMDL
MODEL       24
REMARK 921   NORMALIZED FREE ENERGY PREDICTED BY IDOCK:   -5.03 KCAL/MOL
REMARK 922        TOTAL FREE ENERGY PREDICTED BY IDOCK:   -5.60 KCAL/MOL
REMARK 923 INTER-LIGAND FREE ENERGY PREDICTED BY IDOCK:   -5.30 KCAL/MOL
REMARK 924 INTRA-LIGAND FREE ENERGY PREDICTED BY IDOCK:   -0.29 KCAL/MOL
REMARK 927      BINDING AFFINITY PREDICTED BY RF-SCORE:    0.00 PKD
ROOT
HETATM    1  C   UNL     1     -11.476  13.048  65.022  1.00  0.00    -0.313 C  
HETATM    2  N   UNL     1     -11.672  12.801  66.433  1.00  0.00    -0.384 N  
HETATM    3  N   UNL     1     -11.751  11.482  66.813  1.00  0.00    -0.479 NA 
HETATM    4  N   UNL     1     -11.919  11.181  68.017  1.00  0.00    -0.632 NA 
HETATM    5  C   UNL     1     -12.024  12.143  68.956  1.00  0.00    -0.247 A  
HETATM    6  C   UNL     1     -12.205  12.154  70.328  1.00  0.00    -0.264 A  
HETATM    7  N   UNL     1     -12.242  13.466  70.798  1.00  0.00    -0.359 NA 
HETATM    8  O   UNL     1     -11.707  15.073  67.039  1.00  0.00    -0.309 OA 
HETATM    9  C   UNL     1     -11.766  13.880  67.293  1.00  0.00    -0.386 C  
HETATM   10  C   UNL     1     -12.085  14.214  69.728  1.00  0.00    -0.354 A  
HETATM   11  N   UNL     1     -11.949  13.458  68.594  1.00  0.00    -0.351 N  
ENDROOT
BRANCH   6  12
HETATM   12  C   UNL     1     -12.343  10.995  71.201  1.00  0.00    -0.359 C  
HETATM   13  H2  UNL     1     -10.691  10.098  70.251  1.00  0.00     0.000 HD 
HETATM   14  O   UNL     1     -13.199  10.870  72.068  1.00  0.00    -0.492 OA 
HETATM   15  N   UNL     1     -11.413  10.021  70.968  1.00  0.00    -0.374 N  
HETATM   16  H1  UNL     1     -11.510   9.210  71.579  1.00  0.00     0.000 HD 
ENDBRANCH   6  12
TORSDOF 1
ENDMDL
MODEL       25
REMARK 921   NORMALIZED FREE ENERGY PREDICTED BY IDOCK:   -5.02 KCAL/MOL
REMARK 922        TOTAL FREE ENERGY PREDICTED BY IDOCK:   -5.59 KCAL/MOL
REMARK 923 INTER-LIGAND FREE ENERGY PREDICTED BY IDOCK:   -5.34 KCAL/MOL
REMARK 924 INTRA-LIGAND FREE ENERGY PREDICTED BY IDOCK:   -0.25 KCAL/MOL
REMARK 927      BINDING AFFINITY PREDICTED BY RF-SCORE:    0.00 PKD
ROOT
HETATM    1  C   UNL     1     -11.640  12.093  67.949  1.00  0.00    -0.347 C  
HETATM    2  N   UNL     1     -11.343  13.407  67.424  1.00  0.00    -0.295 N  
HETATM    3  N   UNL     1     -10.754  14.290  68.297  1.00  0.00    -0.241 NA 
HETATM    4  N   UNL     1     -10.463  15.449  67.921  1.00  0.00    -0.251 NA 
HETATM    5  C   UNL     1     -10.721  15.847  66.658  1.00  0.00    -0.270 A  
HETATM    6  C   UNL     1     -10.531  17.016  65.944  1.00  0.00    -0.274 A  
HETATM    7  N   UNL     1     -10.999  16.864  64.639  1.00  0.00    -0.963 NA 
HETATM    8  O   UNL     1     -12.183  12.965  65.272  1.00  0.00    -0.423 OA 
HETATM    9  C   UNL     1     -11.662  13.688  66.108  1.00  0.00    -0.364 C  
HETATM   10  C   UNL     1     -11.455  15.632  64.585  1.00  0.00    -0.303 A  
HETATM   11  N   UNL     1     -11.307  14.981  65.781  1.00  0.00    -0.317 N  
ENDROOT
BRANCH   6  12
HETATM   12  C   UNL     1      -9.935  18.252  66.433  1.00  0.00    -0.380 C  
HETATM   13  H2  UNL     1     -11.449  18.392  67.890  1.00  0.00     0.000 HD 
HETATM   14  O   UNL     1      -8.929  18.776  65.970  1.00  0.00    -0.479 OA 
HETATM   15  N   UNL     1     -10.608  18.805  67.486  1.00  0.00    -0.432 N  
HETATM   16  H1  UNL     1     -10.191  19.670  67.828  1.00  0.00     0.000 HD 
ENDBRANCH   6  12
TORSDOF 1
ENDMDL
MODEL       26
REMARK 921   NORMALIZED FREE ENERGY PREDICTED BY IDOCK:   -5.01 KCAL/MOL
REMARK 922        TOTAL FREE ENERGY PREDICTED BY IDOCK:   -5.58 KCAL/MOL
REMARK 923 INTER-LIGAND FREE ENERGY PREDICTED BY IDOCK:   -5.29 KCAL/MOL
REMARK 924 INTRA-LIGAND FREE ENERGY PREDICTED BY IDOCK:   -0.28 KCAL/MOL
REMARK 927      BINDING AFFINITY PREDICTED BY RF-SCORE:    0.00 PKD
ROOT
HETATM    1  C   UNL     1     -13.239  15.482  71.132  1.00  0.00    -0.507 C  
HETATM    2  N   UNL     1     -12.827  14.116  70.897  1.00  0.00    -0.339 N  
HETATM    3  N   UNL     1     -11.981  13.912  69.832  1.00  0.00    -0.321 NA 
HETATM    4  N   UNL     1     -11.575  12.759  69.561  1.00  0.00    -0.289 NA 
HETATM    5  C   UNL     1     -11.960  11.703  70.306  1.00  0.00    -0.358 A  
HETATM    6  C   UNL     1     -11.703  10.344  70.281  1.00  0.00    -0.321 A  
HETATM    7  N   UNL     1     -12.384   9.706  71.317  1.00  0.00    -0.337 NA 
HETATM    8  O   UNL     1     -14.045  13.219  72.697  1.00  0.00    -0.744 OA 
HETATM    9  C   UNL     1     -13.296  13.123  71.736  1.00  0.00    -0.389 C  
HETATM   10  C   UNL     1     -13.028  10.667  71.941  1.00  0.00    -0.437 A  
HETATM   11  N   UNL     1     -12.800  11.890  71.366  1.00  0.00    -0.364 N  
ENDROOT
BRANCH   6  12
HETATM   12  C   UNL     1     -10.855   9.631  69.333  1.00  0.00    -0.217 C  
HETATM   13  H2  UNL     1     -11.884  10.549  67.741  1.00  0.00     0.000 HD 
HETATM   14  O   UNL     1      -9.961   8.853  69.642  1.00  0.00    -0.182 OA 
HETATM   15  N   UNL     1     -11.144   9.907  68.027  1.00  0.00    -0.491 N  
HETATM   16  H1  UNL     1     -10.550   9.408  67.364  1.00  0.00     0.000 HD 
ENDBRANCH   6  12
TORSDOF 1
ENDMDL
MODEL       27
REMARK 921   NORMALIZED FREE ENERGY PREDICTED BY IDOCK:   -4.99 KCAL/MOL
REMARK 922        TOTAL FREE ENERGY PREDICTED BY IDOCK:   -5.56 KCAL/MOL
REMARK 923 INTER-LIGAND FREE ENERGY PREDICTED BY IDOCK:   -5.44 KCAL/MOL
REMARK 924 INTRA-LIGAND FREE ENERGY PREDICTED BY IDOCK:   -0.12 KCAL/MOL
REMARK 927      BINDING AFFINITY PREDICTED BY RF-SCORE:    0.00 PKD
ROOT
HETATM    1  C   UNL     1     -10.728  14.649  67.408  1.00  0.00    -0.280 C  
HETATM    2  N   UNL     1     -11.309  14.624  68.732  1.00  0.00    -0.266 N  
HETATM    3  N   UNL     1     -11.304  15.815  69.419  1.00  0.00    -0.321 NA 
HETATM    4  N   UNL     1     -11.790  15.881  70.571  1.00  0.00    -0.361 NA 
HETATM    5  C   UNL     1     -12.325  14.788  71.154  1.00  0.00    -0.331 A  
HETATM    6  C   UNL     1     -12.927  14.526  72.372  1.00  0.00    -0.386 A  
HETATM    7  N   UNL     1     -13.300  13.185  72.445  1.00  0.00    -0.532 NA 
HETATM    8  O   UNL     1     -11.866  12.340  68.672  1.00  0.00    -0.310 OA 
HETATM    9  C   UNL     1     -11.823  13.434  69.214  1.00  0.00    -0.334 C  
HETATM   10  C   UNL     1     -12.928  12.667  71.295  1.00  0.00    -0.214 A  
HETATM   11  N   UNL     1     -12.336  13.598  70.484  1.00  0.00    -0.355 N  
ENDROOT
BRANCH   6  12
HETATM   12  C   UNL     1     -13.160  15.474  73.454  1.00  0.00    -0.530 C  
HETATM   13  H2  UNL     1     -11.572  14.610  74.536  1.00  0.00     0.000 HD 
HETATM   14  O   UNL     1     -14.030  16.336  73.454  1.00  0.00    -0.500 OA 
HETATM   15  N   UNL     1     -12.304  15.320  74.508  1.00  0.00    -0.719 N  
HETATM   16  H1  UNL     1     -12.468  15.984  75.266  1.00  0.00     0.000 HD 
ENDBRANCH   6  12
TORSDOF 1
ENDMDL
MODEL       28
REMARK 921   NORMALIZED FREE ENERGY PREDICTED BY IDOCK:   -4.94 KCAL/MOL
REMARK 922        TOTAL FREE ENERGY PREDICTED BY IDOCK:   -5.51 KCAL/MOL
REMARK 923 INTER-LIGAND FREE ENERGY PREDICTED BY IDOCK:   -5.24 KCAL/MOL
REMARK 924 INTRA-LIGAND FREE ENERGY PREDICTED BY IDOCK:   -0.27 KCAL/MOL
REMARK 927      BINDING AFFINITY PREDICTED BY RF-SCORE:    0.00 PKD
ROOT
HETATM    1  C   UNL     1      -9.475   8.559  67.278  1.00  0.00    -0.157 C  
HETATM    2  N   UNL     1     -10.097   9.771  66.791  1.00  0.00    -0.218 N  
HETATM    3  N   UNL     1     -10.053   9.970  65.431  1.00  0.00    -0.296 NA 
HETATM    4  N   UNL     1     -10.570  10.994  64.927  1.00  0.00    -0.288 NA 
HETATM    5  C   UNL     1     -11.174  11.913  65.708  1.00  0.00    -0.312 A  
HETATM    6  C   UNL     1     -11.824  13.113  65.480  1.00  0.00    -0.380 A  
HETATM    7  N   UNL     1     -12.265  13.658  66.685  1.00  0.00    -0.410 NA 
HETATM    8  O   UNL     1     -10.762  10.531  68.914  1.00  0.00    -0.192 OA 
HETATM    9  C   UNL     1     -10.682  10.633  67.700  1.00  0.00    -0.267 C  
HETATM   10  C   UNL     1     -11.885  12.798  67.604  1.00  0.00    -0.339 A  
HETATM   11  N   UNL     1     -11.224  11.729  67.059  1.00  0.00    -0.307 N  
ENDROOT
BRANCH   6  12
HETATM   12  C   UNL     1     -12.043  13.758  64.191  1.00  0.00    -0.433 C  
HETATM   13  H2  UNL     1     -11.353  12.022  63.219  1.00  0.00     0.000 HD 
HETATM   14  O   UNL     1     -12.475  14.894  64.042  1.00  0.00    -0.807 OA 
HETATM   15  N   UNL     1     -11.716  12.971  63.123  1.00  0.00    -0.830 N  
HETATM   16  H1  UNL     1     -11.869  13.422  62.222  1.00  0.00     0.000 HD 
ENDBRANCH   6  12
TORSDOF 1
ENDMDL
MODEL       29
REMARK 921   NORMALIZED FREE ENERGY PREDICTED BY IDOCK:   -4.94 KCAL/MOL
REMARK 922        TOTAL FREE ENERGY PREDICTED BY IDOCK:   -5.50 KCAL/MOL
REMARK 923 INTER-LIGAND FREE ENERGY PREDICTED BY IDOCK:   -5.36 KCAL/MOL
REMARK 924 INTRA-LIGAND FREE ENERGY PREDICTED BY IDOCK:   -0.14 KCAL/MOL
REMARK 927      BINDING AFFINITY PREDICTED BY RF-SCORE:    0.00 PKD
ROOT
HETATM    1  C   UNL     1      -9.060  17.805  65.835  1.00  0.00     0.144 C  
HETATM    2  N   UNL     1      -9.717  16.518  65.894  1.00  0.00    -0.297 N  
HETATM    3  N   UNL     1      -9.192  15.610  66.783  1.00  0.00    -0.233 NA 
HETATM    4  N   UNL     1      -9.703  14.472  66.898  1.00  0.00    -0.244 NA 
HETATM    5  C   UNL     1     -10.771  14.121  66.153  1.00  0.00    -0.297 A  
HETATM    6  C   UNL     1     -11.552  12.984  66.039  1.00  0.00    -0.365 A  
HETATM    7  N   UNL     1     -12.550  13.180  65.086  1.00  0.00    -0.590 NA 
HETATM    8  O   UNL     1     -11.329  17.031  64.260  1.00  0.00    -1.191 OA 
HETATM    9  C   UNL     1     -10.804  16.284  65.073  1.00  0.00    -0.320 C  
HETATM   10  C   UNL     1     -12.364  14.406  64.647  1.00  0.00    -0.418 A  
HETATM   11  N   UNL     1     -11.302  15.012  65.264  1.00  0.00    -0.358 N  
ENDROOT
BRANCH   6  12
HETATM   12  C   UNL     1     -11.397  11.739  66.780  1.00  0.00    -0.320 C  
HETATM   13  H2  UNL     1      -9.690  11.283  65.633  1.00  0.00     0.000 HD 
HETATM   14  O   UNL     1     -12.138  11.363  67.679  1.00  0.00    -0.630 OA 
HETATM   15  N   UNL     1     -10.323  10.995  66.380  1.00  0.00    -0.243 N  
HETATM   16  H1  UNL     1     -10.214  10.124  66.899  1.00  0.00     0.000 HD 
ENDBRANCH   6  12
TORSDOF 1
ENDMDL
MODEL       30
REMARK 921   NORMALIZED FREE ENERGY PREDICTED BY IDOCK:   -4.94 KCAL/MOL
REMARK 922        TOTAL FREE ENERGY PREDICTED BY IDOCK:   -5.50 KCAL/MOL
REMARK 923 INTER-LIGAND FREE ENERGY PREDICTED BY IDOCK:   -5.22 KCAL/MOL
REMARK 924 INTRA-LIGAND FREE ENERGY PREDICTED BY IDOCK:   -0.28 KCAL/MOL
REMARK 927      BINDING AFFINITY PREDICTED BY RF-SCORE:    0.00 PKD
ROOT
HETATM    1  C   UNL     1      -9.363  18.701  66.355  1.00  0.00    -0.297 C  
HETATM    2  N   UNL     1     -10.054  17.627  67.033  1.00  0.00    -0.317 N  
HETATM    3  N   UNL     1     -10.336  17.832  68.363  1.00  0.00    -0.374 NA 
HETATM    4  N   UNL     1     -10.934  16.953  69.024  1.00  0.00    -0.246 NA 
HETATM    5  C   UNL     1     -11.311  15.795  68.443  1.00  0.00    -0.372 A  
HETATM    6  C   UNL     1     -11.968  14.655  68.871  1.00  0.00    -0.274 A  
HETATM    7  N   UNL     1     -12.091  13.748  67.820  1.00  0.00    -0.343 NA 
HETATM    8  O   UNL     1     -10.170  16.230  65.145  1.00  0.00    -0.566 OA 
HETATM    9  C   UNL     1     -10.382  16.489  66.320  1.00  0.00    -0.320 C  
HETATM   10  C   UNL     1     -11.521  14.339  66.793  1.00  0.00    -0.367 A  
HETATM   11  N   UNL     1     -11.037  15.577  67.123  1.00  0.00    -0.296 N  
ENDROOT
BRANCH   6  12
HETATM   12  C   UNL     1     -12.475  14.390  70.211  1.00  0.00    -0.354 C  
HETATM   13  H2  UNL     1     -13.532  16.211  70.158  1.00  0.00     0.000 HD 
HETATM   14  O   UNL     1     -12.212  13.395  70.875  1.00  0.00    -0.354 OA 
HETATM   15  N   UNL     1     -13.296  15.372  70.689  1.00  0.00    -0.742 N  
HETATM   16  H1  UNL     1     -13.652  15.186  71.626  1.00  0.00     0.000 HD 
ENDBRANCH   6  12
TORSDOF 1
ENDMDL
MODEL       31
REMARK 921   NORMALIZED FREE ENERGY PREDICTED BY IDOCK:   -4.89 KCAL/MOL
REMARK 922        TOTAL FREE ENERGY PREDICTED BY IDOCK:   -5.46 KCAL/MOL
REMARK 923 INTER-LIGAND FREE ENERGY PREDICTED BY IDOCK:   -5.34 KCAL/MOL
REMARK 924 INTRA-LIGAND FREE ENERGY PREDICTED BY IDOCK:   -0.12 KCAL/MOL
REMARK 927      BINDING AFFINITY PREDICTED BY RF-SCORE:    0.00 PKD
ROOT
HETATM    1  C   UNL     1     -12.392   8.872  71.280  1.00  0.00    -0.291 C  
HETATM    2  N   UNL     1     -12.420  10.301  71.058  1.00  0.00    -0.351 N  
HETATM    3  N   UNL     1     -13.137  11.042  71.967  1.00  0.00    -0.458 NA 
HETATM    4  N   UNL     1     -13.210  12.287  71.849  1.00  0.00    -0.451 NA 
HETATM    5  C   UNL     1     -12.588  12.917  70.832  1.00  0.00    -0.270 A  
HETATM    6  C   UNL     1     -12.468  14.234  70.426  1.00  0.00    -0.362 A  
HETATM    7  N   UNL     1     -11.687  14.313  69.274  1.00  0.00    -0.299 NA 
HETATM    8  O   UNL     1     -11.083  10.237  69.125  1.00  0.00    -0.224 OA 
HETATM    9  C   UNL     1     -11.739  10.822  69.973  1.00  0.00    -0.336 C  
HETATM   10  C   UNL     1     -11.352  13.070  69.006  1.00  0.00    -0.289 A  
HETATM   11  N   UNL     1     -11.873  12.194  69.921  1.00  0.00    -0.333 N  
ENDROOT
BRANCH   6  12
HETATM   12  C   UNL     1     -13.053  15.404  71.069  1.00  0.00    -0.501 C  
HETATM   13  H2  UNL     1     -11.119  16.160  71.424  1.00  0.00     0.000 HD 
HETATM   14  O   UNL     1     -14.254  15.600  71.208  1.00  0.00    -0.540 OA 
HETATM   15  N   UNL     1     -12.125  16.298  71.524  1.00  0.00    -0.633 N  
HETATM   16  H1  UNL     1     -12.534  17.116  71.975  1.00  0.00     0.000 HD 
ENDBRANCH   6  12
TORSDOF 1
ENDMDL
MODEL       32
REMARK 921   NORMALIZED FREE ENERGY PREDICTED BY IDOCK:   -4.86 KCAL/MOL
REMARK 922        TOTAL FREE ENERGY PREDICTED BY IDOCK:   -5.42 KCAL/MOL
REMARK 923 INTER-LIGAND FREE ENERGY PREDICTED BY IDOCK:   -5.12 KCAL/MOL
REMARK 924 INTRA-LIGAND FREE ENERGY PREDICTED BY IDOCK:   -0.30 KCAL/MOL
REMARK 927      BINDING AFFINITY PREDICTED BY RF-SCORE:    0.00 PKD
ROOT
HETATM    1  C   UNL     1     -12.116  14.252  70.189  1.00  0.00    -0.339 C  
HETATM    2  N   UNL     1     -11.555  15.170  69.222  1.00  0.00    -0.304 N  
HETATM    3  N   UNL     1     -11.081  16.360  69.720  1.00  0.00    -0.335 NA 
HETATM    4  N   UNL     1     -10.578  17.210  68.951  1.00  0.00    -0.336 NA 
HETATM    5  C   UNL     1     -10.493  16.972  67.626  1.00  0.00    -0.343 A  
HETATM    6  C   UNL     1     -10.009  17.673  66.536  1.00  0.00    -0.332 A  
HETATM    7  N   UNL     1     -10.182  16.929  65.370  1.00  0.00    -0.623 NA 
HETATM    8  O   UNL     1     -11.929  13.773  67.368  1.00  0.00    -0.379 OA 
HETATM    9  C   UNL     1     -11.531  14.803  67.889  1.00  0.00    -0.342 C  
HETATM   10  C   UNL     1     -10.756  15.813  65.762  1.00  0.00    -0.327 A  
HETATM   11  N   UNL     1     -10.961  15.795  67.116  1.00  0.00    -0.288 N  
ENDROOT
BRANCH   6  12
HETATM   12  C   UNL     1      -9.399  18.997  66.548  1.00  0.00    -0.340 C  
HETATM   13  H2  UNL     1     -10.790  19.610  68.006  1.00  0.00     0.000 HD 
HETATM   14  O   UNL     1      -8.446  19.335  65.858  1.00  0.00    -0.441 OA 
HETATM   15  N   UNL     1      -9.994  19.864  67.420  1.00  0.00    -0.395 N  
HETATM   16  H1  UNL     1      -9.567  20.791  67.428  1.00  0.00     0.000 HD 
ENDBRANCH   6  12
TORSDOF 1
ENDMDL
MODEL       33
REMARK 921   NORMALIZED FREE ENERGY PREDICTED BY IDOCK:   -4.86 KCAL/MOL
REMARK 922        TOTAL FREE ENERGY PREDICTED BY IDOCK:   -5.42 KCAL/MOL
REMARK 923 INTER-LIGAND FREE ENERGY PREDICTED BY IDOCK:   -5.13 KCAL/MOL
REMARK 924 INTRA-LIGAND FREE ENERGY PREDICTED BY IDOCK:   -0.29 KCAL/MOL
REMARK 927      BINDING AFFINITY PREDICTED BY RF-SCORE:    0.00 PKD
ROOT
HETATM    1  C   UNL     1     -10.030  10.469  68.301  1.00  0.00    -0.159 C  
HETATM    2  N   UNL     1     -10.837  11.344  69.122  1.00  0.00    -0.223 N  
HETATM    3  N   UNL     1     -10.798  12.680  68.803  1.00  0.00    -0.241 NA 
HETATM    4  N   UNL     1     -11.470  13.506  69.464  1.00  0.00    -0.272 NA 
HETATM    5  C   UNL     1     -12.240  13.097  70.493  1.00  0.00    -0.328 A  
HETATM    6  C   UNL     1     -13.080  13.726  71.395  1.00  0.00    -0.337 A  
HETATM    7  N   UNL     1     -13.634  12.792  72.269  1.00  0.00    -0.542 NA 
HETATM    8  O   UNL     1     -11.671   9.628  70.497  1.00  0.00    -0.263 OA 
HETATM    9  C   UNL     1     -11.582  10.796  70.150  1.00  0.00    -0.337 C  
HETATM   10  C   UNL     1     -13.134  11.636  71.890  1.00  0.00    -0.385 A  
HETATM   11  N   UNL     1     -12.288  11.773  70.821  1.00  0.00    -0.374 N  
ENDROOT
BRANCH   6  12
HETATM   12  C   UNL     1     -13.376  15.151  71.467  1.00  0.00    -0.448 C  
HETATM   13  H2  UNL     1     -12.840  15.352  69.440  1.00  0.00     0.000 HD 
HETATM   14  O   UNL     1     -13.772  15.734  72.469  1.00  0.00    -0.528 OA 
HETATM   15  N   UNL     1     -13.170  15.812  70.289  1.00  0.00    -0.695 N  
HETATM   16  H1  UNL     1     -13.377  16.810  70.340  1.00  0.00     0.000 HD 
ENDBRANCH   6  12
TORSDOF 1
ENDMDL
MODEL       34
REMARK 921   NORMALIZED FREE ENERGY PREDICTED BY IDOCK:   -4.86 KCAL/MOL
REMARK 922        TOTAL FREE ENERGY PREDICTED BY IDOCK:   -5.42 KCAL/MOL
REMARK 923 INTER-LIGAND FREE ENERGY PREDICTED BY IDOCK:   -5.14 KCAL/MOL
REMARK 924 INTRA-LIGAND FREE ENERGY PREDICTED BY IDOCK:   -0.27 KCAL/MOL
REMARK 927      BINDING AFFINITY PREDICTED BY RF-SCORE:    0.00 PKD
ROOT
HETATM    1  C   UNL     1     -12.490  12.139  63.488  1.00  0.00    -0.555 C  
HETATM    2  N   UNL     1     -12.040  12.853  64.662  1.00  0.00    -0.393 N  
HETATM    3  N   UNL     1     -12.936  13.736  65.215  1.00  0.00    -0.754 NA 
HETATM    4  N   UNL     1     -12.627  14.394  66.235  1.00  0.00    -0.246 NA 
HETATM    5  C   UNL     1     -11.413  14.245  66.805  1.00  0.00    -0.367 A  
HETATM    6  C   UNL     1     -10.774  14.797  67.901  1.00  0.00    -0.259 A  
HETATM    7  N   UNL     1      -9.492  14.266  68.028  1.00  0.00    -0.198 NA 
HETATM    8  O   UNL     1      -9.915  11.846  64.716  1.00  0.00    -0.253 OA 
HETATM    9  C   UNL     1     -10.768  12.609  65.146  1.00  0.00    -0.292 C  
HETATM   10  C   UNL     1      -9.376  13.418  67.030  1.00  0.00    -0.243 A  
HETATM   11  N   UNL     1     -10.512  13.372  66.266  1.00  0.00    -0.284 N  
ENDROOT
BRANCH   6  12
HETATM   12  C   UNL     1     -11.315  15.791  68.819  1.00  0.00    -0.362 C  
HETATM   13  H2  UNL     1     -12.978  14.546  69.169  1.00  0.00     0.000 HD 
HETATM   14  O   UNL     1     -10.780  16.860  69.089  1.00  0.00    -0.330 OA 
HETATM   15  N   UNL     1     -12.509  15.428  69.376  1.00  0.00    -0.607 N  
HETATM   16  H1  UNL     1     -12.887  16.124  70.019  1.00  0.00     0.000 HD 
ENDBRANCH   6  12
TORSDOF 1
ENDMDL
MODEL       35
REMARK 921   NORMALIZED FREE ENERGY PREDICTED BY IDOCK:   -4.81 KCAL/MOL
REMARK 922        TOTAL FREE ENERGY PREDICTED BY IDOCK:   -5.37 KCAL/MOL
REMARK 923 INTER-LIGAND FREE ENERGY PREDICTED BY IDOCK:   -5.08 KCAL/MOL
REMARK 924 INTRA-LIGAND FREE ENERGY PREDICTED BY IDOCK:   -0.29 KCAL/MOL
REMARK 927      BINDING AFFINITY PREDICTED BY RF-SCORE:    0.00 PKD
ROOT
HETATM    1  C   UNL     1     -11.082  14.999  65.000  1.00  0.00    -0.413 C  
HETATM    2  N   UNL     1     -10.308  16.081  65.567  1.00  0.00    -0.388 N  
HETATM    3  N   UNL     1     -10.784  17.350  65.341  1.00  0.00    -0.576 NA 
HETATM    4  N   UNL     1     -10.173  18.344  65.799  1.00  0.00    -0.578 NA 
HETATM    5  C   UNL     1      -9.044  18.183  66.519  1.00  0.00    -0.276 A  
HETATM    6  C   UNL     1      -8.157  19.037  67.150  1.00  0.00    -0.264 A  
HETATM    7  N   UNL     1      -7.138  18.308  67.760  1.00  0.00    -0.211 NA 
HETATM    8  O   UNL     1      -8.677  14.686  66.529  1.00  0.00    -0.207 OA 
HETATM    9  C   UNL     1      -9.165  15.779  66.285  1.00  0.00    -0.333 C  
HETATM   10  C   UNL     1      -7.417  17.050  67.496  1.00  0.00    -0.161 A  
HETATM   11  N   UNL     1      -8.559  16.928  66.751  1.00  0.00    -0.208 N  
ENDROOT
BRANCH   6  12
HETATM   12  C   UNL     1      -8.230  20.492  67.200  1.00  0.00    -0.290 C  
HETATM   13  H2  UNL     1     -10.318  20.384  66.945  1.00  0.00     0.000 HD 
HETATM   14  O   UNL     1      -7.268  21.237  67.344  1.00  0.00    -0.511 OA 
HETATM   15  N   UNL     1      -9.500  20.980  67.067  1.00  0.00    -0.664 N  
HETATM   16  H1  UNL     1      -9.550  21.998  67.102  1.00  0.00     0.000 HD 
ENDBRANCH   6  12
TORSDOF 1
ENDMDL
MODEL       36
REMARK 921   NORMALIZED FREE ENERGY PREDICTED BY IDOCK:   -4.81 KCAL/MOL
REMARK 922        TOTAL FREE ENERGY PREDICTED BY IDOCK:   -5.36 KCAL/MOL
REMARK 923 INTER-LIGAND FREE ENERGY PREDICTED BY IDOCK:   -5.07 KCAL/MOL
REMARK 924 INTRA-LIGAND FREE ENERGY PREDICTED BY IDOCK:   -0.29 KCAL/MOL
REMARK 927      BINDING AFFINITY PREDICTED BY RF-SCORE:    0.00 PKD
ROOT
HETATM    1  C   UNL     1     -12.036  11.264  69.976  1.00  0.00    -0.368 C  
HETATM    2  N   UNL     1     -11.576  11.103  68.614  1.00  0.00    -0.296 N  
HETATM    3  N   UNL     1     -12.031  12.030  67.708  1.00  0.00    -0.553 NA 
HETATM    4  N   UNL     1     -11.679  11.965  66.507  1.00  0.00    -0.562 NA 
HETATM    5  C   UNL     1     -10.851  10.986  66.088  1.00  0.00    -0.146 A  
HETATM    6  C   UNL     1     -10.285  10.639  64.874  1.00  0.00    -0.324 A  
HETATM    7  N   UNL     1      -9.487   9.505  65.022  1.00  0.00    -0.253 NA 
HETATM    8  O   UNL     1     -10.280   9.191  69.057  1.00  0.00    -0.195 OA 
HETATM    9  C   UNL     1     -10.727  10.053  68.315  1.00  0.00    -0.240 C  
HETATM   10  C   UNL     1      -9.580   9.190  66.296  1.00  0.00    -0.255 A  
HETATM   11  N   UNL     1     -10.392  10.057  66.977  1.00  0.00    -0.236 N  
ENDROOT
BRANCH   6  12
HETATM   12  C   UNL     1     -10.462  11.322  63.599  1.00  0.00    -0.405 C  
HETATM   13  H2  UNL     1     -12.542  11.367  63.927  1.00  0.00     0.000 HD 
HETATM   14  O   UNL     1      -9.554  11.624  62.834  1.00  0.00    -0.384 OA 
HETATM   15  N   UNL     1     -11.767  11.608  63.310  1.00  0.00    -0.854 N  
HETATM   16  H1  UNL     1     -11.890  12.086  62.417  1.00  0.00     0.000 HD 
ENDBRANCH   6  12
TORSDOF 1
ENDMDL
MODEL       37
REMARK 921   NORMALIZED FREE ENERGY PREDICTED BY IDOCK:   -4.80 KCAL/MOL
REMARK 922        TOTAL FREE ENERGY PREDICTED BY IDOCK:   -5.35 KCAL/MOL
REMARK 923 INTER-LIGAND FREE ENERGY PREDICTED BY IDOCK:   -5.23 KCAL/MOL
REMARK 924 INTRA-LIGAND FREE ENERGY PREDICTED BY IDOCK:   -0.12 KCAL/MOL
REMARK 927      BINDING AFFINITY PREDICTED BY RF-SCORE:    0.00 PKD
ROOT
HETATM    1  C   UNL     1     -11.447  16.017  68.539  1.00  0.00    -0.357 C  
HETATM    2  N   UNL     1     -11.772  14.824  69.289  1.00  0.00    -0.299 N  
HETATM    3  N   UNL     1     -11.256  13.645  68.807  1.00  0.00    -0.265 NA 
HETATM    4  N   UNL     1     -11.488  12.565  69.398  1.00  0.00    -0.275 NA 
HETATM    5  C   UNL     1     -12.245  12.544  70.514  1.00  0.00    -0.297 A  
HETATM    6  C   UNL     1     -12.677  11.557  71.383  1.00  0.00    -0.364 A  
HETATM    7  N   UNL     1     -13.457  12.115  72.395  1.00  0.00    -0.267 NA 
HETATM    8  O   UNL     1     -13.057  15.941  70.911  1.00  0.00    -0.505 OA 
HETATM    9  C   UNL     1     -12.562  14.939  70.418  1.00  0.00    -0.343 C  
HETATM   10  C   UNL     1     -13.484  13.403  72.130  1.00  0.00    -0.552 A  
HETATM   11  N   UNL     1     -12.765  13.707  71.005  1.00  0.00    -0.343 N  
ENDROOT
BRANCH   6  12
HETATM   12  C   UNL     1     -12.389  10.131  71.299  1.00  0.00    -0.400 C  
HETATM   13  H2  UNL     1     -14.376   9.778  70.694  1.00  0.00     0.000 HD 
HETATM   14  O   UNL     1     -11.305   9.619  71.549  1.00  0.00    -0.381 OA 
HETATM   15  N   UNL     1     -13.461   9.379  70.907  1.00  0.00    -0.587 N  
HETATM   16  H1  UNL     1     -13.260   8.381  70.848  1.00  0.00     0.000 HD 
ENDBRANCH   6  12
TORSDOF 1
ENDMDL
MODEL       38
REMARK 921   NORMALIZED FREE ENERGY PREDICTED BY IDOCK:   -4.77 KCAL/MOL
REMARK 922        TOTAL FREE ENERGY PREDICTED BY IDOCK:   -5.32 KCAL/MOL
REMARK 923 INTER-LIGAND FREE ENERGY PREDICTED BY IDOCK:   -5.03 KCAL/MOL
REMARK 924 INTRA-LIGAND FREE ENERGY PREDICTED BY IDOCK:   -0.29 KCAL/MOL
REMARK 927      BINDING AFFINITY PREDICTED BY RF-SCORE:    0.00 PKD
ROOT
HETATM    1  C   UNL     1     -10.982  11.198  65.088  1.00  0.00    -0.086 C  
HETATM    2  N   UNL     1     -10.810  12.626  65.240  1.00  0.00    -0.281 N  
HETATM    3  N   UNL     1      -9.918  13.030  66.205  1.00  0.00    -0.275 NA 
HETATM    4  N   UNL     1      -9.708  14.249  66.400  1.00  0.00    -0.288 NA 
HETATM    5  C   UNL     1     -10.353  15.182  65.670  1.00  0.00    -0.357 A  
HETATM    6  C   UNL     1     -10.352  16.564  65.630  1.00  0.00    -0.322 A  
HETATM    7  N   UNL     1     -11.237  17.019  64.653  1.00  0.00    -0.972 NA 
HETATM    8  O   UNL     1     -12.343  13.202  63.552  1.00  0.00    -0.680 OA 
HETATM    9  C   UNL     1     -11.535  13.477  64.427  1.00  0.00    -0.394 C  
HETATM   10  C   UNL     1     -11.749  15.928  64.127  1.00  0.00    -0.027 A  
HETATM   11  N   UNL     1     -11.243  14.796  64.709  1.00  0.00    -0.391 N  
ENDROOT
BRANCH   6  12
HETATM   12  C   UNL     1      -9.562  17.462  66.464  1.00  0.00    -0.280 C  
HETATM   13  H2  UNL     1      -9.474  15.979  67.956  1.00  0.00     0.000 HD 
HETATM   14  O   UNL     1      -9.230  18.599  66.149  1.00  0.00    -0.453 OA 
HETATM   15  N   UNL     1      -9.210  16.921  67.668  1.00  0.00    -0.227 N  
HETATM   16  H1  UNL     1      -8.657  17.550  68.251  1.00  0.00     0.000 HD 
ENDBRANCH   6  12
TORSDOF 1
ENDMDL
MODEL       39
REMARK 921   NORMALIZED FREE ENERGY PREDICTED BY IDOCK:   -4.73 KCAL/MOL
REMARK 922        TOTAL FREE ENERGY PREDICTED BY IDOCK:   -5.28 KCAL/MOL
REMARK 923 INTER-LIGAND FREE ENERGY PREDICTED BY IDOCK:   -4.98 KCAL/MOL
REMARK 924 INTRA-LIGAND FREE ENERGY PREDICTED BY IDOCK:   -0.30 KCAL/MOL
REMARK 927      BINDING AFFINITY PREDICTED BY RF-SCORE:    0.00 PKD
ROOT
HETATM    1  C   UNL     1     -10.616  11.525  66.937  1.00  0.00    -0.247 C  
HETATM    2  N   UNL     1     -11.161  12.248  68.065  1.00  0.00    -0.249 N  
HETATM    3  N   UNL     1     -11.546  11.487  69.143  1.00  0.00    -0.286 NA 
HETATM    4  N   UNL     1     -12.027  12.035  70.162  1.00  0.00    -0.345 NA 
HETATM    5  C   UNL     1     -12.172  13.375  70.217  1.00  0.00    -0.335 A  
HETATM    6  C   UNL     1     -12.649  14.268  71.160  1.00  0.00    -0.362 A  
HETATM    7  N   UNL     1     -12.565  15.572  70.673  1.00  0.00    -0.442 NA 
HETATM    8  O   UNL     1     -10.941  14.371  67.078  1.00  0.00    -0.292 OA 
HETATM    9  C   UNL     1     -11.258  13.626  67.992  1.00  0.00    -0.267 C  
HETATM   10  C   UNL     1     -12.048  15.451  69.470  1.00  0.00    -0.305 A  
HETATM   11  N   UNL     1     -11.795  14.143  69.153  1.00  0.00    -0.321 N  
ENDROOT
BRANCH   6  12
HETATM   12  C   UNL     1     -13.174  13.948  72.481  1.00  0.00    -0.502 C  
HETATM   13  H2  UNL     1     -14.219  12.316  71.657  1.00  0.00     0.000 HD 
HETATM   14  O   UNL     1     -12.926  14.575  73.504  1.00  0.00    -0.551 OA 
HETATM   15  N   UNL     1     -13.995  12.856  72.493  1.00  0.00    -0.478 N  
HETATM   16  H1  UNL     1     -14.362  12.632  73.418  1.00  0.00     0.000 HD 
ENDBRANCH   6  12
TORSDOF 1
ENDMDL
MODEL       40
REMARK 921   NORMALIZED FREE ENERGY PREDICTED BY IDOCK:   -4.72 KCAL/MOL
REMARK 922        TOTAL FREE ENERGY PREDICTED BY IDOCK:   -5.27 KCAL/MOL
REMARK 923 INTER-LIGAND FREE ENERGY PREDICTED BY IDOCK:   -5.00 KCAL/MOL
REMARK 924 INTRA-LIGAND FREE ENERGY PREDICTED BY IDOCK:   -0.27 KCAL/MOL
REMARK 927      BINDING AFFINITY PREDICTED BY RF-SCORE:    0.00 PKD
ROOT
HETATM    1  C   UNL     1     -12.180  12.457  63.737  1.00  0.00    -0.533 C  
HETATM    2  N   UNL     1     -11.821  13.456  64.719  1.00  0.00    -0.363 N  
HETATM    3  N   UNL     1     -11.335  14.644  64.226  1.00  0.00    -0.186 NA 
HETATM    4  N   UNL     1     -11.002  15.563  65.009  1.00  0.00    -0.427 NA 
HETATM    5  C   UNL     1     -11.116  15.402  66.344  1.00  0.00    -0.230 A  
HETATM    6  C   UNL     1     -10.849  16.190  67.449  1.00  0.00    -0.265 A  
HETATM    7  N   UNL     1     -11.163  15.500  68.619  1.00  0.00    -0.304 NA 
HETATM    8  O   UNL     1     -12.406  12.140  66.578  1.00  0.00    -0.474 OA 
HETATM    9  C   UNL     1     -11.985  13.163  66.060  1.00  0.00    -0.433 C  
HETATM   10  C   UNL     1     -11.606  14.330  68.214  1.00  0.00    -0.324 A  
HETATM   11  N   UNL     1     -11.596  14.227  66.848  1.00  0.00    -0.369 N  
ENDROOT
BRANCH   6  12
HETATM   12  C   UNL     1     -10.318  17.547  67.448  1.00  0.00    -0.351 C  
HETATM   13  H2  UNL     1     -10.607  17.645  65.364  1.00  0.00     0.000 HD 
HETATM   14  O   UNL     1      -9.926  18.147  68.442  1.00  0.00    -0.339 OA 
HETATM   15  N   UNL     1     -10.288  18.121  66.208  1.00  0.00    -0.404 N  
HETATM   16  H1  UNL     1      -9.917  19.071  66.208  1.00  0.00     0.000 HD 
ENDBRANCH   6  12
TORSDOF 1
ENDMDL
MODEL       41
REMARK 921   NORMALIZED FREE ENERGY PREDICTED BY IDOCK:   -4.70 KCAL/MOL
REMARK 922        TOTAL FREE ENERGY PREDICTED BY IDOCK:   -5.25 KCAL/MOL
REMARK 923 INTER-LIGAND FREE ENERGY PREDICTED BY IDOCK:   -4.96 KCAL/MOL
REMARK 924 INTRA-LIGAND FREE ENERGY PREDICTED BY IDOCK:   -0.29 KCAL/MOL
REMARK 927      BINDING AFFINITY PREDICTED BY RF-SCORE:    0.00 PKD
ROOT
HETATM    1  C   UNL     1      -8.981  19.859  66.137  1.00  0.00    -0.311 C  
HETATM    2  N   UNL     1      -9.602  18.632  66.583  1.00  0.00    -0.320 N  
HETATM    3  N   UNL     1      -9.875  17.702  65.609  1.00  0.00    -0.503 NA 
HETATM    4  N   UNL     1     -10.410  16.610  65.910  1.00  0.00    -0.392 NA 
HETATM    5  C   UNL     1     -10.726  16.332  67.192  1.00  0.00    -0.247 A  
HETATM    6  C   UNL     1     -11.304  15.258  67.844  1.00  0.00    -0.334 A  
HETATM    7  N   UNL     1     -11.393  15.516  69.211  1.00  0.00    -0.300 NA 
HETATM    8  O   UNL     1      -9.667  19.244  68.853  1.00  0.00    -0.409 OA 
HETATM    9  C   UNL     1      -9.876  18.472  67.929  1.00  0.00    -0.325 C  
HETATM   10  C   UNL     1     -10.879  16.717  69.363  1.00  0.00    -0.295 A  
HETATM   11  N   UNL     1     -10.462  17.247  68.170  1.00  0.00    -0.365 N  
ENDROOT
BRANCH   6  12
HETATM   12  C   UNL     1     -11.769  14.015  67.241  1.00  0.00    -0.389 C  
HETATM   13  H2  UNL     1     -12.858  15.126  65.822  1.00  0.00     0.000 HD 
HETATM   14  O   UNL     1     -11.471  12.893  67.632  1.00  0.00    -0.293 OA 
HETATM   15  N   UNL     1     -12.593  14.204  66.168  1.00  0.00    -0.479 N  
HETATM   16  H1  UNL     1     -12.918  13.334  65.746  1.00  0.00     0.000 HD 
ENDBRANCH   6  12
TORSDOF 1
ENDMDL
MODEL       42
REMARK 921   NORMALIZED FREE ENERGY PREDICTED BY IDOCK:   -4.66 KCAL/MOL
REMARK 922        TOTAL FREE ENERGY PREDICTED BY IDOCK:   -5.21 KCAL/MOL
REMARK 923 INTER-LIGAND FREE ENERGY PREDICTED BY IDOCK:   -4.96 KCAL/MOL
REMARK 924 INTRA-LIGAND FREE ENERGY PREDICTED BY IDOCK:   -0.25 KCAL/MOL
REMARK 927      BINDING AFFINITY PREDICTED BY RF-SCORE:    0.00 PKD
ROOT
HETATM    1  C   UNL     1     -11.638  15.109  71.801  1.00  0.00    -0.408 C  
HETATM    2  N   UNL     1     -11.642  14.760  70.398  1.00  0.00    -0.274 N  
HETATM    3  N   UNL     1     -12.055  13.485  70.092  1.00  0.00    -0.349 NA 
HETATM    4  N   UNL     1     -12.090  13.102  68.899  1.00  0.00    -0.264 NA 
HETATM    5  C   UNL     1     -11.726  13.933  67.901  1.00  0.00    -0.361 A  
HETATM    6  C   UNL     1     -11.653  13.832  66.523  1.00  0.00    -0.365 A  
HETATM    7  N   UNL     1     -11.197  15.030  65.976  1.00  0.00    -0.336 NA 
HETATM    8  O   UNL     1     -10.864  16.853  69.660  1.00  0.00    -0.302 OA 
HETATM    9  C   UNL     1     -11.243  15.706  69.473  1.00  0.00    -0.313 C  
HETATM   10  C   UNL     1     -11.006  15.822  67.008  1.00  0.00    -0.221 A  
HETATM   11  N   UNL     1     -11.313  15.202  68.190  1.00  0.00    -0.322 N  
ENDROOT
BRANCH   6  12
HETATM   12  C   UNL     1     -11.990  12.668  65.713  1.00  0.00    -0.446 C  
HETATM   13  H2  UNL     1     -10.537  11.545  66.744  1.00  0.00     0.000 HD 
HETATM   14  O   UNL     1     -12.843  12.650  64.834  1.00  0.00    -0.763 OA 
HETATM   15  N   UNL     1     -11.254  11.558  66.018  1.00  0.00    -0.233 N  
HETATM   16  H1  UNL     1     -11.490  10.744  65.451  1.00  0.00     0.000 HD 
ENDBRANCH   6  12
TORSDOF 1
ENDMDL
MODEL       43
REMARK 921   NORMALIZED FREE ENERGY PREDICTED BY IDOCK:   -4.63 KCAL/MOL
REMARK 922        TOTAL FREE ENERGY PREDICTED BY IDOCK:   -5.18 KCAL/MOL
REMARK 923 INTER-LIGAND FREE ENERGY PREDICTED BY IDOCK:   -4.88 KCAL/MOL
REMARK 924 INTRA-LIGAND FREE ENERGY PREDICTED BY IDOCK:   -0.30 KCAL/MOL
REMARK 927      BINDING AFFINITY PREDICTED BY RF-SCORE:    0.00 PKD
ROOT
HETATM    1  C   UNL     1     -13.824  15.735  72.592  1.00  0.00    -0.518 C  
HETATM    2  N   UNL     1     -13.175  14.895  71.610  1.00  0.00    -0.332 N  
HETATM    3  N   UNL     1     -12.589  15.544  70.549  1.00  0.00    -0.435 NA 
HETATM    4  N   UNL     1     -12.004  14.890  69.655  1.00  0.00    -0.311 NA 
HETATM    5  C   UNL     1     -11.939  13.544  69.720  1.00  0.00    -0.340 A  
HETATM    6  C   UNL     1     -11.386  12.554  68.929  1.00  0.00    -0.297 A  
HETATM    7  N   UNL     1     -11.627  11.300  69.488  1.00  0.00    -0.297 NA 
HETATM    8  O   UNL     1     -13.676  12.873  72.702  1.00  0.00    -0.573 OA 
HETATM    9  C   UNL     1     -13.182  13.524  71.795  1.00  0.00    -0.404 C  
HETATM   10  C   UNL     1     -12.307  11.545  70.587  1.00  0.00    -0.364 A  
HETATM   11  N   UNL     1     -12.517  12.886  70.767  1.00  0.00    -0.330 N  
ENDROOT
BRANCH   6  12
HETATM   12  C   UNL     1     -10.651  12.738  67.683  1.00  0.00    -0.219 C  
HETATM   13  H2  UNL     1      -9.772  14.481  68.474  1.00  0.00     0.000 HD 
HETATM   14  O   UNL     1     -10.721  11.994  66.713  1.00  0.00    -0.227 OA 
HETATM   15  N   UNL     1      -9.849  13.844  67.681  1.00  0.00    -0.232 N  
HETATM   16  H1  UNL     1      -9.335  13.972  66.809  1.00  0.00     0.000 HD 
ENDBRANCH   6  12
TORSDOF 1
ENDMDL
MODEL       44
REMARK 921   NORMALIZED FREE ENERGY PREDICTED BY IDOCK:   -4.58 KCAL/MOL
REMARK 922        TOTAL FREE ENERGY PREDICTED BY IDOCK:   -5.13 KCAL/MOL
REMARK 923 INTER-LIGAND FREE ENERGY PREDICTED BY IDOCK:   -4.86 KCAL/MOL
REMARK 924 INTRA-LIGAND FREE ENERGY PREDICTED BY IDOCK:   -0.26 KCAL/MOL
REMARK 927      BINDING AFFINITY PREDICTED BY RF-SCORE:    0.00 PKD
ROOT
HETATM    1  C   UNL     1     -12.073  13.238  69.845  1.00  0.00    -0.308 C  
HETATM    2  N   UNL     1     -11.700  12.699  68.555  1.00  0.00    -0.314 N  
HETATM    3  N   UNL     1     -12.029  13.464  67.462  1.00  0.00    -0.359 NA 
HETATM    4  N   UNL     1     -11.741  13.071  66.308  1.00  0.00    -0.367 NA 
HETATM    5  C   UNL     1     -11.105  11.896  66.122  1.00  0.00    -0.326 A  
HETATM    6  C   UNL     1     -10.653  11.194  65.019  1.00  0.00    -0.273 A  
HETATM    7  N   UNL     1     -10.051  10.002  65.421  1.00  0.00    -0.296 NA 
HETATM    8  O   UNL     1     -10.726  10.742  69.421  1.00  0.00    -0.216 OA 
HETATM    9  C   UNL     1     -11.052  11.479  68.503  1.00  0.00    -0.236 C  
HETATM   10  C   UNL     1     -10.145  10.001  66.732  1.00  0.00    -0.226 A  
HETATM   11  N   UNL     1     -10.773  11.126  67.199  1.00  0.00    -0.245 N  
ENDROOT
BRANCH   6  12
HETATM   12  C   UNL     1     -10.764  11.594  63.622  1.00  0.00    -0.435 C  
HETATM   13  H2  UNL     1     -12.853  11.739  63.842  1.00  0.00     0.000 HD 
HETATM   14  O   UNL     1      -9.819  11.714  62.851  1.00  0.00    -0.367 OA 
HETATM   15  N   UNL     1     -12.048  11.832  63.222  1.00  0.00    -0.893 N  
HETATM   16  H1  UNL     1     -12.126  12.112  62.244  1.00  0.00     0.000 HD 
ENDBRANCH   6  12
TORSDOF 1
ENDMDL
MODEL       45
REMARK 921   NORMALIZED FREE ENERGY PREDICTED BY IDOCK:   -4.57 KCAL/MOL
REMARK 922        TOTAL FREE ENERGY PREDICTED BY IDOCK:   -5.11 KCAL/MOL
REMARK 923 INTER-LIGAND FREE ENERGY PREDICTED BY IDOCK:   -4.83 KCAL/MOL
REMARK 924 INTRA-LIGAND FREE ENERGY PREDICTED BY IDOCK:   -0.29 KCAL/MOL
REMARK 927      BINDING AFFINITY PREDICTED BY RF-SCORE:    0.00 PKD
ROOT
HETATM    1  C   UNL     1     -13.038  14.656  72.746  1.00  0.00    -0.486 C  
HETATM    2  N   UNL     1     -12.619  14.500  71.371  1.00  0.00    -0.320 N  
HETATM    3  N   UNL     1     -12.344  15.659  70.686  1.00  0.00    -0.413 NA 
HETATM    4  N   UNL     1     -11.973  15.613  69.490  1.00  0.00    -0.369 NA 
HETATM    5  C   UNL     1     -11.838  14.428  68.859  1.00  0.00    -0.320 A  
HETATM    6  C   UNL     1     -11.458  14.036  67.588  1.00  0.00    -0.334 A  
HETATM    7  N   UNL     1     -11.499  12.646  67.481  1.00  0.00    -0.318 NA 
HETATM    8  O   UNL     1     -12.747  12.151  71.380  1.00  0.00    -0.358 OA 
HETATM    9  C   UNL     1     -12.522  13.225  70.843  1.00  0.00    -0.342 C  
HETATM   10  C   UNL     1     -11.893  12.227  68.663  1.00  0.00    -0.305 A  
HETATM   11  N   UNL     1     -12.108  13.268  69.527  1.00  0.00    -0.290 N  
ENDROOT
BRANCH   6  12
HETATM   12  C   UNL     1     -11.065  14.905  66.486  1.00  0.00    -0.341 C  
HETATM   13  H2  UNL     1     -10.535  16.401  67.870  1.00  0.00     0.000 HD 
HETATM   14  O   UNL     1     -11.132  14.605  65.300  1.00  0.00    -0.324 OA 
HETATM   15  N   UNL     1     -10.601  16.124  66.890  1.00  0.00    -0.306 N  
HETATM   16  H1  UNL     1     -10.325  16.732  66.119  1.00  0.00     0.000 HD 
ENDBRANCH   6  12
TORSDOF 1
ENDMDL
MODEL       46
REMARK 921   NORMALIZED FREE ENERGY PREDICTED BY IDOCK:   -4.57 KCAL/MOL
REMARK 922        TOTAL FREE ENERGY PREDICTED BY IDOCK:   -5.11 KCAL/MOL
REMARK 923 INTER-LIGAND FREE ENERGY PREDICTED BY IDOCK:   -5.08 KCAL/MOL
REMARK 924 INTRA-LIGAND FREE ENERGY PREDICTED BY IDOCK:   -0.03 KCAL/MOL
REMARK 927      BINDING AFFINITY PREDICTED BY RF-SCORE:    0.00 PKD
ROOT
HETATM    1  C   UNL     1      -7.163  15.815  69.425  1.00  0.00    -0.217 C  
HETATM    2  N   UNL     1      -8.072  15.576  68.326  1.00  0.00    -0.131 N  
HETATM    3  N   UNL     1      -8.644  16.690  67.759  1.00  0.00    -0.190 NA 
HETATM    4  N   UNL     1      -9.442  16.572  66.801  1.00  0.00    -0.238 NA 
HETATM    5  C   UNL     1      -9.751  15.353  66.312  1.00  0.00    -0.299 A  
HETATM    6  C   UNL     1     -10.565  14.886  65.296  1.00  0.00    -0.401 A  
HETATM    7  N   UNL     1     -10.503  13.494  65.231  1.00  0.00    -0.320 NA 
HETATM    8  O   UNL     1      -7.840  13.236  68.369  1.00  0.00    -0.132 OA 
HETATM    9  C   UNL     1      -8.304  14.274  67.922  1.00  0.00    -0.162 C  
HETATM   10  C   UNL     1      -9.671  13.148  66.188  1.00  0.00    -0.248 A  
HETATM   11  N   UNL     1      -9.191  14.238  66.865  1.00  0.00    -0.244 N  
ENDROOT
BRANCH   6  12
HETATM   12  C   UNL     1     -11.387  15.685  64.396  1.00  0.00    -0.263 C  
HETATM   13  H2  UNL     1     -12.580  13.995  64.004  1.00  0.00     0.000 HD 
HETATM   14  O   UNL     1     -11.208  16.873  64.154  1.00  0.00    -1.176 OA 
HETATM   15  N   UNL     1     -12.409  14.984  63.821  1.00  0.00    -1.058 N  
HETATM   16  H1  UNL     1     -12.984  15.544  63.192  1.00  0.00     0.000 HD 
ENDBRANCH   6  12
TORSDOF 1
ENDMDL
MODEL       47
REMARK 921   NORMALIZED FREE ENERGY PREDICTED BY IDOCK:   -4.56 KCAL/MOL
REMARK 922        TOTAL FREE ENERGY PREDICTED BY IDOCK:   -5.10 KCAL/MOL
REMARK 923 INTER-LIGAND FREE ENERGY PREDICTED BY IDOCK:   -4.82 KCAL/MOL
REMARK 924 INTRA-LIGAND FREE ENERGY PREDICTED BY IDOCK:   -0.28 KCAL/MOL
REMARK 927      BINDING AFFINITY PREDICTED BY RF-SCORE:    0.00 PKD
ROOT
HETATM    1  C   UNL     1     -10.305  14.393  66.097  1.00  0.00    -0.298 C  
HETATM    2  N   UNL     1     -10.964  14.289  67.380  1.00  0.00    -0.289 N  
HETATM    3  N   UNL     1     -11.275  13.017  67.800  1.00  0.00    -0.265 NA 
HETATM    4  N   UNL     1     -11.846  12.838  68.901  1.00  0.00    -0.316 NA 
HETATM    5  C   UNL     1     -12.161  13.887  69.689  1.00  0.00    -0.349 A  
HETATM    6  C   UNL     1     -12.769  14.034  70.922  1.00  0.00    -0.350 A  
HETATM    7  N   UNL     1     -12.839  15.383  71.267  1.00  0.00    -0.417 NA 
HETATM    8  O   UNL     1     -10.990  16.604  67.789  1.00  0.00    -0.320 OA 
HETATM    9  C   UNL     1     -11.232  15.445  68.089  1.00  0.00    -0.325 C  
HETATM   10  C   UNL     1     -12.283  16.019  70.259  1.00  0.00    -0.094 A  
HETATM   11  N   UNL     1     -11.858  15.155  69.284  1.00  0.00    -0.319 N  
ENDROOT
BRANCH   6  12
HETATM   12  C   UNL     1     -13.281  12.970  71.777  1.00  0.00    -0.392 C  
HETATM   13  H2  UNL     1     -12.126  11.571  70.707  1.00  0.00     0.000 HD 
HETATM   14  O   UNL     1     -14.077  13.131  72.694  1.00  0.00    -0.701 OA 
HETATM   15  N   UNL     1     -12.789  11.734  71.466  1.00  0.00    -0.389 N  
HETATM   16  H1  UNL     1     -13.147  10.990  72.064  1.00  0.00     0.000 HD 
ENDBRANCH   6  12
TORSDOF 1
ENDMDL
MODEL       48
REMARK 921   NORMALIZED FREE ENERGY PREDICTED BY IDOCK:   -4.49 KCAL/MOL
REMARK 922        TOTAL FREE ENERGY PREDICTED BY IDOCK:   -5.03 KCAL/MOL
REMARK 923 INTER-LIGAND FREE ENERGY PREDICTED BY IDOCK:   -4.74 KCAL/MOL
REMARK 924 INTRA-LIGAND FREE ENERGY PREDICTED BY IDOCK:   -0.29 KCAL/MOL
REMARK 927      BINDING AFFINITY PREDICTED BY RF-SCORE:    0.00 PKD
ROOT
HETATM    1  C   UNL     1     -12.127  14.542  64.238  1.00  0.00    -0.425 C  
HETATM    2  N   UNL     1     -11.764  13.419  65.074  1.00  0.00    -0.314 N  
HETATM    3  N   UNL     1     -12.230  13.450  66.367  1.00  0.00    -0.399 NA 
HETATM    4  N   UNL     1     -11.962  12.515  67.157  1.00  0.00    -0.516 NA 
HETATM    5  C   UNL     1     -11.215  11.468  66.752  1.00  0.00    -0.285 A  
HETATM    6  C   UNL     1     -10.754  10.309  67.349  1.00  0.00    -0.281 A  
HETATM    7  N   UNL     1     -10.004   9.564  66.440  1.00  0.00    -0.256 NA 
HETATM    8  O   UNL     1     -10.537  12.305  63.405  1.00  0.00    -0.445 OA 
HETATM    9  C   UNL     1     -10.989  12.408  64.536  1.00  0.00    -0.316 C  
HETATM   10  C   UNL     1     -10.024  10.268  65.329  1.00  0.00    -0.317 A  
HETATM   11  N   UNL     1     -10.744  11.424  65.472  1.00  0.00    -0.272 N  
ENDROOT
BRANCH   6  12
HETATM   12  C   UNL     1     -10.986   9.880  68.723  1.00  0.00    -0.179 C  
HETATM   13  H2  UNL     1     -12.805  10.942  68.734  1.00  0.00     0.000 HD 
HETATM   14  O   UNL     1     -10.227   9.171  69.373  1.00  0.00    -0.196 OA 
HETATM   15  N   UNL     1     -12.156  10.349  69.251  1.00  0.00    -0.537 N  
HETATM   16  H1  UNL     1     -12.318  10.049  70.213  1.00  0.00     0.000 HD 
ENDBRANCH   6  12
TORSDOF 1
ENDMDL
MODEL       49
REMARK 921   NORMALIZED FREE ENERGY PREDICTED BY IDOCK:   -4.49 KCAL/MOL
REMARK 922        TOTAL FREE ENERGY PREDICTED BY IDOCK:   -5.03 KCAL/MOL
REMARK 923 INTER-LIGAND FREE ENERGY PREDICTED BY IDOCK:   -4.73 KCAL/MOL
REMARK 924 INTRA-LIGAND FREE ENERGY PREDICTED BY IDOCK:   -0.30 KCAL/MOL
REMARK 927      BINDING AFFINITY PREDICTED BY RF-SCORE:    0.00 PKD
ROOT
HETATM    1  C   UNL     1     -11.322  13.570  64.151  1.00  0.00    -0.340 C  
HETATM    2  N   UNL     1     -11.425  13.060  65.500  1.00  0.00    -0.311 N  
HETATM    3  N   UNL     1     -11.999  13.901  66.424  1.00  0.00    -0.414 NA 
HETATM    4  N   UNL     1     -12.127  13.535  67.615  1.00  0.00    -0.325 NA 
HETATM    5  C   UNL     1     -11.707  12.315  68.008  1.00  0.00    -0.356 A  
HETATM    6  C   UNL     1     -11.703  11.622  69.205  1.00  0.00    -0.326 A  
HETATM    7  N   UNL     1     -11.129  10.363  69.030  1.00  0.00    -0.237 NA 
HETATM    8  O   UNL     1     -10.433  10.984  65.013  1.00  0.00    -0.290 OA 
HETATM    9  C   UNL     1     -10.952  11.789  65.771  1.00  0.00    -0.301 C  
HETATM   10  C   UNL     1     -10.803  10.314  67.757  1.00  0.00    -0.292 A  
HETATM   11  N   UNL     1     -11.135  11.470  67.101  1.00  0.00    -0.282 N  
ENDROOT
BRANCH   6  12
HETATM   12  C   UNL     1     -12.209  12.091  70.489  1.00  0.00    -0.325 C  
HETATM   13  H2  UNL     1     -11.559  14.039  70.020  1.00  0.00     0.000 HD 
HETATM   14  O   UNL     1     -12.758  11.384  71.325  1.00  0.00    -0.405 OA 
HETATM   15  N   UNL     1     -12.015  13.427  70.698  1.00  0.00    -0.526 N  
HETATM   16  H1  UNL     1     -12.369  13.755  71.596  1.00  0.00     0.000 HD 
ENDBRANCH   6  12
TORSDOF 1
ENDMDL
MODEL       50
REMARK 921   NORMALIZED FREE ENERGY PREDICTED BY IDOCK:   -4.49 KCAL/MOL
REMARK 922        TOTAL FREE ENERGY PREDICTED BY IDOCK:   -5.03 KCAL/MOL
REMARK 923 INTER-LIGAND FREE ENERGY PREDICTED BY IDOCK:   -4.73 KCAL/MOL
REMARK 924 INTRA-LIGAND FREE ENERGY PREDICTED BY IDOCK:   -0.29 KCAL/MOL
REMARK 927      BINDING AFFINITY PREDICTED BY RF-SCORE:    0.00 PKD
ROOT
HETATM    1  C   UNL     1     -10.730   8.717  70.003  1.00  0.00    -0.228 C  
HETATM    2  N   UNL     1     -10.933   9.757  69.018  1.00  0.00    -0.198 N  
HETATM    3  N   UNL     1     -11.807  10.759  69.367  1.00  0.00    -0.304 NA 
HETATM    4  N   UNL     1     -12.038  11.699  68.572  1.00  0.00    -0.499 NA 
HETATM    5  C   UNL     1     -11.435  11.742  67.367  1.00  0.00    -0.305 A  
HETATM    6  C   UNL     1     -11.465  12.610  66.290  1.00  0.00    -0.364 A  
HETATM    7  N   UNL     1     -10.621  12.153  65.279  1.00  0.00    -0.271 NA 
HETATM    8  O   UNL     1      -9.465   8.831  67.432  1.00  0.00    -0.140 OA 
HETATM    9  C   UNL     1     -10.253   9.681  67.817  1.00  0.00    -0.205 C  
HETATM   10  C   UNL     1     -10.103  11.039  65.749  1.00  0.00    -0.252 A  
HETATM   11  N   UNL     1     -10.565  10.753  67.007  1.00  0.00    -0.248 N  
ENDROOT
BRANCH   6  12
HETATM   12  C   UNL     1     -12.246  13.836  66.176  1.00  0.00    -0.459 C  
HETATM   13  H2  UNL     1     -11.607  14.407  68.100  1.00  0.00     0.000 HD 
HETATM   14  O   UNL     1     -12.923  14.146  65.204  1.00  0.00    -0.729 OA 
HETATM   15  N   UNL     1     -12.163  14.641  67.277  1.00  0.00    -0.531 N  
HETATM   16  H1  UNL     1     -12.709  15.499  67.196  1.00  0.00     0.000 HD 
ENDBRANCH   6  12
TORSDOF 1
ENDMDL
MODEL       51
REMARK 921   NORMALIZED FREE ENERGY PREDICTED BY IDOCK:   -4.45 KCAL/MOL
REMARK 922        TOTAL FREE ENERGY PREDICTED BY IDOCK:   -4.99 KCAL/MOL
REMARK 923 INTER-LIGAND FREE ENERGY PREDICTED BY IDOCK:   -4.71 KCAL/MOL
REMARK 924 INTRA-LIGAND FREE ENERGY PREDICTED BY IDOCK:   -0.28 KCAL/MOL
REMARK 927      BINDING AFFINITY PREDICTED BY RF-SCORE:    0.00 PKD
ROOT
HETATM    1  C   UNL     1      -8.485  19.566  67.552  1.00  0.00    -0.302 C  
HETATM    2  N   UNL     1      -9.144  18.280  67.619  1.00  0.00    -0.261 N  
HETATM    3  N   UNL     1     -10.037  18.110  68.650  1.00  0.00    -0.387 NA 
HETATM    4  N   UNL     1     -10.653  17.027  68.778  1.00  0.00    -0.347 NA 
HETATM    5  C   UNL     1     -10.449  16.014  67.911  1.00  0.00    -0.292 A  
HETATM    6  C   UNL     1     -10.949  14.732  67.770  1.00  0.00    -0.291 A  
HETATM    7  N   UNL     1     -10.372  14.108  66.665  1.00  0.00    -0.273 NA 
HETATM    8  O   UNL     1      -8.067  17.396  65.725  1.00  0.00    -0.543 OA 
HETATM    9  C   UNL     1      -8.843  17.325  66.665  1.00  0.00    -0.255 C  
HETATM   10  C   UNL     1      -9.549  15.003  66.164  1.00  0.00    -0.314 A  
HETATM   11  N   UNL     1      -9.564  16.169  66.883  1.00  0.00    -0.225 N  
ENDROOT
BRANCH   6  12
HETATM   12  C   UNL     1     -11.935  14.080  68.623  1.00  0.00    -0.354 C  
HETATM   13  H2  UNL     1     -12.512  15.961  69.374  1.00  0.00     0.000 HD 
HETATM   14  O   UNL     1     -12.129  12.871  68.671  1.00  0.00    -0.286 OA 
HETATM   15  N   UNL     1     -12.653  14.951  69.394  1.00  0.00    -0.583 N  
HETATM   16  H1  UNL     1     -13.342  14.494  69.990  1.00  0.00     0.000 HD 
ENDBRANCH   6  12
TORSDOF 1
ENDMDL
MODEL       52
REMARK 921   NORMALIZED FREE ENERGY PREDICTED BY IDOCK:   -4.45 KCAL/MOL
REMARK 922        TOTAL FREE ENERGY PREDICTED BY IDOCK:   -4.99 KCAL/MOL
REMARK 923 INTER-LIGAND FREE ENERGY PREDICTED BY IDOCK:   -4.72 KCAL/MOL
REMARK 924 INTRA-LIGAND FREE ENERGY PREDICTED BY IDOCK:   -0.27 KCAL/MOL
REMARK 927      BINDING AFFINITY PREDICTED BY RF-SCORE:    0.00 PKD
ROOT
HETATM    1  C   UNL     1     -10.781  16.871  67.726  1.00  0.00    -0.315 C  
HETATM    2  N   UNL     1     -11.207  15.684  68.435  1.00  0.00    -0.334 N  
HETATM    3  N   UNL     1     -11.766  15.887  69.674  1.00  0.00    -0.334 NA 
HETATM    4  N   UNL     1     -12.163  14.912  70.354  1.00  0.00    -0.313 NA 
HETATM    5  C   UNL     1     -12.050  13.654  69.881  1.00  0.00    -0.341 A  
HETATM    6  C   UNL     1     -12.380  12.398  70.358  1.00  0.00    -0.227 A  
HETATM    7  N   UNL     1     -12.027  11.422  69.426  1.00  0.00    -0.336 NA 
HETATM    8  O   UNL     1     -10.547  14.186  66.747  1.00  0.00    -0.275 OA 
HETATM    9  C   UNL     1     -11.031  14.450  67.837  1.00  0.00    -0.262 C  
HETATM   10  C   UNL     1     -11.502  12.088  68.421  1.00  0.00    -0.301 A  
HETATM   11  N   UNL     1     -11.496  13.438  68.652  1.00  0.00    -0.286 N  
ENDROOT
BRANCH   6  12
HETATM   12  C   UNL     1     -13.004  12.084  71.637  1.00  0.00    -0.334 C  
HETATM   13  H2  UNL     1     -13.293  14.141  71.987  1.00  0.00     0.000 HD 
HETATM   14  O   UNL     1     -13.162  10.953  72.080  1.00  0.00    -0.492 OA 
HETATM   15  N   UNL     1     -13.413  13.188  72.331  1.00  0.00    -0.573 N  
HETATM   16  H1  UNL     1     -13.850  12.968  73.226  1.00  0.00     0.000 HD 
ENDBRANCH   6  12
TORSDOF 1
ENDMDL
MODEL       53
REMARK 921   NORMALIZED FREE ENERGY PREDICTED BY IDOCK:   -4.44 KCAL/MOL
REMARK 922        TOTAL FREE ENERGY PREDICTED BY IDOCK:   -4.98 KCAL/MOL
REMARK 923 INTER-LIGAND FREE ENERGY PREDICTED BY IDOCK:   -4.72 KCAL/MOL
REMARK 924 INTRA-LIGAND FREE ENERGY PREDICTED BY IDOCK:   -0.26 KCAL/MOL
REMARK 927      BINDING AFFINITY PREDICTED BY RF-SCORE:    0.00 PKD
ROOT
HETATM    1  C   UNL     1     -12.069  13.453  70.377  1.00  0.00    -0.333 C  
HETATM    2  N   UNL     1     -12.053  12.024  70.601  1.00  0.00    -0.347 N  
HETATM    3  N   UNL     1     -11.199  11.296  69.807  1.00  0.00    -0.247 NA 
HETATM    4  N   UNL     1     -11.122  10.053  69.938  1.00  0.00    -0.270 NA 
HETATM    5  C   UNL     1     -11.873   9.412  70.857  1.00  0.00    -0.294 A  
HETATM    6  C   UNL     1     -12.024   8.093  71.249  1.00  0.00    -0.291 A  
HETATM    7  N   UNL     1     -12.963   8.000  72.274  1.00  0.00    -0.209 NA 
HETATM    8  O   UNL     1     -13.658  12.065  72.320  1.00  0.00    -0.397 OA 
HETATM    9  C   UNL     1     -12.875  11.491  71.577  1.00  0.00    -0.380 C  
HETATM   10  C   UNL     1     -13.359   9.237  72.484  1.00  0.00    -0.391 A  
HETATM   11  N   UNL     1     -12.726  10.122  71.652  1.00  0.00    -0.414 N  
ENDROOT
BRANCH   6  12
HETATM   12  C   UNL     1     -11.328   6.934  70.703  1.00  0.00    -0.320 C  
HETATM   13  H2  UNL     1     -12.070   7.405  68.789  1.00  0.00     0.000 HD 
HETATM   14  O   UNL     1     -10.644   6.157  71.357  1.00  0.00    -0.227 OA 
HETATM   15  N   UNL     1     -11.505   6.774  69.358  1.00  0.00    -0.598 N  
HETATM   16  H1  UNL     1     -11.018   5.963  68.977  1.00  0.00     0.000 HD 
ENDBRANCH   6  12
TORSDOF 1
ENDMDL
MODEL       54
REMARK 921   NORMALIZED FREE ENERGY PREDICTED BY IDOCK:   -4.43 KCAL/MOL
REMARK 922        TOTAL FREE ENERGY PREDICTED BY IDOCK:   -4.97 KCAL/MOL
REMARK 923 INTER-LIGAND FREE ENERGY PREDICTED BY IDOCK:   -4.85 KCAL/MOL
REMARK 924 INTRA-LIGAND FREE ENERGY PREDICTED BY IDOCK:   -0.12 KCAL/MOL
REMARK 927      BINDING AFFINITY PREDICTED BY RF-SCORE:    0.00 PKD
ROOT
HETATM    1  C   UNL     1     -12.947  13.977  72.639  1.00  0.00    -0.387 C  
HETATM    2  N   UNL     1     -12.431  14.341  71.338  1.00  0.00    -0.344 N  
HETATM    3  N   UNL     1     -12.577  13.403  70.344  1.00  0.00    -0.220 NA 
HETATM    4  N   UNL     1     -12.159  13.639  69.187  1.00  0.00    -0.343 NA 
HETATM    5  C   UNL     1     -11.561  14.814  68.900  1.00  0.00    -0.313 A  
HETATM    6  C   UNL     1     -11.007  15.376  67.764  1.00  0.00    -0.311 A  
HETATM    7  N   UNL     1     -10.518  16.651  68.048  1.00  0.00    -0.306 NA 
HETATM    8  O   UNL     1     -11.670  16.464  72.003  1.00  0.00    -0.499 OA 
HETATM    9  C   UNL     1     -11.838  15.579  71.177  1.00  0.00    -0.387 C  
HETATM   10  C   UNL     1     -10.779  16.837  69.323  1.00  0.00    -0.324 A  
HETATM   11  N   UNL     1     -11.409  15.755  69.878  1.00  0.00    -0.320 N  
ENDROOT
BRANCH   6  12
HETATM   12  C   UNL     1     -10.921  14.770  66.441  1.00  0.00    -0.331 C  
HETATM   13  H2  UNL     1      -8.824  14.955  66.508  1.00  0.00     0.000 HD 
HETATM   14  O   UNL     1     -11.880  14.395  65.779  1.00  0.00    -0.363 OA 
HETATM   15  N   UNL     1      -9.641  14.650  65.978  1.00  0.00    -0.405 N  
HETATM   16  H1  UNL     1      -9.580  14.226  65.053  1.00  0.00     0.000 HD 
ENDBRANCH   6  12
TORSDOF 1
ENDMDL
MODEL       55
REMARK 921   NORMALIZED FREE ENERGY PREDICTED BY IDOCK:   -4.43 KCAL/MOL
REMARK 922        TOTAL FREE ENERGY PREDICTED BY IDOCK:   -4.96 KCAL/MOL
REMARK 923 INTER-LIGAND FREE ENERGY PREDICTED BY IDOCK:   -4.66 KCAL/MOL
REMARK 924 INTRA-LIGAND FREE ENERGY PREDICTED BY IDOCK:   -0.30 KCAL/MOL
REMARK 927      BINDING AFFINITY PREDICTED BY RF-SCORE:    0.00 PKD
ROOT
HETATM    1  C   UNL     1      -9.255   9.918  63.334  1.00  0.00    -0.240 C  
HETATM    2  N   UNL     1      -9.913  10.532  64.466  1.00  0.00    -0.336 N  
HETATM    3  N   UNL     1      -9.760   9.895  65.675  1.00  0.00    -0.261 NA 
HETATM    4  N   UNL     1     -10.297  10.361  66.706  1.00  0.00    -0.232 NA 
HETATM    5  C   UNL     1     -11.030  11.492  66.647  1.00  0.00    -0.296 A  
HETATM    6  C   UNL     1     -11.731  12.251  67.566  1.00  0.00    -0.332 A  
HETATM    7  N   UNL     1     -12.318  13.348  66.937  1.00  0.00    -0.279 NA 
HETATM    8  O   UNL     1     -10.822  12.318  63.235  1.00  0.00    -0.435 OA 
HETATM    9  C   UNL     1     -10.638  11.693  64.269  1.00  0.00    -0.340 C  
HETATM   10  C   UNL     1     -11.970  13.240  65.674  1.00  0.00    -0.412 A  
HETATM   11  N   UNL     1     -11.191  12.135  65.453  1.00  0.00    -0.324 N  
ENDROOT
BRANCH   6  12
HETATM   12  C   UNL     1     -11.870  11.988  68.993  1.00  0.00    -0.315 C  
HETATM   13  H2  UNL     1     -12.063   9.931  68.583  1.00  0.00     0.000 HD 
HETATM   14  O   UNL     1     -11.845  12.844  69.869  1.00  0.00    -0.323 OA 
HETATM   15  N   UNL     1     -12.038  10.665  69.291  1.00  0.00    -0.536 N  
HETATM   16  H1  UNL     1     -12.134  10.481  70.290  1.00  0.00     0.000 HD 
ENDBRANCH   6  12
TORSDOF 1
ENDMDL
MODEL       56
REMARK 921   NORMALIZED FREE ENERGY PREDICTED BY IDOCK:   -4.41 KCAL/MOL
REMARK 922        TOTAL FREE ENERGY PREDICTED BY IDOCK:   -4.94 KCAL/MOL
REMARK 923 INTER-LIGAND FREE ENERGY PREDICTED BY IDOCK:   -4.65 KCAL/MOL
REMARK 924 INTRA-LIGAND FREE ENERGY PREDICTED BY IDOCK:   -0.29 KCAL/MOL
REMARK 927      BINDING AFFINITY PREDICTED BY RF-SCORE:    0.00 PKD
ROOT
HETATM    1  C   UNL     1     -11.760   7.707  70.781  1.00  0.00    -0.239 C  
HETATM    2  N   UNL     1     -11.871   9.147  70.698  1.00  0.00    -0.228 N  
HETATM    3  N   UNL     1     -11.099   9.760  69.739  1.00  0.00    -0.244 NA 
HETATM    4  N   UNL     1     -11.138  11.004  69.600  1.00  0.00    -0.261 NA 
HETATM    5  C   UNL     1     -11.934  11.758  70.384  1.00  0.00    -0.332 A  
HETATM    6  C   UNL     1     -12.206  13.111  70.488  1.00  0.00    -0.328 A  
HETATM    7  N   UNL     1     -13.136  13.339  71.502  1.00  0.00    -0.355 NA 
HETATM    8  O   UNL     1     -13.441   9.335  72.438  1.00  0.00    -0.451 OA 
HETATM    9  C   UNL     1     -12.726   9.802  71.565  1.00  0.00    -0.406 C  
HETATM   10  C   UNL     1     -13.407  12.147  71.986  1.00  0.00    -0.365 A  
HETATM   11  N   UNL     1     -12.706  11.163  71.341  1.00  0.00    -0.421 N  
ENDROOT
BRANCH   6  12
HETATM   12  C   UNL     1     -11.634  14.182  69.682  1.00  0.00    -0.292 C  
HETATM   13  H2  UNL     1      -9.976  12.956  69.252  1.00  0.00     0.000 HD 
HETATM   14  O   UNL     1     -12.152  15.278  69.504  1.00  0.00    -0.318 OA 
HETATM   15  N   UNL     1     -10.431  13.860  69.120  1.00  0.00    -0.415 N  
HETATM   16  H1  UNL     1     -10.031  14.610  68.556  1.00  0.00     0.000 HD 
ENDBRANCH   6  12
TORSDOF 1
ENDMDL
MODEL       57
REMARK 921   NORMALIZED FREE ENERGY PREDICTED BY IDOCK:   -4.38 KCAL/MOL
REMARK 922        TOTAL FREE ENERGY PREDICTED BY IDOCK:   -4.91 KCAL/MOL
REMARK 923 INTER-LIGAND FREE ENERGY PREDICTED BY IDOCK:   -4.88 KCAL/MOL
REMARK 924 INTRA-LIGAND FREE ENERGY PREDICTED BY IDOCK:   -0.03 KCAL/MOL
REMARK 927      BINDING AFFINITY PREDICTED BY RF-SCORE:    0.00 PKD
ROOT
HETATM    1  C   UNL     1      -8.139  13.845  68.455  1.00  0.00    -0.145 C  
HETATM    2  N   UNL     1      -8.942  13.382  67.345  1.00  0.00    -0.205 N  
HETATM    3  N   UNL     1      -9.937  14.231  66.920  1.00  0.00    -0.257 NA 
HETATM    4  N   UNL     1     -10.677  13.907  65.963  1.00  0.00    -0.284 NA 
HETATM    5  C   UNL     1     -10.510  12.724  65.336  1.00  0.00    -0.286 A  
HETATM    6  C   UNL     1     -11.131  12.082  64.280  1.00  0.00    -0.351 A  
HETATM    7  N   UNL     1     -10.532  10.844  64.050  1.00  0.00    -0.359 NA 
HETATM    8  O   UNL     1      -7.809  11.335  67.108  1.00  0.00    -0.136 OA 
HETATM    9  C   UNL     1      -8.668  12.145  66.792  1.00  0.00    -0.183 C  
HETATM   10  C   UNL     1      -9.578  10.758  64.951  1.00  0.00    -0.256 A  
HETATM   11  N   UNL     1      -9.527  11.871  65.748  1.00  0.00    -0.225 N  
ENDROOT
BRANCH   6  12
HETATM   12  C   UNL     1     -12.250  12.580  63.490  1.00  0.00    -0.558 C  
HETATM   13  H2  UNL     1     -12.723  10.603  62.937  1.00  0.00     0.000 HD 
HETATM   14  O   UNL     1     -12.557  13.760  63.377  1.00  0.00    -0.842 OA 
HETATM   15  N   UNL     1     -12.957  11.594  62.861  1.00  0.00    -0.792 N  
HETATM   16  H1  UNL     1     -13.740  11.942  62.309  1.00  0.00     0.000 HD 
ENDBRANCH   6  12
TORSDOF 1
ENDMDL
MODEL       58
REMARK 921   NORMALIZED FREE ENERGY PREDICTED BY IDOCK:   -4.37 KCAL/MOL
REMARK 922        TOTAL FREE ENERGY PREDICTED BY IDOCK:   -4.90 KCAL/MOL
REMARK 923 INTER-LIGAND FREE ENERGY PREDICTED BY IDOCK:   -4.63 KCAL/MOL
REMARK 924 INTRA-LIGAND FREE ENERGY PREDICTED BY IDOCK:   -0.28 KCAL/MOL
REMARK 927      BINDING AFFINITY PREDICTED BY RF-SCORE:    0.00 PKD
ROOT
HETATM    1  C   UNL     1      -9.331   6.859  69.445  1.00  0.00    -0.146 C  
HETATM    2  N   UNL     1     -10.215   7.871  69.981  1.00  0.00    -0.203 N  
HETATM    3  N   UNL     1      -9.868   9.176  69.725  1.00  0.00    -0.173 NA 
HETATM    4  N   UNL     1     -10.581  10.113  70.152  1.00  0.00    -0.285 NA 
HETATM    5  C   UNL     1     -11.696   9.857  70.867  1.00  0.00    -0.364 A  
HETATM    6  C   UNL     1     -12.673  10.633  71.464  1.00  0.00    -0.444 A  
HETATM    7  N   UNL     1     -13.618   9.820  72.089  1.00  0.00    -0.398 NA 
HETATM    8  O   UNL     1     -11.703   6.342  70.971  1.00  0.00    -0.333 OA 
HETATM    9  C   UNL     1     -11.327   7.473  70.700  1.00  0.00    -0.281 C  
HETATM   10  C   UNL     1     -13.208   8.590  71.865  1.00  0.00    -0.369 A  
HETATM   11  N   UNL     1     -12.052   8.565  71.130  1.00  0.00    -0.279 N  
ENDROOT
BRANCH   6  12
HETATM   12  C   UNL     1     -12.752  12.088  71.470  1.00  0.00    -0.255 C  
HETATM   13  H2  UNL     1     -11.354  12.158  69.897  1.00  0.00     0.000 HD 
HETATM   14  O   UNL     1     -13.456  12.748  72.225  1.00  0.00    -0.565 OA 
HETATM   15  N   UNL     1     -11.951  12.683  70.537  1.00  0.00    -0.533 N  
HETATM   16  H1  UNL     1     -12.006  13.701  70.542  1.00  0.00     0.000 HD 
ENDBRANCH   6  12
TORSDOF 1
ENDMDL
MODEL       59
REMARK 921   NORMALIZED FREE ENERGY PREDICTED BY IDOCK:   -4.35 KCAL/MOL
REMARK 922        TOTAL FREE ENERGY PREDICTED BY IDOCK:   -4.88 KCAL/MOL
REMARK 923 INTER-LIGAND FREE ENERGY PREDICTED BY IDOCK:   -4.60 KCAL/MOL
REMARK 924 INTRA-LIGAND FREE ENERGY PREDICTED BY IDOCK:   -0.28 KCAL/MOL
REMARK 927      BINDING AFFINITY PREDICTED BY RF-SCORE:    0.00 PKD
ROOT
HETATM    1  C   UNL     1     -13.637  13.601  72.461  1.00  0.00    -0.570 C  
HETATM    2  N   UNL     1     -12.966  12.942  71.363  1.00  0.00    -0.328 N  
HETATM    3  N   UNL     1     -12.958  11.568  71.395  1.00  0.00    -0.404 NA 
HETATM    4  N   UNL     1     -12.399  10.919  70.481  1.00  0.00    -0.346 NA 
HETATM    5  C   UNL     1     -11.799  11.557  69.454  1.00  0.00    -0.350 A  
HETATM    6  C   UNL     1     -11.116  11.155  68.320  1.00  0.00    -0.251 A  
HETATM    7  N   UNL     1     -10.700  12.268  67.590  1.00  0.00    -0.215 NA 
HETATM    8  O   UNL     1     -12.350  14.932  70.271  1.00  0.00    -0.312 OA 
HETATM    9  C   UNL     1     -12.387  13.715  70.373  1.00  0.00    -0.345 C  
HETATM   10  C   UNL     1     -11.129  13.304  68.278  1.00  0.00    -0.266 A  
HETATM   11  N   UNL     1     -11.798  12.921  69.410  1.00  0.00    -0.316 N  
ENDROOT
BRANCH   6  12
HETATM   12  C   UNL     1     -10.843   9.786  67.902  1.00  0.00    -0.242 C  
HETATM   13  H2  UNL     1     -11.144   9.135  69.882  1.00  0.00     0.000 HD 
HETATM   14  O   UNL     1     -10.568   9.445  66.758  1.00  0.00    -0.218 OA 
HETATM   15  N   UNL     1     -10.919   8.878  68.921  1.00  0.00    -0.435 N  
HETATM   16  H1  UNL     1     -10.728   7.920  68.628  1.00  0.00     0.000 HD 
ENDBRANCH   6  12
TORSDOF 1
ENDMDL
MODEL       60
REMARK 921   NORMALIZED FREE ENERGY PREDICTED BY IDOCK:   -4.35 KCAL/MOL
REMARK 922        TOTAL FREE ENERGY PREDICTED BY IDOCK:   -4.87 KCAL/MOL
REMARK 923 INTER-LIGAND FREE ENERGY PREDICTED BY IDOCK:   -4.58 KCAL/MOL
REMARK 924 INTRA-LIGAND FREE ENERGY PREDICTED BY IDOCK:   -0.29 KCAL/MOL
REMARK 927      BINDING AFFINITY PREDICTED BY RF-SCORE:    0.00 PKD
ROOT
HETATM    1  C   UNL     1     -10.327  11.155  65.324  1.00  0.00    -0.277 C  
HETATM    2  N   UNL     1     -10.789  11.686  66.587  1.00  0.00    -0.271 N  
HETATM    3  N   UNL     1     -10.918  13.052  66.660  1.00  0.00    -0.275 NA 
HETATM    4  N   UNL     1     -11.315  13.593  67.718  1.00  0.00    -0.291 NA 
HETATM    5  C   UNL     1     -11.621  12.844  68.798  1.00  0.00    -0.311 A  
HETATM    6  C   UNL     1     -12.073  13.114  70.077  1.00  0.00    -0.305 A  
HETATM    7  N   UNL     1     -12.222  11.928  70.795  1.00  0.00    -0.363 NA 
HETATM    8  O   UNL     1     -10.978   9.589  67.635  1.00  0.00    -0.248 OA 
HETATM    9  C   UNL     1     -11.066  10.807  67.619  1.00  0.00    -0.319 C  
HETATM   10  C   UNL     1     -11.865  10.979  69.958  1.00  0.00    -0.355 A  
HETATM   11  N   UNL     1     -11.496  11.486  68.741  1.00  0.00    -0.258 N  
ENDROOT
BRANCH   6  12
HETATM   12  C   UNL     1     -12.367  14.425  70.643  1.00  0.00    -0.351 C  
HETATM   13  H2  UNL     1     -12.840  15.136  68.717  1.00  0.00     0.000 HD 
HETATM   14  O   UNL     1     -12.280  14.710  71.831  1.00  0.00    -0.335 OA 
HETATM   15  N   UNL     1     -12.760  15.346  69.713  1.00  0.00    -0.623 N  
HETATM   16  H1  UNL     1     -12.966  16.263  70.109  1.00  0.00     0.000 HD 
ENDBRANCH   6  12
TORSDOF 1
ENDMDL
MODEL       61
REMARK 921   NORMALIZED FREE ENERGY PREDICTED BY IDOCK:   -4.31 KCAL/MOL
REMARK 922        TOTAL FREE ENERGY PREDICTED BY IDOCK:   -4.84 KCAL/MOL
REMARK 923 INTER-LIGAND FREE ENERGY PREDICTED BY IDOCK:   -4.72 KCAL/MOL
REMARK 924 INTRA-LIGAND FREE ENERGY PREDICTED BY IDOCK:   -0.12 KCAL/MOL
REMARK 927      BINDING AFFINITY PREDICTED BY RF-SCORE:    0.00 PKD
ROOT
HETATM    1  C   UNL     1      -7.879   7.186  73.149  1.00  0.00    -0.096 C  
HETATM    2  N   UNL     1      -8.933   7.960  72.531  1.00  0.00    -0.155 N  
HETATM    3  N   UNL     1      -8.537   8.877  71.586  1.00  0.00    -0.337 NA 
HETATM    4  N   UNL     1      -9.387   9.587  71.002  1.00  0.00    -0.195 NA 
HETATM    5  C   UNL     1     -10.699   9.464  71.289  1.00  0.00    -0.350 A  
HETATM    6  C   UNL     1     -11.858  10.071  70.841  1.00  0.00    -0.368 A  
HETATM    7  N   UNL     1     -12.965   9.541  71.501  1.00  0.00    -0.363 NA 
HETATM    8  O   UNL     1     -10.674   6.947  73.744  1.00  0.00    -0.347 OA 
HETATM    9  C   UNL     1     -10.241   7.736  72.918  1.00  0.00    -0.315 C  
HETATM   10  C   UNL     1     -12.470   8.639  72.321  1.00  0.00    -0.395 A  
HETATM   11  N   UNL     1     -11.106   8.558  72.225  1.00  0.00    -0.362 N  
ENDROOT
BRANCH   6  12
HETATM   12  C   UNL     1     -11.964  11.116  69.830  1.00  0.00    -0.363 C  
HETATM   13  H2  UNL     1     -11.631  12.570  71.318  1.00  0.00     0.000 HD 
HETATM   14  O   UNL     1     -12.174  10.920  68.640  1.00  0.00    -0.533 OA 
HETATM   15  N   UNL     1     -11.806  12.378  70.331  1.00  0.00    -0.541 N  
HETATM   16  H1  UNL     1     -11.880  13.109  69.624  1.00  0.00     0.000 HD 
ENDBRANCH   6  12
TORSDOF 1
ENDMDL
MODEL       62
REMARK 921   NORMALIZED FREE ENERGY PREDICTED BY IDOCK:   -4.28 KCAL/MOL
REMARK 922        TOTAL FREE ENERGY PREDICTED BY IDOCK:   -4.80 KCAL/MOL
REMARK 923 INTER-LIGAND FREE ENERGY PREDICTED BY IDOCK:   -4.52 KCAL/MOL
REMARK 924 INTRA-LIGAND FREE ENERGY PREDICTED BY IDOCK:   -0.28 KCAL/MOL
REMARK 927      BINDING AFFINITY PREDICTED BY RF-SCORE:    0.00 PKD
ROOT
HETATM    1  C   UNL     1     -10.389  11.458  63.992  1.00  0.00    -0.362 C  
HETATM    2  N   UNL     1     -10.682  11.270  65.396  1.00  0.00    -0.257 N  
HETATM    3  N   UNL     1     -11.411  12.266  66.001  1.00  0.00    -0.364 NA 
HETATM    4  N   UNL     1     -11.710  12.180  67.215  1.00  0.00    -0.521 NA 
HETATM    5  C   UNL     1     -11.323  11.113  67.943  1.00  0.00    -0.309 A  
HETATM    6  C   UNL     1     -11.482  10.719  69.260  1.00  0.00    -0.298 A  
HETATM    7  N   UNL     1     -10.855   9.492  69.474  1.00  0.00    -0.233 NA 
HETATM    8  O   UNL     1      -9.573   9.203  65.565  1.00  0.00    -0.257 OA 
HETATM    9  C   UNL     1     -10.223  10.129  66.027  1.00  0.00    -0.218 C  
HETATM   10  C   UNL     1     -10.339   9.168  68.309  1.00  0.00    -0.214 A  
HETATM   11  N   UNL     1     -10.597  10.117  67.355  1.00  0.00    -0.256 N  
ENDROOT
BRANCH   6  12
HETATM   12  C   UNL     1     -12.189  11.442  70.309  1.00  0.00    -0.349 C  
HETATM   13  H2  UNL     1     -11.090  13.176  69.839  1.00  0.00     0.000 HD 
HETATM   14  O   UNL     1     -13.050  10.958  71.034  1.00  0.00    -0.331 OA 
HETATM   15  N   UNL     1     -11.804  12.747  70.429  1.00  0.00    -0.550 N  
HETATM   16  H1  UNL     1     -12.299  13.253  71.163  1.00  0.00     0.000 HD 
ENDBRANCH   6  12
TORSDOF 1
ENDMDL
MODEL       63
REMARK 921   NORMALIZED FREE ENERGY PREDICTED BY IDOCK:   -4.27 KCAL/MOL
REMARK 922        TOTAL FREE ENERGY PREDICTED BY IDOCK:   -4.80 KCAL/MOL
REMARK 923 INTER-LIGAND FREE ENERGY PREDICTED BY IDOCK:   -4.51 KCAL/MOL
REMARK 924 INTRA-LIGAND FREE ENERGY PREDICTED BY IDOCK:   -0.28 KCAL/MOL
REMARK 927      BINDING AFFINITY PREDICTED BY RF-SCORE:    0.00 PKD
ROOT
HETATM    1  C   UNL     1     -12.688   8.863  72.642  1.00  0.00    -0.219 C  
HETATM    2  N   UNL     1     -12.397   9.934  71.714  1.00  0.00    -0.390 N  
HETATM    3  N   UNL     1     -13.093  11.104  71.902  1.00  0.00    -0.478 NA 
HETATM    4  N   UNL     1     -12.900  12.082  71.143  1.00  0.00    -0.301 NA 
HETATM    5  C   UNL     1     -12.007  12.002  70.135  1.00  0.00    -0.321 A  
HETATM    6  C   UNL     1     -11.566  12.867  69.150  1.00  0.00    -0.322 A  
HETATM    7  N   UNL     1     -10.607  12.242  68.354  1.00  0.00    -0.229 NA 
HETATM    8  O   UNL     1     -10.801   8.718  70.488  1.00  0.00    -0.221 OA 
HETATM    9  C   UNL     1     -11.459   9.721  70.721  1.00  0.00    -0.342 C  
HETATM   10  C   UNL     1     -10.484  11.034  68.859  1.00  0.00    -0.204 A  
HETATM   11  N   UNL     1     -11.309  10.845  69.936  1.00  0.00    -0.289 N  
ENDROOT
BRANCH   6  12
HETATM   12  C   UNL     1     -12.006  14.239  68.930  1.00  0.00    -0.320 C  
HETATM   13  H2  UNL     1     -12.652  14.340  70.932  1.00  0.00     0.000 HD 
HETATM   14  O   UNL     1     -11.908  14.844  67.869  1.00  0.00    -0.338 OA 
HETATM   15  N   UNL     1     -12.557  14.820  70.037  1.00  0.00    -0.538 N  
HETATM   16  H1  UNL     1     -12.865  15.780  69.882  1.00  0.00     0.000 HD 
ENDBRANCH   6  12
TORSDOF 1
ENDMDL
MODEL       64
REMARK 921   NORMALIZED FREE ENERGY PREDICTED BY IDOCK:   -4.27 KCAL/MOL
REMARK 922        TOTAL FREE ENERGY PREDICTED BY IDOCK:   -4.79 KCAL/MOL
REMARK 923 INTER-LIGAND FREE ENERGY PREDICTED BY IDOCK:   -4.53 KCAL/MOL
REMARK 924 INTRA-LIGAND FREE ENERGY PREDICTED BY IDOCK:   -0.26 KCAL/MOL
REMARK 927      BINDING AFFINITY PREDICTED BY RF-SCORE:    0.00 PKD
ROOT
HETATM    1  C   UNL     1     -10.795   9.292  67.798  1.00  0.00    -0.126 C  
HETATM    2  N   UNL     1     -11.121  10.635  68.224  1.00  0.00    -0.258 N  
HETATM    3  N   UNL     1     -11.458  10.786  69.548  1.00  0.00    -0.269 NA 
HETATM    4  N   UNL     1     -11.752  11.917  69.999  1.00  0.00    -0.312 NA 
HETATM    5  C   UNL     1     -11.743  13.000  69.195  1.00  0.00    -0.326 A  
HETATM    6  C   UNL     1     -12.005  14.347  69.368  1.00  0.00    -0.328 A  
HETATM    7  N   UNL     1     -11.837  15.028  68.164  1.00  0.00    -0.312 NA 
HETATM    8  O   UNL     1     -10.788  11.610  66.110  1.00  0.00    -0.276 OA 
HETATM    9  C   UNL     1     -11.075  11.659  67.297  1.00  0.00    -0.290 C  
HETATM   10  C   UNL     1     -11.482  14.104  67.299  1.00  0.00    -0.350 A  
HETATM   11  N   UNL     1     -11.411  12.864  67.878  1.00  0.00    -0.296 N  
ENDROOT
BRANCH   6  12
HETATM   12  C   UNL     1     -12.403  15.009  70.605  1.00  0.00    -0.348 C  
HETATM   13  H2  UNL     1     -10.660  14.284  71.539  1.00  0.00     0.000 HD 
HETATM   14  O   UNL     1     -13.425  15.669  70.748  1.00  0.00    -0.536 OA 
HETATM   15  N   UNL     1     -11.517  14.829  71.630  1.00  0.00    -0.505 N  
HETATM   16  H1  UNL     1     -11.796  15.293  72.495  1.00  0.00     0.000 HD 
ENDBRANCH   6  12
TORSDOF 1
ENDMDL
MODEL       65
REMARK 921   NORMALIZED FREE ENERGY PREDICTED BY IDOCK:   -4.27 KCAL/MOL
REMARK 922        TOTAL FREE ENERGY PREDICTED BY IDOCK:   -4.79 KCAL/MOL
REMARK 923 INTER-LIGAND FREE ENERGY PREDICTED BY IDOCK:   -4.52 KCAL/MOL
REMARK 924 INTRA-LIGAND FREE ENERGY PREDICTED BY IDOCK:   -0.28 KCAL/MOL
REMARK 927      BINDING AFFINITY PREDICTED BY RF-SCORE:    0.00 PKD
ROOT
HETATM    1  C   UNL     1      -7.165   8.761  65.882  1.00  0.00    -0.084 C  
HETATM    2  N   UNL     1      -8.338   9.578  65.662  1.00  0.00    -0.122 N  
HETATM    3  N   UNL     1      -8.685   9.799  64.350  1.00  0.00    -0.189 NA 
HETATM    4  N   UNL     1      -9.689  10.495  64.072  1.00  0.00    -0.304 NA 
HETATM    5  C   UNL     1     -10.442  11.035  65.052  1.00  0.00    -0.277 A  
HETATM    6  C   UNL     1     -11.578  11.824  65.088  1.00  0.00    -0.145 A  
HETATM    7  N   UNL     1     -11.933  12.095  66.408  1.00  0.00    -0.621 NA 
HETATM    8  O   UNL     1      -8.781   9.925  67.945  1.00  0.00    -0.128 OA 
HETATM    9  C   UNL     1      -9.022  10.074  66.757  1.00  0.00    -0.135 C  
HETATM   10  C   UNL     1     -11.028  11.478  67.136  1.00  0.00    -0.286 A  
HETATM   11  N   UNL     1     -10.109  10.824  66.359  1.00  0.00    -0.220 N  
ENDROOT
BRANCH   6  12
HETATM   12  C   UNL     1     -12.330  12.327  63.945  1.00  0.00    -0.509 C  
HETATM   13  H2  UNL     1     -12.495  10.362  63.205  1.00  0.00     0.000 HD 
HETATM   14  O   UNL     1     -12.609  13.505  63.754  1.00  0.00    -0.701 OA 
HETATM   15  N   UNL     1     -12.714  11.350  63.071  1.00  0.00    -0.798 N  
HETATM   16  H1  UNL     1     -13.241  11.702  62.272  1.00  0.00     0.000 HD 
ENDBRANCH   6  12
TORSDOF 1
ENDMDL
MODEL       66
REMARK 921   NORMALIZED FREE ENERGY PREDICTED BY IDOCK:   -4.21 KCAL/MOL
REMARK 922        TOTAL FREE ENERGY PREDICTED BY IDOCK:   -4.74 KCAL/MOL
REMARK 923 INTER-LIGAND FREE ENERGY PREDICTED BY IDOCK:   -4.45 KCAL/MOL
REMARK 924 INTRA-LIGAND FREE ENERGY PREDICTED BY IDOCK:   -0.29 KCAL/MOL
REMARK 927      BINDING AFFINITY PREDICTED BY RF-SCORE:    0.00 PKD
ROOT
HETATM    1  C   UNL     1      -8.914   9.941  67.439  1.00  0.00    -0.135 C  
HETATM    2  N   UNL     1      -9.897   9.944  68.500  1.00  0.00    -0.153 N  
HETATM    3  N   UNL     1     -10.169   8.727  69.078  1.00  0.00    -0.203 NA 
HETATM    4  N   UNL     1     -11.007   8.642  70.005  1.00  0.00    -0.234 NA 
HETATM    5  C   UNL     1     -11.652   9.740  70.449  1.00  0.00    -0.258 A  
HETATM    6  C   UNL     1     -12.602   9.987  71.424  1.00  0.00    -0.415 A  
HETATM    7  N   UNL     1     -12.922  11.344  71.451  1.00  0.00    -0.412 NA 
HETATM    8  O   UNL     1     -10.304  12.258  68.399  1.00  0.00    -0.215 OA 
HETATM    9  C   UNL     1     -10.488  11.141  68.859  1.00  0.00    -0.207 C  
HETATM   10  C   UNL     1     -12.176  11.886  70.514  1.00  0.00    -0.336 A  
HETATM   11  N   UNL     1     -11.393  10.955  69.883  1.00  0.00    -0.289 N  
ENDROOT
BRANCH   6  12
HETATM   12  C   UNL     1     -13.213   9.011  72.317  1.00  0.00    -0.460 C  
HETATM   13  H2  UNL     1     -11.500   7.798  72.144  1.00  0.00     0.000 HD 
HETATM   14  O   UNL     1     -14.322   9.124  72.825  1.00  0.00    -0.563 OA 
HETATM   15  N   UNL     1     -12.426   7.919  72.553  1.00  0.00    -0.566 N  
HETATM   16  H1  UNL     1     -12.854   7.236  73.179  1.00  0.00     0.000 HD 
ENDBRANCH   6  12
TORSDOF 1
ENDMDL
MODEL       67
REMARK 921   NORMALIZED FREE ENERGY PREDICTED BY IDOCK:   -4.20 KCAL/MOL
REMARK 922        TOTAL FREE ENERGY PREDICTED BY IDOCK:   -4.72 KCAL/MOL
REMARK 923 INTER-LIGAND FREE ENERGY PREDICTED BY IDOCK:   -4.46 KCAL/MOL
REMARK 924 INTRA-LIGAND FREE ENERGY PREDICTED BY IDOCK:   -0.26 KCAL/MOL
REMARK 927      BINDING AFFINITY PREDICTED BY RF-SCORE:    0.00 PKD
ROOT
HETATM    1  C   UNL     1     -12.094  13.914  66.186  1.00  0.00    -0.448 C  
HETATM    2  N   UNL     1     -11.501  12.595  66.228  1.00  0.00    -0.342 N  
HETATM    3  N   UNL     1     -11.913  11.778  67.254  1.00  0.00    -0.607 NA 
HETATM    4  N   UNL     1     -11.450  10.619  67.362  1.00  0.00    -0.410 NA 
HETATM    5  C   UNL     1     -10.544  10.157  66.476  1.00  0.00    -0.109 A  
HETATM    6  C   UNL     1      -9.858   8.967  66.311  1.00  0.00    -0.285 A  
HETATM    7  N   UNL     1      -9.025   9.042  65.195  1.00  0.00    -0.192 NA 
HETATM    8  O   UNL     1     -10.164  12.907  64.319  1.00  0.00    -0.378 OA 
HETATM    9  C   UNL     1     -10.581  12.245  65.257  1.00  0.00    -0.287 C  
HETATM   10  C   UNL     1      -9.216  10.250  64.712  1.00  0.00    -0.241 A  
HETATM   11  N   UNL     1     -10.126  10.957  65.452  1.00  0.00    -0.262 N  
ENDROOT
BRANCH   6  12
HETATM   12  C   UNL     1      -9.954   7.779  67.150  1.00  0.00    -0.230 C  
HETATM   13  H2  UNL     1     -12.024   7.692  66.770  1.00  0.00     0.000 HD 
HETATM   14  O   UNL     1      -9.011   7.255  67.732  1.00  0.00    -0.127 OA 
HETATM   15  N   UNL     1     -11.221   7.276  67.243  1.00  0.00    -0.545 N  
HETATM   16  H1  UNL     1     -11.287   6.444  67.830  1.00  0.00     0.000 HD 
ENDBRANCH   6  12
TORSDOF 1
ENDMDL
MODEL       68
REMARK 921   NORMALIZED FREE ENERGY PREDICTED BY IDOCK:   -4.18 KCAL/MOL
REMARK 922        TOTAL FREE ENERGY PREDICTED BY IDOCK:   -4.70 KCAL/MOL
REMARK 923 INTER-LIGAND FREE ENERGY PREDICTED BY IDOCK:   -4.62 KCAL/MOL
REMARK 924 INTRA-LIGAND FREE ENERGY PREDICTED BY IDOCK:   -0.08 KCAL/MOL
REMARK 927      BINDING AFFINITY PREDICTED BY RF-SCORE:    0.00 PKD
ROOT
HETATM    1  C   UNL     1      -7.313  10.371  67.097  1.00  0.00    -0.092 C  
HETATM    2  N   UNL     1      -8.375  11.076  66.413  1.00  0.00    -0.162 N  
HETATM    3  N   UNL     1      -9.025  12.044  67.140  1.00  0.00    -0.179 NA 
HETATM    4  N   UNL     1      -9.956  12.704  66.622  1.00  0.00    -0.237 NA 
HETATM    5  C   UNL     1     -10.332  12.474  65.347  1.00  0.00    -0.282 A  
HETATM    6  C   UNL     1     -11.287  13.006  64.500  1.00  0.00    -0.339 A  
HETATM    7  N   UNL     1     -11.235  12.374  63.258  1.00  0.00    -0.404 NA 
HETATM    8  O   UNL     1      -8.137   9.900  64.391  1.00  0.00    -0.141 OA 
HETATM    9  C   UNL     1      -8.663  10.742  65.103  1.00  0.00    -0.164 C  
HETATM   10  C   UNL     1     -10.269  11.489  63.370  1.00  0.00    -0.420 A  
HETATM   11  N   UNL     1      -9.696  11.514  64.614  1.00  0.00    -0.234 N  
ENDROOT
BRANCH   6  12
HETATM   12  C   UNL     1     -12.234  14.071  64.808  1.00  0.00    -0.433 C  
HETATM   13  H2  UNL     1     -11.971  14.850  62.869  1.00  0.00     0.000 HD 
HETATM   14  O   UNL     1     -12.810  14.207  65.880  1.00  0.00    -0.471 OA 
HETATM   15  N   UNL     1     -12.437  14.938  63.772  1.00  0.00    -1.062 N  
HETATM   16  H1  UNL     1     -13.100  15.683  63.988  1.00  0.00     0.000 HD 
ENDBRANCH   6  12
TORSDOF 1
ENDMDL
MODEL       69
REMARK 921   NORMALIZED FREE ENERGY PREDICTED BY IDOCK:   -4.17 KCAL/MOL
REMARK 922        TOTAL FREE ENERGY PREDICTED BY IDOCK:   -4.69 KCAL/MOL
REMARK 923 INTER-LIGAND FREE ENERGY PREDICTED BY IDOCK:   -4.58 KCAL/MOL
REMARK 924 INTRA-LIGAND FREE ENERGY PREDICTED BY IDOCK:   -0.12 KCAL/MOL
REMARK 927      BINDING AFFINITY PREDICTED BY RF-SCORE:    0.00 PKD
ROOT
HETATM    1  C   UNL     1     -10.248   9.350  66.453  1.00  0.00    -0.230 C  
HETATM    2  N   UNL     1     -10.432  10.783  66.394  1.00  0.00    -0.247 N  
HETATM    3  N   UNL     1      -9.675  11.454  65.463  1.00  0.00    -0.223 NA 
HETATM    4  N   UNL     1      -9.776  12.697  65.345  1.00  0.00    -0.131 NA 
HETATM    5  C   UNL     1     -10.626  13.393  66.128  1.00  0.00    -0.292 A  
HETATM    6  C   UNL     1     -10.970  14.728  66.250  1.00  0.00    -0.330 A  
HETATM    7  N   UNL     1     -11.929  14.888  67.249  1.00  0.00    -0.237 NA 
HETATM    8  O   UNL     1     -12.043  10.856  68.106  1.00  0.00    -0.563 OA 
HETATM    9  C   UNL     1     -11.336  11.376  67.256  1.00  0.00    -0.275 C  
HETATM   10  C   UNL     1     -12.147  13.674  67.706  1.00  0.00    -0.290 A  
HETATM   11  N   UNL     1     -11.383  12.741  67.057  1.00  0.00    -0.296 N  
ENDROOT
BRANCH   6  12
HETATM   12  C   UNL     1     -10.438  15.842  65.476  1.00  0.00    -0.404 C  
HETATM   13  H2  UNL     1      -8.651  15.747  66.586  1.00  0.00     0.000 HD 
HETATM   14  O   UNL     1     -11.039  16.420  64.577  1.00  0.00    -0.742 OA 
HETATM   15  N   UNL     1      -9.174  16.209  65.842  1.00  0.00    -0.314 N  
HETATM   16  H1  UNL     1      -8.803  16.989  65.299  1.00  0.00     0.000 HD 
ENDBRANCH   6  12
TORSDOF 1
ENDMDL
MODEL       70
REMARK 921   NORMALIZED FREE ENERGY PREDICTED BY IDOCK:   -4.16 KCAL/MOL
REMARK 922        TOTAL FREE ENERGY PREDICTED BY IDOCK:   -4.68 KCAL/MOL
REMARK 923 INTER-LIGAND FREE ENERGY PREDICTED BY IDOCK:   -4.39 KCAL/MOL
REMARK 924 INTRA-LIGAND FREE ENERGY PREDICTED BY IDOCK:   -0.29 KCAL/MOL
REMARK 927      BINDING AFFINITY PREDICTED BY RF-SCORE:    0.00 PKD
ROOT
HETATM    1  C   UNL     1     -11.704  14.937  64.472  1.00  0.00    -0.382 C  
HETATM    2  N   UNL     1     -11.456  13.666  65.115  1.00  0.00    -0.309 N  
HETATM    3  N   UNL     1     -10.907  12.684  64.325  1.00  0.00    -0.351 NA 
HETATM    4  N   UNL     1     -10.659  11.553  64.805  1.00  0.00    -0.290 NA 
HETATM    5  C   UNL     1     -10.927  11.284  66.099  1.00  0.00    -0.191 A  
HETATM    6  C   UNL     1     -10.778  10.178  66.918  1.00  0.00    -0.161 A  
HETATM    7  N   UNL     1     -11.234  10.467  68.203  1.00  0.00    -0.289 NA 
HETATM    8  O   UNL     1     -12.267  14.335  67.218  1.00  0.00    -0.393 OA 
HETATM    9  C   UNL     1     -11.779  13.519  66.451  1.00  0.00    -0.369 C  
HETATM   10  C   UNL     1     -11.641  11.716  68.146  1.00  0.00    -0.319 A  
HETATM   11  N   UNL     1     -11.474  12.249  66.895  1.00  0.00    -0.339 N  
ENDROOT
BRANCH   6  12
HETATM   12  C   UNL     1     -10.234   8.879  66.543  1.00  0.00    -0.249 C  
HETATM   13  H2  UNL     1      -9.000   9.821  65.119  1.00  0.00     0.000 HD 
HETATM   14  O   UNL     1     -10.564   7.811  67.042  1.00  0.00    -0.335 OA 
HETATM   15  N   UNL     1      -9.293   8.946  65.554  1.00  0.00    -0.409 N  
HETATM   16  H1  UNL     1      -8.912   8.037  65.292  1.00  0.00     0.000 HD 
ENDBRANCH   6  12
TORSDOF 1
ENDMDL
MODEL       71
REMARK 921   NORMALIZED FREE ENERGY PREDICTED BY IDOCK:   -4.16 KCAL/MOL
REMARK 922        TOTAL FREE ENERGY PREDICTED BY IDOCK:   -4.68 KCAL/MOL
REMARK 923 INTER-LIGAND FREE ENERGY PREDICTED BY IDOCK:   -4.56 KCAL/MOL
REMARK 924 INTRA-LIGAND FREE ENERGY PREDICTED BY IDOCK:   -0.12 KCAL/MOL
REMARK 927      BINDING AFFINITY PREDICTED BY RF-SCORE:    0.00 PKD
ROOT
HETATM    1  C   UNL     1     -12.642  14.024  65.018  1.00  0.00    -0.390 C  
HETATM    2  N   UNL     1     -11.724  12.925  64.816  1.00  0.00    -0.329 N  
HETATM    3  N   UNL     1     -11.167  12.822  63.564  1.00  0.00    -0.431 NA 
HETATM    4  N   UNL     1     -10.360  11.899  63.306  1.00  0.00    -0.426 NA 
HETATM    5  C   UNL     1     -10.027  10.995  64.250  1.00  0.00    -0.317 A  
HETATM    6  C   UNL     1      -9.193   9.892  64.296  1.00  0.00    -0.265 A  
HETATM    7  N   UNL     1      -9.233   9.311  65.562  1.00  0.00    -0.222 NA 
HETATM    8  O   UNL     1     -11.919  12.087  67.005  1.00  0.00    -0.609 OA 
HETATM    9  C   UNL     1     -11.469  12.066  65.870  1.00  0.00    -0.333 C  
HETATM   10  C   UNL     1     -10.071  10.055  66.250  1.00  0.00    -0.243 A  
HETATM   11  N   UNL     1     -10.573  11.084  65.498  1.00  0.00    -0.234 N  
ENDROOT
BRANCH   6  12
HETATM   12  C   UNL     1      -8.374   9.370  63.209  1.00  0.00    -0.187 C  
HETATM   13  H2  UNL     1     -10.014   8.235  62.534  1.00  0.00     0.000 HD 
HETATM   14  O   UNL     1      -7.200   9.662  63.015  1.00  0.00    -0.105 OA 
HETATM   15  N   UNL     1      -9.038   8.497  62.395  1.00  0.00    -0.466 N  
HETATM   16  H1  UNL     1      -8.464   8.132  61.635  1.00  0.00     0.000 HD 
ENDBRANCH   6  12
TORSDOF 1
ENDMDL
MODEL       72
REMARK 921   NORMALIZED FREE ENERGY PREDICTED BY IDOCK:   -4.16 KCAL/MOL
REMARK 922        TOTAL FREE ENERGY PREDICTED BY IDOCK:   -4.68 KCAL/MOL
REMARK 923 INTER-LIGAND FREE ENERGY PREDICTED BY IDOCK:   -4.41 KCAL/MOL
REMARK 924 INTRA-LIGAND FREE ENERGY PREDICTED BY IDOCK:   -0.26 KCAL/MOL
REMARK 927      BINDING AFFINITY PREDICTED BY RF-SCORE:    0.00 PKD
ROOT
HETATM    1  C   UNL     1      -9.621   4.512  70.980  1.00  0.00    -0.178 C  
HETATM    2  N   UNL     1     -10.242   5.811  71.108  1.00  0.00    -0.209 N  
HETATM    3  N   UNL     1     -11.373   5.869  71.888  1.00  0.00    -0.270 NA 
HETATM    4  N   UNL     1     -11.971   6.957  72.052  1.00  0.00    -0.308 NA 
HETATM    5  C   UNL     1     -11.516   8.085  71.469  1.00  0.00    -0.264 A  
HETATM    6  C   UNL     1     -11.924   9.407  71.449  1.00  0.00    -0.371 A  
HETATM    7  N   UNL     1     -11.058  10.165  70.662  1.00  0.00    -0.323 NA 
HETATM    8  O   UNL     1      -8.678   6.924  69.749  1.00  0.00    -0.140 OA 
HETATM    9  C   UNL     1      -9.674   6.890  70.455  1.00  0.00    -0.172 C  
HETATM   10  C   UNL     1     -10.158   9.310  70.228  1.00  0.00    -0.219 A  
HETATM   11  N   UNL     1     -10.395   8.043  70.692  1.00  0.00    -0.200 N  
ENDROOT
BRANCH   6  12
HETATM   12  C   UNL     1     -13.080   9.976  72.130  1.00  0.00    -0.386 C  
HETATM   13  H2  UNL     1     -13.554   8.070  72.892  1.00  0.00     0.000 HD 
HETATM   14  O   UNL     1     -13.405  11.156  72.090  1.00  0.00    -0.452 OA 
HETATM   15  N   UNL     1     -13.801   9.059  72.842  1.00  0.00    -0.923 N  
HETATM   16  H1  UNL     1     -14.610   9.458  73.318  1.00  0.00     0.000 HD 
ENDBRANCH   6  12
TORSDOF 1
ENDMDL
MODEL       73
REMARK 921   NORMALIZED FREE ENERGY PREDICTED BY IDOCK:   -4.14 KCAL/MOL
REMARK 922        TOTAL FREE ENERGY PREDICTED BY IDOCK:   -4.65 KCAL/MOL
REMARK 923 INTER-LIGAND FREE ENERGY PREDICTED BY IDOCK:   -4.53 KCAL/MOL
REMARK 924 INTRA-LIGAND FREE ENERGY PREDICTED BY IDOCK:   -0.12 KCAL/MOL
REMARK 927      BINDING AFFINITY PREDICTED BY RF-SCORE:    0.00 PKD
ROOT
HETATM    1  C   UNL     1      -7.369   7.215  73.744  1.00  0.00    -0.089 C  
HETATM    2  N   UNL     1      -8.651   7.618  73.211  1.00  0.00    -0.157 N  
HETATM    3  N   UNL     1      -9.754   7.006  73.759  1.00  0.00    -0.244 NA 
HETATM    4  N   UNL     1     -10.903   7.299  73.355  1.00  0.00    -0.371 NA 
HETATM    5  C   UNL     1     -11.075   8.217  72.381  1.00  0.00    -0.369 A  
HETATM    6  C   UNL     1     -12.170   8.756  71.729  1.00  0.00    -0.349 A  
HETATM    7  N   UNL     1     -11.754   9.691  70.783  1.00  0.00    -0.297 NA 
HETATM    8  O   UNL     1      -7.763   9.158  71.672  1.00  0.00    -0.338 OA 
HETATM    9  C   UNL     1      -8.689   8.570  72.210  1.00  0.00    -0.190 C  
HETATM   10  C   UNL     1     -10.442   9.705  70.875  1.00  0.00    -0.289 A  
HETATM   11  N   UNL     1      -9.989   8.832  71.828  1.00  0.00    -0.301 N  
ENDROOT
BRANCH   6  12
HETATM   12  C   UNL     1     -13.572   8.429  71.958  1.00  0.00    -0.357 C  
HETATM   13  H2  UNL     1     -13.608   9.772  73.580  1.00  0.00     0.000 HD 
HETATM   14  O   UNL     1     -14.222   7.632  71.293  1.00  0.00    -0.381 OA 
HETATM   15  N   UNL     1     -14.126   9.104  73.009  1.00  0.00    -0.801 N  
HETATM   16  H1  UNL     1     -15.107   8.875  73.168  1.00  0.00     0.000 HD 
ENDBRANCH   6  12
TORSDOF 1
ENDMDL
MODEL       74
REMARK 921   NORMALIZED FREE ENERGY PREDICTED BY IDOCK:   -4.12 KCAL/MOL
REMARK 922        TOTAL FREE ENERGY PREDICTED BY IDOCK:   -4.64 KCAL/MOL
REMARK 923 INTER-LIGAND FREE ENERGY PREDICTED BY IDOCK:   -4.34 KCAL/MOL
REMARK 924 INTRA-LIGAND FREE ENERGY PREDICTED BY IDOCK:   -0.30 KCAL/MOL
REMARK 927      BINDING AFFINITY PREDICTED BY RF-SCORE:    0.00 PKD
ROOT
HETATM    1  C   UNL     1     -10.894  14.157  66.446  1.00  0.00    -0.304 C  
HETATM    2  N   UNL     1     -10.228  15.411  66.721  1.00  0.00    -0.265 N  
HETATM    3  N   UNL     1      -9.183  15.738  65.890  1.00  0.00    -0.333 NA 
HETATM    4  N   UNL     1      -8.553  16.807  66.058  1.00  0.00    -0.500 NA 
HETATM    5  C   UNL     1      -8.890  17.653  67.054  1.00  0.00    -0.246 A  
HETATM    6  C   UNL     1      -8.420  18.875  67.499  1.00  0.00    -0.274 A  
HETATM    7  N   UNL     1      -9.161  19.305  68.598  1.00  0.00    -0.374 NA 
HETATM    8  O   UNL     1     -11.586  15.970  68.558  1.00  0.00    -0.381 OA 
HETATM    9  C   UNL     1     -10.672  16.186  67.777  1.00  0.00    -0.325 C  
HETATM   10  C   UNL     1     -10.051  18.357  68.797  1.00  0.00    -0.363 A  
HETATM   11  N   UNL     1      -9.925  17.341  67.888  1.00  0.00    -0.284 N  
ENDROOT
BRANCH   6  12
HETATM   12  C   UNL     1      -7.315  19.643  66.939  1.00  0.00    -0.224 C  
HETATM   13  H2  UNL     1      -6.269  17.851  66.576  1.00  0.00     0.000 HD 
HETATM   14  O   UNL     1      -7.287  20.864  66.846  1.00  0.00    -0.286 OA 
HETATM   15  N   UNL     1      -6.273  18.870  66.510  1.00  0.00    -0.176 N  
HETATM   16  H1  UNL     1      -5.500  19.408  66.118  1.00  0.00     0.000 HD 
ENDBRANCH   6  12
TORSDOF 1
ENDMDL
MODEL       75
REMARK 921   NORMALIZED FREE ENERGY PREDICTED BY IDOCK:   -4.10 KCAL/MOL
REMARK 922        TOTAL FREE ENERGY PREDICTED BY IDOCK:   -4.61 KCAL/MOL
REMARK 923 INTER-LIGAND FREE ENERGY PREDICTED BY IDOCK:   -4.32 KCAL/MOL
REMARK 924 INTRA-LIGAND FREE ENERGY PREDICTED BY IDOCK:   -0.29 KCAL/MOL
REMARK 927      BINDING AFFINITY PREDICTED BY RF-SCORE:    0.00 PKD
ROOT
HETATM    1  C   UNL     1      -9.143  11.745  67.207  1.00  0.00    -0.171 C  
HETATM    2  N   UNL     1      -9.893  11.243  68.337  1.00  0.00    -0.193 N  
HETATM    3  N   UNL     1     -11.141  11.786  68.526  1.00  0.00    -0.220 NA 
HETATM    4  N   UNL     1     -11.858  11.405  69.481  1.00  0.00    -0.328 NA 
HETATM    5  C   UNL     1     -11.416  10.458  70.334  1.00  0.00    -0.337 A  
HETATM    6  C   UNL     1     -11.937   9.831  71.451  1.00  0.00    -0.411 A  
HETATM    7  N   UNL     1     -11.022   8.908  71.956  1.00  0.00    -0.364 NA 
HETATM    8  O   UNL     1      -8.228   9.738  69.039  1.00  0.00    -0.108 OA 
HETATM    9  C   UNL     1      -9.323  10.270  69.137  1.00  0.00    -0.204 C  
HETATM   10  C   UNL     1      -9.984   8.988  71.153  1.00  0.00    -0.295 A  
HETATM   11  N   UNL     1     -10.178   9.910  70.159  1.00  0.00    -0.268 N  
ENDROOT
BRANCH   6  12
HETATM   12  C   UNL     1     -13.243  10.063  72.055  1.00  0.00    -0.443 C  
HETATM   13  H2  UNL     1     -12.882  12.137  72.011  1.00  0.00     0.000 HD 
HETATM   14  O   UNL     1     -14.037   9.183  72.365  1.00  0.00    -0.465 OA 
HETATM   15  N   UNL     1     -13.525  11.384  72.258  1.00  0.00    -0.518 N  
HETATM   16  H1  UNL     1     -14.439  11.546  72.681  1.00  0.00     0.000 HD 
ENDBRANCH   6  12
TORSDOF 1
ENDMDL
MODEL       76
REMARK 921   NORMALIZED FREE ENERGY PREDICTED BY IDOCK:   -4.09 KCAL/MOL
REMARK 922        TOTAL FREE ENERGY PREDICTED BY IDOCK:   -4.60 KCAL/MOL
REMARK 923 INTER-LIGAND FREE ENERGY PREDICTED BY IDOCK:   -4.48 KCAL/MOL
REMARK 924 INTRA-LIGAND FREE ENERGY PREDICTED BY IDOCK:   -0.12 KCAL/MOL
REMARK 927      BINDING AFFINITY PREDICTED BY RF-SCORE:    0.00 PKD
ROOT
HETATM    1  C   UNL     1      -7.142  18.803  65.936  1.00  0.00    -0.255 C  
HETATM    2  N   UNL     1      -8.006  17.680  66.226  1.00  0.00    -0.267 N  
HETATM    3  N   UNL     1      -9.357  17.910  66.116  1.00  0.00    -0.503 NA 
HETATM    4  N   UNL     1     -10.175  16.989  66.348  1.00  0.00    -0.319 NA 
HETATM    5  C   UNL     1      -9.743  15.763  66.708  1.00  0.00    -0.238 A  
HETATM    6  C   UNL     1     -10.358  14.565  67.023  1.00  0.00    -0.263 A  
HETATM    7  N   UNL     1      -9.401  13.598  67.329  1.00  0.00    -0.224 NA 
HETATM    8  O   UNL     1      -6.253  16.188  66.707  1.00  0.00    -0.303 OA 
HETATM    9  C   UNL     1      -7.435  16.473  66.587  1.00  0.00    -0.261 C  
HETATM   10  C   UNL     1      -8.246  14.212  67.197  1.00  0.00    -0.144 A  
HETATM   11  N   UNL     1      -8.405  15.520  66.822  1.00  0.00    -0.253 N  
ENDROOT
BRANCH   6  12
HETATM   12  C   UNL     1     -11.791  14.297  67.047  1.00  0.00    -0.428 C  
HETATM   13  H2  UNL     1     -11.731  14.235  69.152  1.00  0.00     0.000 HD 
HETATM   14  O   UNL     1     -12.502  14.198  66.054  1.00  0.00    -0.467 OA 
HETATM   15  N   UNL     1     -12.299  14.158  68.308  1.00  0.00    -0.556 N  
HETATM   16  H1  UNL     1     -13.302  13.971  68.325  1.00  0.00     0.000 HD 
ENDBRANCH   6  12
TORSDOF 1
ENDMDL
MODEL       77
REMARK 921   NORMALIZED FREE ENERGY PREDICTED BY IDOCK:   -4.07 KCAL/MOL
REMARK 922        TOTAL FREE ENERGY PREDICTED BY IDOCK:   -4.59 KCAL/MOL
REMARK 923 INTER-LIGAND FREE ENERGY PREDICTED BY IDOCK:   -4.34 KCAL/MOL
REMARK 924 INTRA-LIGAND FREE ENERGY PREDICTED BY IDOCK:   -0.25 KCAL/MOL
REMARK 927      BINDING AFFINITY PREDICTED BY RF-SCORE:    0.00 PKD
ROOT
HETATM    1  C   UNL     1     -10.704  18.975  65.671  1.00  0.00    -0.182 C  
HETATM    2  N   UNL     1      -9.621  19.099  66.622  1.00  0.00    -0.329 N  
HETATM    3  N   UNL     1      -9.192  20.377  66.889  1.00  0.00    -0.344 NA 
HETATM    4  N   UNL     1      -8.259  20.573  67.702  1.00  0.00    -0.244 NA 
HETATM    5  C   UNL     1      -7.664  19.535  68.326  1.00  0.00    -0.321 A  
HETATM    6  C   UNL     1      -6.643  19.406  69.250  1.00  0.00    -0.326 A  
HETATM    7  N   UNL     1      -6.435  18.062  69.553  1.00  0.00    -0.226 NA 
HETATM    8  O   UNL     1      -9.418  16.788  67.007  1.00  0.00    -0.223 OA 
HETATM    9  C   UNL     1      -9.096  17.952  67.190  1.00  0.00    -0.251 C  
HETATM   10  C   UNL     1      -7.315  17.411  68.825  1.00  0.00    -0.257 A  
HETATM   11  N   UNL     1      -8.079  18.260  68.069  1.00  0.00    -0.262 N  
ENDROOT
BRANCH   6  12
HETATM   12  C   UNL     1      -5.865  20.484  69.850  1.00  0.00    -0.337 C  
HETATM   13  H2  UNL     1      -5.227  21.075  67.932  1.00  0.00     0.000 HD 
HETATM   14  O   UNL     1      -5.798  20.714  71.051  1.00  0.00    -0.559 OA 
HETATM   15  N   UNL     1      -5.190  21.244  68.937  1.00  0.00    -0.476 N  
HETATM   16  H1  UNL     1      -4.647  21.998  69.357  1.00  0.00     0.000 HD 
ENDBRANCH   6  12
TORSDOF 1
ENDMDL
MODEL       78
REMARK 921   NORMALIZED FREE ENERGY PREDICTED BY IDOCK:   -4.05 KCAL/MOL
REMARK 922        TOTAL FREE ENERGY PREDICTED BY IDOCK:   -4.56 KCAL/MOL
REMARK 923 INTER-LIGAND FREE ENERGY PREDICTED BY IDOCK:   -4.28 KCAL/MOL
REMARK 924 INTRA-LIGAND FREE ENERGY PREDICTED BY IDOCK:   -0.28 KCAL/MOL
REMARK 927      BINDING AFFINITY PREDICTED BY RF-SCORE:    0.00 PKD
ROOT
HETATM    1  C   UNL     1     -11.642  14.999  64.696  1.00  0.00    -0.386 C  
HETATM    2  N   UNL     1     -11.260  13.982  65.651  1.00  0.00    -0.306 N  
HETATM    3  N   UNL     1     -12.163  12.963  65.844  1.00  0.00    -0.516 NA 
HETATM    4  N   UNL     1     -11.909  12.040  66.652  1.00  0.00    -0.610 NA 
HETATM    5  C   UNL     1     -10.750  12.033  67.343  1.00  0.00    -0.229 A  
HETATM    6  C   UNL     1     -10.176  11.191  68.279  1.00  0.00    -0.182 A  
HETATM    7  N   UNL     1      -8.931  11.682  68.668  1.00  0.00    -0.130 NA 
HETATM    8  O   UNL     1      -9.189  14.961  66.181  1.00  0.00    -0.287 OA 
HETATM    9  C   UNL     1     -10.042  14.093  66.294  1.00  0.00    -0.300 C  
HETATM   10  C   UNL     1      -8.772  12.789  67.976  1.00  0.00    -0.194 A  
HETATM   11  N   UNL     1      -9.845  13.039  67.162  1.00  0.00    -0.226 N  
ENDROOT
BRANCH   6  12
HETATM   12  C   UNL     1     -10.746   9.961  68.815  1.00  0.00    -0.220 C  
HETATM   13  H2  UNL     1     -12.523  10.997  69.269  1.00  0.00     0.000 HD 
HETATM   14  O   UNL     1     -10.169   8.882  68.855  1.00  0.00    -0.196 OA 
HETATM   15  N   UNL     1     -12.019  10.110  69.289  1.00  0.00    -0.498 N  
HETATM   16  H1  UNL     1     -12.417   9.249  69.664  1.00  0.00     0.000 HD 
ENDBRANCH   6  12
TORSDOF 1
ENDMDL
MODEL       79
REMARK 921   NORMALIZED FREE ENERGY PREDICTED BY IDOCK:   -4.03 KCAL/MOL
REMARK 922        TOTAL FREE ENERGY PREDICTED BY IDOCK:   -4.54 KCAL/MOL
REMARK 923 INTER-LIGAND FREE ENERGY PREDICTED BY IDOCK:   -4.47 KCAL/MOL
REMARK 924 INTRA-LIGAND FREE ENERGY PREDICTED BY IDOCK:   -0.07 KCAL/MOL
REMARK 927      BINDING AFFINITY PREDICTED BY RF-SCORE:    0.00 PKD
ROOT
HETATM    1  C   UNL     1      -7.534  19.565  68.994  1.00  0.00    -0.345 C  
HETATM    2  N   UNL     1      -8.202  18.595  68.156  1.00  0.00    -0.293 N  
HETATM    3  N   UNL     1      -7.881  17.277  68.379  1.00  0.00    -0.244 NA 
HETATM    4  N   UNL     1      -8.416  16.373  67.697  1.00  0.00    -0.168 NA 
HETATM    5  C   UNL     1      -9.314  16.677  66.737  1.00  0.00    -0.244 A  
HETATM    6  C   UNL     1     -10.067  15.946  65.836  1.00  0.00    -0.352 A  
HETATM    7  N   UNL     1     -10.848  16.799  65.058  1.00  0.00    -0.653 NA 
HETATM    8  O   UNL     1      -9.441  20.185  66.945  1.00  0.00    -0.368 OA 
HETATM    9  C   UNL     1      -9.102  19.041  67.205  1.00  0.00    -0.283 C  
HETATM   10  C   UNL     1     -10.563  18.008  65.490  1.00  0.00     0.012 A  
HETATM   11  N   UNL     1      -9.642  17.982  66.504  1.00  0.00    -0.307 N  
ENDROOT
BRANCH   6  12
HETATM   12  C   UNL     1     -10.081  14.497  65.681  1.00  0.00    -0.359 C  
HETATM   13  H2  UNL     1     -10.327  14.734  63.603  1.00  0.00     0.000 HD 
HETATM   14  O   UNL     1      -9.971  13.693  66.599  1.00  0.00    -0.267 OA 
HETATM   15  N   UNL     1     -10.232  14.087  64.386  1.00  0.00    -0.598 N  
HETATM   16  H1  UNL     1     -10.241  13.073  64.278  1.00  0.00     0.000 HD 
ENDBRANCH   6  12
TORSDOF 1
ENDMDL
MODEL       80
REMARK 921   NORMALIZED FREE ENERGY PREDICTED BY IDOCK:   -4.03 KCAL/MOL
REMARK 922        TOTAL FREE ENERGY PREDICTED BY IDOCK:   -4.54 KCAL/MOL
REMARK 923 INTER-LIGAND FREE ENERGY PREDICTED BY IDOCK:   -4.46 KCAL/MOL
REMARK 924 INTRA-LIGAND FREE ENERGY PREDICTED BY IDOCK:   -0.07 KCAL/MOL
REMARK 927      BINDING AFFINITY PREDICTED BY RF-SCORE:    0.00 PKD
ROOT
HETATM    1  C   UNL     1     -12.346  11.509  70.791  1.00  0.00    -0.375 C  
HETATM    2  N   UNL     1     -11.937  12.463  69.784  1.00  0.00    -0.310 N  
HETATM    3  N   UNL     1     -11.617  13.722  70.235  1.00  0.00    -0.180 NA 
HETATM    4  N   UNL     1     -11.251  14.607  69.428  1.00  0.00    -0.268 NA 
HETATM    5  C   UNL     1     -11.165  14.339  68.109  1.00  0.00    -0.275 A  
HETATM    6  C   UNL     1     -10.804  15.064  66.987  1.00  0.00    -0.311 A  
HETATM    7  N   UNL     1     -10.900  14.266  65.847  1.00  0.00    -0.294 NA 
HETATM    8  O   UNL     1     -12.157  10.969  67.981  1.00  0.00    -0.615 OA 
HETATM    9  C   UNL     1     -11.892  12.060  68.462  1.00  0.00    -0.311 C  
HETATM   10  C   UNL     1     -11.308  13.096  66.287  1.00  0.00    -0.315 A  
HETATM   11  N   UNL     1     -11.479  13.094  67.646  1.00  0.00    -0.304 N  
ENDROOT
BRANCH   6  12
HETATM   12  C   UNL     1     -10.379  16.457  66.945  1.00  0.00    -0.300 C  
HETATM   13  H2  UNL     1      -8.998  15.978  65.429  1.00  0.00     0.000 HD 
HETATM   14  O   UNL     1     -10.835  17.350  67.649  1.00  0.00    -0.338 OA 
HETATM   15  N   UNL     1      -9.396  16.702  66.027  1.00  0.00    -0.267 N  
HETATM   16  H1  UNL     1      -9.100  17.677  65.998  1.00  0.00     0.000 HD 
ENDBRANCH   6  12
TORSDOF 1
ENDMDL
MODEL       81
REMARK 921   NORMALIZED FREE ENERGY PREDICTED BY IDOCK:   -4.02 KCAL/MOL
REMARK 922        TOTAL FREE ENERGY PREDICTED BY IDOCK:   -4.53 KCAL/MOL
REMARK 923 INTER-LIGAND FREE ENERGY PREDICTED BY IDOCK:   -4.41 KCAL/MOL
REMARK 924 INTRA-LIGAND FREE ENERGY PREDICTED BY IDOCK:   -0.12 KCAL/MOL
REMARK 927      BINDING AFFINITY PREDICTED BY RF-SCORE:    0.00 PKD
ROOT
HETATM    1  C   UNL     1     -10.686  19.370  66.532  1.00  0.00    -0.418 C  
HETATM    2  N   UNL     1      -9.479  19.428  67.326  1.00  0.00    -0.310 N  
HETATM    3  N   UNL     1      -9.650  19.434  68.689  1.00  0.00    -0.404 NA 
HETATM    4  N   UNL     1      -8.655  19.481  69.450  1.00  0.00     0.001 NA 
HETATM    5  C   UNL     1      -7.406  19.526  68.943  1.00  0.00    -0.363 A  
HETATM    6  C   UNL     1      -6.134  19.579  69.484  1.00  0.00    -0.282 A  
HETATM    7  N   UNL     1      -5.180  19.609  68.469  1.00  0.00    -0.190 NA 
HETATM    8  O   UNL     1      -8.020  19.471  65.482  1.00  0.00    -0.381 OA 
HETATM    9  C   UNL     1      -8.257  19.472  66.680  1.00  0.00    -0.311 C  
HETATM   10  C   UNL     1      -5.873  19.573  67.352  1.00  0.00    -0.185 A  
HETATM   11  N   UNL     1      -7.221  19.522  67.591  1.00  0.00    -0.235 N  
ENDROOT
BRANCH   6  12
HETATM   12  C   UNL     1      -5.786  19.604  70.900  1.00  0.00    -0.236 C  
HETATM   13  H2  UNL     1      -4.909  17.699  70.704  1.00  0.00     0.000 HD 
HETATM   14  O   UNL     1      -6.040  20.524  71.667  1.00  0.00    -0.658 OA 
HETATM   15  N   UNL     1      -5.132  18.480  71.321  1.00  0.00    -0.440 N  
HETATM   16  H1  UNL     1      -4.889  18.498  72.311  1.00  0.00     0.000 HD 
ENDBRANCH   6  12
TORSDOF 1
ENDMDL
MODEL       82
REMARK 921   NORMALIZED FREE ENERGY PREDICTED BY IDOCK:   -4.02 KCAL/MOL
REMARK 922        TOTAL FREE ENERGY PREDICTED BY IDOCK:   -4.53 KCAL/MOL
REMARK 923 INTER-LIGAND FREE ENERGY PREDICTED BY IDOCK:   -4.41 KCAL/MOL
REMARK 924 INTRA-LIGAND FREE ENERGY PREDICTED BY IDOCK:   -0.12 KCAL/MOL
REMARK 927      BINDING AFFINITY PREDICTED BY RF-SCORE:    0.00 PKD
ROOT
HETATM    1  C   UNL     1     -11.589   6.621  71.781  1.00  0.00    -0.304 C  
HETATM    2  N   UNL     1     -11.588   7.967  71.252  1.00  0.00    -0.272 N  
HETATM    3  N   UNL     1     -10.823   8.177  70.129  1.00  0.00    -0.245 NA 
HETATM    4  N   UNL     1     -10.768   9.314  69.606  1.00  0.00    -0.230 NA 
HETATM    5  C   UNL     1     -11.457  10.346  70.135  1.00  0.00    -0.319 A  
HETATM    6  C   UNL     1     -11.613  11.683  69.815  1.00  0.00    -0.315 A  
HETATM    7  N   UNL     1     -12.463  12.301  70.730  1.00  0.00    -0.322 NA 
HETATM    8  O   UNL     1     -13.039   8.834  72.887  1.00  0.00    -0.312 OA 
HETATM    9  C   UNL     1     -12.338   8.937  71.892  1.00  0.00    -0.376 C  
HETATM   10  C   UNL     1     -12.803  11.350  71.572  1.00  0.00    -0.403 A  
HETATM   11  N   UNL     1     -12.220  10.153  71.251  1.00  0.00    -0.369 N  
ENDROOT
BRANCH   6  12
HETATM   12  C   UNL     1     -11.001  12.392  68.698  1.00  0.00    -0.247 C  
HETATM   13  H2  UNL     1      -9.398  12.950  69.945  1.00  0.00     0.000 HD 
HETATM   14  O   UNL     1     -11.475  12.464  67.570  1.00  0.00    -0.302 OA 
HETATM   15  N   UNL     1      -9.816  12.992  69.015  1.00  0.00    -0.392 N  
HETATM   16  H1  UNL     1      -9.388  13.488  68.233  1.00  0.00     0.000 HD 
ENDBRANCH   6  12
TORSDOF 1
ENDMDL
MODEL       83
REMARK 921   NORMALIZED FREE ENERGY PREDICTED BY IDOCK:   -4.01 KCAL/MOL
REMARK 922        TOTAL FREE ENERGY PREDICTED BY IDOCK:   -4.52 KCAL/MOL
REMARK 923 INTER-LIGAND FREE ENERGY PREDICTED BY IDOCK:   -4.24 KCAL/MOL
REMARK 924 INTRA-LIGAND FREE ENERGY PREDICTED BY IDOCK:   -0.29 KCAL/MOL
REMARK 927      BINDING AFFINITY PREDICTED BY RF-SCORE:    0.00 PKD
ROOT
HETATM    1  C   UNL     1      -8.726   5.432  68.656  1.00  0.00    -0.097 C  
HETATM    2  N   UNL     1      -9.661   6.271  69.372  1.00  0.00    -0.140 N  
HETATM    3  N   UNL     1     -10.894   5.721  69.630  1.00  0.00    -0.353 NA 
HETATM    4  N   UNL     1     -11.763   6.380  70.247  1.00  0.00    -0.393 NA 
HETATM    5  C   UNL     1     -11.502   7.635  70.666  1.00  0.00    -0.258 A  
HETATM    6  C   UNL     1     -12.212   8.603  71.353  1.00  0.00    -0.304 A  
HETATM    7  N   UNL     1     -11.432   9.747  71.518  1.00  0.00    -0.366 NA 
HETATM    8  O   UNL     1      -8.199   8.104  69.554  1.00  0.00    -0.117 OA 
HETATM    9  C   UNL     1      -9.268   7.543  69.744  1.00  0.00    -0.147 C  
HETATM   10  C   UNL     1     -10.285   9.459  70.943  1.00  0.00    -0.303 A  
HETATM   11  N   UNL     1     -10.282   8.195  70.416  1.00  0.00    -0.198 N  
ENDROOT
BRANCH   6  12
HETATM   12  C   UNL     1     -13.578   8.497  71.851  1.00  0.00    -0.396 C  
HETATM   13  H2  UNL     1     -13.968   6.995  70.427  1.00  0.00     0.000 HD 
HETATM   14  O   UNL     1     -14.042   9.165  72.767  1.00  0.00    -0.518 OA 
HETATM   15  N   UNL     1     -14.328   7.564  71.194  1.00  0.00    -0.647 N  
HETATM   16  H1  UNL     1     -15.284   7.489  71.543  1.00  0.00     0.000 HD 
ENDBRANCH   6  12
TORSDOF 1
ENDMDL
MODEL       84
REMARK 921   NORMALIZED FREE ENERGY PREDICTED BY IDOCK:   -3.98 KCAL/MOL
REMARK 922        TOTAL FREE ENERGY PREDICTED BY IDOCK:   -4.49 KCAL/MOL
REMARK 923 INTER-LIGAND FREE ENERGY PREDICTED BY IDOCK:   -4.20 KCAL/MOL
REMARK 924 INTRA-LIGAND FREE ENERGY PREDICTED BY IDOCK:   -0.29 KCAL/MOL
REMARK 927      BINDING AFFINITY PREDICTED BY RF-SCORE:    0.00 PKD
ROOT
HETATM    1  C   UNL     1      -9.469   4.306  69.179  1.00  0.00    -0.175 C  
HETATM    2  N   UNL     1     -10.195   5.293  69.947  1.00  0.00    -0.272 N  
HETATM    3  N   UNL     1     -11.226   5.928  69.296  1.00  0.00    -0.310 NA 
HETATM    4  N   UNL     1     -11.907   6.796  69.890  1.00  0.00    -0.234 NA 
HETATM    5  C   UNL     1     -11.641   7.118  71.173  1.00  0.00    -0.301 A  
HETATM    6  C   UNL     1     -12.183   7.999  72.091  1.00  0.00    -0.331 A  
HETATM    7  N   UNL     1     -11.495   7.916  73.301  1.00  0.00    -0.174 NA 
HETATM    8  O   UNL     1      -8.921   5.013  71.904  1.00  0.00    -0.131 OA 
HETATM    9  C   UNL     1      -9.819   5.530  71.256  1.00  0.00    -0.175 C  
HETATM   10  C   UNL     1     -10.568   7.005  73.102  1.00  0.00    -0.318 A  
HETATM   11  N   UNL     1     -10.620   6.495  71.831  1.00  0.00    -0.207 N  
ENDROOT
BRANCH   6  12
HETATM   12  C   UNL     1     -13.306   8.903  71.878  1.00  0.00    -0.405 C  
HETATM   13  H2  UNL     1     -12.408   9.578  70.097  1.00  0.00     0.000 HD 
HETATM   14  O   UNL     1     -14.268   9.013  72.628  1.00  0.00    -0.574 OA 
HETATM   15  N   UNL     1     -13.199   9.648  70.738  1.00  0.00    -0.589 N  
HETATM   16  H1  UNL     1     -13.985  10.281  70.589  1.00  0.00     0.000 HD 
ENDBRANCH   6  12
TORSDOF 1
ENDMDL
MODEL       85
REMARK 921   NORMALIZED FREE ENERGY PREDICTED BY IDOCK:   -3.94 KCAL/MOL
REMARK 922        TOTAL FREE ENERGY PREDICTED BY IDOCK:   -4.45 KCAL/MOL
REMARK 923 INTER-LIGAND FREE ENERGY PREDICTED BY IDOCK:   -4.16 KCAL/MOL
REMARK 924 INTRA-LIGAND FREE ENERGY PREDICTED BY IDOCK:   -0.29 KCAL/MOL
REMARK 927      BINDING AFFINITY PREDICTED BY RF-SCORE:    0.00 PKD
ROOT
HETATM    1  C   UNL     1      -9.739  10.713  63.004  1.00  0.00    -0.323 C  
HETATM    2  N   UNL     1     -10.056  11.522  64.160  1.00  0.00    -0.282 N  
HETATM    3  N   UNL     1     -10.230  12.866  63.930  1.00  0.00    -0.359 NA 
HETATM    4  N   UNL     1     -10.509  13.637  64.877  1.00  0.00    -0.392 NA 
HETATM    5  C   UNL     1     -10.642  13.162  66.133  1.00  0.00    -0.279 A  
HETATM    6  C   UNL     1     -10.936  13.721  67.363  1.00  0.00    -0.284 A  
HETATM    7  N   UNL     1     -10.942  12.737  68.350  1.00  0.00    -0.242 NA 
HETATM    8  O   UNL     1     -10.022   9.730  65.683  1.00  0.00    -0.301 OA 
HETATM    9  C   UNL     1     -10.162  10.909  65.395  1.00  0.00    -0.277 C  
HETATM   10  C   UNL     1     -10.658  11.621  67.717  1.00  0.00    -0.194 A  
HETATM   11  N   UNL     1     -10.470  11.829  66.376  1.00  0.00    -0.228 N  
ENDROOT
BRANCH   6  12
HETATM   12  C   UNL     1     -11.207  15.126  67.642  1.00  0.00    -0.327 C  
HETATM   13  H2  UNL     1     -10.113  15.666  65.926  1.00  0.00     0.000 HD 
HETATM   14  O   UNL     1     -11.858  15.537  68.595  1.00  0.00    -0.362 OA 
HETATM   15  N   UNL     1     -10.660  15.981  66.728  1.00  0.00    -0.315 N  
HETATM   16  H1  UNL     1     -10.850  16.963  66.924  1.00  0.00     0.000 HD 
ENDBRANCH   6  12
TORSDOF 1
ENDMDL
MODEL       86
REMARK 921   NORMALIZED FREE ENERGY PREDICTED BY IDOCK:   -3.94 KCAL/MOL
REMARK 922        TOTAL FREE ENERGY PREDICTED BY IDOCK:   -4.44 KCAL/MOL
REMARK 923 INTER-LIGAND FREE ENERGY PREDICTED BY IDOCK:   -4.15 KCAL/MOL
REMARK 924 INTRA-LIGAND FREE ENERGY PREDICTED BY IDOCK:   -0.29 KCAL/MOL
REMARK 927      BINDING AFFINITY PREDICTED BY RF-SCORE:    0.00 PKD
ROOT
HETATM    1  C   UNL     1      -8.760  20.010  66.154  1.00  0.00    -0.257 C  
HETATM    2  N   UNL     1      -9.135  18.935  67.045  1.00  0.00    -0.287 N  
HETATM    3  N   UNL     1     -10.465  18.867  67.387  1.00  0.00    -0.425 NA 
HETATM    4  N   UNL     1     -10.874  17.965  68.154  1.00  0.00    -0.262 NA 
HETATM    5  C   UNL     1     -10.019  17.048  68.652  1.00  0.00    -0.294 A  
HETATM    6  C   UNL     1     -10.138  15.956  69.493  1.00  0.00    -0.277 A  
HETATM    7  N   UNL     1      -8.896  15.351  69.676  1.00  0.00    -0.219 NA 
HETATM    8  O   UNL     1      -6.963  18.053  67.232  1.00  0.00    -0.183 OA 
HETATM    9  C   UNL     1      -8.158  18.062  67.487  1.00  0.00    -0.230 C  
HETATM   10  C   UNL     1      -8.061  16.070  68.958  1.00  0.00    -0.226 A  
HETATM   11  N   UNL     1      -8.695  17.104  68.322  1.00  0.00    -0.233 N  
ENDROOT
BRANCH   6  12
HETATM   12  C   UNL     1     -11.358  15.467  70.123  1.00  0.00    -0.326 C  
HETATM   13  H2  UNL     1     -12.349  15.584  68.268  1.00  0.00     0.000 HD 
HETATM   14  O   UNL     1     -11.467  15.180  71.309  1.00  0.00    -0.327 OA 
HETATM   15  N   UNL     1     -12.411  15.351  69.260  1.00  0.00    -0.606 N  
HETATM   16  H1  UNL     1     -13.264  15.009  69.701  1.00  0.00     0.000 HD 
ENDBRANCH   6  12
TORSDOF 1
ENDMDL
MODEL       87
REMARK 921   NORMALIZED FREE ENERGY PREDICTED BY IDOCK:   -3.92 KCAL/MOL
REMARK 922        TOTAL FREE ENERGY PREDICTED BY IDOCK:   -4.43 KCAL/MOL
REMARK 923 INTER-LIGAND FREE ENERGY PREDICTED BY IDOCK:   -4.31 KCAL/MOL
REMARK 924 INTRA-LIGAND FREE ENERGY PREDICTED BY IDOCK:   -0.12 KCAL/MOL
REMARK 927      BINDING AFFINITY PREDICTED BY RF-SCORE:    0.00 PKD
ROOT
HETATM    1  C   UNL     1      -9.088   9.358  65.619  1.00  0.00    -0.207 C  
HETATM    2  N   UNL     1      -9.677  10.660  65.839  1.00  0.00    -0.211 N  
HETATM    3  N   UNL     1      -9.569  11.167  67.112  1.00  0.00    -0.172 NA 
HETATM    4  N   UNL     1     -10.051  12.290  67.387  1.00  0.00    -0.199 NA 
HETATM    5  C   UNL     1     -10.679  13.017  66.441  1.00  0.00    -0.282 A  
HETATM    6  C   UNL     1     -11.300  14.253  66.410  1.00  0.00    -0.343 A  
HETATM    7  N   UNL     1     -11.792  14.513  65.132  1.00  0.00    -0.370 NA 
HETATM    8  O   UNL     1     -10.434  10.922  63.628  1.00  0.00    -0.346 OA 
HETATM    9  C   UNL     1     -10.296  11.301  64.781  1.00  0.00    -0.307 C  
HETATM   10  C   UNL     1     -11.468  13.454  64.423  1.00  0.00    -0.384 A  
HETATM   11  N   UNL     1     -10.795  12.526  65.172  1.00  0.00    -0.280 N  
ENDROOT
BRANCH   6  12
HETATM   12  C   UNL     1     -11.447  15.185  67.521  1.00  0.00    -0.298 C  
HETATM   13  H2  UNL     1     -12.964  13.967  68.327  1.00  0.00     0.000 HD 
HETATM   14  O   UNL     1     -10.794  16.212  67.664  1.00  0.00    -0.318 OA 
HETATM   15  N   UNL     1     -12.405  14.815  68.422  1.00  0.00    -0.593 N  
HETATM   16  H1  UNL     1     -12.507  15.468  69.200  1.00  0.00     0.000 HD 
ENDBRANCH   6  12
TORSDOF 1
ENDMDL
MODEL       88
REMARK 921   NORMALIZED FREE ENERGY PREDICTED BY IDOCK:   -3.91 KCAL/MOL
REMARK 922        TOTAL FREE ENERGY PREDICTED BY IDOCK:   -4.41 KCAL/MOL
REMARK 923 INTER-LIGAND FREE ENERGY PREDICTED BY IDOCK:   -4.14 KCAL/MOL
REMARK 924 INTRA-LIGAND FREE ENERGY PREDICTED BY IDOCK:   -0.28 KCAL/MOL
REMARK 927      BINDING AFFINITY PREDICTED BY RF-SCORE:    0.00 PKD
ROOT
HETATM    1  C   UNL     1      -6.760  20.989  66.976  1.00  0.00    -0.339 C  
HETATM    2  N   UNL     1      -7.560  19.858  67.391  1.00  0.00    -0.263 N  
HETATM    3  N   UNL     1      -7.095  19.150  68.474  1.00  0.00    -0.287 NA 
HETATM    4  N   UNL     1      -7.729  18.158  68.899  1.00  0.00    -0.246 NA 
HETATM    5  C   UNL     1      -8.875  17.769  68.303  1.00  0.00    -0.277 A  
HETATM    6  C   UNL     1      -9.791  16.754  68.515  1.00  0.00    -0.257 A  
HETATM    7  N   UNL     1     -10.816  16.826  67.573  1.00  0.00    -0.270 NA 
HETATM    8  O   UNL     1      -9.196  20.138  65.725  1.00  0.00    -0.233 OA 
HETATM    9  C   UNL     1      -8.716  19.565  66.691  1.00  0.00    -0.342 C  
HETATM   10  C   UNL     1     -10.512  17.861  66.821  1.00  0.00    -0.311 A  
HETATM   11  N   UNL     1      -9.349  18.462  67.226  1.00  0.00    -0.267 N  
ENDROOT
BRANCH   6  12
HETATM   12  C   UNL     1      -9.741  15.734  69.555  1.00  0.00    -0.276 C  
HETATM   13  H2  UNL     1      -7.792  15.222  68.940  1.00  0.00     0.000 HD 
HETATM   14  O   UNL     1     -10.647  15.491  70.342  1.00  0.00    -0.317 OA 
HETATM   15  N   UNL     1      -8.563  15.042  69.584  1.00  0.00    -0.451 N  
HETATM   16  H1  UNL     1      -8.528  14.328  70.312  1.00  0.00     0.000 HD 
ENDBRANCH   6  12
TORSDOF 1
ENDMDL
MODEL       89
REMARK 921   NORMALIZED FREE ENERGY PREDICTED BY IDOCK:   -3.90 KCAL/MOL
REMARK 922        TOTAL FREE ENERGY PREDICTED BY IDOCK:   -4.40 KCAL/MOL
REMARK 923 INTER-LIGAND FREE ENERGY PREDICTED BY IDOCK:   -4.19 KCAL/MOL
REMARK 924 INTRA-LIGAND FREE ENERGY PREDICTED BY IDOCK:   -0.21 KCAL/MOL
REMARK 927      BINDING AFFINITY PREDICTED BY RF-SCORE:    0.00 PKD
ROOT
HETATM    1  C   UNL     1     -11.699   9.172  71.241  1.00  0.00    -0.326 C  
HETATM    2  N   UNL     1     -11.464  10.158  70.209  1.00  0.00    -0.285 N  
HETATM    3  N   UNL     1     -10.709   9.746  69.137  1.00  0.00    -0.217 NA 
HETATM    4  N   UNL     1     -10.460  10.537  68.199  1.00  0.00    -0.174 NA 
HETATM    5  C   UNL     1     -10.927  11.802  68.227  1.00  0.00    -0.229 A  
HETATM    6  C   UNL     1     -10.841  12.894  67.381  1.00  0.00    -0.251 A  
HETATM    7  N   UNL     1     -11.533  13.977  67.922  1.00  0.00    -0.298 NA 
HETATM    8  O   UNL     1     -12.677  11.868  71.276  1.00  0.00    -0.382 OA 
HETATM    9  C   UNL     1     -12.000  11.424  70.361  1.00  0.00    -0.374 C  
HETATM   10  C   UNL     1     -12.017  13.534  69.061  1.00  0.00    -0.335 A  
HETATM   11  N   UNL     1     -11.678  12.226  69.285  1.00  0.00    -0.315 N  
ENDROOT
BRANCH   6  12
HETATM   12  C   UNL     1     -10.143  12.958  66.103  1.00  0.00    -0.276 C  
HETATM   13  H2  UNL     1      -8.311  12.678  67.104  1.00  0.00     0.000 HD 
HETATM   14  O   UNL     1     -10.685  13.123  65.017  1.00  0.00    -0.297 OA 
HETATM   15  N   UNL     1      -8.788  12.816  66.213  1.00  0.00    -0.430 N  
HETATM   16  H1  UNL     1      -8.300  12.860  65.319  1.00  0.00     0.000 HD 
ENDBRANCH   6  12
TORSDOF 1
ENDMDL
MODEL       90
REMARK 921   NORMALIZED FREE ENERGY PREDICTED BY IDOCK:   -3.89 KCAL/MOL
REMARK 922        TOTAL FREE ENERGY PREDICTED BY IDOCK:   -4.40 KCAL/MOL
REMARK 923 INTER-LIGAND FREE ENERGY PREDICTED BY IDOCK:   -4.35 KCAL/MOL
REMARK 924 INTRA-LIGAND FREE ENERGY PREDICTED BY IDOCK:   -0.04 KCAL/MOL
REMARK 927      BINDING AFFINITY PREDICTED BY RF-SCORE:    0.00 PKD
ROOT
HETATM    1  C   UNL     1      -7.562   8.110  68.948  1.00  0.00    -0.098 C  
HETATM    2  N   UNL     1      -8.837   8.208  69.623  1.00  0.00    -0.142 N  
HETATM    3  N   UNL     1      -9.205   9.463  70.045  1.00  0.00    -0.202 NA 
HETATM    4  N   UNL     1     -10.295   9.636  70.637  1.00  0.00    -0.296 NA 
HETATM    5  C   UNL     1     -11.122   8.596  70.868  1.00  0.00    -0.264 A  
HETATM    6  C   UNL     1     -12.358   8.446  71.472  1.00  0.00    -0.309 A  
HETATM    7  N   UNL     1     -12.755   7.110  71.430  1.00  0.00    -0.385 NA 
HETATM    8  O   UNL     1      -9.337   5.916  69.457  1.00  0.00    -0.132 OA 
HETATM    9  C   UNL     1      -9.590   7.061  69.799  1.00  0.00    -0.151 C  
HETATM   10  C   UNL     1     -11.776   6.485  70.814  1.00  0.00    -0.366 A  
HETATM   11  N   UNL     1     -10.770   7.343  70.456  1.00  0.00    -0.229 N  
ENDROOT
BRANCH   6  12
HETATM   12  C   UNL     1     -13.168   9.495  72.079  1.00  0.00    -0.452 C  
HETATM   13  H2  UNL     1     -14.041   8.065  73.356  1.00  0.00     0.000 HD 
HETATM   14  O   UNL     1     -13.138  10.676  71.757  1.00  0.00    -0.444 OA 
HETATM   15  N   UNL     1     -13.995   9.043  73.069  1.00  0.00    -0.881 N  
HETATM   16  H1  UNL     1     -14.561   9.778  73.493  1.00  0.00     0.000 HD 
ENDBRANCH   6  12
TORSDOF 1
ENDMDL
MODEL       91
REMARK 921   NORMALIZED FREE ENERGY PREDICTED BY IDOCK:   -3.88 KCAL/MOL
REMARK 922        TOTAL FREE ENERGY PREDICTED BY IDOCK:   -4.38 KCAL/MOL
REMARK 923 INTER-LIGAND FREE ENERGY PREDICTED BY IDOCK:   -4.10 KCAL/MOL
REMARK 924 INTRA-LIGAND FREE ENERGY PREDICTED BY IDOCK:   -0.28 KCAL/MOL
REMARK 927      BINDING AFFINITY PREDICTED BY RF-SCORE:    0.00 PKD
ROOT
HETATM    1  C   UNL     1     -11.766  15.605  68.827  1.00  0.00    -0.370 C  
HETATM    2  N   UNL     1     -10.705  16.549  68.556  1.00  0.00    -0.318 N  
HETATM    3  N   UNL     1     -11.067  17.692  67.884  1.00  0.00    -0.105 NA 
HETATM    4  N   UNL     1     -10.208  18.563  67.611  1.00  0.00    -0.367 NA 
HETATM    5  C   UNL     1      -8.920  18.392  67.972  1.00  0.00    -0.290 A  
HETATM    6  C   UNL     1      -7.760  19.134  67.833  1.00  0.00    -0.275 A  
HETATM    7  N   UNL     1      -6.685  18.459  68.410  1.00  0.00    -0.223 NA 
HETATM    8  O   UNL     1      -9.020  15.266  69.578  1.00  0.00    -0.242 OA 
HETATM    9  C   UNL     1      -9.422  16.252  68.980  1.00  0.00    -0.258 C  
HETATM   10  C   UNL     1      -7.200  17.343  68.880  1.00  0.00    -0.250 A  
HETATM   11  N   UNL     1      -8.545  17.262  68.639  1.00  0.00    -0.275 N  
ENDROOT
BRANCH   6  12
HETATM   12  C   UNL     1      -7.625  20.434  67.188  1.00  0.00    -0.324 C  
HETATM   13  H2  UNL     1      -9.709  20.705  67.327  1.00  0.00     0.000 HD 
HETATM   14  O   UNL     1      -6.566  20.922  66.812  1.00  0.00    -0.264 OA 
HETATM   15  N   UNL     1      -8.813  21.089  67.025  1.00  0.00    -0.544 N  
HETATM   16  H1  UNL     1      -8.718  21.999  66.573  1.00  0.00     0.000 HD 
ENDBRANCH   6  12
TORSDOF 1
ENDMDL
MODEL       92
REMARK 921   NORMALIZED FREE ENERGY PREDICTED BY IDOCK:   -3.87 KCAL/MOL
REMARK 922        TOTAL FREE ENERGY PREDICTED BY IDOCK:   -4.37 KCAL/MOL
REMARK 923 INTER-LIGAND FREE ENERGY PREDICTED BY IDOCK:   -4.08 KCAL/MOL
REMARK 924 INTRA-LIGAND FREE ENERGY PREDICTED BY IDOCK:   -0.29 KCAL/MOL
REMARK 927      BINDING AFFINITY PREDICTED BY RF-SCORE:    0.00 PKD
ROOT
HETATM    1  C   UNL     1     -10.225   8.274  68.337  1.00  0.00    -0.209 C  
HETATM    2  N   UNL     1     -10.761   9.495  68.896  1.00  0.00    -0.217 N  
HETATM    3  N   UNL     1     -11.318   9.395  70.149  1.00  0.00    -0.222 NA 
HETATM    4  N   UNL     1     -11.804  10.407  70.706  1.00  0.00    -0.340 NA 
HETATM    5  C   UNL     1     -11.787  11.605  70.087  1.00  0.00    -0.344 A  
HETATM    6  C   UNL     1     -12.221  12.878  70.412  1.00  0.00    -0.304 A  
HETATM    7  N   UNL     1     -11.941  13.762  69.371  1.00  0.00    -0.332 NA 
HETATM    8  O   UNL     1     -10.208  10.832  67.043  1.00  0.00    -0.200 OA 
HETATM    9  C   UNL     1     -10.683  10.660  68.155  1.00  0.00    -0.225 C  
HETATM   10  C   UNL     1     -11.353  13.027  68.452  1.00  0.00    -0.291 A  
HETATM   11  N   UNL     1     -11.238  11.719  68.843  1.00  0.00    -0.233 N  
ENDROOT
BRANCH   6  12
HETATM   12  C   UNL     1     -12.880  13.289  71.645  1.00  0.00    -0.302 C  
HETATM   13  H2  UNL     1     -13.624  11.333  71.886  1.00  0.00     0.000 HD 
HETATM   14  O   UNL     1     -12.841  14.419  72.117  1.00  0.00    -0.320 OA 
HETATM   15  N   UNL     1     -13.573  12.283  72.257  1.00  0.00    -0.536 N  
HETATM   16  H1  UNL     1     -14.034  12.571  73.119  1.00  0.00     0.000 HD 
ENDBRANCH   6  12
TORSDOF 1
ENDMDL
MODEL       93
REMARK 921   NORMALIZED FREE ENERGY PREDICTED BY IDOCK:   -3.83 KCAL/MOL
REMARK 922        TOTAL FREE ENERGY PREDICTED BY IDOCK:   -4.33 KCAL/MOL
REMARK 923 INTER-LIGAND FREE ENERGY PREDICTED BY IDOCK:   -4.03 KCAL/MOL
REMARK 924 INTRA-LIGAND FREE ENERGY PREDICTED BY IDOCK:   -0.30 KCAL/MOL
REMARK 927      BINDING AFFINITY PREDICTED BY RF-SCORE:    0.00 PKD
ROOT
HETATM    1  C   UNL     1     -11.756  14.536  66.110  1.00  0.00    -0.350 C  
HETATM    2  N   UNL     1     -11.557  13.360  66.928  1.00  0.00    -0.346 N  
HETATM    3  N   UNL     1     -11.109  12.236  66.276  1.00  0.00    -0.287 NA 
HETATM    4  N   UNL     1     -10.910  11.175  66.911  1.00  0.00    -0.275 NA 
HETATM    5  C   UNL     1     -11.130  11.120  68.241  1.00  0.00    -0.251 A  
HETATM    6  C   UNL     1     -11.011  10.140  69.211  1.00  0.00    -0.240 A  
HETATM    7  N   UNL     1     -11.384  10.648  70.455  1.00  0.00    -0.317 NA 
HETATM    8  O   UNL     1     -12.220  14.389  68.936  1.00  0.00    -0.281 OA 
HETATM    9  C   UNL     1     -11.822  13.436  68.283  1.00  0.00    -0.358 C  
HETATM   10  C   UNL     1     -11.714  11.899  70.224  1.00  0.00    -0.205 A  
HETATM   11  N   UNL     1     -11.575  12.228  68.902  1.00  0.00    -0.293 N  
ENDROOT
BRANCH   6  12
HETATM   12  C   UNL     1     -10.568   8.766  69.016  1.00  0.00    -0.171 C  
HETATM   13  H2  UNL     1     -11.546   8.727  67.151  1.00  0.00     0.000 HD 
HETATM   14  O   UNL     1      -9.891   8.129  69.813  1.00  0.00    -0.182 OA 
HETATM   15  N   UNL     1     -10.981   8.221  67.833  1.00  0.00    -0.476 N  
HETATM   16  H1  UNL     1     -10.671   7.259  67.697  1.00  0.00     0.000 HD 
ENDBRANCH   6  12
TORSDOF 1
ENDMDL
MODEL       94
REMARK 921   NORMALIZED FREE ENERGY PREDICTED BY IDOCK:   -3.79 KCAL/MOL
REMARK 922        TOTAL FREE ENERGY PREDICTED BY IDOCK:   -4.29 KCAL/MOL
REMARK 923 INTER-LIGAND FREE ENERGY PREDICTED BY IDOCK:   -4.18 KCAL/MOL
REMARK 924 INTRA-LIGAND FREE ENERGY PREDICTED BY IDOCK:   -0.11 KCAL/MOL
REMARK 927      BINDING AFFINITY PREDICTED BY RF-SCORE:    0.00 PKD
ROOT
HETATM    1  C   UNL     1      -8.614   7.915  65.613  1.00  0.00    -0.138 C  
HETATM    2  N   UNL     1      -9.423   8.839  66.375  1.00  0.00    -0.208 N  
HETATM    3  N   UNL     1      -9.611   8.529  67.701  1.00  0.00    -0.148 NA 
HETATM    4  N   UNL     1     -10.297   9.279  68.433  1.00  0.00    -0.203 NA 
HETATM    5  C   UNL     1     -10.860  10.398  67.933  1.00  0.00    -0.279 A  
HETATM    6  C   UNL     1     -11.648  11.411  68.451  1.00  0.00    -0.315 A  
HETATM    7  N   UNL     1     -11.950  12.341  67.458  1.00  0.00    -0.528 NA 
HETATM    8  O   UNL     1      -9.825  10.297  64.575  1.00  0.00    -0.318 OA 
HETATM    9  C   UNL     1      -9.944   9.952  65.740  1.00  0.00    -0.277 C  
HETATM   10  C   UNL     1     -11.353  11.888  66.377  1.00  0.00    -0.339 A  
HETATM   11  N   UNL     1     -10.682  10.718  66.618  1.00  0.00    -0.236 N  
ENDROOT
BRANCH   6  12
HETATM   12  C   UNL     1     -12.121  11.535  69.824  1.00  0.00    -0.306 C  
HETATM   13  H2  UNL     1     -11.407  13.516  69.877  1.00  0.00     0.000 HD 
HETATM   14  O   UNL     1     -12.685  10.649  70.453  1.00  0.00    -0.333 OA 
HETATM   15  N   UNL     1     -11.876  12.761  70.377  1.00  0.00    -0.550 N  
HETATM   16  H1  UNL     1     -12.207  12.847  71.338  1.00  0.00     0.000 HD 
ENDBRANCH   6  12
TORSDOF 1
ENDMDL
MODEL       95
REMARK 921   NORMALIZED FREE ENERGY PREDICTED BY IDOCK:   -3.74 KCAL/MOL
REMARK 922        TOTAL FREE ENERGY PREDICTED BY IDOCK:   -4.23 KCAL/MOL
REMARK 923 INTER-LIGAND FREE ENERGY PREDICTED BY IDOCK:   -3.94 KCAL/MOL
REMARK 924 INTRA-LIGAND FREE ENERGY PREDICTED BY IDOCK:   -0.29 KCAL/MOL
REMARK 927      BINDING AFFINITY PREDICTED BY RF-SCORE:    0.00 PKD
ROOT
HETATM    1  C   UNL     1     -10.892  16.960  68.413  1.00  0.00    -0.347 C  
HETATM    2  N   UNL     1      -9.739  17.406  67.663  1.00  0.00    -0.264 N  
HETATM    3  N   UNL     1      -9.949  18.446  66.789  1.00  0.00    -0.339 NA 
HETATM    4  N   UNL     1      -9.002  18.894  66.103  1.00  0.00    -0.470 NA 
HETATM    5  C   UNL     1      -7.766  18.366  66.211  1.00  0.00    -0.247 A  
HETATM    6  C   UNL     1      -6.540  18.619  65.621  1.00  0.00    -0.274 A  
HETATM    7  N   UNL     1      -5.576  17.744  66.120  1.00  0.00    -0.193 NA 
HETATM    8  O   UNL     1      -8.255  15.852  68.620  1.00  0.00    -0.160 OA 
HETATM    9  C   UNL     1      -8.525  16.776  67.868  1.00  0.00    -0.200 C  
HETATM   10  C   UNL     1      -6.218  16.992  66.986  1.00  0.00    -0.190 A  
HETATM   11  N   UNL     1      -7.542  17.332  67.074  1.00  0.00    -0.184 N  
ENDROOT
BRANCH   6  12
HETATM   12  C   UNL     1      -6.245  19.636  64.620  1.00  0.00    -0.250 C  
HETATM   13  H2  UNL     1      -7.237  21.070  65.802  1.00  0.00     0.000 HD 
HETATM   14  O   UNL     1      -5.632  19.436  63.578  1.00  0.00    -0.300 OA 
HETATM   15  N   UNL     1      -6.722  20.875  64.943  1.00  0.00    -0.523 N  
HETATM   16  H1  UNL     1      -6.515  21.587  64.242  1.00  0.00     0.000 HD 
ENDBRANCH   6  12
TORSDOF 1
ENDMDL
MODEL       96
REMARK 921   NORMALIZED FREE ENERGY PREDICTED BY IDOCK:   -3.74 KCAL/MOL
REMARK 922        TOTAL FREE ENERGY PREDICTED BY IDOCK:   -4.23 KCAL/MOL
REMARK 923 INTER-LIGAND FREE ENERGY PREDICTED BY IDOCK:   -4.19 KCAL/MOL
REMARK 924 INTRA-LIGAND FREE ENERGY PREDICTED BY IDOCK:   -0.05 KCAL/MOL
REMARK 927      BINDING AFFINITY PREDICTED BY RF-SCORE:    0.00 PKD
ROOT
HETATM    1  C   UNL     1     -13.273  13.289  71.394  1.00  0.00    -0.223 C  
HETATM    2  N   UNL     1     -12.756  11.961  71.146  1.00  0.00    -0.344 N  
HETATM    3  N   UNL     1     -13.173  10.977  72.010  1.00  0.00    -0.459 NA 
HETATM    4  N   UNL     1     -12.773   9.798  71.864  1.00  0.00    -0.404 NA 
HETATM    5  C   UNL     1     -11.931   9.479  70.861  1.00  0.00    -0.295 A  
HETATM    6  C   UNL     1     -11.322   8.314  70.431  1.00  0.00    -0.175 A  
HETATM    7  N   UNL     1     -10.530   8.569  69.312  1.00  0.00    -0.222 NA 
HETATM    8  O   UNL     1     -11.478  12.582  69.271  1.00  0.00    -0.273 OA 
HETATM    9  C   UNL     1     -11.895  11.767  70.081  1.00  0.00    -0.324 C  
HETATM   10  C   UNL     1     -10.670   9.857  69.085  1.00  0.00    -0.224 A  
HETATM   11  N   UNL     1     -11.508  10.446  69.995  1.00  0.00    -0.285 N  
ENDROOT
BRANCH   6  12
HETATM   12  C   UNL     1     -11.452   6.988  71.023  1.00  0.00    -0.303 C  
HETATM   13  H2  UNL     1     -11.082   6.123  69.139  1.00  0.00     0.000 HD 
HETATM   14  O   UNL     1     -11.692   6.770  72.204  1.00  0.00    -0.285 OA 
HETATM   15  N   UNL     1     -11.281   5.970  70.128  1.00  0.00    -0.369 N  
HETATM   16  H1  UNL     1     -11.372   5.043  70.543  1.00  0.00     0.000 HD 
ENDBRANCH   6  12
TORSDOF 1
ENDMDL
MODEL       97
REMARK 921   NORMALIZED FREE ENERGY PREDICTED BY IDOCK:   -3.68 KCAL/MOL
REMARK 922        TOTAL FREE ENERGY PREDICTED BY IDOCK:   -4.17 KCAL/MOL
REMARK 923 INTER-LIGAND FREE ENERGY PREDICTED BY IDOCK:   -3.87 KCAL/MOL
REMARK 924 INTRA-LIGAND FREE ENERGY PREDICTED BY IDOCK:   -0.30 KCAL/MOL
REMARK 927      BINDING AFFINITY PREDICTED BY RF-SCORE:    0.00 PKD
ROOT
HETATM    1  C   UNL     1      -9.020  11.182  62.347  1.00  0.00    -0.265 C  
HETATM    2  N   UNL     1      -9.524  11.052  63.696  1.00  0.00    -0.250 N  
HETATM    3  N   UNL     1     -10.177  12.148  64.207  1.00  0.00    -0.315 NA 
HETATM    4  N   UNL     1     -10.646  12.119  65.369  1.00  0.00    -0.263 NA 
HETATM    5  C   UNL     1     -10.517  11.014  66.132  1.00  0.00    -0.244 A  
HETATM    6  C   UNL     1     -10.907  10.661  67.412  1.00  0.00    -0.296 A  
HETATM    7  N   UNL     1     -10.498   9.358  67.697  1.00  0.00    -0.254 NA 
HETATM    8  O   UNL     1      -8.757   8.849  63.993  1.00  0.00    -0.155 OA 
HETATM    9  C   UNL     1      -9.323   9.863  64.373  1.00  0.00    -0.265 C  
HETATM   10  C   UNL     1      -9.881   8.952  66.609  1.00  0.00    -0.262 A  
HETATM   11  N   UNL     1      -9.870   9.919  65.638  1.00  0.00    -0.286 N  
ENDROOT
BRANCH   6  12
HETATM   12  C   UNL     1     -11.638  11.488  68.363  1.00  0.00    -0.308 C  
HETATM   13  H2  UNL     1     -10.671  13.197  67.602  1.00  0.00     0.000 HD 
HETATM   14  O   UNL     1     -12.447  11.066  69.181  1.00  0.00    -0.432 OA 
HETATM   15  N   UNL     1     -11.341  12.818  68.272  1.00  0.00    -0.274 N  
HETATM   16  H1  UNL     1     -11.853  13.397  68.938  1.00  0.00     0.000 HD 
ENDBRANCH   6  12
TORSDOF 1
ENDMDL
MODEL       98
REMARK 921   NORMALIZED FREE ENERGY PREDICTED BY IDOCK:   -3.67 KCAL/MOL
REMARK 922        TOTAL FREE ENERGY PREDICTED BY IDOCK:   -4.16 KCAL/MOL
REMARK 923 INTER-LIGAND FREE ENERGY PREDICTED BY IDOCK:   -3.87 KCAL/MOL
REMARK 924 INTRA-LIGAND FREE ENERGY PREDICTED BY IDOCK:   -0.29 KCAL/MOL
REMARK 927      BINDING AFFINITY PREDICTED BY RF-SCORE:    0.00 PKD
ROOT
HETATM    1  C   UNL     1      -9.608   4.456  66.420  1.00  0.00    -0.196 C  
HETATM    2  N   UNL     1     -10.078   4.977  67.685  1.00  0.00    -0.160 N  
HETATM    3  N   UNL     1     -10.923   6.059  67.618  1.00  0.00    -0.296 NA 
HETATM    4  N   UNL     1     -11.377   6.571  68.668  1.00  0.00    -0.212 NA 
HETATM    5  C   UNL     1     -11.044   6.069  69.875  1.00  0.00    -0.399 A  
HETATM    6  C   UNL     1     -11.360   6.384  71.184  1.00  0.00    -0.319 A  
HETATM    7  N   UNL     1     -10.716   5.510  72.059  1.00  0.00    -0.231 NA 
HETATM    8  O   UNL     1      -8.914   3.413  69.000  1.00  0.00    -0.101 OA 
HETATM    9  C   UNL     1      -9.658   4.370  68.855  1.00  0.00    -0.163 C  
HETATM   10  C   UNL     1     -10.036   4.696  71.282  1.00  0.00    -0.198 A  
HETATM   11  N   UNL     1     -10.205   4.996  69.957  1.00  0.00    -0.273 N  
ENDROOT
BRANCH   6  12
HETATM   12  C   UNL     1     -12.231   7.461  71.639  1.00  0.00    -0.330 C  
HETATM   13  H2  UNL     1     -13.687   6.857  70.241  1.00  0.00     0.000 HD 
HETATM   14  O   UNL     1     -11.951   8.263  72.522  1.00  0.00    -0.387 OA 
HETATM   15  N   UNL     1     -13.428   7.511  70.981  1.00  0.00    -0.609 N  
HETATM   16  H1  UNL     1     -14.037   8.264  71.299  1.00  0.00     0.000 HD 
ENDBRANCH   6  12
TORSDOF 1
ENDMDL
MODEL       99
REMARK 921   NORMALIZED FREE ENERGY PREDICTED BY IDOCK:   -3.66 KCAL/MOL
REMARK 922        TOTAL FREE ENERGY PREDICTED BY IDOCK:   -4.15 KCAL/MOL
REMARK 923 INTER-LIGAND FREE ENERGY PREDICTED BY IDOCK:   -3.89 KCAL/MOL
REMARK 924 INTRA-LIGAND FREE ENERGY PREDICTED BY IDOCK:   -0.27 KCAL/MOL
REMARK 927      BINDING AFFINITY PREDICTED BY RF-SCORE:    0.00 PKD
ROOT
HETATM    1  C   UNL     1     -11.273   5.549  72.704  1.00  0.00    -0.295 C  
HETATM    2  N   UNL     1     -11.068   6.353  71.520  1.00  0.00    -0.262 N  
HETATM    3  N   UNL     1     -10.905   5.665  70.341  1.00  0.00    -0.285 NA 
HETATM    4  N   UNL     1     -10.724   6.286  69.268  1.00  0.00    -0.269 NA 
HETATM    5  C   UNL     1     -10.687   7.634  69.253  1.00  0.00    -0.161 A  
HETATM    6  C   UNL     1     -10.514   8.596  68.274  1.00  0.00    -0.184 A  
HETATM    7  N   UNL     1     -10.565   9.870  68.837  1.00  0.00    -0.211 NA 
HETATM    8  O   UNL     1     -11.185   8.414  72.645  1.00  0.00    -0.369 OA 
HETATM    9  C   UNL     1     -11.049   7.730  71.642  1.00  0.00    -0.237 C  
HETATM   10  C   UNL     1     -10.765   9.665  70.121  1.00  0.00    -0.275 A  
HETATM   11  N   UNL     1     -10.846   8.330  70.417  1.00  0.00    -0.234 N  
ENDROOT
BRANCH   6  12
HETATM   12  C   UNL     1     -10.304   8.367  66.850  1.00  0.00    -0.307 C  
HETATM   13  H2  UNL     1     -10.687   6.315  67.137  1.00  0.00     0.000 HD 
HETATM   14  O   UNL     1     -10.020   9.236  66.036  1.00  0.00    -0.290 OA 
HETATM   15  N   UNL     1     -10.452   7.060  66.480  1.00  0.00    -0.506 N  
HETATM   16  H1  UNL     1     -10.306   6.900  65.483  1.00  0.00     0.000 HD 
ENDBRANCH   6  12
TORSDOF 1
ENDMDL
MODEL      100
REMARK 921   NORMALIZED FREE ENERGY PREDICTED BY IDOCK:   -3.66 KCAL/MOL
REMARK 922        TOTAL FREE ENERGY PREDICTED BY IDOCK:   -4.14 KCAL/MOL
REMARK 923 INTER-LIGAND FREE ENERGY PREDICTED BY IDOCK:   -4.03 KCAL/MOL
REMARK 924 INTRA-LIGAND FREE ENERGY PREDICTED BY IDOCK:   -0.12 KCAL/MOL
REMARK 927      BINDING AFFINITY PREDICTED BY RF-SCORE:    0.00 PKD
ROOT
HETATM    1  C   UNL     1      -9.782   7.796  67.491  1.00  0.00    -0.158 C  
HETATM    2  N   UNL     1     -10.256   9.161  67.537  1.00  0.00    -0.228 N  
HETATM    3  N   UNL     1     -10.248   9.846  66.345  1.00  0.00    -0.239 NA 
HETATM    4  N   UNL     1     -10.645  11.033  66.297  1.00  0.00    -0.254 NA 
HETATM    5  C   UNL     1     -11.085  11.655  67.410  1.00  0.00    -0.281 A  
HETATM    6  C   UNL     1     -11.578  12.916  67.694  1.00  0.00    -0.355 A  
HETATM    7  N   UNL     1     -11.888  13.017  69.050  1.00  0.00    -0.317 NA 
HETATM    8  O   UNL     1     -10.719   9.143  69.842  1.00  0.00    -0.222 OA 
HETATM    9  C   UNL     1     -10.680   9.681  68.746  1.00  0.00    -0.206 C  
HETATM   10  C   UNL     1     -11.585  11.841  69.555  1.00  0.00    -0.332 A  
HETATM   11  N   UNL     1     -11.098  10.987  68.601  1.00  0.00    -0.218 N  
ENDROOT
BRANCH   6  12
HETATM   12  C   UNL     1     -11.766  14.014  66.755  1.00  0.00    -0.407 C  
HETATM   13  H2  UNL     1     -10.317  15.135  67.794  1.00  0.00     0.000 HD 
HETATM   14  O   UNL     1     -12.548  14.003  65.812  1.00  0.00    -0.491 OA 
HETATM   15  N   UNL     1     -10.976  15.098  67.016  1.00  0.00    -0.319 N  
HETATM   16  H1  UNL     1     -11.107  15.866  66.358  1.00  0.00     0.000 HD 
ENDBRANCH   6  12
TORSDOF 1
ENDMDL
MODEL      101
REMARK 921   NORMALIZED FREE ENERGY PREDICTED BY IDOCK:   -3.65 KCAL/MOL
REMARK 922        TOTAL FREE ENERGY PREDICTED BY IDOCK:   -4.14 KCAL/MOL
REMARK 923 INTER-LIGAND FREE ENERGY PREDICTED BY IDOCK:   -3.86 KCAL/MOL
REMARK 924 INTRA-LIGAND FREE ENERGY PREDICTED BY IDOCK:   -0.28 KCAL/MOL
REMARK 927      BINDING AFFINITY PREDICTED BY RF-SCORE:    0.00 PKD
ROOT
HETATM    1  C   UNL     1      -9.906  11.284  67.876  1.00  0.00    -0.176 C  
HETATM    2  N   UNL     1     -10.284  10.114  68.637  1.00  0.00    -0.168 N  
HETATM    3  N   UNL     1     -10.568  10.321  69.966  1.00  0.00    -0.280 NA 
HETATM    4  N   UNL     1     -10.905   9.360  70.696  1.00  0.00    -0.258 NA 
HETATM    5  C   UNL     1     -10.996   8.113  70.190  1.00  0.00    -0.223 A  
HETATM    6  C   UNL     1     -11.331   6.873  70.703  1.00  0.00    -0.320 A  
HETATM    7  N   UNL     1     -11.255   5.902  69.705  1.00  0.00    -0.360 NA 
HETATM    8  O   UNL     1     -10.102   8.623  66.828  1.00  0.00    -0.249 OA 
HETATM    9  C   UNL     1     -10.337   8.890  67.997  1.00  0.00    -0.219 C  
HETATM   10  C   UNL     1     -10.884   6.556  68.626  1.00  0.00    -0.295 A  
HETATM   11  N   UNL     1     -10.716   7.893  68.872  1.00  0.00    -0.134 N  
ENDROOT
BRANCH   6  12
HETATM   12  C   UNL     1     -11.715   6.569  72.076  1.00  0.00    -0.323 C  
HETATM   13  H2  UNL     1     -12.270   8.581  72.353  1.00  0.00     0.000 HD 
HETATM   14  O   UNL     1     -11.631   5.464  72.598  1.00  0.00    -0.282 OA 
HETATM   15  N   UNL     1     -12.190   7.650  72.763  1.00  0.00    -0.573 N  
HETATM   16  H1  UNL     1     -12.459   7.437  73.723  1.00  0.00     0.000 HD 
ENDBRANCH   6  12
TORSDOF 1
ENDMDL
MODEL      102
REMARK 921   NORMALIZED FREE ENERGY PREDICTED BY IDOCK:   -3.64 KCAL/MOL
REMARK 922        TOTAL FREE ENERGY PREDICTED BY IDOCK:   -4.12 KCAL/MOL
REMARK 923 INTER-LIGAND FREE ENERGY PREDICTED BY IDOCK:   -3.83 KCAL/MOL
REMARK 924 INTRA-LIGAND FREE ENERGY PREDICTED BY IDOCK:   -0.29 KCAL/MOL
REMARK 927      BINDING AFFINITY PREDICTED BY RF-SCORE:    0.00 PKD
ROOT
HETATM    1  C   UNL     1     -11.915  12.379  70.439  1.00  0.00    -0.257 C  
HETATM    2  N   UNL     1     -11.695  10.950  70.454  1.00  0.00    -0.331 N  
HETATM    3  N   UNL     1     -10.657  10.488  69.680  1.00  0.00    -0.247 NA 
HETATM    4  N   UNL     1     -10.397   9.264  69.638  1.00  0.00    -0.207 NA 
HETATM    5  C   UNL     1     -11.130   8.382  70.349  1.00  0.00    -0.231 A  
HETATM    6  C   UNL     1     -11.109   7.010  70.523  1.00  0.00    -0.280 A  
HETATM    7  N   UNL     1     -12.125   6.619  71.394  1.00  0.00    -0.353 NA 
HETATM    8  O   UNL     1     -13.458  10.483  71.938  1.00  0.00    -0.362 OA 
HETATM    9  C   UNL     1     -12.521  10.155  71.227  1.00  0.00    -0.406 C  
HETATM   10  C   UNL     1     -12.732   7.737  71.728  1.00  0.00    -0.329 A  
HETATM   11  N   UNL     1     -12.164   8.826  71.122  1.00  0.00    -0.276 N  
ENDROOT
BRANCH   6  12
HETATM   12  C   UNL     1     -10.184   6.065  69.909  1.00  0.00    -0.205 C  
HETATM   13  H2  UNL     1      -8.577   7.329  70.414  1.00  0.00     0.000 HD 
HETATM   14  O   UNL     1     -10.510   5.012  69.375  1.00  0.00    -0.206 OA 
HETATM   15  N   UNL     1      -8.877   6.458  69.977  1.00  0.00    -0.142 N  
HETATM   16  H1  UNL     1      -8.230   5.796  69.548  1.00  0.00     0.000 HD 
ENDBRANCH   6  12
TORSDOF 1
ENDMDL
MODEL      103
REMARK 921   NORMALIZED FREE ENERGY PREDICTED BY IDOCK:   -3.62 KCAL/MOL
REMARK 922        TOTAL FREE ENERGY PREDICTED BY IDOCK:   -4.11 KCAL/MOL
REMARK 923 INTER-LIGAND FREE ENERGY PREDICTED BY IDOCK:   -4.08 KCAL/MOL
REMARK 924 INTRA-LIGAND FREE ENERGY PREDICTED BY IDOCK:   -0.03 KCAL/MOL
REMARK 927      BINDING AFFINITY PREDICTED BY RF-SCORE:    0.00 PKD
ROOT
HETATM    1  C   UNL     1     -12.521  11.651  70.721  1.00  0.00    -0.330 C  
HETATM    2  N   UNL     1     -11.963  12.815  70.069  1.00  0.00    -0.335 N  
HETATM    3  N   UNL     1     -11.509  12.631  68.785  1.00  0.00    -0.282 NA 
HETATM    4  N   UNL     1     -11.013  13.589  68.148  1.00  0.00    -0.246 NA 
HETATM    5  C   UNL     1     -10.919  14.811  68.710  1.00  0.00    -0.259 A  
HETATM    6  C   UNL     1     -10.443  16.043  68.296  1.00  0.00    -0.269 A  
HETATM    7  N   UNL     1     -10.596  16.984  69.313  1.00  0.00    -0.323 NA 
HETATM    8  O   UNL     1     -12.303  14.258  71.895  1.00  0.00    -0.324 OA 
HETATM    9  C   UNL     1     -11.923  14.013  70.760  1.00  0.00    -0.291 C  
HETATM   10  C   UNL     1     -11.151  16.323  70.305  1.00  0.00    -0.332 A  
HETATM   11  N   UNL     1     -11.365  15.009  69.985  1.00  0.00    -0.259 N  
ENDROOT
BRANCH   6  12
HETATM   12  C   UNL     1      -9.858  16.364  67.001  1.00  0.00    -0.251 C  
HETATM   13  H2  UNL     1     -10.327  18.394  67.306  1.00  0.00     0.000 HD 
HETATM   14  O   UNL     1      -9.356  15.548  66.238  1.00  0.00    -0.268 OA 
HETATM   15  N   UNL     1      -9.914  17.693  66.690  1.00  0.00    -0.313 N  
HETATM   16  H1  UNL     1      -9.505  17.918  65.783  1.00  0.00     0.000 HD 
ENDBRANCH   6  12
TORSDOF 1
ENDMDL
MODEL      104
REMARK 921   NORMALIZED FREE ENERGY PREDICTED BY IDOCK:   -3.62 KCAL/MOL
REMARK 922        TOTAL FREE ENERGY PREDICTED BY IDOCK:   -4.10 KCAL/MOL
REMARK 923 INTER-LIGAND FREE ENERGY PREDICTED BY IDOCK:   -4.10 KCAL/MOL
REMARK 924 INTRA-LIGAND FREE ENERGY PREDICTED BY IDOCK:   -0.00 KCAL/MOL
REMARK 927      BINDING AFFINITY PREDICTED BY RF-SCORE:    0.00 PKD
ROOT
HETATM    1  C   UNL     1     -14.052  15.933  72.083  1.00  0.00    -0.116 C  
HETATM    2  N   UNL     1     -13.435  14.753  71.518  1.00  0.00    -0.368 N  
HETATM    3  N   UNL     1     -13.425  13.633  72.315  1.00  0.00    -0.508 NA 
HETATM    4  N   UNL     1     -12.912  12.569  71.901  1.00  0.00    -0.340 NA 
HETATM    5  C   UNL     1     -12.363  12.505  70.670  1.00  0.00    -0.282 A  
HETATM    6  C   UNL     1     -11.738  11.518  69.929  1.00  0.00    -0.343 A  
HETATM    7  N   UNL     1     -11.359  12.018  68.684  1.00  0.00    -0.251 NA 
HETATM    8  O   UNL     1     -12.876  15.771  69.473  1.00  0.00     0.081 OA 
HETATM    9  C   UNL     1     -12.907  14.822  70.241  1.00  0.00    -0.217 C  
HETATM   10  C   UNL     1     -11.753  13.272  68.689  1.00  0.00    -0.341 A  
HETATM   11  N   UNL     1     -12.365  13.609  69.867  1.00  0.00    -0.289 N  
ENDROOT
BRANCH   6  12
HETATM   12  C   UNL     1     -11.485  10.143  70.341  1.00  0.00    -0.322 C  
HETATM   13  H2  UNL     1     -10.943   9.663  68.364  1.00  0.00     0.000 HD 
HETATM   14  O   UNL     1     -11.624   9.717  71.481  1.00  0.00    -0.370 OA 
HETATM   15  N   UNL     1     -11.067   9.335  69.322  1.00  0.00    -0.434 N  
HETATM   16  H1  UNL     1     -10.890   8.373  69.611  1.00  0.00     0.000 HD 
ENDBRANCH   6  12
TORSDOF 1
ENDMDL
MODEL      105
REMARK 921   NORMALIZED FREE ENERGY PREDICTED BY IDOCK:   -3.57 KCAL/MOL
REMARK 922        TOTAL FREE ENERGY PREDICTED BY IDOCK:   -4.05 KCAL/MOL
REMARK 923 INTER-LIGAND FREE ENERGY PREDICTED BY IDOCK:   -3.79 KCAL/MOL
REMARK 924 INTRA-LIGAND FREE ENERGY PREDICTED BY IDOCK:   -0.27 KCAL/MOL
REMARK 927      BINDING AFFINITY PREDICTED BY RF-SCORE:    0.00 PKD
ROOT
HETATM    1  C   UNL     1     -11.696  13.518  66.727  1.00  0.00    -0.391 C  
HETATM    2  N   UNL     1     -11.484  12.312  67.496  1.00  0.00    -0.324 N  
HETATM    3  N   UNL     1     -11.941  12.332  68.792  1.00  0.00    -0.282 NA 
HETATM    4  N   UNL     1     -11.799  11.327  69.526  1.00  0.00    -0.326 NA 
HETATM    5  C   UNL     1     -11.197  10.214  69.057  1.00  0.00    -0.173 A  
HETATM    6  C   UNL     1     -10.893   8.972  69.585  1.00  0.00    -0.186 A  
HETATM    7  N   UNL     1     -10.249   8.188  68.629  1.00  0.00    -0.204 NA 
HETATM    8  O   UNL     1     -10.417  11.142  65.757  1.00  0.00    -0.249 OA 
HETATM    9  C   UNL     1     -10.851  11.240  66.895  1.00  0.00    -0.282 C  
HETATM   10  C   UNL     1     -10.177   8.949  67.560  1.00  0.00    -0.248 A  
HETATM   11  N   UNL     1     -10.737  10.181  67.772  1.00  0.00    -0.258 N  
ENDROOT
BRANCH   6  12
HETATM   12  C   UNL     1     -11.178   8.502  70.935  1.00  0.00    -0.266 C  
HETATM   13  H2  UNL     1     -12.278  10.260  71.302  1.00  0.00     0.000 HD 
HETATM   14  O   UNL     1     -10.788   7.439  71.403  1.00  0.00    -0.228 OA 
HETATM   15  N   UNL     1     -11.941   9.368  71.666  1.00  0.00    -0.371 N  
HETATM   16  H1  UNL     1     -12.140   9.038  72.610  1.00  0.00     0.000 HD 
ENDBRANCH   6  12
TORSDOF 1
ENDMDL
MODEL      106
REMARK 921   NORMALIZED FREE ENERGY PREDICTED BY IDOCK:   -3.53 KCAL/MOL
REMARK 922        TOTAL FREE ENERGY PREDICTED BY IDOCK:   -4.01 KCAL/MOL
REMARK 923 INTER-LIGAND FREE ENERGY PREDICTED BY IDOCK:   -3.95 KCAL/MOL
REMARK 924 INTRA-LIGAND FREE ENERGY PREDICTED BY IDOCK:   -0.06 KCAL/MOL
REMARK 927      BINDING AFFINITY PREDICTED BY RF-SCORE:    0.00 PKD
ROOT
HETATM    1  C   UNL     1      -9.788   9.345  65.838  1.00  0.00    -0.291 C  
HETATM    2  N   UNL     1     -10.207   8.945  67.163  1.00  0.00    -0.245 N  
HETATM    3  N   UNL     1     -10.367   9.957  68.080  1.00  0.00    -0.190 NA 
HETATM    4  N   UNL     1     -10.730   9.697  69.250  1.00  0.00    -0.225 NA 
HETATM    5  C   UNL     1     -10.969   8.424  69.627  1.00  0.00    -0.087 A  
HETATM    6  C   UNL     1     -11.372   7.813  70.801  1.00  0.00    -0.279 A  
HETATM    7  N   UNL     1     -11.459   6.433  70.620  1.00  0.00    -0.356 NA 
HETATM    8  O   UNL     1     -10.298   6.648  66.669  1.00  0.00    -0.201 OA 
HETATM    9  C   UNL     1     -10.417   7.603  67.421  1.00  0.00    -0.297 C  
HETATM   10  C   UNL     1     -11.116   6.235  69.366  1.00  0.00    -0.410 A  
HETATM   11  N   UNL     1     -10.813   7.409  68.728  1.00  0.00    -0.106 N  
ENDROOT
BRANCH   6  12
HETATM   12  C   UNL     1     -11.673   8.466  72.069  1.00  0.00    -0.352 C  
HETATM   13  H2  UNL     1     -10.963   6.770  73.097  1.00  0.00     0.000 HD 
HETATM   14  O   UNL     1     -12.156   9.586  72.182  1.00  0.00    -0.313 OA 
HETATM   15  N   UNL     1     -11.365   7.706  73.162  1.00  0.00    -0.596 N  
HETATM   16  H1  UNL     1     -11.576   8.163  74.049  1.00  0.00     0.000 HD 
ENDBRANCH   6  12
TORSDOF 1
ENDMDL
MODEL      107
REMARK 921   NORMALIZED FREE ENERGY PREDICTED BY IDOCK:   -3.51 KCAL/MOL
REMARK 922        TOTAL FREE ENERGY PREDICTED BY IDOCK:   -3.99 KCAL/MOL
REMARK 923 INTER-LIGAND FREE ENERGY PREDICTED BY IDOCK:   -3.87 KCAL/MOL
REMARK 924 INTRA-LIGAND FREE ENERGY PREDICTED BY IDOCK:   -0.12 KCAL/MOL
REMARK 927      BINDING AFFINITY PREDICTED BY RF-SCORE:    0.00 PKD
ROOT
HETATM    1  C   UNL     1      -7.105   6.448  72.771  1.00  0.00    -0.078 C  
HETATM    2  N   UNL     1      -8.448   6.877  72.446  1.00  0.00    -0.115 N  
HETATM    3  N   UNL     1      -8.904   7.992  73.108  1.00  0.00    -0.227 NA 
HETATM    4  N   UNL     1     -10.055   8.432  72.884  1.00  0.00    -0.209 NA 
HETATM    5  C   UNL     1     -10.862   7.820  71.993  1.00  0.00    -0.245 A  
HETATM    6  C   UNL     1     -12.145   8.040  71.524  1.00  0.00    -0.298 A  
HETATM    7  N   UNL     1     -12.486   7.071  70.582  1.00  0.00    -0.226 NA 
HETATM    8  O   UNL     1      -8.842   5.164  70.884  1.00  0.00    -0.129 OA 
HETATM    9  C   UNL     1      -9.172   6.159  71.513  1.00  0.00    -0.146 C  
HETATM   10  C   UNL     1     -11.427   6.296  70.495  1.00  0.00    -0.338 A  
HETATM   11  N   UNL     1     -10.422   6.711  71.328  1.00  0.00    -0.213 N  
ENDROOT
BRANCH   6  12
HETATM   12  C   UNL     1     -13.050   9.111  71.923  1.00  0.00    -0.411 C  
HETATM   13  H2  UNL     1     -13.943   7.818  73.325  1.00  0.00     0.000 HD 
HETATM   14  O   UNL     1     -13.055  10.238  71.443  1.00  0.00    -0.374 OA 
HETATM   15  N   UNL     1     -13.924   8.749  72.908  1.00  0.00    -0.862 N  
HETATM   16  H1  UNL     1     -14.557   9.498  73.187  1.00  0.00     0.000 HD 
ENDBRANCH   6  12
TORSDOF 1
ENDMDL
MODEL      108
REMARK 921   NORMALIZED FREE ENERGY PREDICTED BY IDOCK:   -3.49 KCAL/MOL
REMARK 922        TOTAL FREE ENERGY PREDICTED BY IDOCK:   -3.97 KCAL/MOL
REMARK 923 INTER-LIGAND FREE ENERGY PREDICTED BY IDOCK:   -3.85 KCAL/MOL
REMARK 924 INTRA-LIGAND FREE ENERGY PREDICTED BY IDOCK:   -0.12 KCAL/MOL
REMARK 927      BINDING AFFINITY PREDICTED BY RF-SCORE:    0.00 PKD
ROOT
HETATM    1  C   UNL     1     -10.438  19.754  66.026  1.00  0.00    -0.506 C  
HETATM    2  N   UNL     1      -9.919  18.523  66.580  1.00  0.00    -0.350 N  
HETATM    3  N   UNL     1     -10.309  17.363  65.953  1.00  0.00    -0.539 NA 
HETATM    4  N   UNL     1      -9.903  16.254  66.369  1.00  0.00    -0.272 NA 
HETATM    5  C   UNL     1      -9.079  16.180  67.434  1.00  0.00    -0.195 A  
HETATM    6  C   UNL     1      -8.465  15.150  68.125  1.00  0.00    -0.152 A  
HETATM    7  N   UNL     1      -7.701  15.662  69.173  1.00  0.00    -0.195 NA 
HETATM    8  O   UNL     1      -8.688  19.568  68.291  1.00  0.00    -0.323 OA 
HETATM    9  C   UNL     1      -9.081  18.586  67.679  1.00  0.00    -0.281 C  
HETATM   10  C   UNL     1      -7.861  16.966  69.102  1.00  0.00    -0.116 A  
HETATM   11  N   UNL     1      -8.683  17.323  68.067  1.00  0.00    -0.225 N  
ENDROOT
BRANCH   6  12
HETATM   12  C   UNL     1      -8.567  13.724  67.841  1.00  0.00    -0.183 C  
HETATM   13  H2  UNL     1     -10.272  13.615  69.073  1.00  0.00     0.000 HD 
HETATM   14  O   UNL     1      -7.801  13.097  67.120  1.00  0.00    -0.145 OA 
HETATM   15  N   UNL     1      -9.620  13.117  68.466  1.00  0.00    -0.368 N  
HETATM   16  H1  UNL     1      -9.691  12.119  68.267  1.00  0.00     0.000 HD 
ENDBRANCH   6  12
TORSDOF 1
ENDMDL
MODEL      109
REMARK 921   NORMALIZED FREE ENERGY PREDICTED BY IDOCK:   -3.48 KCAL/MOL
REMARK 922        TOTAL FREE ENERGY PREDICTED BY IDOCK:   -3.95 KCAL/MOL
REMARK 923 INTER-LIGAND FREE ENERGY PREDICTED BY IDOCK:   -3.67 KCAL/MOL
REMARK 924 INTRA-LIGAND FREE ENERGY PREDICTED BY IDOCK:   -0.28 KCAL/MOL
REMARK 927      BINDING AFFINITY PREDICTED BY RF-SCORE:    0.00 PKD
ROOT
HETATM    1  C   UNL     1     -10.958   4.946  73.239  1.00  0.00    -0.320 C  
HETATM    2  N   UNL     1     -10.782   5.643  71.984  1.00  0.00    -0.229 N  
HETATM    3  N   UNL     1     -10.656   4.855  70.865  1.00  0.00    -0.088 NA 
HETATM    4  N   UNL     1     -10.502   5.380  69.738  1.00  0.00    -0.307 NA 
HETATM    5  C   UNL     1     -10.458   6.721  69.606  1.00  0.00    -0.214 A  
HETATM    6  C   UNL     1     -10.308   7.594  68.543  1.00  0.00    -0.198 A  
HETATM    7  N   UNL     1     -10.337   8.913  68.995  1.00  0.00    -0.210 NA 
HETATM    8  O   UNL     1     -10.856   7.795  72.930  1.00  0.00    -0.339 OA 
HETATM    9  C   UNL     1     -10.753   7.026  71.987  1.00  0.00    -0.215 C  
HETATM   10  C   UNL     1     -10.502   8.820  70.296  1.00  0.00    -0.208 A  
HETATM   11  N   UNL     1     -10.581   7.517  70.709  1.00  0.00    -0.218 N  
ENDROOT
BRANCH   6  12
HETATM   12  C   UNL     1     -10.140   7.241  67.139  1.00  0.00    -0.236 C  
HETATM   13  H2  UNL     1     -11.858   6.028  67.251  1.00  0.00     0.000 HD 
HETATM   14  O   UNL     1      -9.239   7.651  66.417  1.00  0.00    -0.170 OA 
HETATM   15  N   UNL     1     -11.098   6.386  66.672  1.00  0.00    -0.721 N  
HETATM   16  H1  UNL     1     -10.980   6.139  65.689  1.00  0.00     0.000 HD 
ENDBRANCH   6  12
TORSDOF 1
ENDMDL
MODEL      110
REMARK 921   NORMALIZED FREE ENERGY PREDICTED BY IDOCK:   -3.47 KCAL/MOL
REMARK 922        TOTAL FREE ENERGY PREDICTED BY IDOCK:   -3.94 KCAL/MOL
REMARK 923 INTER-LIGAND FREE ENERGY PREDICTED BY IDOCK:   -3.65 KCAL/MOL
REMARK 924 INTRA-LIGAND FREE ENERGY PREDICTED BY IDOCK:   -0.30 KCAL/MOL
REMARK 927      BINDING AFFINITY PREDICTED BY RF-SCORE:    0.00 PKD
ROOT
HETATM    1  C   UNL     1     -11.811  15.841  70.256  1.00  0.00    -0.350 C  
HETATM    2  N   UNL     1     -11.333  14.709  69.494  1.00  0.00    -0.268 N  
HETATM    3  N   UNL     1     -12.208  13.658  69.356  1.00  0.00    -0.302 NA 
HETATM    4  N   UNL     1     -11.873  12.638  68.710  1.00  0.00    -0.311 NA 
HETATM    5  C   UNL     1     -10.653  12.557  68.140  1.00  0.00    -0.226 A  
HETATM    6  C   UNL     1      -9.990  11.608  67.383  1.00  0.00    -0.183 A  
HETATM    7  N   UNL     1      -8.713  12.061  67.055  1.00  0.00    -0.182 NA 
HETATM    8  O   UNL     1      -9.222  15.640  69.039  1.00  0.00    -0.206 OA 
HETATM    9  C   UNL     1     -10.057  14.751  68.963  1.00  0.00    -0.232 C  
HETATM   10  C   UNL     1      -8.625  13.252  67.605  1.00  0.00    -0.196 A  
HETATM   11  N   UNL     1      -9.773  13.593  68.270  1.00  0.00    -0.229 N  
ENDROOT
BRANCH   6  12
HETATM   12  C   UNL     1     -10.502  10.310  66.963  1.00  0.00    -0.244 C  
HETATM   13  H2  UNL     1     -11.342  10.037  68.875  1.00  0.00     0.000 HD 
HETATM   14  O   UNL     1     -10.344   9.822  65.851  1.00  0.00    -0.214 OA 
HETATM   15  N   UNL     1     -11.197   9.654  67.940  1.00  0.00    -0.501 N  
HETATM   16  H1  UNL     1     -11.555   8.746  67.646  1.00  0.00     0.000 HD 
ENDBRANCH   6  12
TORSDOF 1
ENDMDL
MODEL      111
REMARK 921   NORMALIZED FREE ENERGY PREDICTED BY IDOCK:   -3.46 KCAL/MOL
REMARK 922        TOTAL FREE ENERGY PREDICTED BY IDOCK:   -3.94 KCAL/MOL
REMARK 923 INTER-LIGAND FREE ENERGY PREDICTED BY IDOCK:   -3.64 KCAL/MOL
REMARK 924 INTRA-LIGAND FREE ENERGY PREDICTED BY IDOCK:   -0.30 KCAL/MOL
REMARK 927      BINDING AFFINITY PREDICTED BY RF-SCORE:    0.00 PKD
ROOT
HETATM    1  C   UNL     1      -9.240   6.592  67.117  1.00  0.00    -0.126 C  
HETATM    2  N   UNL     1      -9.865   7.479  68.074  1.00  0.00    -0.147 N  
HETATM    3  N   UNL     1     -10.236   8.716  67.602  1.00  0.00    -0.223 NA 
HETATM    4  N   UNL     1     -10.785   9.543  68.365  1.00  0.00    -0.211 NA 
HETATM    5  C   UNL     1     -11.021   9.234  69.657  1.00  0.00    -0.175 A  
HETATM    6  C   UNL     1     -11.592   9.894  70.730  1.00  0.00    -0.349 A  
HETATM    7  N   UNL     1     -11.575   9.078  71.861  1.00  0.00    -0.365 NA 
HETATM    8  O   UNL     1      -9.750   5.963  69.868  1.00  0.00    -0.156 OA 
HETATM    9  C   UNL     1     -10.048   7.039  69.372  1.00  0.00    -0.169 C  
HETATM   10  C   UNL     1     -11.007   7.961  71.463  1.00  0.00    -0.231 A  
HETATM   11  N   UNL     1     -10.658   8.010  70.139  1.00  0.00    -0.233 N  
ENDROOT
BRANCH   6  12
HETATM   12  C   UNL     1     -12.144  11.243  70.735  1.00  0.00    -0.349 C  
HETATM   13  H2  UNL     1     -10.607  11.863  69.435  1.00  0.00     0.000 HD 
HETATM   14  O   UNL     1     -13.140  11.589  71.358  1.00  0.00    -0.380 OA 
HETATM   15  N   UNL     1     -11.440  12.124  69.964  1.00  0.00    -0.526 N  
HETATM   16  H1  UNL     1     -11.827  13.068  69.967  1.00  0.00     0.000 HD 
ENDBRANCH   6  12
TORSDOF 1
ENDMDL
MODEL      112
REMARK 921   NORMALIZED FREE ENERGY PREDICTED BY IDOCK:   -3.46 KCAL/MOL
REMARK 922        TOTAL FREE ENERGY PREDICTED BY IDOCK:   -3.94 KCAL/MOL
REMARK 923 INTER-LIGAND FREE ENERGY PREDICTED BY IDOCK:   -3.82 KCAL/MOL
REMARK 924 INTRA-LIGAND FREE ENERGY PREDICTED BY IDOCK:   -0.11 KCAL/MOL
REMARK 927      BINDING AFFINITY PREDICTED BY RF-SCORE:    0.00 PKD
ROOT
HETATM    1  C   UNL     1     -10.011  11.284  67.864  1.00  0.00    -0.175 C  
HETATM    2  N   UNL     1      -9.910  12.726  67.829  1.00  0.00    -0.214 N  
HETATM    3  N   UNL     1      -8.794  13.241  67.215  1.00  0.00    -0.207 NA 
HETATM    4  N   UNL     1      -8.630  14.480  67.140  1.00  0.00    -0.213 NA 
HETATM    5  C   UNL     1      -9.543  15.326  67.660  1.00  0.00    -0.206 A  
HETATM    6  C   UNL     1      -9.665  16.701  67.744  1.00  0.00    -0.240 A  
HETATM    7  N   UNL     1     -10.843  17.041  68.407  1.00  0.00    -0.361 NA 
HETATM    8  O   UNL     1     -11.935  13.103  68.964  1.00  0.00    -0.311 OA 
HETATM    9  C   UNL     1     -10.918  13.480  68.402  1.00  0.00    -0.266 C  
HETATM   10  C   UNL     1     -11.406  15.890  68.707  1.00  0.00    -0.378 A  
HETATM   11  N   UNL     1     -10.656  14.829  68.274  1.00  0.00    -0.237 N  
ENDROOT
BRANCH   6  12
HETATM   12  C   UNL     1      -8.729  17.695  67.232  1.00  0.00    -0.235 C  
HETATM   13  H2  UNL     1      -8.591  18.538  69.158  1.00  0.00     0.000 HD 
HETATM   14  O   UNL     1      -8.350  17.766  66.070  1.00  0.00    -0.493 OA 
HETATM   15  N   UNL     1      -8.291  18.573  68.183  1.00  0.00    -0.287 N  
HETATM   16  H1  UNL     1      -7.636  19.268  67.825  1.00  0.00     0.000 HD 
ENDBRANCH   6  12
TORSDOF 1
ENDMDL
MODEL      113
REMARK 921   NORMALIZED FREE ENERGY PREDICTED BY IDOCK:   -3.45 KCAL/MOL
REMARK 922        TOTAL FREE ENERGY PREDICTED BY IDOCK:   -3.92 KCAL/MOL
REMARK 923 INTER-LIGAND FREE ENERGY PREDICTED BY IDOCK:   -3.63 KCAL/MOL
REMARK 924 INTRA-LIGAND FREE ENERGY PREDICTED BY IDOCK:   -0.30 KCAL/MOL
REMARK 927      BINDING AFFINITY PREDICTED BY RF-SCORE:    0.00 PKD
ROOT
HETATM    1  C   UNL     1      -6.548  10.277  65.924  1.00  0.00    -0.113 C  
HETATM    2  N   UNL     1      -7.783  10.861  66.398  1.00  0.00    -0.151 N  
HETATM    3  N   UNL     1      -7.793  11.280  67.707  1.00  0.00    -0.111 NA 
HETATM    4  N   UNL     1      -8.823  11.799  68.195  1.00  0.00    -0.164 NA 
HETATM    5  C   UNL     1      -9.934  11.955  67.446  1.00  0.00    -0.190 A  
HETATM    6  C   UNL     1     -11.196  12.475  67.668  1.00  0.00    -0.282 A  
HETATM    7  N   UNL     1     -11.967  12.379  66.510  1.00  0.00    -0.605 NA 
HETATM    8  O   UNL     1      -8.924  10.616  64.356  1.00  0.00    -0.192 OA 
HETATM    9  C   UNL     1      -8.851  10.962  65.526  1.00  0.00    -0.188 C  
HETATM   10  C   UNL     1     -11.176  11.816  65.624  1.00  0.00    -0.267 A  
HETATM   11  N   UNL     1      -9.938  11.543  66.145  1.00  0.00    -0.216 N  
ENDROOT
BRANCH   6  12
HETATM   12  C   UNL     1     -11.699  13.050  68.910  1.00  0.00    -0.328 C  
HETATM   13  H2  UNL     1     -10.796  11.482  69.988  1.00  0.00     0.000 HD 
HETATM   14  O   UNL     1     -12.371  14.071  68.986  1.00  0.00    -0.307 OA 
HETATM   15  N   UNL     1     -11.354  12.336  70.022  1.00  0.00    -0.513 N  
HETATM   16  H1  UNL     1     -11.706  12.739  70.890  1.00  0.00     0.000 HD 
ENDBRANCH   6  12
TORSDOF 1
ENDMDL
MODEL      114
REMARK 921   NORMALIZED FREE ENERGY PREDICTED BY IDOCK:   -3.43 KCAL/MOL
REMARK 922        TOTAL FREE ENERGY PREDICTED BY IDOCK:   -3.91 KCAL/MOL
REMARK 923 INTER-LIGAND FREE ENERGY PREDICTED BY IDOCK:   -3.91 KCAL/MOL
REMARK 924 INTRA-LIGAND FREE ENERGY PREDICTED BY IDOCK:    0.00 KCAL/MOL
REMARK 927      BINDING AFFINITY PREDICTED BY RF-SCORE:    0.00 PKD
ROOT
HETATM    1  C   UNL     1     -11.316  15.865  64.624  1.00  0.00    -0.322 C  
HETATM    2  N   UNL     1     -11.366  15.071  65.832  1.00  0.00    -0.314 N  
HETATM    3  N   UNL     1     -11.623  13.731  65.665  1.00  0.00    -0.322 NA 
HETATM    4  N   UNL     1     -11.682  12.972  66.660  1.00  0.00    -0.362 NA 
HETATM    5  C   UNL     1     -11.494  13.456  67.905  1.00  0.00    -0.315 A  
HETATM    6  C   UNL     1     -11.489  12.909  69.176  1.00  0.00    -0.306 A  
HETATM    7  N   UNL     1     -11.235  13.899  70.124  1.00  0.00     0.004 NA 
HETATM    8  O   UNL     1     -10.925  16.870  67.282  1.00  0.00    -0.188 OA 
HETATM    9  C   UNL     1     -11.157  15.693  67.049  1.00  0.00    -0.200 C  
HETATM   10  C   UNL     1     -11.092  15.005  69.429  1.00  0.00    -0.278 A  
HETATM   11  N   UNL     1     -11.239  14.785  68.085  1.00  0.00    -0.281 N  
ENDROOT
BRANCH   6  12
HETATM   12  C   UNL     1     -11.712  11.512  69.527  1.00  0.00    -0.346 C  
HETATM   13  H2  UNL     1     -11.726  12.041  71.566  1.00  0.00     0.000 HD 
HETATM   14  O   UNL     1     -11.810  10.595  68.721  1.00  0.00    -0.327 OA 
HETATM   15  N   UNL     1     -11.805  11.296  70.873  1.00  0.00    -0.349 N  
HETATM   16  H1  UNL     1     -11.961  10.318  71.119  1.00  0.00     0.000 HD 
ENDBRANCH   6  12
TORSDOF 1
ENDMDL
MODEL      115
REMARK 921   NORMALIZED FREE ENERGY PREDICTED BY IDOCK:   -3.41 KCAL/MOL
REMARK 922        TOTAL FREE ENERGY PREDICTED BY IDOCK:   -3.88 KCAL/MOL
REMARK 923 INTER-LIGAND FREE ENERGY PREDICTED BY IDOCK:   -3.76 KCAL/MOL
REMARK 924 INTRA-LIGAND FREE ENERGY PREDICTED BY IDOCK:   -0.12 KCAL/MOL
REMARK 927      BINDING AFFINITY PREDICTED BY RF-SCORE:    0.00 PKD
ROOT
HETATM    1  C   UNL     1     -12.430  15.349  71.283  1.00  0.00    -0.397 C  
HETATM    2  N   UNL     1     -11.453  15.365  70.216  1.00  0.00    -0.286 N  
HETATM    3  N   UNL     1     -10.917  16.592  69.904  1.00  0.00    -0.336 NA 
HETATM    4  N   UNL     1     -10.063  16.693  68.993  1.00  0.00    -0.278 NA 
HETATM    5  C   UNL     1      -9.658  15.605  68.308  1.00  0.00    -0.200 A  
HETATM    6  C   UNL     1      -8.760  15.375  67.280  1.00  0.00    -0.196 A  
HETATM    7  N   UNL     1      -8.740  14.020  66.953  1.00  0.00    -0.202 NA 
HETATM    8  O   UNL     1     -11.554  13.052  69.807  1.00  0.00    -0.275 OA 
HETATM    9  C   UNL     1     -11.127  14.176  69.592  1.00  0.00    -0.141 C  
HETATM   10  C   UNL     1      -9.605  13.461  67.770  1.00  0.00    -0.213 A  
HETATM   11  N   UNL     1     -10.182  14.380  68.606  1.00  0.00    -0.242 N  
ENDROOT
BRANCH   6  12
HETATM   12  C   UNL     1      -7.934  16.367  66.603  1.00  0.00    -0.288 C  
HETATM   13  H2  UNL     1      -6.247  15.652  67.642  1.00  0.00     0.000 HD 
HETATM   14  O   UNL     1      -8.346  17.181  65.786  1.00  0.00    -0.519 OA 
HETATM   15  N   UNL     1      -6.617  16.318  66.964  1.00  0.00    -0.191 N  
HETATM   16  H1  UNL     1      -6.039  17.012  66.490  1.00  0.00     0.000 HD 
ENDBRANCH   6  12
TORSDOF 1
ENDMDL
MODEL      116
REMARK 921   NORMALIZED FREE ENERGY PREDICTED BY IDOCK:   -3.38 KCAL/MOL
REMARK 922        TOTAL FREE ENERGY PREDICTED BY IDOCK:   -3.86 KCAL/MOL
REMARK 923 INTER-LIGAND FREE ENERGY PREDICTED BY IDOCK:   -3.56 KCAL/MOL
REMARK 924 INTRA-LIGAND FREE ENERGY PREDICTED BY IDOCK:   -0.29 KCAL/MOL
REMARK 927      BINDING AFFINITY PREDICTED BY RF-SCORE:    0.00 PKD
ROOT
HETATM    1  C   UNL     1     -10.041   6.015  66.758  1.00  0.00    -0.187 C  
HETATM    2  N   UNL     1     -10.279   6.309  68.154  1.00  0.00    -0.152 N  
HETATM    3  N   UNL     1     -10.262   5.234  69.011  1.00  0.00    -0.209 NA 
HETATM    4  N   UNL     1     -10.457   5.402  70.237  1.00  0.00    -0.288 NA 
HETATM    5  C   UNL     1     -10.685   6.636  70.733  1.00  0.00    -0.238 A  
HETATM    6  C   UNL     1     -10.928   7.153  71.993  1.00  0.00    -0.235 A  
HETATM    7  N   UNL     1     -11.097   8.535  71.922  1.00  0.00    -0.301 NA 
HETATM    8  O   UNL     1     -10.533   8.625  67.837  1.00  0.00    -0.228 OA 
HETATM    9  C   UNL     1     -10.502   7.620  68.531  1.00  0.00    -0.174 C  
HETATM   10  C   UNL     1     -10.956   8.828  70.647  1.00  0.00    -0.238 A  
HETATM   11  N   UNL     1     -10.706   7.712  69.893  1.00  0.00    -0.249 N  
ENDROOT
BRANCH   6  12
HETATM   12  C   UNL     1     -11.006   6.408  73.243  1.00  0.00    -0.190 C  
HETATM   13  H2  UNL     1     -12.239   4.983  72.303  1.00  0.00     0.000 HD 
HETATM   14  O   UNL     1     -10.456   6.735  74.288  1.00  0.00    -0.338 OA 
HETATM   15  N   UNL     1     -11.769   5.278  73.159  1.00  0.00    -0.535 N  
HETATM   16  H1  UNL     1     -11.823   4.757  74.035  1.00  0.00     0.000 HD 
ENDBRANCH   6  12
TORSDOF 1
ENDMDL
MODEL      117
REMARK 921   NORMALIZED FREE ENERGY PREDICTED BY IDOCK:   -3.35 KCAL/MOL
REMARK 922        TOTAL FREE ENERGY PREDICTED BY IDOCK:   -3.82 KCAL/MOL
REMARK 923 INTER-LIGAND FREE ENERGY PREDICTED BY IDOCK:   -3.70 KCAL/MOL
REMARK 924 INTRA-LIGAND FREE ENERGY PREDICTED BY IDOCK:   -0.12 KCAL/MOL
REMARK 927      BINDING AFFINITY PREDICTED BY RF-SCORE:    0.00 PKD
ROOT
HETATM    1  C   UNL     1     -10.126  11.125  64.960  1.00  0.00    -0.283 C  
HETATM    2  N   UNL     1     -10.366  10.601  66.286  1.00  0.00    -0.245 N  
HETATM    3  N   UNL     1      -9.852   9.352  66.546  1.00  0.00    -0.237 NA 
HETATM    4  N   UNL     1     -10.014   8.826  67.672  1.00  0.00    -0.180 NA 
HETATM    5  C   UNL     1     -10.691   9.474  68.642  1.00  0.00    -0.184 A  
HETATM    6  C   UNL     1     -11.035   9.188  69.951  1.00  0.00    -0.204 A  
HETATM    7  N   UNL     1     -11.758  10.246  70.500  1.00  0.00    -0.306 NA 
HETATM    8  O   UNL     1     -11.566  12.478  67.038  1.00  0.00    -0.330 OA 
HETATM    9  C   UNL     1     -11.079  11.368  67.189  1.00  0.00    -0.305 C  
HETATM   10  C   UNL     1     -11.839  11.137  69.537  1.00  0.00    -0.353 A  
HETATM   11  N   UNL     1     -11.207  10.714  68.397  1.00  0.00    -0.274 N  
ENDROOT
BRANCH   6  12
HETATM   12  C   UNL     1     -10.715   7.976  70.694  1.00  0.00    -0.228 C  
HETATM   13  H2  UNL     1     -12.350   7.004  69.789  1.00  0.00     0.000 HD 
HETATM   14  O   UNL     1      -9.783   7.863  71.481  1.00  0.00    -0.157 OA 
HETATM   15  N   UNL     1     -11.566   6.938  70.439  1.00  0.00    -0.418 N  
HETATM   16  H1  UNL     1     -11.342   6.090  70.959  1.00  0.00     0.000 HD 
ENDBRANCH   6  12
TORSDOF 1
ENDMDL
MODEL      118
REMARK 921   NORMALIZED FREE ENERGY PREDICTED BY IDOCK:   -3.31 KCAL/MOL
REMARK 922        TOTAL FREE ENERGY PREDICTED BY IDOCK:   -3.78 KCAL/MOL
REMARK 923 INTER-LIGAND FREE ENERGY PREDICTED BY IDOCK:   -3.48 KCAL/MOL
REMARK 924 INTRA-LIGAND FREE ENERGY PREDICTED BY IDOCK:   -0.30 KCAL/MOL
REMARK 927      BINDING AFFINITY PREDICTED BY RF-SCORE:    0.00 PKD
ROOT
HETATM    1  C   UNL     1     -10.453   8.463  72.640  1.00  0.00    -0.247 C  
HETATM    2  N   UNL     1     -10.511   8.922  71.270  1.00  0.00    -0.260 N  
HETATM    3  N   UNL     1      -9.593   8.371  70.407  1.00  0.00    -0.167 NA 
HETATM    4  N   UNL     1      -9.576   8.713  69.202  1.00  0.00    -0.161 NA 
HETATM    5  C   UNL     1     -10.455   9.622  68.734  1.00  0.00    -0.215 A  
HETATM    6  C   UNL     1     -10.701  10.199  67.501  1.00  0.00    -0.290 A  
HETATM    7  N   UNL     1     -11.759  11.102  67.594  1.00  0.00    -0.598 NA 
HETATM    8  O   UNL     1     -12.308  10.397  71.620  1.00  0.00    -0.370 OA 
HETATM    9  C   UNL     1     -11.462   9.862  70.919  1.00  0.00    -0.376 C  
HETATM   10  C   UNL     1     -12.131  11.058  68.855  1.00  0.00    -0.169 A  
HETATM   11  N   UNL     1     -11.372  10.178  69.579  1.00  0.00    -0.229 N  
ENDROOT
BRANCH   6  12
HETATM   12  C   UNL     1      -9.989   9.938  66.256  1.00  0.00    -0.256 C  
HETATM   13  H2  UNL     1      -8.176   9.855  67.324  1.00  0.00     0.000 HD 
HETATM   14  O   UNL     1     -10.515   9.855  65.153  1.00  0.00    -0.017 OA 
HETATM   15  N   UNL     1      -8.641   9.789  66.418  1.00  0.00    -0.123 N  
HETATM   16  H1  UNL     1      -8.143   9.606  65.547  1.00  0.00     0.000 HD 
ENDBRANCH   6  12
TORSDOF 1
ENDMDL
MODEL      119
REMARK 921   NORMALIZED FREE ENERGY PREDICTED BY IDOCK:   -3.28 KCAL/MOL
REMARK 922        TOTAL FREE ENERGY PREDICTED BY IDOCK:   -3.75 KCAL/MOL
REMARK 923 INTER-LIGAND FREE ENERGY PREDICTED BY IDOCK:   -3.46 KCAL/MOL
REMARK 924 INTRA-LIGAND FREE ENERGY PREDICTED BY IDOCK:   -0.29 KCAL/MOL
REMARK 927      BINDING AFFINITY PREDICTED BY RF-SCORE:    0.00 PKD
ROOT
HETATM    1  C   UNL     1     -13.851   9.171  72.511  1.00  0.00    -0.417 C  
HETATM    2  N   UNL     1     -12.731   8.956  71.621  1.00  0.00    -0.333 N  
HETATM    3  N   UNL     1     -12.125  10.086  71.126  1.00  0.00    -0.350 NA 
HETATM    4  N   UNL     1     -11.147   9.988  70.350  1.00  0.00    -0.305 NA 
HETATM    5  C   UNL     1     -10.674   8.777  69.991  1.00  0.00    -0.228 A  
HETATM    6  C   UNL     1      -9.643   8.331  69.183  1.00  0.00    -0.160 A  
HETATM    7  N   UNL     1      -9.609   6.938  69.172  1.00  0.00    -0.145 NA 
HETATM    8  O   UNL     1     -12.829   6.609  71.728  1.00  0.00    -0.335 OA 
HETATM    9  C   UNL     1     -12.347   7.659  71.332  1.00  0.00    -0.333 C  
HETATM   10  C   UNL     1     -10.597   6.569  69.958  1.00  0.00    -0.230 A  
HETATM   11  N   UNL     1     -11.266   7.646  70.475  1.00  0.00    -0.267 N  
ENDROOT
BRANCH   6  12
HETATM   12  C   UNL     1      -8.704   9.153  68.430  1.00  0.00    -0.129 C  
HETATM   13  H2  UNL     1     -10.317  10.250  67.637  1.00  0.00     0.000 HD 
HETATM   14  O   UNL     1      -7.486   9.020  68.449  1.00  0.00    -0.081 OA 
HETATM   15  N   UNL     1      -9.306  10.118  67.673  1.00  0.00    -0.147 N  
HETATM   16  H1  UNL     1      -8.649  10.692  67.147  1.00  0.00     0.000 HD 
ENDBRANCH   6  12
TORSDOF 1
ENDMDL
MODEL      120
REMARK 921   NORMALIZED FREE ENERGY PREDICTED BY IDOCK:   -3.26 KCAL/MOL
REMARK 922        TOTAL FREE ENERGY PREDICTED BY IDOCK:   -3.72 KCAL/MOL
REMARK 923 INTER-LIGAND FREE ENERGY PREDICTED BY IDOCK:   -3.43 KCAL/MOL
REMARK 924 INTRA-LIGAND FREE ENERGY PREDICTED BY IDOCK:   -0.29 KCAL/MOL
REMARK 927      BINDING AFFINITY PREDICTED BY RF-SCORE:    0.00 PKD
ROOT
HETATM    1  C   UNL     1      -8.574   9.550  66.795  1.00  0.00    -0.127 C  
HETATM    2  N   UNL     1      -9.436   9.427  67.951  1.00  0.00    -0.132 N  
HETATM    3  N   UNL     1     -10.319  10.459  68.161  1.00  0.00    -0.163 NA 
HETATM    4  N   UNL     1     -11.102  10.431  69.138  1.00  0.00    -0.234 NA 
HETATM    5  C   UNL     1     -11.090   9.390  69.996  1.00  0.00    -0.221 A  
HETATM    6  C   UNL     1     -11.799   9.055  71.136  1.00  0.00    -0.301 A  
HETATM    7  N   UNL     1     -11.361   7.829  71.633  1.00  0.00    -0.247 NA 
HETATM    8  O   UNL     1      -8.567   7.352  68.637  1.00  0.00    -0.128 OA 
HETATM    9  C   UNL     1      -9.321   8.307  68.753  1.00  0.00    -0.143 C  
HETATM   10  C   UNL     1     -10.414   7.447  70.804  1.00  0.00    -0.212 A  
HETATM   11  N   UNL     1     -10.217   8.358  69.800  1.00  0.00    -0.202 N  
ENDROOT
BRANCH   6  12
HETATM   12  C   UNL     1     -12.858   9.833  71.767  1.00  0.00    -0.434 C  
HETATM   13  H2  UNL     1     -12.073  11.584  70.898  1.00  0.00     0.000 HD 
HETATM   14  O   UNL     1     -13.736   9.369  72.483  1.00  0.00    -0.448 OA 
HETATM   15  N   UNL     1     -12.793  11.170  71.490  1.00  0.00    -0.440 N  
HETATM   16  H1  UNL     1     -13.535  11.714  71.931  1.00  0.00     0.000 HD 
ENDBRANCH   6  12
TORSDOF 1
ENDMDL
MODEL      121
REMARK 921   NORMALIZED FREE ENERGY PREDICTED BY IDOCK:   -3.22 KCAL/MOL
REMARK 922        TOTAL FREE ENERGY PREDICTED BY IDOCK:   -3.68 KCAL/MOL
REMARK 923 INTER-LIGAND FREE ENERGY PREDICTED BY IDOCK:   -3.56 KCAL/MOL
REMARK 924 INTRA-LIGAND FREE ENERGY PREDICTED BY IDOCK:   -0.12 KCAL/MOL
REMARK 927      BINDING AFFINITY PREDICTED BY RF-SCORE:    0.00 PKD
ROOT
HETATM    1  C   UNL     1      -9.268   9.212  66.658  1.00  0.00    -0.164 C  
HETATM    2  N   UNL     1      -9.958   8.873  67.883  1.00  0.00    -0.170 N  
HETATM    3  N   UNL     1     -10.255   7.542  68.063  1.00  0.00    -0.187 NA 
HETATM    4  N   UNL     1     -10.850   7.163  69.097  1.00  0.00    -0.196 NA 
HETATM    5  C   UNL     1     -11.208   8.051  70.048  1.00  0.00    -0.090 A  
HETATM    6  C   UNL     1     -11.852   7.968  71.269  1.00  0.00    -0.294 A  
HETATM    7  N   UNL     1     -11.959   9.234  71.843  1.00  0.00    -0.371 NA 
HETATM    8  O   UNL     1     -10.044  11.079  68.692  1.00  0.00    -0.183 OA 
HETATM    9  C   UNL     1     -10.270   9.881  68.776  1.00  0.00    -0.189 C  
HETATM   10  C   UNL     1     -11.390  10.047  70.980  1.00  0.00    -0.357 A  
HETATM   11  N   UNL     1     -10.921   9.376  69.882  1.00  0.00    -0.237 N  
ENDROOT
BRANCH   6  12
HETATM   12  C   UNL     1     -12.364   6.762  71.908  1.00  0.00    -0.326 C  
HETATM   13  H2  UNL     1     -14.307   7.574  71.855  1.00  0.00     0.000 HD 
HETATM   14  O   UNL     1     -11.681   5.801  72.238  1.00  0.00    -0.287 OA 
HETATM   15  N   UNL     1     -13.714   6.787  72.119  1.00  0.00    -0.510 N  
HETATM   16  H1  UNL     1     -14.072   5.943  72.566  1.00  0.00     0.000 HD 
ENDBRANCH   6  12
TORSDOF 1
ENDMDL
MODEL      122
REMARK 921   NORMALIZED FREE ENERGY PREDICTED BY IDOCK:   -3.21 KCAL/MOL
REMARK 922        TOTAL FREE ENERGY PREDICTED BY IDOCK:   -3.67 KCAL/MOL
REMARK 923 INTER-LIGAND FREE ENERGY PREDICTED BY IDOCK:   -3.39 KCAL/MOL
REMARK 924 INTRA-LIGAND FREE ENERGY PREDICTED BY IDOCK:   -0.28 KCAL/MOL
REMARK 927      BINDING AFFINITY PREDICTED BY RF-SCORE:    0.00 PKD
ROOT
HETATM    1  C   UNL     1      -7.433  16.043  67.076  1.00  0.00    -0.229 C  
HETATM    2  N   UNL     1      -8.235  14.843  67.172  1.00  0.00    -0.208 N  
HETATM    3  N   UNL     1      -7.612  13.739  67.706  1.00  0.00    -0.151 NA 
HETATM    4  N   UNL     1      -8.236  12.660  67.826  1.00  0.00    -0.157 NA 
HETATM    5  C   UNL     1      -9.524  12.564  67.435  1.00  0.00    -0.184 A  
HETATM    6  C   UNL     1     -10.471  11.556  67.431  1.00  0.00    -0.209 A  
HETATM    7  N   UNL     1     -11.671  12.025  66.897  1.00  0.00    -0.576 NA 
HETATM    8  O   UNL     1     -10.169  15.811  66.249  1.00  0.00    -0.273 OA 
HETATM    9  C   UNL     1      -9.545  14.878  66.732  1.00  0.00    -0.251 C  
HETATM   10  C   UNL     1     -11.437  13.283  66.594  1.00  0.00    -0.347 A  
HETATM   11  N   UNL     1     -10.154  13.652  66.902  1.00  0.00    -0.255 N  
ENDROOT
BRANCH   6  12
HETATM   12  C   UNL     1     -10.295  10.188  67.902  1.00  0.00    -0.194 C  
HETATM   13  H2  UNL     1      -8.666  10.817  69.080  1.00  0.00     0.000 HD 
HETATM   14  O   UNL     1     -10.987   9.236  67.563  1.00  0.00    -0.199 OA 
HETATM   15  N   UNL     1      -9.259  10.042  68.781  1.00  0.00    -0.152 N  
HETATM   16  H1  UNL     1      -9.136   9.085  69.110  1.00  0.00     0.000 HD 
ENDBRANCH   6  12
TORSDOF 1
ENDMDL
MODEL      123
REMARK 921   NORMALIZED FREE ENERGY PREDICTED BY IDOCK:   -3.18 KCAL/MOL
REMARK 922        TOTAL FREE ENERGY PREDICTED BY IDOCK:   -3.64 KCAL/MOL
REMARK 923 INTER-LIGAND FREE ENERGY PREDICTED BY IDOCK:   -3.36 KCAL/MOL
REMARK 924 INTRA-LIGAND FREE ENERGY PREDICTED BY IDOCK:   -0.28 KCAL/MOL
REMARK 927      BINDING AFFINITY PREDICTED BY RF-SCORE:    0.00 PKD
ROOT
HETATM    1  C   UNL     1      -8.168   4.867  70.165  1.00  0.00    -0.073 C  
HETATM    2  N   UNL     1      -9.079   5.976  70.342  1.00  0.00    -0.148 N  
HETATM    3  N   UNL     1      -8.796   7.113  69.624  1.00  0.00    -0.141 NA 
HETATM    4  N   UNL     1      -9.537   8.119  69.718  1.00  0.00    -0.170 NA 
HETATM    5  C   UNL     1     -10.619   8.102  70.523  1.00  0.00    -0.220 A  
HETATM    6  C   UNL     1     -11.613   9.009  70.844  1.00  0.00    -0.290 A  
HETATM    7  N   UNL     1     -12.504   8.445  71.755  1.00  0.00    -0.319 NA 
HETATM    8  O   UNL     1     -10.473   4.858  71.871  1.00  0.00    -0.205 OA 
HETATM    9  C   UNL     1     -10.153   5.827  71.201  1.00  0.00    -0.203 C  
HETATM   10  C   UNL     1     -12.048   7.230  71.967  1.00  0.00    -0.290 A  
HETATM   11  N   UNL     1     -10.912   6.979  71.243  1.00  0.00    -0.239 N  
ENDROOT
BRANCH   6  12
HETATM   12  C   UNL     1     -11.754  10.368  70.335  1.00  0.00    -0.331 C  
HETATM   13  H2  UNL     1      -9.759  10.310  69.662  1.00  0.00     0.000 HD 
HETATM   14  O   UNL     1     -12.773  11.043  70.416  1.00  0.00    -0.288 OA 
HETATM   15  N   UNL     1     -10.621  10.849  69.742  1.00  0.00    -0.444 N  
HETATM   16  H1  UNL     1     -10.721  11.800  69.386  1.00  0.00     0.000 HD 
ENDBRANCH   6  12
TORSDOF 1
ENDMDL
MODEL      124
REMARK 921   NORMALIZED FREE ENERGY PREDICTED BY IDOCK:   -3.17 KCAL/MOL
REMARK 922        TOTAL FREE ENERGY PREDICTED BY IDOCK:   -3.63 KCAL/MOL
REMARK 923 INTER-LIGAND FREE ENERGY PREDICTED BY IDOCK:   -3.34 KCAL/MOL
REMARK 924 INTRA-LIGAND FREE ENERGY PREDICTED BY IDOCK:   -0.29 KCAL/MOL
REMARK 927      BINDING AFFINITY PREDICTED BY RF-SCORE:    0.00 PKD
ROOT
HETATM    1  C   UNL     1      -8.929   9.328  65.003  1.00  0.00    -0.197 C  
HETATM    2  N   UNL     1      -9.347  10.508  65.726  1.00  0.00    -0.179 N  
HETATM    3  N   UNL     1     -10.648  10.907  65.536  1.00  0.00    -0.213 NA 
HETATM    4  N   UNL     1     -11.091  11.919  66.127  1.00  0.00    -0.316 NA 
HETATM    5  C   UNL     1     -10.300  12.630  66.956  1.00  0.00    -0.232 A  
HETATM    6  C   UNL     1     -10.469  13.758  67.740  1.00  0.00    -0.240 A  
HETATM    7  N   UNL     1      -9.284  14.061  68.409  1.00  0.00    -0.199 NA 
HETATM    8  O   UNL     1      -7.267  10.861  66.766  1.00  0.00    -0.118 OA 
HETATM    9  C   UNL     1      -8.434  11.148  66.545  1.00  0.00    -0.165 C  
HETATM   10  C   UNL     1      -8.434  13.132  68.029  1.00  0.00    -0.181 A  
HETATM   11  N   UNL     1      -9.004  12.247  67.154  1.00  0.00    -0.185 N  
ENDROOT
BRANCH   6  12
HETATM   12  C   UNL     1     -11.684  14.550  67.881  1.00  0.00    -0.351 C  
HETATM   13  H2  UNL     1     -12.256  13.998  65.931  1.00  0.00     0.000 HD 
HETATM   14  O   UNL     1     -11.989  15.192  68.879  1.00  0.00    -0.308 OA 
HETATM   15  N   UNL     1     -12.486  14.523  66.775  1.00  0.00    -0.457 N  
HETATM   16  H1  UNL     1     -13.336  15.078  66.875  1.00  0.00     0.000 HD 
ENDBRANCH   6  12
TORSDOF 1
ENDMDL
MODEL      125
REMARK 921   NORMALIZED FREE ENERGY PREDICTED BY IDOCK:   -3.16 KCAL/MOL
REMARK 922        TOTAL FREE ENERGY PREDICTED BY IDOCK:   -3.62 KCAL/MOL
REMARK 923 INTER-LIGAND FREE ENERGY PREDICTED BY IDOCK:   -3.32 KCAL/MOL
REMARK 924 INTRA-LIGAND FREE ENERGY PREDICTED BY IDOCK:   -0.30 KCAL/MOL
REMARK 927      BINDING AFFINITY PREDICTED BY RF-SCORE:    0.00 PKD
ROOT
HETATM    1  C   UNL     1      -9.717   4.186  66.619  1.00  0.00    -0.211 C  
HETATM    2  N   UNL     1      -9.941   5.601  66.820  1.00  0.00    -0.162 N  
HETATM    3  N   UNL     1     -10.894   5.937  67.751  1.00  0.00    -0.270 NA 
HETATM    4  N   UNL     1     -11.149   7.141  67.987  1.00  0.00    -0.044 NA 
HETATM    5  C   UNL     1     -10.492   8.121  67.334  1.00  0.00    -0.285 A  
HETATM    6  C   UNL     1     -10.528   9.504  67.357  1.00  0.00    -0.272 A  
HETATM    7  N   UNL     1      -9.608  10.025  66.447  1.00  0.00    -0.185 NA 
HETATM    8  O   UNL     1      -8.340   6.290  65.241  1.00  0.00    -0.145 OA 
HETATM    9  C   UNL     1      -9.200   6.505  66.082  1.00  0.00    -0.096 C  
HETATM   10  C   UNL     1      -9.041   8.972  65.900  1.00  0.00    -0.212 A  
HETATM   11  N   UNL     1      -9.544   7.802  66.405  1.00  0.00    -0.192 N  
ENDROOT
BRANCH   6  12
HETATM   12  C   UNL     1     -11.381  10.343  68.189  1.00  0.00    -0.213 C  
HETATM   13  H2  UNL     1     -11.212   8.943  69.753  1.00  0.00     0.000 HD 
HETATM   14  O   UNL     1     -11.870  11.411  67.838  1.00  0.00    -0.588 OA 
HETATM   15  N   UNL     1     -11.605   9.830  69.435  1.00  0.00    -0.449 N  
HETATM   16  H1  UNL     1     -12.202  10.417  70.017  1.00  0.00     0.000 HD 
ENDBRANCH   6  12
TORSDOF 1
ENDMDL
MODEL      126
REMARK 921   NORMALIZED FREE ENERGY PREDICTED BY IDOCK:   -3.16 KCAL/MOL
REMARK 922        TOTAL FREE ENERGY PREDICTED BY IDOCK:   -3.62 KCAL/MOL
REMARK 923 INTER-LIGAND FREE ENERGY PREDICTED BY IDOCK:   -3.33 KCAL/MOL
REMARK 924 INTRA-LIGAND FREE ENERGY PREDICTED BY IDOCK:   -0.29 KCAL/MOL
REMARK 927      BINDING AFFINITY PREDICTED BY RF-SCORE:    0.00 PKD
ROOT
HETATM    1  C   UNL     1      -9.226   2.379  70.607  1.00  0.00    -0.130 C  
HETATM    2  N   UNL     1      -9.696   3.746  70.619  1.00  0.00    -0.187 N  
HETATM    3  N   UNL     1     -10.011   4.268  71.852  1.00  0.00    -0.182 NA 
HETATM    4  N   UNL     1     -10.424   5.446  71.951  1.00  0.00    -0.219 NA 
HETATM    5  C   UNL     1     -10.564   6.219  70.855  1.00  0.00    -0.241 A  
HETATM    6  C   UNL     1     -10.978   7.518  70.622  1.00  0.00    -0.249 A  
HETATM    7  N   UNL     1     -10.924   7.803  69.258  1.00  0.00    -0.072 NA 
HETATM    8  O   UNL     1      -9.539   4.042  68.292  1.00  0.00    -0.163 OA 
HETATM    9  C   UNL     1      -9.796   4.429  69.421  1.00  0.00    -0.168 C  
HETATM   10  C   UNL     1     -10.487   6.697  68.698  1.00  0.00    -0.211 A  
HETATM   11  N   UNL     1     -10.256   5.714  69.624  1.00  0.00    -0.226 N  
ENDROOT
BRANCH   6  12
HETATM   12  C   UNL     1     -11.416   8.489  71.618  1.00  0.00    -0.298 C  
HETATM   13  H2  UNL     1     -11.919   6.909  72.917  1.00  0.00     0.000 HD 
HETATM   14  O   UNL     1     -11.386   9.704  71.471  1.00  0.00    -0.381 OA 
HETATM   15  N   UNL     1     -11.882   7.918  72.768  1.00  0.00    -0.606 N  
HETATM   16  H1  UNL     1     -12.188   8.597  73.465  1.00  0.00     0.000 HD 
ENDBRANCH   6  12
TORSDOF 1
ENDMDL
MODEL      127
REMARK 921   NORMALIZED FREE ENERGY PREDICTED BY IDOCK:   -3.15 KCAL/MOL
REMARK 922        TOTAL FREE ENERGY PREDICTED BY IDOCK:   -3.61 KCAL/MOL
REMARK 923 INTER-LIGAND FREE ENERGY PREDICTED BY IDOCK:   -3.34 KCAL/MOL
REMARK 924 INTRA-LIGAND FREE ENERGY PREDICTED BY IDOCK:   -0.27 KCAL/MOL
REMARK 927      BINDING AFFINITY PREDICTED BY RF-SCORE:    0.00 PKD
ROOT
HETATM    1  C   UNL     1     -13.404   9.848  72.174  1.00  0.00    -0.399 C  
HETATM    2  N   UNL     1     -12.525   9.898  71.026  1.00  0.00    -0.332 N  
HETATM    3  N   UNL     1     -12.506  11.083  70.329  1.00  0.00    -0.301 NA 
HETATM    4  N   UNL     1     -11.771  11.210  69.323  1.00  0.00    -0.303 NA 
HETATM    5  C   UNL     1     -10.989  10.191  68.911  1.00  0.00    -0.223 A  
HETATM    6  C   UNL     1     -10.088  10.007  67.877  1.00  0.00    -0.169 A  
HETATM    7  N   UNL     1      -9.553   8.721  67.927  1.00  0.00    -0.142 NA 
HETATM    8  O   UNL     1     -11.735   7.697  71.274  1.00  0.00    -0.273 OA 
HETATM    9  C   UNL     1     -11.776   8.780  70.710  1.00  0.00    -0.219 C  
HETATM   10  C   UNL     1     -10.125   8.158  68.969  1.00  0.00    -0.205 A  
HETATM   11  N   UNL     1     -10.998   9.009  69.593  1.00  0.00    -0.186 N  
ENDROOT
BRANCH   6  12
HETATM   12  C   UNL     1      -9.716  10.980  66.857  1.00  0.00    -0.188 C  
HETATM   13  H2  UNL     1      -9.199  12.351  68.371  1.00  0.00     0.000 HD 
HETATM   14  O   UNL     1      -9.788  10.790  65.649  1.00  0.00    -0.219 OA 
HETATM   15  N   UNL     1      -9.268  12.165  67.370  1.00  0.00    -0.177 N  
HETATM   16  H1  UNL     1      -9.008  12.845  66.656  1.00  0.00     0.000 HD 
ENDBRANCH   6  12
TORSDOF 1
ENDMDL
MODEL      128
REMARK 921   NORMALIZED FREE ENERGY PREDICTED BY IDOCK:   -3.15 KCAL/MOL
REMARK 922        TOTAL FREE ENERGY PREDICTED BY IDOCK:   -3.61 KCAL/MOL
REMARK 923 INTER-LIGAND FREE ENERGY PREDICTED BY IDOCK:   -3.34 KCAL/MOL
REMARK 924 INTRA-LIGAND FREE ENERGY PREDICTED BY IDOCK:   -0.27 KCAL/MOL
REMARK 927      BINDING AFFINITY PREDICTED BY RF-SCORE:    0.00 PKD
ROOT
HETATM    1  C   UNL     1      -6.272  15.127  70.192  1.00  0.00    -0.140 C  
HETATM    2  N   UNL     1      -7.375  14.749  69.336  1.00  0.00    -0.169 N  
HETATM    3  N   UNL     1      -8.461  15.591  69.341  1.00  0.00    -0.260 NA 
HETATM    4  N   UNL     1      -9.458  15.338  68.626  1.00  0.00    -0.196 NA 
HETATM    5  C   UNL     1      -9.480  14.239  67.843  1.00  0.00    -0.212 A  
HETATM    6  C   UNL     1     -10.391  13.686  66.961  1.00  0.00    -0.260 A  
HETATM    7  N   UNL     1      -9.879  12.510  66.414  1.00  0.00    -0.248 NA 
HETATM    8  O   UNL     1      -6.347  12.796  68.523  1.00  0.00    -0.066 OA 
HETATM    9  C   UNL     1      -7.271  13.594  68.584  1.00  0.00    -0.110 C  
HETATM   10  C   UNL     1      -8.691  12.373  66.961  1.00  0.00    -0.207 A  
HETATM   11  N   UNL     1      -8.409  13.394  67.829  1.00  0.00    -0.164 N  
ENDROOT
BRANCH   6  12
HETATM   12  C   UNL     1     -11.706  14.213  66.617  1.00  0.00    -0.403 C  
HETATM   13  H2  UNL     1     -12.221  14.227  68.660  1.00  0.00     0.000 HD 
HETATM   14  O   UNL     1     -12.088  14.456  65.479  1.00  0.00    -0.375 OA 
HETATM   15  N   UNL     1     -12.512  14.421  67.701  1.00  0.00    -0.530 N  
HETATM   16  H1  UNL     1     -13.432  14.790  67.460  1.00  0.00     0.000 HD 
ENDBRANCH   6  12
TORSDOF 1
ENDMDL
MODEL      129
REMARK 921   NORMALIZED FREE ENERGY PREDICTED BY IDOCK:   -3.13 KCAL/MOL
REMARK 922        TOTAL FREE ENERGY PREDICTED BY IDOCK:   -3.59 KCAL/MOL
REMARK 923 INTER-LIGAND FREE ENERGY PREDICTED BY IDOCK:   -3.29 KCAL/MOL
REMARK 924 INTRA-LIGAND FREE ENERGY PREDICTED BY IDOCK:   -0.29 KCAL/MOL
REMARK 927      BINDING AFFINITY PREDICTED BY RF-SCORE:    0.00 PKD
ROOT
HETATM    1  C   UNL     1      -6.395  10.985  69.618  1.00  0.00    -0.106 C  
HETATM    2  N   UNL     1      -7.499  10.253  70.199  1.00  0.00    -0.143 N  
HETATM    3  N   UNL     1      -7.197   9.461  71.282  1.00  0.00    -0.326 NA 
HETATM    4  N   UNL     1      -8.096   8.794  71.845  1.00  0.00    -0.330 NA 
HETATM    5  C   UNL     1      -9.368   8.843  71.400  1.00  0.00    -0.268 A  
HETATM    6  C   UNL     1     -10.560   8.254  71.782  1.00  0.00    -0.259 A  
HETATM    7  N   UNL     1     -11.593   8.671  70.944  1.00  0.00    -0.278 NA 
HETATM    8  O   UNL     1      -9.107  11.067  68.689  1.00  0.00    -0.166 OA 
HETATM    9  C   UNL     1      -8.758  10.390  69.644  1.00  0.00    -0.035 C  
HETATM   10  C   UNL     1     -11.024   9.490  70.087  1.00  0.00    -0.262 A  
HETATM   11  N   UNL     1      -9.682   9.624  70.325  1.00  0.00    -0.255 N  
ENDROOT
BRANCH   6  12
HETATM   12  C   UNL     1     -10.762   7.326  72.888  1.00  0.00    -0.322 C  
HETATM   13  H2  UNL     1      -9.143   8.208  73.907  1.00  0.00     0.000 HD 
HETATM   14  O   UNL     1     -11.630   6.463  72.928  1.00  0.00    -0.154 OA 
HETATM   15  N   UNL     1      -9.876   7.498  73.914  1.00  0.00    -0.389 N  
HETATM   16  H1  UNL     1     -10.018   6.849  74.688  1.00  0.00     0.000 HD 
ENDBRANCH   6  12
TORSDOF 1
ENDMDL
MODEL      130
REMARK 921   NORMALIZED FREE ENERGY PREDICTED BY IDOCK:   -3.12 KCAL/MOL
REMARK 922        TOTAL FREE ENERGY PREDICTED BY IDOCK:   -3.57 KCAL/MOL
REMARK 923 INTER-LIGAND FREE ENERGY PREDICTED BY IDOCK:   -3.57 KCAL/MOL
REMARK 924 INTRA-LIGAND FREE ENERGY PREDICTED BY IDOCK:    0.00 KCAL/MOL
REMARK 927      BINDING AFFINITY PREDICTED BY RF-SCORE:    0.00 PKD
ROOT
HETATM    1  C   UNL     1     -12.097  14.783  64.611  1.00  0.00    -0.427 C  
HETATM    2  N   UNL     1     -11.204  13.731  65.045  1.00  0.00    -0.322 N  
HETATM    3  N   UNL     1     -10.392  14.029  66.114  1.00  0.00    -0.289 NA 
HETATM    4  N   UNL     1      -9.590  13.173  66.554  1.00  0.00    -0.266 NA 
HETATM    5  C   UNL     1      -9.513  11.951  65.989  1.00  0.00    -0.229 A  
HETATM    6  C   UNL     1      -8.763  10.812  66.223  1.00  0.00    -0.169 A  
HETATM    7  N   UNL     1      -9.103   9.815  65.309  1.00  0.00    -0.194 NA 
HETATM    8  O   UNL     1     -11.908  12.179  63.425  1.00  0.00    -0.463 OA 
HETATM    9  C   UNL     1     -11.222  12.521  64.376  1.00  0.00    -0.339 C  
HETATM   10  C   UNL     1     -10.033  10.354  64.551  1.00  0.00    -0.331 A  
HETATM   11  N   UNL     1     -10.312  11.642  64.926  1.00  0.00    -0.269 N  
ENDROOT
BRANCH   6  12
HETATM   12  C   UNL     1      -7.755  10.626  67.259  1.00  0.00    -0.108 C  
HETATM   13  H2  UNL     1      -7.646   8.581  66.770  1.00  0.00     0.000 HD 
HETATM   14  O   UNL     1      -7.327  11.514  67.987  1.00  0.00    -0.083 OA 
HETATM   15  N   UNL     1      -7.307   9.340  67.362  1.00  0.00    -0.086 N  
HETATM   16  H1  UNL     1      -6.601   9.210  68.087  1.00  0.00     0.000 HD 
ENDBRANCH   6  12
TORSDOF 1
ENDMDL
MODEL      131
REMARK 921   NORMALIZED FREE ENERGY PREDICTED BY IDOCK:   -3.10 KCAL/MOL
REMARK 922        TOTAL FREE ENERGY PREDICTED BY IDOCK:   -3.56 KCAL/MOL
REMARK 923 INTER-LIGAND FREE ENERGY PREDICTED BY IDOCK:   -3.50 KCAL/MOL
REMARK 924 INTRA-LIGAND FREE ENERGY PREDICTED BY IDOCK:   -0.06 KCAL/MOL
REMARK 927      BINDING AFFINITY PREDICTED BY RF-SCORE:    0.00 PKD
ROOT
HETATM    1  C   UNL     1      -7.982  16.637  66.300  1.00  0.00    -0.305 C  
HETATM    2  N   UNL     1      -8.433  15.308  66.650  1.00  0.00    -0.262 N  
HETATM    3  N   UNL     1      -9.738  15.009  66.339  1.00  0.00    -0.266 NA 
HETATM    4  N   UNL     1     -10.207  13.879  66.607  1.00  0.00    -0.271 NA 
HETATM    5  C   UNL     1      -9.441  12.941  67.202  1.00  0.00    -0.229 A  
HETATM    6  C   UNL     1      -9.641  11.637  67.618  1.00  0.00    -0.181 A  
HETATM    7  N   UNL     1      -8.473  11.130  68.186  1.00  0.00    -0.132 NA 
HETATM    8  O   UNL     1      -6.378  14.627  67.569  1.00  0.00    -0.286 OA 
HETATM    9  C   UNL     1      -7.545  14.441  67.260  1.00  0.00    -0.108 C  
HETATM   10  C   UNL     1      -7.603  12.112  68.106  1.00  0.00    -0.125 A  
HETATM   11  N   UNL     1      -8.144  13.225  67.517  1.00  0.00    -0.174 N  
ENDROOT
BRANCH   6  12
HETATM   12  C   UNL     1     -10.870  10.862  67.506  1.00  0.00    -0.272 C  
HETATM   13  H2  UNL     1      -9.727   9.103  67.311  1.00  0.00     0.000 HD 
HETATM   14  O   UNL     1     -12.000  11.332  67.544  1.00  0.00    -0.612 OA 
HETATM   15  N   UNL     1     -10.657   9.521  67.347  1.00  0.00    -0.279 N  
HETATM   16  H1  UNL     1     -11.517   8.979  67.268  1.00  0.00     0.000 HD 
ENDBRANCH   6  12
TORSDOF 1
ENDMDL
MODEL      132
REMARK 921   NORMALIZED FREE ENERGY PREDICTED BY IDOCK:   -3.08 KCAL/MOL
REMARK 922        TOTAL FREE ENERGY PREDICTED BY IDOCK:   -3.53 KCAL/MOL
REMARK 923 INTER-LIGAND FREE ENERGY PREDICTED BY IDOCK:   -3.49 KCAL/MOL
REMARK 924 INTRA-LIGAND FREE ENERGY PREDICTED BY IDOCK:   -0.05 KCAL/MOL
REMARK 927      BINDING AFFINITY PREDICTED BY RF-SCORE:    0.00 PKD
ROOT
HETATM    1  C   UNL     1      -9.771   6.565  66.645  1.00  0.00    -0.154 C  
HETATM    2  N   UNL     1     -10.125   7.822  67.265  1.00  0.00    -0.211 N  
HETATM    3  N   UNL     1     -10.248   8.901  66.421  1.00  0.00    -0.262 NA 
HETATM    4  N   UNL     1     -10.554  10.026  66.877  1.00  0.00    -0.220 NA 
HETATM    5  C   UNL     1     -10.768  10.197  68.198  1.00  0.00    -0.244 A  
HETATM    6  C   UNL     1     -11.111  11.270  69.001  1.00  0.00    -0.244 A  
HETATM    7  N   UNL     1     -11.199  10.865  70.332  1.00  0.00    -0.210 NA 
HETATM    8  O   UNL     1     -10.226   6.956  69.449  1.00  0.00    -0.172 OA 
HETATM    9  C   UNL     1     -10.315   7.862  68.634  1.00  0.00    -0.201 C  
HETATM   10  C   UNL     1     -10.914   9.582  70.315  1.00  0.00    -0.269 A  
HETATM   11  N   UNL     1     -10.648   9.136  69.048  1.00  0.00    -0.220 N  
ENDROOT
BRANCH   6  12
HETATM   12  C   UNL     1     -11.356  12.641  68.572  1.00  0.00    -0.296 C  
HETATM   13  H2  UNL     1     -10.719  13.332  70.456  1.00  0.00     0.000 HD 
HETATM   14  O   UNL     1     -11.778  12.964  67.468  1.00  0.00    -0.337 OA 
HETATM   15  N   UNL     1     -11.070  13.573  69.529  1.00  0.00    -0.447 N  
HETATM   16  H1  UNL     1     -11.241  14.532  69.228  1.00  0.00     0.000 HD 
ENDBRANCH   6  12
TORSDOF 1
ENDMDL
MODEL      133
REMARK 921   NORMALIZED FREE ENERGY PREDICTED BY IDOCK:   -3.07 KCAL/MOL
REMARK 922        TOTAL FREE ENERGY PREDICTED BY IDOCK:   -3.53 KCAL/MOL
REMARK 923 INTER-LIGAND FREE ENERGY PREDICTED BY IDOCK:   -3.41 KCAL/MOL
REMARK 924 INTRA-LIGAND FREE ENERGY PREDICTED BY IDOCK:   -0.12 KCAL/MOL
REMARK 927      BINDING AFFINITY PREDICTED BY RF-SCORE:    0.00 PKD
ROOT
HETATM    1  C   UNL     1     -10.777  18.797  66.912  1.00  0.00    -0.337 C  
HETATM    2  N   UNL     1      -9.520  18.399  67.505  1.00  0.00    -0.268 N  
HETATM    3  N   UNL     1      -9.589  17.435  68.483  1.00  0.00    -0.288 NA 
HETATM    4  N   UNL     1      -8.545  17.033  69.047  1.00  0.00    -0.188 NA 
HETATM    5  C   UNL     1      -7.342  17.537  68.704  1.00  0.00    -0.256 A  
HETATM    6  C   UNL     1      -6.038  17.319  69.114  1.00  0.00    -0.217 A  
HETATM    7  N   UNL     1      -5.166  18.140  68.401  1.00  0.00    -0.161 NA 
HETATM    8  O   UNL     1      -8.207  19.856  66.207  1.00  0.00    -0.328 OA 
HETATM    9  C   UNL     1      -8.354  18.998  67.064  1.00  0.00    -0.276 C  
HETATM   10  C   UNL     1      -5.938  18.828  67.588  1.00  0.00    -0.190 A  
HETATM   11  N   UNL     1      -7.258  18.496  67.736  1.00  0.00    -0.218 N  
ENDROOT
BRANCH   6  12
HETATM   12  C   UNL     1      -5.588  16.381  70.135  1.00  0.00    -0.189 C  
HETATM   13  H2  UNL     1      -5.148  18.000  71.409  1.00  0.00     0.000 HD 
HETATM   14  O   UNL     1      -5.582  15.163  70.012  1.00  0.00    -0.112 OA 
HETATM   15  N   UNL     1      -5.155  16.988  71.280  1.00  0.00    -0.380 N  
HETATM   16  H1  UNL     1      -4.840  16.331  71.994  1.00  0.00     0.000 HD 
ENDBRANCH   6  12
TORSDOF 1
ENDMDL
MODEL      134
REMARK 921   NORMALIZED FREE ENERGY PREDICTED BY IDOCK:   -3.05 KCAL/MOL
REMARK 922        TOTAL FREE ENERGY PREDICTED BY IDOCK:   -3.50 KCAL/MOL
REMARK 923 INTER-LIGAND FREE ENERGY PREDICTED BY IDOCK:   -3.20 KCAL/MOL
REMARK 924 INTRA-LIGAND FREE ENERGY PREDICTED BY IDOCK:   -0.30 KCAL/MOL
REMARK 927      BINDING AFFINITY PREDICTED BY RF-SCORE:    0.00 PKD
ROOT
HETATM    1  C   UNL     1      -9.285   8.127  69.775  1.00  0.00    -0.151 C  
HETATM    2  N   UNL     1      -9.441   9.286  68.925  1.00  0.00    -0.152 N  
HETATM    3  N   UNL     1     -10.489   9.249  68.036  1.00  0.00    -0.222 NA 
HETATM    4  N   UNL     1     -10.697  10.213  67.264  1.00  0.00    -0.266 NA 
HETATM    5  C   UNL     1      -9.897  11.299  67.294  1.00  0.00    -0.182 A  
HETATM    6  C   UNL     1      -9.851  12.497  66.603  1.00  0.00    -0.241 A  
HETATM    7  N   UNL     1      -8.783  13.272  67.054  1.00  0.00    -0.208 NA 
HETATM    8  O   UNL     1      -7.598  10.445  69.813  1.00  0.00    -0.155 OA 
HETATM    9  C   UNL     1      -8.549  10.335  69.055  1.00  0.00    -0.162 C  
HETATM   10  C   UNL     1      -8.212  12.547  67.991  1.00  0.00    -0.166 A  
HETATM   11  N   UNL     1      -8.852  11.350  68.170  1.00  0.00    -0.155 N  
ENDROOT
BRANCH   6  12
HETATM   12  C   UNL     1     -10.759  12.935  65.550  1.00  0.00    -0.279 C  
HETATM   13  H2  UNL     1     -12.388  12.203  66.666  1.00  0.00     0.000 HD 
HETATM   14  O   UNL     1     -10.413  13.492  64.515  1.00  0.00    -0.418 OA 
HETATM   15  N   UNL     1     -12.072  12.666  65.814  1.00  0.00    -0.443 N  
HETATM   16  H1  UNL     1     -12.707  12.973  65.077  1.00  0.00     0.000 HD 
ENDBRANCH   6  12
TORSDOF 1
ENDMDL
MODEL      135
REMARK 921   NORMALIZED FREE ENERGY PREDICTED BY IDOCK:   -3.03 KCAL/MOL
REMARK 922        TOTAL FREE ENERGY PREDICTED BY IDOCK:   -3.48 KCAL/MOL
REMARK 923 INTER-LIGAND FREE ENERGY PREDICTED BY IDOCK:   -3.19 KCAL/MOL
REMARK 924 INTRA-LIGAND FREE ENERGY PREDICTED BY IDOCK:   -0.30 KCAL/MOL
REMARK 927      BINDING AFFINITY PREDICTED BY RF-SCORE:    0.00 PKD
ROOT
HETATM    1  C   UNL     1     -10.014   4.469  65.489  1.00  0.00    -0.215 C  
HETATM    2  N   UNL     1     -10.084   4.628  66.924  1.00  0.00    -0.210 N  
HETATM    3  N   UNL     1      -9.489   3.641  67.673  1.00  0.00    -0.198 NA 
HETATM    4  N   UNL     1      -9.502   3.703  68.924  1.00  0.00    -0.164 NA 
HETATM    5  C   UNL     1     -10.098   4.737  69.553  1.00  0.00    -0.190 A  
HETATM    6  C   UNL     1     -10.284   5.100  70.875  1.00  0.00    -0.229 A  
HETATM    7  N   UNL     1     -10.990   6.300  70.950  1.00  0.00    -0.270 NA 
HETATM    8  O   UNL     1     -11.278   6.652  66.851  1.00  0.00    -0.391 OA 
HETATM    9  C   UNL     1     -10.728   5.736  67.443  1.00  0.00    -0.248 C  
HETATM   10  C   UNL     1     -11.215   6.638  69.699  1.00  0.00    -0.340 A  
HETATM   11  N   UNL     1     -10.694   5.724  68.822  1.00  0.00    -0.259 N  
ENDROOT
BRANCH   6  12
HETATM   12  C   UNL     1      -9.830   4.373  72.054  1.00  0.00    -0.176 C  
HETATM   13  H2  UNL     1     -10.079   2.558  71.015  1.00  0.00     0.000 HD 
HETATM   14  O   UNL     1      -9.496   4.893  73.112  1.00  0.00    -0.130 OA 
HETATM   15  N   UNL     1      -9.806   3.017  71.884  1.00  0.00    -0.167 N  
HETATM   16  H1  UNL     1      -9.488   2.509  72.709  1.00  0.00     0.000 HD 
ENDBRANCH   6  12
TORSDOF 1
ENDMDL
MODEL      136
REMARK 921   NORMALIZED FREE ENERGY PREDICTED BY IDOCK:   -2.98 KCAL/MOL
REMARK 922        TOTAL FREE ENERGY PREDICTED BY IDOCK:   -3.43 KCAL/MOL
REMARK 923 INTER-LIGAND FREE ENERGY PREDICTED BY IDOCK:   -3.13 KCAL/MOL
REMARK 924 INTRA-LIGAND FREE ENERGY PREDICTED BY IDOCK:   -0.30 KCAL/MOL
REMARK 927      BINDING AFFINITY PREDICTED BY RF-SCORE:    0.00 PKD
ROOT
HETATM    1  C   UNL     1      -9.249   7.951  66.305  1.00  0.00    -0.178 C  
HETATM    2  N   UNL     1      -9.469   7.940  67.734  1.00  0.00    -0.143 N  
HETATM    3  N   UNL     1     -10.586   7.268  68.170  1.00  0.00    -0.197 NA 
HETATM    4  N   UNL     1     -10.848   7.209  69.394  1.00  0.00    -0.228 NA 
HETATM    5  C   UNL     1     -10.041   7.800  70.298  1.00  0.00    -0.195 A  
HETATM    6  C   UNL     1     -10.040   7.919  71.677  1.00  0.00    -0.181 A  
HETATM    7  N   UNL     1      -8.936   8.660  72.095  1.00  0.00    -0.330 NA 
HETATM    8  O   UNL     1      -7.554   9.204  68.248  1.00  0.00    -0.082 OA 
HETATM    9  C   UNL     1      -8.564   8.588  68.554  1.00  0.00    -0.138 C  
HETATM   10  C   UNL     1      -8.298   8.971  70.988  1.00  0.00    -0.189 A  
HETATM   11  N   UNL     1      -8.929   8.472  69.879  1.00  0.00    -0.143 N  
ENDROOT
BRANCH   6  12
HETATM   12  C   UNL     1     -11.024   7.371  72.602  1.00  0.00    -0.317 C  
HETATM   13  H2  UNL     1     -12.548   7.789  71.210  1.00  0.00     0.000 HD 
HETATM   14  O   UNL     1     -10.765   6.912  73.708  1.00  0.00    -0.347 OA 
HETATM   15  N   UNL     1     -12.304   7.412  72.126  1.00  0.00    -0.457 N  
HETATM   16  H1  UNL     1     -12.992   7.028  72.774  1.00  0.00     0.000 HD 
ENDBRANCH   6  12
TORSDOF 1
ENDMDL
MODEL      137
REMARK 921   NORMALIZED FREE ENERGY PREDICTED BY IDOCK:   -2.91 KCAL/MOL
REMARK 922        TOTAL FREE ENERGY PREDICTED BY IDOCK:   -3.35 KCAL/MOL
REMARK 923 INTER-LIGAND FREE ENERGY PREDICTED BY IDOCK:   -3.06 KCAL/MOL
REMARK 924 INTRA-LIGAND FREE ENERGY PREDICTED BY IDOCK:   -0.29 KCAL/MOL
REMARK 927      BINDING AFFINITY PREDICTED BY RF-SCORE:    0.00 PKD
ROOT
HETATM    1  C   UNL     1      -8.070   2.485  71.383  1.00  0.00    -0.054 C  
HETATM    2  N   UNL     1      -8.846   3.682  71.625  1.00  0.00    -0.096 N  
HETATM    3  N   UNL     1      -9.668   4.089  70.601  1.00  0.00    -0.196 NA 
HETATM    4  N   UNL     1     -10.375   5.115  70.729  1.00  0.00    -0.241 NA 
HETATM    5  C   UNL     1     -10.340   5.834  71.871  1.00  0.00    -0.214 A  
HETATM    6  C   UNL     1     -10.974   6.976  72.325  1.00  0.00    -0.245 A  
HETATM    7  N   UNL     1     -10.549   7.281  73.617  1.00  0.00    -0.364 NA 
HETATM    8  O   UNL     1      -8.013   4.034  73.796  1.00  0.00    -0.085 OA 
HETATM    9  C   UNL     1      -8.716   4.327  72.841  1.00  0.00    -0.103 C  
HETATM   10  C   UNL     1      -9.684   6.337  73.920  1.00  0.00    -0.197 A  
HETATM   11  N   UNL     1      -9.528   5.442  72.895  1.00  0.00    -0.144 N  
ENDROOT
BRANCH   6  12
HETATM   12  C   UNL     1     -11.949   7.782  71.601  1.00  0.00    -0.297 C  
HETATM   13  H2  UNL     1     -11.033   7.237  69.785  1.00  0.00     0.000 HD 
HETATM   14  O   UNL     1     -12.850   8.427  72.123  1.00  0.00    -0.338 OA 
HETATM   15  N   UNL     1     -11.775   7.764  70.246  1.00  0.00    -0.481 N  
HETATM   16  H1  UNL     1     -12.457   8.328  69.740  1.00  0.00     0.000 HD 
ENDBRANCH   6  12
TORSDOF 1
ENDMDL
MODEL      138
REMARK 921   NORMALIZED FREE ENERGY PREDICTED BY IDOCK:   -2.89 KCAL/MOL
REMARK 922        TOTAL FREE ENERGY PREDICTED BY IDOCK:   -3.34 KCAL/MOL
REMARK 923 INTER-LIGAND FREE ENERGY PREDICTED BY IDOCK:   -3.04 KCAL/MOL
REMARK 924 INTRA-LIGAND FREE ENERGY PREDICTED BY IDOCK:   -0.29 KCAL/MOL
REMARK 927      BINDING AFFINITY PREDICTED BY RF-SCORE:    0.00 PKD
ROOT
HETATM    1  C   UNL     1      -9.620   3.773  69.705  1.00  0.00    -0.183 C  
HETATM    2  N   UNL     1      -9.868   5.197  69.725  1.00  0.00    -0.191 N  
HETATM    3  N   UNL     1     -10.927   5.618  70.493  1.00  0.00    -0.246 NA 
HETATM    4  N   UNL     1     -11.209   6.836  70.566  1.00  0.00    -0.298 NA 
HETATM    5  C   UNL     1     -10.479   7.751  69.895  1.00  0.00    -0.232 A  
HETATM    6  C   UNL     1     -10.518   9.128  69.766  1.00  0.00    -0.223 A  
HETATM    7  N   UNL     1      -9.495   9.561  68.923  1.00  0.00    -0.152 NA 
HETATM    8  O   UNL     1      -8.088   5.737  68.285  1.00  0.00    -0.106 OA 
HETATM    9  C   UNL     1      -9.044   6.029  68.989  1.00  0.00    -0.122 C  
HETATM   10  C   UNL     1      -8.865   8.463  68.564  1.00  0.00    -0.136 A  
HETATM   11  N   UNL     1      -9.424   7.347  69.128  1.00  0.00    -0.150 N  
ENDROOT
BRANCH   6  12
HETATM   12  C   UNL     1     -11.466  10.039  70.394  1.00  0.00    -0.314 C  
HETATM   13  H2  UNL     1     -11.638   8.717  72.024  1.00  0.00     0.000 HD 
HETATM   14  O   UNL     1     -11.837  11.103  69.914  1.00  0.00    -0.298 OA 
HETATM   15  N   UNL     1     -11.928   9.599  71.602  1.00  0.00    -0.392 N  
HETATM   16  H1  UNL     1     -12.592  10.237  72.041  1.00  0.00     0.000 HD 
ENDBRANCH   6  12
TORSDOF 1
ENDMDL
MODEL      139
REMARK 921   NORMALIZED FREE ENERGY PREDICTED BY IDOCK:   -2.89 KCAL/MOL
REMARK 922        TOTAL FREE ENERGY PREDICTED BY IDOCK:   -3.33 KCAL/MOL
REMARK 923 INTER-LIGAND FREE ENERGY PREDICTED BY IDOCK:   -3.21 KCAL/MOL
REMARK 924 INTRA-LIGAND FREE ENERGY PREDICTED BY IDOCK:   -0.12 KCAL/MOL
REMARK 927      BINDING AFFINITY PREDICTED BY RF-SCORE:    0.00 PKD
ROOT
HETATM    1  C   UNL     1      -7.389  21.013  67.181  1.00  0.00    -0.241 C  
HETATM    2  N   UNL     1      -7.636  19.606  67.407  1.00  0.00    -0.250 N  
HETATM    3  N   UNL     1      -6.623  18.748  67.049  1.00  0.00    -0.194 NA 
HETATM    4  N   UNL     1      -6.756  17.513  67.213  1.00  0.00    -0.160 NA 
HETATM    5  C   UNL     1      -7.889  17.009  67.743  1.00  0.00    -0.180 A  
HETATM    6  C   UNL     1      -8.343  15.739  68.051  1.00  0.00    -0.152 A  
HETATM    7  N   UNL     1      -9.626  15.804  68.593  1.00  0.00    -0.199 NA 
HETATM    8  O   UNL     1      -9.789  19.914  68.300  1.00  0.00    -0.386 OA 
HETATM    9  C   UNL     1      -8.844  19.220  67.957  1.00  0.00    -0.317 C  
HETATM   10  C   UNL     1      -9.923  17.085  68.606  1.00  0.00    -0.294 A  
HETATM   11  N   UNL     1      -8.903  17.849  68.103  1.00  0.00    -0.258 N  
ENDROOT
BRANCH   6  12
HETATM   12  C   UNL     1      -7.627  14.484  67.858  1.00  0.00    -0.145 C  
HETATM   13  H2  UNL     1      -8.860  14.049  66.207  1.00  0.00     0.000 HD 
HETATM   14  O   UNL     1      -6.699  14.093  68.555  1.00  0.00    -0.087 OA 
HETATM   15  N   UNL     1      -8.089  13.748  66.803  1.00  0.00    -0.350 N  
HETATM   16  H1  UNL     1      -7.588  12.870  66.668  1.00  0.00     0.000 HD 
ENDBRANCH   6  12
TORSDOF 1
ENDMDL
MODEL      140
REMARK 921   NORMALIZED FREE ENERGY PREDICTED BY IDOCK:   -2.82 KCAL/MOL
REMARK 922        TOTAL FREE ENERGY PREDICTED BY IDOCK:   -3.26 KCAL/MOL
REMARK 923 INTER-LIGAND FREE ENERGY PREDICTED BY IDOCK:   -2.96 KCAL/MOL
REMARK 924 INTRA-LIGAND FREE ENERGY PREDICTED BY IDOCK:   -0.30 KCAL/MOL
REMARK 927      BINDING AFFINITY PREDICTED BY RF-SCORE:    0.00 PKD
ROOT
HETATM    1  C   UNL     1     -12.068  13.607  67.693  1.00  0.00    -0.293 C  
HETATM    2  N   UNL     1     -11.156  12.487  67.764  1.00  0.00    -0.236 N  
HETATM    3  N   UNL     1     -11.685  11.255  67.461  1.00  0.00    -0.599 NA 
HETATM    4  N   UNL     1     -10.962  10.232  67.496  1.00  0.00    -0.301 NA 
HETATM    5  C   UNL     1      -9.659  10.325  67.830  1.00  0.00    -0.152 A  
HETATM    6  C   UNL     1      -8.617   9.423  67.958  1.00  0.00    -0.120 A  
HETATM    7  N   UNL     1      -7.451  10.086  68.340  1.00  0.00    -0.081 NA 
HETATM    8  O   UNL     1      -9.296  13.774  68.405  1.00  0.00    -0.203 OA 
HETATM    9  C   UNL     1      -9.841  12.718  68.122  1.00  0.00    -0.226 C  
HETATM   10  C   UNL     1      -7.797  11.351  68.434  1.00  0.00    -0.135 A  
HETATM   11  N   UNL     1      -9.120  11.542  68.134  1.00  0.00    -0.174 N  
ENDROOT
BRANCH   6  12
HETATM   12  C   UNL     1      -8.674   7.984  67.739  1.00  0.00    -0.127 C  
HETATM   13  H2  UNL     1      -9.940   8.298  66.085  1.00  0.00     0.000 HD 
HETATM   14  O   UNL     1      -8.098   7.148  68.424  1.00  0.00    -0.121 OA 
HETATM   15  N   UNL     1      -9.449   7.623  66.672  1.00  0.00    -0.188 N  
HETATM   16  H1  UNL     1      -9.488   6.616  66.519  1.00  0.00     0.000 HD 
ENDBRANCH   6  12
TORSDOF 1
ENDMDL
MODEL      141
REMARK 921   NORMALIZED FREE ENERGY PREDICTED BY IDOCK:   -2.80 KCAL/MOL
REMARK 922        TOTAL FREE ENERGY PREDICTED BY IDOCK:   -3.24 KCAL/MOL
REMARK 923 INTER-LIGAND FREE ENERGY PREDICTED BY IDOCK:   -3.12 KCAL/MOL
REMARK 924 INTRA-LIGAND FREE ENERGY PREDICTED BY IDOCK:   -0.12 KCAL/MOL
REMARK 927      BINDING AFFINITY PREDICTED BY RF-SCORE:    0.00 PKD
ROOT
HETATM    1  C   UNL     1     -11.044   4.134  73.534  1.00  0.00    -0.270 C  
HETATM    2  N   UNL     1     -10.831   5.263  72.656  1.00  0.00    -0.240 N  
HETATM    3  N   UNL     1     -11.277   5.119  71.364  1.00  0.00     0.175 NA 
HETATM    4  N   UNL     1     -11.133   6.051  70.539  1.00  0.00    -0.321 NA 
HETATM    5  C   UNL     1     -10.542   7.207  70.906  1.00  0.00    -0.220 A  
HETATM    6  C   UNL     1     -10.240   8.395  70.266  1.00  0.00    -0.196 A  
HETATM    7  N   UNL     1      -9.610   9.271  71.149  1.00  0.00    -0.266 NA 
HETATM    8  O   UNL     1      -9.786   6.599  74.286  1.00  0.00    -0.267 OA 
HETATM    9  C   UNL     1     -10.209   6.392  73.158  1.00  0.00    -0.205 C  
HETATM   10  C   UNL     1      -9.543   8.614  72.287  1.00  0.00    -0.278 A  
HETATM   11  N   UNL     1     -10.094   7.364  72.186  1.00  0.00    -0.186 N  
ENDROOT
BRANCH   6  12
HETATM   12  C   UNL     1     -10.516   8.735  68.876  1.00  0.00    -0.197 C  
HETATM   13  H2  UNL     1     -11.825  10.254  69.520  1.00  0.00     0.000 HD 
HETATM   14  O   UNL     1     -10.024   8.171  67.906  1.00  0.00    -0.165 OA 
HETATM   15  N   UNL     1     -11.400   9.767  68.731  1.00  0.00    -0.482 N  
HETATM   16  H1  UNL     1     -11.592  10.005  67.758  1.00  0.00     0.000 HD 
ENDBRANCH   6  12
TORSDOF 1
ENDMDL
MODEL      142
REMARK 921   NORMALIZED FREE ENERGY PREDICTED BY IDOCK:   -2.76 KCAL/MOL
REMARK 922        TOTAL FREE ENERGY PREDICTED BY IDOCK:   -3.19 KCAL/MOL
REMARK 923 INTER-LIGAND FREE ENERGY PREDICTED BY IDOCK:   -3.19 KCAL/MOL
REMARK 924 INTRA-LIGAND FREE ENERGY PREDICTED BY IDOCK:   -0.00 KCAL/MOL
REMARK 927      BINDING AFFINITY PREDICTED BY RF-SCORE:    0.00 PKD
ROOT
HETATM    1  C   UNL     1     -12.072  11.015  69.138  1.00  0.00    -0.263 C  
HETATM    2  N   UNL     1     -11.286  10.424  68.078  1.00  0.00    -0.298 N  
HETATM    3  N   UNL     1     -10.627   9.258  68.390  1.00  0.00    -0.212 NA 
HETATM    4  N   UNL     1      -9.925   8.680  67.529  1.00  0.00    -0.184 NA 
HETATM    5  C   UNL     1      -9.806   9.190  66.286  1.00  0.00    -0.289 A  
HETATM    6  C   UNL     1      -9.135   8.814  65.136  1.00  0.00    -0.043 A  
HETATM    7  N   UNL     1      -9.371   9.737  64.118  1.00  0.00    -0.239 NA 
HETATM    8  O   UNL     1     -11.797  12.081  66.490  1.00  0.00    -0.585 OA 
HETATM    9  C   UNL     1     -11.246  11.050  66.846  1.00  0.00    -0.136 C  
HETATM   10  C   UNL     1     -10.164  10.638  64.655  1.00  0.00    -0.334 A  
HETATM   11  N   UNL     1     -10.453  10.347  65.962  1.00  0.00    -0.186 N  
ENDROOT
BRANCH   6  12
HETATM   12  C   UNL     1      -8.293   7.638  64.960  1.00  0.00    -0.071 C  
HETATM   13  H2  UNL     1      -8.289   7.967  62.880  1.00  0.00     0.000 HD 
HETATM   14  O   UNL     1      -7.895   6.919  65.869  1.00  0.00    -0.096 OA 
HETATM   15  N   UNL     1      -7.971   7.387  63.656  1.00  0.00    -0.253 N  
HETATM   16  H1  UNL     1      -7.381   6.563  63.533  1.00  0.00     0.000 HD 
ENDBRANCH   6  12
TORSDOF 1
ENDMDL
MODEL      143
REMARK 921   NORMALIZED FREE ENERGY PREDICTED BY IDOCK:   -2.72 KCAL/MOL
REMARK 922        TOTAL FREE ENERGY PREDICTED BY IDOCK:   -3.16 KCAL/MOL
REMARK 923 INTER-LIGAND FREE ENERGY PREDICTED BY IDOCK:   -2.89 KCAL/MOL
REMARK 924 INTRA-LIGAND FREE ENERGY PREDICTED BY IDOCK:   -0.27 KCAL/MOL
REMARK 927      BINDING AFFINITY PREDICTED BY RF-SCORE:    0.00 PKD
ROOT
HETATM    1  C   UNL     1     -11.017   6.948  72.976  1.00  0.00    -0.274 C  
HETATM    2  N   UNL     1     -10.709   6.334  71.703  1.00  0.00    -0.231 N  
HETATM    3  N   UNL     1     -10.124   5.091  71.755  1.00  0.00    -0.194 NA 
HETATM    4  N   UNL     1      -9.826   4.490  70.698  1.00  0.00    -0.214 NA 
HETATM    5  C   UNL     1     -10.075   5.049  69.496  1.00  0.00    -0.231 A  
HETATM    6  C   UNL     1      -9.881   4.667  68.181  1.00  0.00    -0.107 A  
HETATM    7  N   UNL     1     -10.337   5.662  67.318  1.00  0.00    -0.215 NA 
HETATM    8  O   UNL     1     -11.531   8.117  70.408  1.00  0.00    -0.234 OA 
HETATM    9  C   UNL     1     -11.015   7.018  70.541  1.00  0.00    -0.265 C  
HETATM   10  C   UNL     1     -10.792   6.611  68.106  1.00  0.00    -0.263 A  
HETATM   11  N   UNL     1     -10.655   6.284  69.429  1.00  0.00    -0.239 N  
ENDROOT
BRANCH   6  12
HETATM   12  C   UNL     1      -9.290   3.420  67.711  1.00  0.00    -0.194 C  
HETATM   13  H2  UNL     1      -8.621   3.015  69.666  1.00  0.00     0.000 HD 
HETATM   14  O   UNL     1      -9.328   3.020  66.554  1.00  0.00    -0.147 OA 
HETATM   15  N   UNL     1      -8.668   2.705  68.695  1.00  0.00    -0.080 N  
HETATM   16  H1  UNL     1      -8.255   1.833  68.366  1.00  0.00     0.000 HD 
ENDBRANCH   6  12
TORSDOF 1
ENDMDL
MODEL      144
REMARK 921   NORMALIZED FREE ENERGY PREDICTED BY IDOCK:   -2.66 KCAL/MOL
REMARK 922        TOTAL FREE ENERGY PREDICTED BY IDOCK:   -3.10 KCAL/MOL
REMARK 923 INTER-LIGAND FREE ENERGY PREDICTED BY IDOCK:   -2.83 KCAL/MOL
REMARK 924 INTRA-LIGAND FREE ENERGY PREDICTED BY IDOCK:   -0.26 KCAL/MOL
REMARK 927      BINDING AFFINITY PREDICTED BY RF-SCORE:    0.00 PKD
ROOT
HETATM    1  C   UNL     1      -5.921   7.262  69.317  1.00  0.00    -0.030 C  
HETATM    2  N   UNL     1      -7.198   7.728  69.813  1.00  0.00    -0.066 N  
HETATM    3  N   UNL     1      -7.618   8.952  69.351  1.00  0.00    -0.079 NA 
HETATM    4  N   UNL     1      -8.713   9.428  69.730  1.00  0.00    -0.164 NA 
HETATM    5  C   UNL     1      -9.494   8.747  70.593  1.00  0.00    -0.197 A  
HETATM    6  C   UNL     1     -10.721   8.977  71.191  1.00  0.00    -0.288 A  
HETATM    7  N   UNL     1     -11.061   7.908  72.018  1.00  0.00    -0.261 NA 
HETATM    8  O   UNL     1      -7.600   5.839  71.155  1.00  0.00    -0.094 OA 
HETATM    9  C   UNL     1      -7.901   6.931  70.699  1.00  0.00    -0.101 C  
HETATM   10  C   UNL     1     -10.057   7.065  71.911  1.00  0.00    -0.182 A  
HETATM   11  N   UNL     1      -9.090   7.530  71.061  1.00  0.00    -0.148 N  
ENDROOT
BRANCH   6  12
HETATM   12  C   UNL     1     -11.573  10.146  71.016  1.00  0.00    -0.376 C  
HETATM   13  H2  UNL     1     -10.145  10.977  69.709  1.00  0.00     0.000 HD 
HETATM   14  O   UNL     1     -12.660  10.308  71.557  1.00  0.00    -0.374 OA 
HETATM   15  N   UNL     1     -11.048  11.084  70.173  1.00  0.00    -0.473 N  
HETATM   16  H1  UNL     1     -11.645  11.902  70.051  1.00  0.00     0.000 HD 
ENDBRANCH   6  12
TORSDOF 1
ENDMDL
MODEL      145
REMARK 921   NORMALIZED FREE ENERGY PREDICTED BY IDOCK:   -2.64 KCAL/MOL
REMARK 922        TOTAL FREE ENERGY PREDICTED BY IDOCK:   -3.07 KCAL/MOL
REMARK 923 INTER-LIGAND FREE ENERGY PREDICTED BY IDOCK:   -2.81 KCAL/MOL
REMARK 924 INTRA-LIGAND FREE ENERGY PREDICTED BY IDOCK:   -0.27 KCAL/MOL
REMARK 927      BINDING AFFINITY PREDICTED BY RF-SCORE:    0.00 PKD
ROOT
HETATM    1  C   UNL     1     -10.360  10.446  69.793  1.00  0.00    -0.208 C  
HETATM    2  N   UNL     1     -10.262   9.128  70.382  1.00  0.00    -0.206 N  
HETATM    3  N   UNL     1      -9.971   9.084  71.725  1.00  0.00    -0.328 NA 
HETATM    4  N   UNL     1      -9.870   7.983  72.313  1.00  0.00    -0.213 NA 
HETATM    5  C   UNL     1     -10.045   6.827  71.639  1.00  0.00    -0.183 A  
HETATM    6  C   UNL     1     -10.008   5.486  71.975  1.00  0.00    -0.181 A  
HETATM    7  N   UNL     1     -10.270   4.701  70.853  1.00  0.00    -0.186 NA 
HETATM    8  O   UNL     1     -10.724   7.974  68.386  1.00  0.00    -0.139 OA 
HETATM    9  C   UNL     1     -10.463   8.021  69.578  1.00  0.00    -0.226 C  
HETATM   10  C   UNL     1     -10.459   5.561  69.876  1.00  0.00    -0.316 A  
HETATM   11  N   UNL     1     -10.334   6.855  70.305  1.00  0.00    -0.196 N  
ENDROOT
BRANCH   6  12
HETATM   12  C   UNL     1      -9.738   4.921  73.292  1.00  0.00    -0.137 C  
HETATM   13  H2  UNL     1      -9.833   6.852  74.126  1.00  0.00     0.000 HD 
HETATM   14  O   UNL     1      -9.562   3.730  73.520  1.00  0.00    -0.106 OA 
HETATM   15  N   UNL     1      -9.692   5.855  74.288  1.00  0.00    -0.181 N  
HETATM   16  H1  UNL     1      -9.504   5.459  75.209  1.00  0.00     0.000 HD 
ENDBRANCH   6  12
TORSDOF 1
ENDMDL
MODEL      146
REMARK 921   NORMALIZED FREE ENERGY PREDICTED BY IDOCK:   -2.58 KCAL/MOL
REMARK 922        TOTAL FREE ENERGY PREDICTED BY IDOCK:   -3.01 KCAL/MOL
REMARK 923 INTER-LIGAND FREE ENERGY PREDICTED BY IDOCK:   -2.71 KCAL/MOL
REMARK 924 INTRA-LIGAND FREE ENERGY PREDICTED BY IDOCK:   -0.30 KCAL/MOL
REMARK 927      BINDING AFFINITY PREDICTED BY RF-SCORE:    0.00 PKD
ROOT
HETATM    1  C   UNL     1     -10.173   6.087  74.298  1.00  0.00    -0.302 C  
HETATM    2  N   UNL     1      -9.944   6.096  72.870  1.00  0.00    -0.171 N  
HETATM    3  N   UNL     1      -8.633   6.006  72.466  1.00  0.00    -0.120 NA 
HETATM    4  N   UNL     1      -8.347   6.005  71.247  1.00  0.00    -0.123 NA 
HETATM    5  C   UNL     1      -9.318   6.091  70.314  1.00  0.00    -0.159 A  
HETATM    6  C   UNL     1      -9.346   6.114  68.931  1.00  0.00    -0.124 A  
HETATM    7  N   UNL     1     -10.660   6.220  68.478  1.00  0.00    -0.232 NA 
HETATM    8  O   UNL     1     -12.217   6.276  72.296  1.00  0.00    -0.286 OA 
HETATM    9  C   UNL     1     -11.030   6.192  72.020  1.00  0.00    -0.258 C  
HETATM   10  C   UNL     1     -11.392   6.259  69.569  1.00  0.00    -0.404 A  
HETATM   11  N   UNL     1     -10.625   6.183  70.701  1.00  0.00    -0.234 N  
ENDROOT
BRANCH   6  12
HETATM   12  C   UNL     1      -8.200   6.041  68.033  1.00  0.00    -0.113 C  
HETATM   13  H2  UNL     1      -7.108   7.274  69.345  1.00  0.00     0.000 HD 
HETATM   14  O   UNL     1      -8.177   5.418  66.978  1.00  0.00    -0.105 OA 
HETATM   15  N   UNL     1      -7.115   6.746  68.472  1.00  0.00    -0.080 N  
HETATM   16  H1  UNL     1      -6.314   6.694  67.843  1.00  0.00     0.000 HD 
ENDBRANCH   6  12
TORSDOF 1
ENDMDL
MODEL      147
REMARK 921   NORMALIZED FREE ENERGY PREDICTED BY IDOCK:   -2.48 KCAL/MOL
REMARK 922        TOTAL FREE ENERGY PREDICTED BY IDOCK:   -2.90 KCAL/MOL
REMARK 923 INTER-LIGAND FREE ENERGY PREDICTED BY IDOCK:   -2.79 KCAL/MOL
REMARK 924 INTRA-LIGAND FREE ENERGY PREDICTED BY IDOCK:   -0.11 KCAL/MOL
REMARK 927      BINDING AFFINITY PREDICTED BY RF-SCORE:    0.00 PKD
ROOT
HETATM    1  C   UNL     1     -10.743   6.957  70.548  1.00  0.00    -0.235 C  
HETATM    2  N   UNL     1     -10.937   8.307  70.066  1.00  0.00    -0.232 N  
HETATM    3  N   UNL     1     -11.332   9.233  71.002  1.00  0.00    -0.293 NA 
HETATM    4  N   UNL     1     -11.520  10.426  70.668  1.00  0.00    -0.336 NA 
HETATM    5  C   UNL     1     -11.339  10.818  69.390  1.00  0.00    -0.285 A  
HETATM    6  C   UNL     1     -11.454  12.017  68.711  1.00  0.00    -0.300 A  
HETATM    7  N   UNL     1     -11.137  11.840  67.365  1.00  0.00    -0.263 NA 
HETATM    8  O   UNL     1     -10.368   7.816  67.838  1.00  0.00    -0.202 OA 
HETATM    9  C   UNL     1     -10.718   8.576  68.728  1.00  0.00    -0.054 C  
HETATM   10  C   UNL     1     -10.840  10.564  67.252  1.00  0.00    -0.279 A  
HETATM   11  N   UNL     1     -10.947   9.908  68.450  1.00  0.00    -0.217 N  
ENDROOT
BRANCH   6  12
HETATM   12  C   UNL     1     -11.845  13.305  69.270  1.00  0.00    -0.331 C  
HETATM   13  H2  UNL     1     -13.350  13.469  67.805  1.00  0.00     0.000 HD 
HETATM   14  O   UNL     1     -11.313  13.840  70.234  1.00  0.00    -0.087 OA 
HETATM   15  N   UNL     1     -12.889  13.892  68.611  1.00  0.00     0.324 N  
HETATM   16  H1  UNL     1     -13.163  14.793  69.002  1.00  0.00     0.000 HD 
ENDBRANCH   6  12
TORSDOF 1
ENDMDL
MODEL      148
REMARK 921   NORMALIZED FREE ENERGY PREDICTED BY IDOCK:   -2.48 KCAL/MOL
REMARK 922        TOTAL FREE ENERGY PREDICTED BY IDOCK:   -2.90 KCAL/MOL
REMARK 923 INTER-LIGAND FREE ENERGY PREDICTED BY IDOCK:   -2.78 KCAL/MOL
REMARK 924 INTRA-LIGAND FREE ENERGY PREDICTED BY IDOCK:   -0.12 KCAL/MOL
REMARK 927      BINDING AFFINITY PREDICTED BY RF-SCORE:    0.00 PKD
ROOT
HETATM    1  C   UNL     1     -11.685   9.920  71.293  1.00  0.00    -0.392 C  
HETATM    2  N   UNL     1     -11.120   8.946  70.385  1.00  0.00    -0.242 N  
HETATM    3  N   UNL     1     -11.769   7.736  70.313  1.00  0.00    -0.045 NA 
HETATM    4  N   UNL     1     -11.346   6.838  69.549  1.00  0.00    -0.266 NA 
HETATM    5  C   UNL     1     -10.251   7.043  68.789  1.00  0.00    -0.176 A  
HETATM    6  C   UNL     1      -9.545   6.289  67.869  1.00  0.00    -0.118 A  
HETATM    7  N   UNL     1      -8.465   7.019  67.375  1.00  0.00    -0.121 NA 
HETATM    8  O   UNL     1      -9.357  10.328  69.669  1.00  0.00    -0.205 OA 
HETATM    9  C   UNL     1      -9.990   9.283  69.663  1.00  0.00    -0.191 C  
HETATM   10  C   UNL     1      -8.533   8.180  67.989  1.00  0.00    -0.133 A  
HETATM   11  N   UNL     1      -9.596   8.239  68.851  1.00  0.00    -0.152 N  
ENDROOT
BRANCH   6  12
HETATM   12  C   UNL     1      -9.841   4.927  67.443  1.00  0.00    -0.178 C  
HETATM   13  H2  UNL     1     -11.379   5.662  66.206  1.00  0.00     0.000 HD 
HETATM   14  O   UNL     1      -9.250   3.927  67.832  1.00  0.00    -0.138 OA 
HETATM   15  N   UNL     1     -10.869   4.846  66.546  1.00  0.00    -0.424 N  
HETATM   16  H1  UNL     1     -11.076   3.893  66.248  1.00  0.00     0.000 HD 
ENDBRANCH   6  12
TORSDOF 1
ENDMDL
MODEL      149
REMARK 921   NORMALIZED FREE ENERGY PREDICTED BY IDOCK:   -2.47 KCAL/MOL
REMARK 922        TOTAL FREE ENERGY PREDICTED BY IDOCK:   -2.89 KCAL/MOL
REMARK 923 INTER-LIGAND FREE ENERGY PREDICTED BY IDOCK:   -2.77 KCAL/MOL
REMARK 924 INTRA-LIGAND FREE ENERGY PREDICTED BY IDOCK:   -0.12 KCAL/MOL
REMARK 927      BINDING AFFINITY PREDICTED BY RF-SCORE:    0.00 PKD
ROOT
HETATM    1  C   UNL     1      -9.630   2.896  71.007  1.00  0.00    -0.149 C  
HETATM    2  N   UNL     1      -9.530   4.337  71.082  1.00  0.00    -0.151 N  
HETATM    3  N   UNL     1      -8.671   4.932  70.189  1.00  0.00    -0.093 NA 
HETATM    4  N   UNL     1      -8.528   6.176  70.185  1.00  0.00    -0.131 NA 
HETATM    5  C   UNL     1      -9.212   6.948  71.055  1.00  0.00    -0.156 A  
HETATM    6  C   UNL     1      -9.285   8.306  71.306  1.00  0.00    -0.163 A  
HETATM    7  N   UNL     1     -10.178   8.555  72.347  1.00  0.00    -0.317 NA 
HETATM    8  O   UNL     1     -11.068   4.560  72.847  1.00  0.00    -0.208 OA 
HETATM    9  C   UNL     1     -10.287   5.010  72.023  1.00  0.00    -0.213 C  
HETATM   10  C   UNL     1     -10.624   7.370  72.702  1.00  0.00    -0.275 A  
HETATM   11  N   UNL     1     -10.068   6.371  71.948  1.00  0.00    -0.183 N  
ENDROOT
BRANCH   6  12
HETATM   12  C   UNL     1      -8.558   9.364  70.616  1.00  0.00    -0.198 C  
HETATM   13  H2  UNL     1     -10.338   9.942  69.651  1.00  0.00     0.000 HD 
HETATM   14  O   UNL     1      -7.361   9.592  70.747  1.00  0.00    -0.179 OA 
HETATM   15  N   UNL     1      -9.340  10.110  69.780  1.00  0.00    -0.359 N  
HETATM   16  H1  UNL     1      -8.831  10.850  69.298  1.00  0.00     0.000 HD 
ENDBRANCH   6  12
TORSDOF 1
ENDMDL
MODEL      150
REMARK 921   NORMALIZED FREE ENERGY PREDICTED BY IDOCK:   -2.47 KCAL/MOL
REMARK 922        TOTAL FREE ENERGY PREDICTED BY IDOCK:   -2.89 KCAL/MOL
REMARK 923 INTER-LIGAND FREE ENERGY PREDICTED BY IDOCK:   -2.77 KCAL/MOL
REMARK 924 INTRA-LIGAND FREE ENERGY PREDICTED BY IDOCK:   -0.12 KCAL/MOL
REMARK 927      BINDING AFFINITY PREDICTED BY RF-SCORE:    0.00 PKD
ROOT
HETATM    1  C   UNL     1     -11.462   7.037  71.145  1.00  0.00    -0.294 C  
HETATM    2  N   UNL     1     -10.823   6.937  69.851  1.00  0.00    -0.244 N  
HETATM    3  N   UNL     1     -10.593   5.665  69.386  1.00  0.00    -0.297 NA 
HETATM    4  N   UNL     1     -10.046   5.490  68.273  1.00  0.00    -0.162 NA 
HETATM    5  C   UNL     1      -9.676   6.544  67.516  1.00  0.00    -0.122 A  
HETATM    6  C   UNL     1      -9.072   6.696  66.281  1.00  0.00    -0.145 A  
HETATM    7  N   UNL     1      -8.924   8.049  65.981  1.00  0.00    -0.173 NA 
HETATM    8  O   UNL     1     -10.661   9.260  69.520  1.00  0.00    -0.227 OA 
HETATM    9  C   UNL     1     -10.492   8.099  69.178  1.00  0.00    -0.206 C  
HETATM   10  C   UNL     1      -9.431   8.682  67.016  1.00  0.00    -0.171 A  
HETATM   11  N   UNL     1      -9.897   7.813  67.967  1.00  0.00    -0.158 N  
ENDROOT
BRANCH   6  12
HETATM   12  C   UNL     1      -8.634   5.633  65.385  1.00  0.00    -0.150 C  
HETATM   13  H2  UNL     1     -10.621   5.378  64.735  1.00  0.00     0.000 HD 
HETATM   14  O   UNL     1      -7.477   5.247  65.270  1.00  0.00    -0.074 OA 
HETATM   15  N   UNL     1      -9.649   5.078  64.658  1.00  0.00    -0.351 N  
HETATM   16  H1  UNL     1      -9.342   4.334  64.031  1.00  0.00     0.000 HD 
ENDBRANCH   6  12
TORSDOF 1
ENDMDL
MODEL      151
REMARK 921   NORMALIZED FREE ENERGY PREDICTED BY IDOCK:   -2.46 KCAL/MOL
REMARK 922        TOTAL FREE ENERGY PREDICTED BY IDOCK:   -2.88 KCAL/MOL
REMARK 923 INTER-LIGAND FREE ENERGY PREDICTED BY IDOCK:   -2.62 KCAL/MOL
REMARK 924 INTRA-LIGAND FREE ENERGY PREDICTED BY IDOCK:   -0.27 KCAL/MOL
REMARK 927      BINDING AFFINITY PREDICTED BY RF-SCORE:    0.00 PKD
ROOT
HETATM    1  C   UNL     1     -11.792  12.816  68.101  1.00  0.00    -0.324 C  
HETATM    2  N   UNL     1     -10.842  11.939  67.452  1.00  0.00    -0.231 N  
HETATM    3  N   UNL     1     -10.372  12.354  66.229  1.00  0.00    -0.240 NA 
HETATM    4  N   UNL     1      -9.545  11.654  65.601  1.00  0.00    -0.231 NA 
HETATM    5  C   UNL     1      -9.104  10.487  66.113  1.00  0.00    -0.162 A  
HETATM    6  C   UNL     1      -8.221   9.508  65.695  1.00  0.00    -0.120 A  
HETATM    7  N   UNL     1      -8.143   8.492  66.646  1.00  0.00    -0.103 NA 
HETATM    8  O   UNL     1     -10.842  10.328  69.166  1.00  0.00    -0.209 OA 
HETATM    9  C   UNL     1     -10.473  10.767  68.087  1.00  0.00    -0.185 C  
HETATM   10  C   UNL     1      -8.962   8.863  67.606  1.00  0.00    -0.134 A  
HETATM   11  N   UNL     1      -9.563  10.062  67.327  1.00  0.00    -0.153 N  
ENDROOT
BRANCH   6  12
HETATM   12  C   UNL     1      -7.458   9.491  64.453  1.00  0.00    -0.118 C  
HETATM   13  H2  UNL     1      -8.542  11.167  63.779  1.00  0.00     0.000 HD 
HETATM   14  O   UNL     1      -6.579   8.683  64.182  1.00  0.00    -0.071 OA 
HETATM   15  N   UNL     1      -7.813  10.481  63.580  1.00  0.00    -0.335 N  
HETATM   16  H1  UNL     1      -7.279  10.469  62.711  1.00  0.00     0.000 HD 
ENDBRANCH   6  12
TORSDOF 1
ENDMDL
MODEL      152
REMARK 921   NORMALIZED FREE ENERGY PREDICTED BY IDOCK:   -2.39 KCAL/MOL
REMARK 922        TOTAL FREE ENERGY PREDICTED BY IDOCK:   -2.80 KCAL/MOL
REMARK 923 INTER-LIGAND FREE ENERGY PREDICTED BY IDOCK:   -2.52 KCAL/MOL
REMARK 924 INTRA-LIGAND FREE ENERGY PREDICTED BY IDOCK:   -0.29 KCAL/MOL
REMARK 927      BINDING AFFINITY PREDICTED BY RF-SCORE:    0.00 PKD
ROOT
HETATM    1  C   UNL     1      -6.551  11.958  68.176  1.00  0.00    -0.057 C  
HETATM    2  N   UNL     1      -7.354  10.771  68.365  1.00  0.00    -0.088 N  
HETATM    3  N   UNL     1      -8.067  10.341  67.271  1.00  0.00    -0.119 NA 
HETATM    4  N   UNL     1      -8.787   9.319  67.349  1.00  0.00    -0.118 NA 
HETATM    5  C   UNL     1      -8.873   8.626  68.504  1.00  0.00    -0.142 A  
HETATM    6  C   UNL     1      -9.550   7.492  68.915  1.00  0.00    -0.149 A  
HETATM    7  N   UNL     1      -9.265   7.219  70.252  1.00  0.00    -0.155 NA 
HETATM    8  O   UNL     1      -6.755  10.471  70.619  1.00  0.00    -0.333 OA 
HETATM    9  C   UNL     1      -7.356  10.155  69.603  1.00  0.00    -0.138 C  
HETATM   10  C   UNL     1      -8.436   8.171  70.622  1.00  0.00    -0.128 A  
HETATM   11  N   UNL     1      -8.171   9.042  69.599  1.00  0.00    -0.110 N  
ENDROOT
BRANCH   6  12
HETATM   12  C   UNL     1     -10.443   6.667  68.110  1.00  0.00    -0.214 C  
HETATM   13  H2  UNL     1     -10.802   8.311  66.844  1.00  0.00     0.000 HD 
HETATM   14  O   UNL     1     -10.697   5.490  68.332  1.00  0.00    -0.182 OA 
HETATM   15  N   UNL     1     -10.995   7.331  67.052  1.00  0.00    -0.584 N  
HETATM   16  H1  UNL     1     -11.620   6.754  66.489  1.00  0.00     0.000 HD 
ENDBRANCH   6  12
TORSDOF 1
ENDMDL
MODEL      153
REMARK 921   NORMALIZED FREE ENERGY PREDICTED BY IDOCK:   -2.38 KCAL/MOL
REMARK 922        TOTAL FREE ENERGY PREDICTED BY IDOCK:   -2.80 KCAL/MOL
REMARK 923 INTER-LIGAND FREE ENERGY PREDICTED BY IDOCK:   -2.57 KCAL/MOL
REMARK 924 INTRA-LIGAND FREE ENERGY PREDICTED BY IDOCK:   -0.23 KCAL/MOL
REMARK 927      BINDING AFFINITY PREDICTED BY RF-SCORE:    0.00 PKD
ROOT
HETATM    1  C   UNL     1     -13.750   7.476  71.774  1.00  0.00    -0.327 C  
HETATM    2  N   UNL     1     -12.361   7.302  71.412  1.00  0.00    -0.349 N  
HETATM    3  N   UNL     1     -11.856   8.193  70.495  1.00  0.00    -0.093 NA 
HETATM    4  N   UNL     1     -10.661   8.113  70.128  1.00  0.00    -0.242 NA 
HETATM    5  C   UNL     1      -9.854   7.154  70.627  1.00  0.00    -0.182 A  
HETATM    6  C   UNL     1      -8.529   6.800  70.442  1.00  0.00    -0.135 A  
HETATM    7  N   UNL     1      -8.212   5.697  71.234  1.00  0.00    -0.123 NA 
HETATM    8  O   UNL     1     -12.013   5.445  72.813  1.00  0.00    -0.232 OA 
HETATM    9  C   UNL     1     -11.642   6.275  71.996  1.00  0.00    -0.322 C  
HETATM   10  C   UNL     1      -9.324   5.407  71.872  1.00  0.00    -0.141 A  
HETATM   11  N   UNL     1     -10.341   6.261  71.537  1.00  0.00    -0.201 N  
ENDROOT
BRANCH   6  12
HETATM   12  C   UNL     1      -7.564   7.448  69.563  1.00  0.00    -0.099 C  
HETATM   13  H2  UNL     1      -7.756   9.223  70.682  1.00  0.00     0.000 HD 
HETATM   14  O   UNL     1      -7.015   6.911  68.610  1.00  0.00    -0.070 OA 
HETATM   15  N   UNL     1      -7.312   8.750  69.895  1.00  0.00    -0.051 N  
HETATM   16  H1  UNL     1      -6.637   9.203  69.279  1.00  0.00     0.000 HD 
ENDBRANCH   6  12
TORSDOF 1
ENDMDL
MODEL      154
REMARK 921   NORMALIZED FREE ENERGY PREDICTED BY IDOCK:   -2.38 KCAL/MOL
REMARK 922        TOTAL FREE ENERGY PREDICTED BY IDOCK:   -2.79 KCAL/MOL
REMARK 923 INTER-LIGAND FREE ENERGY PREDICTED BY IDOCK:   -2.67 KCAL/MOL
REMARK 924 INTRA-LIGAND FREE ENERGY PREDICTED BY IDOCK:   -0.12 KCAL/MOL
REMARK 927      BINDING AFFINITY PREDICTED BY RF-SCORE:    0.00 PKD
ROOT
HETATM    1  C   UNL     1      -7.319   8.688  71.709  1.00  0.00    -0.080 C  
HETATM    2  N   UNL     1      -7.886   9.401  70.585  1.00  0.00    -0.159 N  
HETATM    3  N   UNL     1      -9.006   8.844  70.016  1.00  0.00    -0.155 NA 
HETATM    4  N   UNL     1      -9.559   9.399  69.039  1.00  0.00    -0.160 NA 
HETATM    5  C   UNL     1      -9.067  10.549  68.534  1.00  0.00    -0.154 A  
HETATM    6  C   UNL     1      -9.426  11.394  67.499  1.00  0.00    -0.167 A  
HETATM    7  N   UNL     1      -8.538  12.465  67.422  1.00  0.00    -0.172 NA 
HETATM    8  O   UNL     1      -6.291  11.130  70.612  1.00  0.00    -0.333 OA 
HETATM    9  C   UNL     1      -7.281  10.571  70.164  1.00  0.00    -0.012 C  
HETATM   10  C   UNL     1      -7.673  12.258  68.391  1.00  0.00    -0.141 A  
HETATM   11  N   UNL     1      -7.955  11.113  69.088  1.00  0.00    -0.092 N  
ENDROOT
BRANCH   6  12
HETATM   12  C   UNL     1     -10.556  11.235  66.592  1.00  0.00    -0.262 C  
HETATM   13  H2  UNL     1      -9.223  10.748  65.036  1.00  0.00     0.000 HD 
HETATM   14  O   UNL     1     -11.731  11.392  66.902  1.00  0.00    -0.507 OA 
HETATM   15  N   UNL     1     -10.193  10.885  65.322  1.00  0.00    -0.279 N  
HETATM   16  H1  UNL     1     -10.984  10.774  64.688  1.00  0.00     0.000 HD 
ENDBRANCH   6  12
TORSDOF 1
ENDMDL
MODEL      155
REMARK 921   NORMALIZED FREE ENERGY PREDICTED BY IDOCK:   -2.20 KCAL/MOL
REMARK 922        TOTAL FREE ENERGY PREDICTED BY IDOCK:   -2.61 KCAL/MOL
REMARK 923 INTER-LIGAND FREE ENERGY PREDICTED BY IDOCK:   -2.55 KCAL/MOL
REMARK 924 INTRA-LIGAND FREE ENERGY PREDICTED BY IDOCK:   -0.06 KCAL/MOL
REMARK 927      BINDING AFFINITY PREDICTED BY RF-SCORE:    0.00 PKD
ROOT
HETATM    1  C   UNL     1      -6.895   3.520  72.608  1.00  0.00    -0.037 C  
HETATM    2  N   UNL     1      -7.805   4.141  71.671  1.00  0.00    -0.069 N  
HETATM    3  N   UNL     1      -7.372   4.223  70.369  1.00  0.00    -0.045 NA 
HETATM    4  N   UNL     1      -8.099   4.745  69.493  1.00  0.00    -0.069 NA 
HETATM    5  C   UNL     1      -9.315   5.233  69.814  1.00  0.00    -0.134 A  
HETATM    6  C   UNL     1     -10.336   5.850  69.112  1.00  0.00    -0.238 A  
HETATM    7  N   UNL     1     -11.394   6.153  69.969  1.00  0.00    -0.404 NA 
HETATM    8  O   UNL     1      -9.482   4.571  73.262  1.00  0.00    -0.119 OA 
HETATM    9  C   UNL     1      -9.025   4.604  72.130  1.00  0.00    -0.126 C  
HETATM   10  C   UNL     1     -11.006   5.723  71.150  1.00  0.00    -0.225 A  
HETATM   11  N   UNL     1      -9.758   5.161  71.103  1.00  0.00    -0.166 N  
ENDROOT
BRANCH   6  12
HETATM   12  C   UNL     1     -10.355   6.161  67.689  1.00  0.00    -0.201 C  
HETATM   13  H2  UNL     1     -11.535   7.860  68.089  1.00  0.00     0.000 HD 
HETATM   14  O   UNL     1      -9.803   5.498  66.819  1.00  0.00    -0.141 OA 
HETATM   15  N   UNL     1     -11.064   7.290  67.386  1.00  0.00    -0.575 N  
HETATM   16  H1  UNL     1     -11.077   7.508  66.389  1.00  0.00     0.000 HD 
ENDBRANCH   6  12
TORSDOF 1
ENDMDL
MODEL      156
REMARK 921   NORMALIZED FREE ENERGY PREDICTED BY IDOCK:   -2.19 KCAL/MOL
REMARK 922        TOTAL FREE ENERGY PREDICTED BY IDOCK:   -2.59 KCAL/MOL
REMARK 923 INTER-LIGAND FREE ENERGY PREDICTED BY IDOCK:   -2.30 KCAL/MOL
REMARK 924 INTRA-LIGAND FREE ENERGY PREDICTED BY IDOCK:   -0.29 KCAL/MOL
REMARK 927      BINDING AFFINITY PREDICTED BY RF-SCORE:    0.00 PKD
ROOT
HETATM    1  C   UNL     1      -6.909  10.584  66.724  1.00  0.00    -0.103 C  
HETATM    2  N   UNL     1      -7.486   9.265  66.860  1.00  0.00    -0.090 N  
HETATM    3  N   UNL     1      -8.247   8.824  65.803  1.00  0.00    -0.115 NA 
HETATM    4  N   UNL     1      -8.782   7.692  65.839  1.00  0.00    -0.162 NA 
HETATM    5  C   UNL     1      -8.619   6.890  66.912  1.00  0.00    -0.116 A  
HETATM    6  C   UNL     1      -9.055   5.624  67.261  1.00  0.00    -0.110 A  
HETATM    7  N   UNL     1      -8.573   5.280  68.523  1.00  0.00    -0.095 NA 
HETATM    8  O   UNL     1      -6.583   8.862  68.993  1.00  0.00    -0.047 OA 
HETATM    9  C   UNL     1      -7.243   8.545  68.015  1.00  0.00    -0.087 C  
HETATM   10  C   UNL     1      -7.867   6.320  68.911  1.00  0.00    -0.105 A  
HETATM   11  N   UNL     1      -7.867   7.315  67.969  1.00  0.00    -0.116 N  
ENDROOT
BRANCH   6  12
HETATM   12  C   UNL     1      -9.895   4.739  66.465  1.00  0.00    -0.217 C  
HETATM   13  H2  UNL     1     -11.236   6.328  66.134  1.00  0.00     0.000 HD 
HETATM   14  O   UNL     1      -9.656   3.558  66.244  1.00  0.00    -0.171 OA 
HETATM   15  N   UNL     1     -11.012   5.347  65.966  1.00  0.00    -0.764 N  
HETATM   16  H1  UNL     1     -11.600   4.727  65.409  1.00  0.00     0.000 HD 
ENDBRANCH   6  12
TORSDOF 1
ENDMDL
MODEL      157
REMARK 921   NORMALIZED FREE ENERGY PREDICTED BY IDOCK:   -2.12 KCAL/MOL
REMARK 922        TOTAL FREE ENERGY PREDICTED BY IDOCK:   -2.52 KCAL/MOL
REMARK 923 INTER-LIGAND FREE ENERGY PREDICTED BY IDOCK:   -2.51 KCAL/MOL
REMARK 924 INTRA-LIGAND FREE ENERGY PREDICTED BY IDOCK:   -0.02 KCAL/MOL
REMARK 927      BINDING AFFINITY PREDICTED BY RF-SCORE:    0.00 PKD
ROOT
HETATM    1  C   UNL     1     -11.059  18.737  65.388  1.00  0.00     0.702 C  
HETATM    2  N   UNL     1      -9.977  18.379  66.278  1.00  0.00    -0.372 N  
HETATM    3  N   UNL     1      -9.295  19.425  66.854  1.00  0.00    -0.314 NA 
HETATM    4  N   UNL     1      -8.345  19.202  67.639  1.00  0.00    -0.285 NA 
HETATM    5  C   UNL     1      -7.978  17.937  67.931  1.00  0.00    -0.235 A  
HETATM    6  C   UNL     1      -7.008  17.362  68.733  1.00  0.00    -0.236 A  
HETATM    7  N   UNL     1      -7.083  15.972  68.655  1.00  0.00    -0.129 NA 
HETATM    8  O   UNL     1     -10.256  16.058  66.022  1.00  0.00    -0.301 OA 
HETATM    9  C   UNL     1      -9.702  17.041  66.491  1.00  0.00    -0.282 C  
HETATM   10  C   UNL     1      -8.076  15.732  67.827  1.00  0.00    -0.144 A  
HETATM   11  N   UNL     1      -8.646  16.889  67.366  1.00  0.00    -0.200 N  
ENDROOT
BRANCH   6  12
HETATM   12  C   UNL     1      -6.028  18.058  69.556  1.00  0.00    -0.246 C  
HETATM   13  H2  UNL     1      -5.711  16.288  70.653  1.00  0.00     0.000 HD 
HETATM   14  O   UNL     1      -5.713  19.234  69.425  1.00  0.00    -0.220 OA 
HETATM   15  N   UNL     1      -5.467  17.270  70.521  1.00  0.00    -0.242 N  
HETATM   16  H1  UNL     1      -4.781  17.758  71.097  1.00  0.00     0.000 HD 
ENDBRANCH   6  12
TORSDOF 1
ENDMDL
MODEL      158
REMARK 921   NORMALIZED FREE ENERGY PREDICTED BY IDOCK:   -2.06 KCAL/MOL
REMARK 922        TOTAL FREE ENERGY PREDICTED BY IDOCK:   -2.45 KCAL/MOL
REMARK 923 INTER-LIGAND FREE ENERGY PREDICTED BY IDOCK:   -2.36 KCAL/MOL
REMARK 924 INTRA-LIGAND FREE ENERGY PREDICTED BY IDOCK:   -0.10 KCAL/MOL
REMARK 927      BINDING AFFINITY PREDICTED BY RF-SCORE:    0.00 PKD
ROOT
HETATM    1  C   UNL     1      -8.351   2.427  66.298  1.00  0.00    -0.094 C  
HETATM    2  N   UNL     1      -8.829   3.144  67.460  1.00  0.00    -0.122 N  
HETATM    3  N   UNL     1      -9.478   4.330  67.215  1.00  0.00    -0.168 NA 
HETATM    4  N   UNL     1      -9.924   5.013  68.166  1.00  0.00    -0.147 NA 
HETATM    5  C   UNL     1      -9.775   4.595  69.440  1.00  0.00    -0.202 A  
HETATM    6  C   UNL     1     -10.139   5.090  70.680  1.00  0.00    -0.243 A  
HETATM    7  N   UNL     1      -9.718   4.223  71.687  1.00  0.00    -0.164 NA 
HETATM    8  O   UNL     1      -8.045   1.564  69.016  1.00  0.00    -0.045 OA 
HETATM    9  C   UNL     1      -8.609   2.605  68.714  1.00  0.00    -0.075 C  
HETATM   10  C   UNL     1      -9.120   3.236  71.055  1.00  0.00    -0.113 A  
HETATM   11  N   UNL     1      -9.132   3.419  69.698  1.00  0.00    -0.118 N  
ENDROOT
BRANCH   6  12
HETATM   12  C   UNL     1     -10.856   6.330  70.950  1.00  0.00    -0.272 C  
HETATM   13  H2  UNL     1      -9.480   6.777  72.480  1.00  0.00     0.000 HD 
HETATM   14  O   UNL     1     -11.855   6.706  70.349  1.00  0.00    -0.396 OA 
HETATM   15  N   UNL     1     -10.310   7.067  71.963  1.00  0.00    -0.198 N  
HETATM   16  H1  UNL     1     -10.812   7.935  72.151  1.00  0.00     0.000 HD 
ENDBRANCH   6  12
TORSDOF 1
ENDMDL
MODEL      159
REMARK 921   NORMALIZED FREE ENERGY PREDICTED BY IDOCK:   -2.03 KCAL/MOL
REMARK 922        TOTAL FREE ENERGY PREDICTED BY IDOCK:   -2.42 KCAL/MOL
REMARK 923 INTER-LIGAND FREE ENERGY PREDICTED BY IDOCK:   -2.15 KCAL/MOL
REMARK 924 INTRA-LIGAND FREE ENERGY PREDICTED BY IDOCK:   -0.27 KCAL/MOL
REMARK 927      BINDING AFFINITY PREDICTED BY RF-SCORE:    0.00 PKD
ROOT
HETATM    1  C   UNL     1      -7.851   7.018  73.118  1.00  0.00    -0.097 C  
HETATM    2  N   UNL     1      -8.097   7.803  71.929  1.00  0.00    -0.099 N  
HETATM    3  N   UNL     1      -9.140   7.390  71.135  1.00  0.00    -0.147 NA 
HETATM    4  N   UNL     1      -9.422   8.015  70.087  1.00  0.00    -0.160 NA 
HETATM    5  C   UNL     1      -8.709   9.101  69.723  1.00  0.00    -0.151 A  
HETATM    6  C   UNL     1      -8.756   9.991  68.665  1.00  0.00    -0.127 A  
HETATM    7  N   UNL     1      -7.750  10.948  68.796  1.00  0.00    -0.120 NA 
HETATM    8  O   UNL     1      -6.348   9.326  72.319  1.00  0.00    -0.283 OA 
HETATM    9  C   UNL     1      -7.289   8.895  71.670  1.00  0.00    -0.019 C  
HETATM   10  C   UNL     1      -7.124  10.630  69.908  1.00  0.00    -0.129 A  
HETATM   11  N   UNL     1      -7.669   9.522  70.501  1.00  0.00    -0.161 N  
ENDROOT
BRANCH   6  12
HETATM   12  C   UNL     1      -9.695   9.977  67.551  1.00  0.00    -0.159 C  
HETATM   13  H2  UNL     1     -10.320   8.047  68.118  1.00  0.00     0.000 HD 
HETATM   14  O   UNL     1      -9.844  10.890  66.749  1.00  0.00    -0.186 OA 
HETATM   15  N   UNL     1     -10.424   8.824  67.465  1.00  0.00    -0.312 N  
HETATM   16  H1  UNL     1     -11.081   8.814  66.686  1.00  0.00     0.000 HD 
ENDBRANCH   6  12
TORSDOF 1
ENDMDL
MODEL      160
REMARK 921   NORMALIZED FREE ENERGY PREDICTED BY IDOCK:   -1.90 KCAL/MOL
REMARK 922        TOTAL FREE ENERGY PREDICTED BY IDOCK:   -2.29 KCAL/MOL
REMARK 923 INTER-LIGAND FREE ENERGY PREDICTED BY IDOCK:   -1.99 KCAL/MOL
REMARK 924 INTRA-LIGAND FREE ENERGY PREDICTED BY IDOCK:   -0.30 KCAL/MOL
REMARK 927      BINDING AFFINITY PREDICTED BY RF-SCORE:    0.00 PKD
ROOT
HETATM    1  C   UNL     1     -11.152   8.992  72.038  1.00  0.00    -0.301 C  
HETATM    2  N   UNL     1     -10.412   7.900  71.447  1.00  0.00    -0.205 N  
HETATM    3  N   UNL     1     -10.800   6.634  71.818  1.00  0.00    -0.228 NA 
HETATM    4  N   UNL     1     -10.213   5.632  71.350  1.00  0.00    -0.206 NA 
HETATM    5  C   UNL     1      -9.194   5.778  70.478  1.00  0.00    -0.147 A  
HETATM    6  C   UNL     1      -8.362   4.911  69.793  1.00  0.00    -0.076 A  
HETATM    7  N   UNL     1      -7.462   5.628  69.006  1.00  0.00    -0.082 NA 
HETATM    8  O   UNL     1      -8.982   9.276  70.186  1.00  0.00    -0.175 OA 
HETATM    9  C   UNL     1      -9.386   8.187  70.565  1.00  0.00    -0.155 C  
HETATM   10  C   UNL     1      -7.758   6.892  69.220  1.00  0.00    -0.105 A  
HETATM   11  N   UNL     1      -8.798   7.029  70.101  1.00  0.00    -0.145 N  
ENDROOT
BRANCH   6  12
HETATM   12  C   UNL     1      -8.378   3.455  69.851  1.00  0.00    -0.051 C  
HETATM   13  H2  UNL     1      -8.608   3.552  71.942  1.00  0.00     0.000 HD 
HETATM   14  O   UNL     1      -8.275   2.715  68.880  1.00  0.00    -0.054 OA 
HETATM   15  N   UNL     1      -8.521   2.959  71.116  1.00  0.00    -0.061 N  
HETATM   16  H1  UNL     1      -8.533   1.940  71.156  1.00  0.00     0.000 HD 
ENDBRANCH   6  12
TORSDOF 1
ENDMDL
MODEL      161
REMARK 921   NORMALIZED FREE ENERGY PREDICTED BY IDOCK:   -1.75 KCAL/MOL
REMARK 922        TOTAL FREE ENERGY PREDICTED BY IDOCK:   -2.13 KCAL/MOL
REMARK 923 INTER-LIGAND FREE ENERGY PREDICTED BY IDOCK:   -2.14 KCAL/MOL
REMARK 924 INTRA-LIGAND FREE ENERGY PREDICTED BY IDOCK:    0.01 KCAL/MOL
REMARK 927      BINDING AFFINITY PREDICTED BY RF-SCORE:    0.00 PKD
ROOT
HETATM    1  C   UNL     1      -7.027   5.202  72.154  1.00  0.00    -0.081 C  
HETATM    2  N   UNL     1      -7.606   5.857  71.001  1.00  0.00    -0.094 N  
HETATM    3  N   UNL     1      -6.771   6.038  69.924  1.00  0.00    -0.050 NA 
HETATM    4  N   UNL     1      -7.194   6.595  68.885  1.00  0.00    -0.089 NA 
HETATM    5  C   UNL     1      -8.470   7.025  68.808  1.00  0.00    -0.122 A  
HETATM    6  C   UNL     1      -9.232   7.656  67.840  1.00  0.00    -0.136 A  
HETATM    7  N   UNL     1     -10.527   7.869  68.310  1.00  0.00    -0.192 NA 
HETATM    8  O   UNL     1      -9.734   6.128  71.964  1.00  0.00    -0.154 OA 
HETATM    9  C   UNL     1      -8.930   6.250  71.052  1.00  0.00    -0.143 C  
HETATM   10  C   UNL     1     -10.530   7.373  69.529  1.00  0.00    -0.232 A  
HETATM   11  N   UNL     1      -9.310   6.853  69.870  1.00  0.00    -0.151 N  
ENDROOT
BRANCH   6  12
HETATM   12  C   UNL     1      -8.795   8.061  66.510  1.00  0.00    -0.151 C  
HETATM   13  H2  UNL     1     -10.738   8.762  66.099  1.00  0.00     0.000 HD 
HETATM   14  O   UNL     1      -7.659   7.918  66.073  1.00  0.00    -0.082 OA 
HETATM   15  N   UNL     1      -9.784   8.632  65.760  1.00  0.00    -0.461 N  
HETATM   16  H1  UNL     1      -9.478   8.915  64.830  1.00  0.00     0.000 HD 
ENDBRANCH   6  12
TORSDOF 1
ENDMDL
MODEL      162
REMARK 921   NORMALIZED FREE ENERGY PREDICTED BY IDOCK:   -1.69 KCAL/MOL
REMARK 922        TOTAL FREE ENERGY PREDICTED BY IDOCK:   -2.07 KCAL/MOL
REMARK 923 INTER-LIGAND FREE ENERGY PREDICTED BY IDOCK:   -1.95 KCAL/MOL
REMARK 924 INTRA-LIGAND FREE ENERGY PREDICTED BY IDOCK:   -0.12 KCAL/MOL
REMARK 927      BINDING AFFINITY PREDICTED BY RF-SCORE:    0.00 PKD
ROOT
HETATM    1  C   UNL     1      -8.350   9.169  70.371  1.00  0.00    -0.185 C  
HETATM    2  N   UNL     1      -8.432   8.214  69.288  1.00  0.00    -0.133 N  
HETATM    3  N   UNL     1      -9.462   7.306  69.357  1.00  0.00    -0.155 NA 
HETATM    4  N   UNL     1      -9.605   6.446  68.459  1.00  0.00    -0.123 NA 
HETATM    5  C   UNL     1      -8.755   6.398  67.412  1.00  0.00    -0.106 A  
HETATM    6  C   UNL     1      -8.637   5.603  66.286  1.00  0.00    -0.127 A  
HETATM    7  N   UNL     1      -7.542   6.010  65.524  1.00  0.00    -0.082 NA 
HETATM    8  O   UNL     1      -6.554   9.041  68.139  1.00  0.00    -0.059 OA 
HETATM    9  C   UNL     1      -7.494   8.272  68.274  1.00  0.00    -0.097 C  
HETATM   10  C   UNL     1      -7.027   7.023  66.185  1.00  0.00    -0.065 A  
HETATM   11  N   UNL     1      -7.728   7.292  67.331  1.00  0.00    -0.108 N  
ENDROOT
BRANCH   6  12
HETATM   12  C   UNL     1      -9.500   4.492  65.904  1.00  0.00    -0.171 C  
HETATM   13  H2  UNL     1      -9.976   5.494  64.113  1.00  0.00     0.000 HD 
HETATM   14  O   UNL     1      -9.684   3.486  66.578  1.00  0.00    -0.149 OA 
HETATM   15  N   UNL     1     -10.111   4.666  64.694  1.00  0.00    -0.391 N  
HETATM   16  H1  UNL     1     -10.714   3.888  64.428  1.00  0.00     0.000 HD 
ENDBRANCH   6  12
TORSDOF 1
ENDMDL
MODEL      163
REMARK 921   NORMALIZED FREE ENERGY PREDICTED BY IDOCK:   -1.66 KCAL/MOL
REMARK 922        TOTAL FREE ENERGY PREDICTED BY IDOCK:   -2.03 KCAL/MOL
REMARK 923 INTER-LIGAND FREE ENERGY PREDICTED BY IDOCK:   -1.91 KCAL/MOL
REMARK 924 INTRA-LIGAND FREE ENERGY PREDICTED BY IDOCK:   -0.12 KCAL/MOL
REMARK 927      BINDING AFFINITY PREDICTED BY RF-SCORE:    0.00 PKD
ROOT
HETATM    1  C   UNL     1      -8.195   7.530  70.949  1.00  0.00    -0.112 C  
HETATM    2  N   UNL     1      -8.043   8.834  70.341  1.00  0.00    -0.103 N  
HETATM    3  N   UNL     1      -9.162   9.354  69.735  1.00  0.00    -0.181 NA 
HETATM    4  N   UNL     1      -9.117  10.479  69.186  1.00  0.00    -0.181 NA 
HETATM    5  C   UNL     1      -7.974  11.195  69.182  1.00  0.00    -0.042 A  
HETATM    6  C   UNL     1      -7.596  12.429  68.684  1.00  0.00    -0.082 A  
HETATM    7  N   UNL     1      -6.255  12.675  68.974  1.00  0.00    -0.084 NA 
HETATM    8  O   UNL     1      -5.777   9.071  70.921  1.00  0.00    -0.033 OA 
HETATM    9  C   UNL     1      -6.813   9.462  70.405  1.00  0.00    -0.089 C  
HETATM   10  C   UNL     1      -5.850  11.610  69.630  1.00  0.00    -0.091 A  
HETATM   11  N   UNL     1      -6.855  10.691  69.779  1.00  0.00    -0.130 N  
ENDROOT
BRANCH   6  12
HETATM   12  C   UNL     1      -8.436  13.373  67.957  1.00  0.00    -0.173 C  
HETATM   13  H2  UNL     1      -7.718  12.590  66.138  1.00  0.00     0.000 HD 
HETATM   14  O   UNL     1      -9.177  14.197  68.478  1.00  0.00    -0.200 OA 
HETATM   15  N   UNL     1      -8.328  13.266  66.599  1.00  0.00    -0.405 N  
HETATM   16  H1  UNL     1      -8.915  13.926  66.090  1.00  0.00     0.000 HD 
ENDBRANCH   6  12
TORSDOF 1
ENDMDL
MODEL      164
REMARK 921   NORMALIZED FREE ENERGY PREDICTED BY IDOCK:   -1.65 KCAL/MOL
REMARK 922        TOTAL FREE ENERGY PREDICTED BY IDOCK:   -2.02 KCAL/MOL
REMARK 923 INTER-LIGAND FREE ENERGY PREDICTED BY IDOCK:   -2.02 KCAL/MOL
REMARK 924 INTRA-LIGAND FREE ENERGY PREDICTED BY IDOCK:    0.00 KCAL/MOL
REMARK 927      BINDING AFFINITY PREDICTED BY RF-SCORE:    0.00 PKD
ROOT
HETATM    1  C   UNL     1      -7.662  12.227  67.092  1.00  0.00    -0.134 C  
HETATM    2  N   UNL     1      -8.123  11.045  67.787  1.00  0.00    -0.114 N  
HETATM    3  N   UNL     1      -7.939  11.033  69.150  1.00  0.00    -0.117 NA 
HETATM    4  N   UNL     1      -8.311  10.048  69.828  1.00  0.00    -0.181 NA 
HETATM    5  C   UNL     1      -8.897   8.988  69.234  1.00  0.00    -0.139 A  
HETATM    6  C   UNL     1      -9.410   7.782  69.675  1.00  0.00    -0.153 A  
HETATM    7  N   UNL     1      -9.906   7.048  68.598  1.00  0.00    -0.145 NA 
HETATM    8  O   UNL     1      -8.904   9.958  65.854  1.00  0.00    -0.140 OA 
HETATM    9  C   UNL     1      -8.706  10.026  67.058  1.00  0.00    -0.132 C  
HETATM   10  C   UNL     1      -9.691   7.805  67.545  1.00  0.00    -0.158 A  
HETATM   11  N   UNL     1      -9.085   8.986  67.881  1.00  0.00    -0.135 N  
ENDROOT
BRANCH   6  12
HETATM   12  C   UNL     1      -9.452   7.299  71.049  1.00  0.00    -0.158 C  
HETATM   13  H2  UNL     1     -10.622   5.662  70.426  1.00  0.00     0.000 HD 
HETATM   14  O   UNL     1      -8.914   7.851  72.001  1.00  0.00    -0.123 OA 
HETATM   15  N   UNL     1     -10.163   6.142  71.201  1.00  0.00    -0.193 N  
HETATM   16  H1  UNL     1     -10.192   5.805  72.163  1.00  0.00     0.000 HD 
ENDBRANCH   6  12
TORSDOF 1
ENDMDL
MODEL      165
REMARK 921   NORMALIZED FREE ENERGY PREDICTED BY IDOCK:   -0.58 KCAL/MOL
REMARK 922        TOTAL FREE ENERGY PREDICTED BY IDOCK:   -0.89 KCAL/MOL
REMARK 923 INTER-LIGAND FREE ENERGY PREDICTED BY IDOCK:   -0.66 KCAL/MOL
REMARK 924 INTRA-LIGAND FREE ENERGY PREDICTED BY IDOCK:   -0.23 KCAL/MOL
REMARK 927      BINDING AFFINITY PREDICTED BY RF-SCORE:    0.00 PKD
ROOT
HETATM    1  C   UNL     1      -8.481  17.147  66.050  1.00  0.00    -0.119 C  
HETATM    2  N   UNL     1      -9.292  16.717  67.168  1.00  0.00    -0.225 N  
HETATM    3  N   UNL     1     -10.651  16.703  66.960  1.00  0.00    -0.288 NA 
HETATM    4  N   UNL     1     -11.426  16.342  67.876  1.00  0.00    -0.097 NA 
HETATM    5  C   UNL     1     -10.940  15.962  69.075  1.00  0.00    -0.277 A  
HETATM    6  C   UNL     1     -11.500  15.519  70.260  1.00  0.00    -0.334 A  
HETATM    7  N   UNL     1     -10.500  15.263  71.198  1.00  0.00     0.186 NA 
HETATM    8  O   UNL     1      -7.475  16.338  68.611  1.00  0.00    -0.163 OA 
HETATM    9  C   UNL     1      -8.667  16.354  68.347  1.00  0.00    -0.213 C  
HETATM   10  C   UNL     1      -9.375  15.546  70.580  1.00  0.00     1.400 A  
HETATM   11  N   UNL     1      -9.592  15.971  69.296  1.00  0.00    -0.251 N  
ENDROOT
BRANCH   6  12
HETATM   12  C   UNL     1     -12.917  15.332  70.541  1.00  0.00    -0.333 C  
HETATM   13  H2  UNL     1     -13.006  13.853  69.045  1.00  0.00     0.000 HD 
HETATM   14  O   UNL     1     -13.551  15.950  71.389  1.00  0.00    -0.475 OA 
HETATM   15  N   UNL     1     -13.509  14.381  69.758  1.00  0.00     0.532 N  
HETATM   16  H1  UNL     1     -14.501  14.250  69.955  1.00  0.00     0.000 HD 
ENDBRANCH   6  12
TORSDOF 1
ENDMDL
MODEL      166
REMARK 921   NORMALIZED FREE ENERGY PREDICTED BY IDOCK:    1.48 KCAL/MOL
REMARK 922        TOTAL FREE ENERGY PREDICTED BY IDOCK:    1.29 KCAL/MOL
REMARK 923 INTER-LIGAND FREE ENERGY PREDICTED BY IDOCK:    1.59 KCAL/MOL
REMARK 924 INTRA-LIGAND FREE ENERGY PREDICTED BY IDOCK:   -0.30 KCAL/MOL
REMARK 927      BINDING AFFINITY PREDICTED BY RF-SCORE:    0.00 PKD
ROOT
HETATM    1  C   UNL     1     -10.684   8.093  65.863  1.00  0.00     2.271 C  
HETATM    2  N   UNL     1      -9.778   8.816  66.728  1.00  0.00    -0.199 N  
HETATM    3  N   UNL     1      -9.978  10.174  66.816  1.00  0.00    -0.202 NA 
HETATM    4  N   UNL     1      -9.238  10.874  67.545  1.00  0.00    -0.147 NA 
HETATM    5  C   UNL     1      -8.237  10.309  68.252  1.00  0.00    -0.115 A  
HETATM    6  C   UNL     1      -7.272  10.778  69.124  1.00  0.00    -0.107 A  
HETATM    7  N   UNL     1      -6.476   9.725  69.573  1.00  0.00    -0.044 NA 
HETATM    8  O   UNL     1      -8.548   6.919  67.373  1.00  0.00    -0.120 OA 
HETATM    9  C   UNL     1      -8.791   8.116  67.397  1.00  0.00    -0.127 C  
HETATM   10  C   UNL     1      -6.962   8.657  68.979  1.00  0.00    -0.064 A  
HETATM   11  N   UNL     1      -8.027   8.962  68.173  1.00  0.00    -0.101 N  
ENDROOT
BRANCH   6  12
HETATM   12  C   UNL     1      -7.070  12.159  69.546  1.00  0.00     0.194 C  
HETATM   13  H2  UNL     1      -7.607  12.813  67.617  1.00  0.00     0.000 HD 
HETATM   14  O   UNL     1      -6.717  12.504  70.667  1.00  0.00     0.464 OA 
HETATM   15  N   UNL     1      -7.313  13.072  68.559  1.00  0.00    -0.111 N  
HETATM   16  H1  UNL     1      -7.172  14.038  68.855  1.00  0.00     0.000 HD 
ENDBRANCH   6  12
TORSDOF 1
ENDMDL
MODEL      167
REMARK 921   NORMALIZED FREE ENERGY PREDICTED BY IDOCK:    5.20 KCAL/MOL
REMARK 922        TOTAL FREE ENERGY PREDICTED BY IDOCK:    5.23 KCAL/MOL
REMARK 923 INTER-LIGAND FREE ENERGY PREDICTED BY IDOCK:    5.30 KCAL/MOL
REMARK 924 INTRA-LIGAND FREE ENERGY PREDICTED BY IDOCK:   -0.07 KCAL/MOL
REMARK 927      BINDING AFFINITY PREDICTED BY RF-SCORE:    0.00 PKD
ROOT
HETATM    1  C   UNL     1      -7.049  15.011  68.730  1.00  0.00    -0.114 C  
HETATM    2  N   UNL     1      -6.992  13.723  69.385  1.00  0.00    -0.051 N  
HETATM    3  N   UNL     1      -6.762  13.742  70.741  1.00  0.00     0.393 NA 
HETATM    4  N   UNL     1      -6.699  12.670  71.385  1.00  0.00     2.397 NA 
HETATM    5  C   UNL     1      -6.857  11.484  70.761  1.00  0.00     1.766 A  
HETATM    6  C   UNL     1      -6.849  10.160  71.162  1.00  0.00     0.525 A  
HETATM    7  N   UNL     1      -7.068   9.324  70.069  1.00  0.00    -0.061 NA 
HETATM    8  O   UNL     1      -7.375  12.477  67.428  1.00  0.00    -0.138 OA 
HETATM    9  C   UNL     1      -7.168  12.580  68.628  1.00  0.00    -0.103 C  
HETATM   10  C   UNL     1      -7.204  10.137  69.044  1.00  0.00    -0.076 A  
HETATM   11  N   UNL     1      -7.085  11.450  69.415  1.00  0.00    -0.099 N  
ENDROOT
BRANCH   6  12
HETATM   12  C   UNL     1      -6.645   9.658  72.515  1.00  0.00     0.943 C  
HETATM   13  H2  UNL     1      -8.049   8.133  72.148  1.00  0.00     0.000 HD 
HETATM   14  O   UNL     1      -5.878  10.148  73.336  1.00  0.00    -0.027 OA 
HETATM   15  N   UNL     1      -7.402   8.560  72.811  1.00  0.00    -0.055 N  
HETATM   16  H1  UNL     1      -7.259   8.209  73.757  1.00  0.00     0.000 HD 
ENDBRANCH   6  12
TORSDOF 1
ENDMDL
MODEL      168
REMARK 921   NORMALIZED FREE ENERGY PREDICTED BY IDOCK:   27.66 KCAL/MOL
REMARK 922        TOTAL FREE ENERGY PREDICTED BY IDOCK:   29.00 KCAL/MOL
REMARK 923 INTER-LIGAND FREE ENERGY PREDICTED BY IDOCK:   29.12 KCAL/MOL
REMARK 924 INTRA-LIGAND FREE ENERGY PREDICTED BY IDOCK:   -0.12 KCAL/MOL
REMARK 927      BINDING AFFINITY PREDICTED BY RF-SCORE:    0.00 PKD
ROOT
HETATM    1  C   UNL     1     -10.937  19.619  64.317  1.00  0.00     4.546 C  
HETATM    2  N   UNL     1     -10.750  19.248  65.702  1.00  0.00    -0.385 N  
HETATM    3  N   UNL     1      -9.568  19.644  66.281  1.00  0.00    -0.389 NA 
HETATM    4  N   UNL     1      -9.327  19.365  67.478  1.00  0.00    -0.305 NA 
HETATM    5  C   UNL     1     -10.222  18.674  68.215  1.00  0.00    -0.380 A  
HETATM    6  C   UNL     1     -10.268  18.218  69.520  1.00  0.00     0.324 A  
HETATM    7  N   UNL     1     -11.466  17.542  69.752  1.00  0.00     1.627 NA 
HETATM    8  O   UNL     1     -12.819  18.148  65.904  1.00  0.00     7.898 OA 
HETATM    9  C   UNL     1     -11.747  18.536  66.343  1.00  0.00     2.376 C  
HETATM   10  C   UNL     1     -12.113  17.599  68.608  1.00  0.00     3.286 A  
HETATM   11  N   UNL     1     -11.400  18.273  67.652  1.00  0.00     0.312 N  
ENDROOT
BRANCH   6  12
HETATM   12  C   UNL     1      -9.245  18.390  70.544  1.00  0.00     3.380 C  
HETATM   13  H2  UNL     1     -10.101  20.241  71.070  1.00  0.00     0.000 HD 
HETATM   14  O   UNL     1      -8.348  17.590  70.779  1.00  0.00     4.447 OA 
HETATM   15  N   UNL     1      -9.365  19.557  71.246  1.00  0.00     2.380 N  
HETATM   16  H1  UNL     1      -8.649  19.677  71.962  1.00  0.00     0.000 HD 
ENDBRANCH   6  12
TORSDOF 1
ENDMDL
