MODEL        1
REMARK 921   NORMALIZED FREE ENERGY PREDICTED BY IDOCK:   -4.01 KCAL/MOL
REMARK 922        TOTAL FREE ENERGY PREDICTED BY IDOCK:   -5.81 KCAL/MOL
REMARK 923 INTER-LIGAND FREE ENERGY PREDICTED BY IDOCK:   -4.94 KCAL/MOL
REMARK 924 INTRA-LIGAND FREE ENERGY PREDICTED BY IDOCK:   -0.87 KCAL/MOL
REMARK 927      BINDING AFFINITY PREDICTED BY RF-SCORE:    0.00 PKD
ROOT
HETATM    1  O   UNL     1     -11.178   2.833  63.433  1.00  0.00    -0.380 OA 
HETATM    2  H   UNL     1     -11.721   3.473  62.987  1.00  0.00     0.000 HD 
HETATM    3  C   UNL     1     -10.551   3.314  64.566  1.00  0.00     0.126 A  
HETATM    4  C   UNL     1      -9.732   2.350  65.238  1.00  0.00     0.244 A  
HETATM    5  C   UNL     1      -9.098   2.828  66.360  1.00  0.00    -0.137 A  
HETATM    6  C   UNL     1      -9.271   4.200  66.760  1.00  0.00    -0.169 A  
HETATM    7  C   UNL     1     -10.098   5.245  66.139  1.00  0.00    -0.204 A  
HETATM    8  C   UNL     1     -10.751   4.706  65.020  1.00  0.00     0.006 A  
ENDROOT
BRANCH   7   9
HETATM    9  C   UNL     1     -10.171   6.815  66.833  1.00  0.00    -0.300 C  
HETATM   10  C   UNL     1      -9.991   6.452  68.135  1.00  0.00    -0.136 C  
HETATM   11  C   UNL     1     -11.033   6.366  69.218  1.00  0.00    -0.418 C  
HETATM   12  C   UNL     1     -10.303   7.258  70.182  1.00  0.00    -0.221 C  
HETATM   13  C   UNL     1      -8.891   6.716  69.926  1.00  0.00    -0.144 C  
HETATM   14  N   UNL     1      -8.758   6.208  68.731  1.00  0.00    -0.120 NA 
HETATM   15  C   UNL     1      -7.741   7.199  70.743  1.00  0.00    -0.094 C  
HETATM   16  H   UNL     1     -11.002   9.788  67.948  1.00  0.00     0.000 HD 
HETATM   17  C   UNL     1      -7.393   8.449  70.345  1.00  0.00    -0.056 A  
HETATM   18  N   UNL     1      -6.492   9.439  70.722  1.00  0.00    -0.077 NA 
HETATM   19  N   UNL     1     -10.367   9.803  67.149  1.00  0.00    -0.237 NA 
HETATM   20  H   UNL     1      -5.887   9.400  71.543  1.00  0.00     0.000 HD 
HETATM   21  C   UNL     1      -6.539  10.492  69.812  1.00  0.00    -0.112 A  
HETATM   22  C   UNL     1      -9.918   8.455  66.421  1.00  0.00    -0.221 A  
HETATM   23  C   UNL     1      -6.262  11.802  69.846  1.00  0.00    -0.141 C  
HETATM   24  C   UNL     1      -7.285   9.978  68.696  1.00  0.00    -0.080 A  
HETATM   25  C   UNL     1      -9.206   9.076  65.385  1.00  0.00    -0.241 A  
HETATM   26  C   UNL     1      -9.141  10.568  65.479  1.00  0.00    -0.214 A  
HETATM   27  C   UNL     1      -9.795  11.148  66.589  1.00  0.00    -0.199 A  
HETATM   28  C   UNL     1      -6.137  12.364  67.347  1.00  0.00    -0.158 A  
HETATM   29  C   UNL     1      -6.723  12.584  68.675  1.00  0.00    -0.087 A  
HETATM   30  C   UNL     1      -7.907   8.923  69.090  1.00  0.00    -0.093 A  
HETATM   31  C   UNL     1      -7.134  12.810  66.583  1.00  0.00     0.839 A  
HETATM   32  C   UNL     1      -9.585  12.686  67.279  1.00  0.00    -0.203 C  
HETATM   33  H   UNL     1      -8.264  13.749  69.471  1.00  0.00     0.000 HD 
HETATM   34  N   UNL     1      -7.833  13.259  68.687  1.00  0.00    -0.105 NA 
HETATM   35  C   UNL     1      -8.297  13.155  67.377  1.00  0.00    -0.188 A  
BRANCH  15  36
HETATM   36  C   UNL     1      -6.777   6.367  71.457  1.00  0.00    -0.055 A  
HETATM   37  C   UNL     1      -6.675   6.478  72.859  1.00  0.00    -0.068 A  
HETATM   38  C   UNL     1      -6.092   5.350  70.804  1.00  0.00    -0.022 A  
HETATM   39  C   UNL     1      -5.541   4.331  71.574  1.00  0.00    -0.008 A  
HETATM   40  C   UNL     1      -5.504   4.386  72.963  1.00  0.00    -0.008 A  
HETATM   41  H   UNL     1      -4.781   2.476  71.491  1.00  0.00     0.000 HD 
HETATM   42  O   UNL     1      -5.158   3.172  70.965  1.00  0.00     0.000 OA 
HETATM   43  C   UNL     1      -6.032   5.496  73.612  1.00  0.00    -0.051 A  
ENDBRANCH  15  36
BRANCH  23  44
HETATM   44  C   UNL     1      -5.837  12.448  71.055  1.00  0.00     0.198 A  
HETATM   45  C   UNL     1      -5.336  14.409  72.350  1.00  0.00    -0.168 A  
HETATM   46  C   UNL     1      -5.284  12.225  73.359  1.00  0.00     0.609 A  
HETATM   47  C   UNL     1      -5.699  13.834  71.146  1.00  0.00    -0.212 A  
HETATM   48  H   UNL     1      -4.911  11.827  75.287  1.00  0.00     0.000 HD 
HETATM   49  O   UNL     1      -5.144  11.422  74.460  1.00  0.00    -0.378 OA 
HETATM   50  C   UNL     1      -5.127  13.598  73.472  1.00  0.00    -0.204 A  
HETATM   51  C   UNL     1      -5.626  11.635  72.153  1.00  0.00     0.916 A  
ENDBRANCH  23  44
BRANCH  32  52
HETATM   52  C   UNL     1     -10.361  14.199  67.636  1.00  0.00    -0.241 A  
HETATM   53  O   UNL     1     -12.411  15.856  70.455  1.00  0.00    -0.427 OA 
HETATM   54  C   UNL     1     -11.108  16.879  68.855  1.00  0.00    -0.128 A  
HETATM   55  H   UNL     1     -12.653  16.698  70.822  1.00  0.00     0.000 HD 
HETATM   56  C   UNL     1     -10.194  16.769  67.817  1.00  0.00    -0.303 A  
HETATM   57  C   UNL     1     -11.229  14.397  68.793  1.00  0.00    -0.282 A  
HETATM   58  C   UNL     1      -9.819  15.478  67.242  1.00  0.00    -0.224 A  
HETATM   59  C   UNL     1     -11.600  15.689  69.356  1.00  0.00    -0.370 A  
ENDBRANCH  32  52
ENDBRANCH   7   9
TORSDOF 4
ENDMDL
MODEL        2
REMARK 921   NORMALIZED FREE ENERGY PREDICTED BY IDOCK:   -2.99 KCAL/MOL
REMARK 922        TOTAL FREE ENERGY PREDICTED BY IDOCK:   -4.55 KCAL/MOL
REMARK 923 INTER-LIGAND FREE ENERGY PREDICTED BY IDOCK:   -3.18 KCAL/MOL
REMARK 924 INTRA-LIGAND FREE ENERGY PREDICTED BY IDOCK:   -1.37 KCAL/MOL
REMARK 927      BINDING AFFINITY PREDICTED BY RF-SCORE:    0.00 PKD
ROOT
HETATM    1  O   UNL     1     -11.661  19.992  64.859  1.00  0.00     0.348 OA 
HETATM    2  H   UNL     1     -12.330  19.322  64.784  1.00  0.00     0.000 HD 
HETATM    3  C   UNL     1     -10.461  19.539  65.372  1.00  0.00     0.055 A  
HETATM    4  C   UNL     1      -9.451  20.549  65.484  1.00  0.00     0.422 A  
HETATM    5  C   UNL     1      -8.260  20.104  66.004  1.00  0.00    -0.200 A  
HETATM    6  C   UNL     1      -8.111  18.728  66.401  1.00  0.00    -0.296 A  
HETATM    7  C   UNL     1      -9.085  17.631  66.307  1.00  0.00    -0.212 A  
HETATM    8  C   UNL     1     -10.273  18.121  65.742  1.00  0.00    -0.112 A  
ENDROOT
BRANCH   7   9
HETATM    9  C   UNL     1      -8.655  16.047  66.816  1.00  0.00    -0.292 C  
HETATM   10  C   UNL     1      -8.858  16.220  68.154  1.00  0.00    -0.183 C  
HETATM   11  C   UNL     1      -7.818  16.409  69.224  1.00  0.00    -0.153 C  
HETATM   12  C   UNL     1      -8.305  15.282  70.090  1.00  0.00     0.569 C  
HETATM   13  C   UNL     1      -9.808  15.534  69.918  1.00  0.00    -0.198 C  
HETATM   14  N   UNL     1     -10.092  16.128  68.791  1.00  0.00    -0.227 NA 
HETATM   15  C   UNL     1     -10.798  14.730  70.691  1.00  0.00     0.056 C  
HETATM   16  H   UNL     1      -7.173  13.218  67.572  1.00  0.00     0.000 HD 
HETATM   17  C   UNL     1     -10.889  13.485  70.158  1.00  0.00     0.796 A  
HETATM   18  N   UNL     1     -11.546  12.290  70.432  1.00  0.00    -0.493 NA 
HETATM   19  N   UNL     1      -7.821  13.155  66.786  1.00  0.00     0.213 NA 
HETATM   20  H   UNL     1     -12.114  12.109  71.260  1.00  0.00     0.000 HD 
HETATM   21  C   UNL     1     -11.312  11.376  69.407  1.00  0.00    -0.297 A  
HETATM   22  C   UNL     1      -8.572  14.446  66.224  1.00  0.00     0.410 A  
HETATM   23  C   UNL     1     -11.305  10.042  69.295  1.00  0.00    -0.169 C  
HETATM   24  C   UNL     1     -10.734  12.157  68.346  1.00  0.00    -0.252 A  
HETATM   25  C   UNL     1      -9.176  13.802  65.133  1.00  0.00     1.050 A  
HETATM   26  C   UNL     1      -8.920  12.331  65.057  1.00  0.00     0.754 A  
HETATM   27  C   UNL     1      -8.117  11.787  66.085  1.00  0.00     0.209 A  
HETATM   28  C   UNL     1     -11.404   9.741  66.751  1.00  0.00     0.898 A  
HETATM   29  C   UNL     1     -10.734   9.509  68.037  1.00  0.00    -0.212 A  
HETATM   30  C   UNL     1     -10.335  13.271  68.849  1.00  0.00    -0.079 A  
HETATM   31  C   UNL     1     -10.365   9.604  65.926  1.00  0.00    -0.103 A  
HETATM   32  C   UNL     1      -7.971  10.174  66.597  1.00  0.00    -0.116 C  
HETATM   33  H   UNL     1      -8.952   8.621  68.673  1.00  0.00     0.000 HD 
HETATM   34  N   UNL     1      -9.507   9.090  67.956  1.00  0.00    -0.141 NA 
HETATM   35  C   UNL     1      -9.126   9.433  66.659  1.00  0.00    -0.149 A  
BRANCH  15  36
HETATM   36  C   UNL     1     -11.888  15.254  71.508  1.00  0.00    -0.441 A  
HETATM   37  C   UNL     1     -13.139  14.602  71.490  1.00  0.00    -0.420 A  
HETATM   38  C   UNL     1     -11.663  16.267  72.433  1.00  0.00    -0.512 A  
HETATM   39  C   UNL     1     -12.580  16.427  73.466  1.00  0.00    -0.430 A  
HETATM   40  C   UNL     1     -13.784  15.732  73.506  1.00  0.00    -0.007 A  
HETATM   41  H   UNL     1     -12.857  17.283  75.260  1.00  0.00     0.000 HD 
HETATM   42  O   UNL     1     -12.231  17.173  74.553  1.00  0.00    -0.566 OA 
HETATM   43  C   UNL     1     -14.091  14.846  72.480  1.00  0.00    -0.478 A  
ENDBRANCH  15  36
BRANCH  23  44
HETATM   44  C   UNL     1     -11.537   9.192  70.429  1.00  0.00    -0.181 A  
HETATM   45  C   UNL     1     -10.872   7.455  71.949  1.00  0.00    -0.262 A  
HETATM   46  C   UNL     1     -12.914   8.680  72.301  1.00  0.00    -0.381 A  
HETATM   47  C   UNL     1     -10.624   8.212  70.819  1.00  0.00    -0.234 A  
HETATM   48  H   UNL     1     -14.173   8.452  73.843  1.00  0.00     0.000 HD 
HETATM   49  O   UNL     1     -14.018   8.966  73.059  1.00  0.00    -0.343 OA 
HETATM   50  C   UNL     1     -12.029   7.691  72.702  1.00  0.00    -0.208 A  
HETATM   51  C   UNL     1     -12.687   9.430  71.158  1.00  0.00    -0.342 A  
ENDBRANCH  23  44
BRANCH  32  52
HETATM   52  C   UNL     1      -6.879   8.833  66.768  1.00  0.00    -0.069 A  
HETATM   53  O   UNL     1      -5.177   6.766  69.548  1.00  0.00    -0.013 OA 
HETATM   54  C   UNL     1      -5.667   6.118  67.393  1.00  0.00    -0.016 A  
HETATM   55  H   UNL     1      -4.786   5.921  69.733  1.00  0.00     0.000 HD 
HETATM   56  C   UNL     1      -6.287   6.390  66.181  1.00  0.00    -0.042 A  
HETATM   57  C   UNL     1      -6.305   8.430  68.048  1.00  0.00    -0.056 A  
HETATM   58  C   UNL     1      -6.888   7.689  65.887  1.00  0.00    -0.057 A  
HETATM   59  C   UNL     1      -5.704   7.133  68.331  1.00  0.00    -0.022 A  
ENDBRANCH  32  52
ENDBRANCH   7   9
TORSDOF 4
ENDMDL
MODEL        3
REMARK 921   NORMALIZED FREE ENERGY PREDICTED BY IDOCK:   -2.57 KCAL/MOL
REMARK 922        TOTAL FREE ENERGY PREDICTED BY IDOCK:   -4.04 KCAL/MOL
REMARK 923 INTER-LIGAND FREE ENERGY PREDICTED BY IDOCK:   -3.19 KCAL/MOL
REMARK 924 INTRA-LIGAND FREE ENERGY PREDICTED BY IDOCK:   -0.85 KCAL/MOL
REMARK 927      BINDING AFFINITY PREDICTED BY RF-SCORE:    0.00 PKD
ROOT
HETATM    1  O   UNL     1     -11.777  15.655  65.152  1.00  0.00    -0.058 OA 
HETATM    2  H   UNL     1     -11.370  15.781  66.001  1.00  0.00     0.000 HD 
HETATM    3  C   UNL     1     -11.631  14.382  64.637  1.00  0.00    -0.409 A  
HETATM    4  C   UNL     1     -12.246  14.193  63.356  1.00  0.00     0.271 A  
HETATM    5  C   UNL     1     -12.093  12.931  62.836  1.00  0.00     0.231 A  
HETATM    6  C   UNL     1     -11.349  11.933  63.560  1.00  0.00    -0.516 A  
HETATM    7  C   UNL     1     -10.703  12.039  64.876  1.00  0.00    -0.346 A  
HETATM    8  C   UNL     1     -10.911  13.331  65.385  1.00  0.00    -0.304 A  
ENDROOT
BRANCH   7   9
HETATM    9  C   UNL     1      -9.899  10.682  65.557  1.00  0.00    -0.316 C  
HETATM   10  C   UNL     1      -8.781  11.329  65.997  1.00  0.00    -0.164 C  
HETATM   11  C   UNL     1      -7.410  11.321  65.378  1.00  0.00     0.589 C  
HETATM   12  C   UNL     1      -6.698  10.884  66.626  1.00  0.00    -0.127 C  
HETATM   13  C   UNL     1      -7.485  11.750  67.619  1.00  0.00    -0.123 C  
HETATM   14  N   UNL     1      -8.687  12.030  67.195  1.00  0.00    -0.177 NA 
HETATM   15  C   UNL     1      -7.094  11.788  69.057  1.00  0.00    -0.100 C  
HETATM   16  H   UNL     1      -8.314   7.874  66.169  1.00  0.00     0.000 HD 
HETATM   17  C   UNL     1      -7.482  10.640  69.666  1.00  0.00    -0.115 A  
HETATM   18  N   UNL     1      -7.369  10.045  70.918  1.00  0.00    -0.365 NA 
HETATM   19  N   UNL     1      -9.282   7.887  66.491  1.00  0.00    -0.181 NA 
HETATM   20  H   UNL     1      -6.824  10.417  71.697  1.00  0.00     0.000 HD 
HETATM   21  C   UNL     1      -8.110   8.867  70.951  1.00  0.00    -0.166 A  
HETATM   22  C   UNL     1     -10.233   9.137  66.209  1.00  0.00    -0.187 A  
HETATM   23  C   UNL     1      -8.067   7.726  71.651  1.00  0.00    -0.114 C  
HETATM   24  C   UNL     1      -8.926   8.915  69.768  1.00  0.00    -0.149 A  
HETATM   25  C   UNL     1     -11.399   8.558  66.731  1.00  0.00     1.792 A  
HETATM   26  C   UNL     1     -11.209   7.197  67.322  1.00  0.00    -0.059 A  
HETATM   27  C   UNL     1      -9.893   6.682  67.282  1.00  0.00    -0.146 A  
HETATM   28  C   UNL     1     -10.389   6.747  71.178  1.00  0.00    -0.227 A  
HETATM   29  C   UNL     1      -8.925   6.631  71.143  1.00  0.00    -0.145 A  
HETATM   30  C   UNL     1      -8.427   9.801  68.980  1.00  0.00    -0.137 A  
HETATM   31  C   UNL     1     -10.707   5.891  70.206  1.00  0.00    -0.383 A  
HETATM   32  C   UNL     1      -9.196   5.436  68.202  1.00  0.00    -0.122 C  
HETATM   33  H   UNL     1      -7.537   5.250  70.414  1.00  0.00     0.000 HD 
HETATM   34  N   UNL     1      -8.462   5.680  70.388  1.00  0.00    -0.125 NA 
HETATM   35  C   UNL     1      -9.525   5.388  69.535  1.00  0.00    -0.133 A  
BRANCH  15  36
HETATM   36  C   UNL     1      -6.843  12.986  69.853  1.00  0.00     0.357 A  
HETATM   37  C   UNL     1      -5.832  12.962  70.836  1.00  0.00    -0.008 A  
HETATM   38  C   UNL     1      -7.457  14.192  69.539  1.00  0.00     0.159 A  
HETATM   39  C   UNL     1      -6.881  15.365  70.016  1.00  0.00    -0.048 A  
HETATM   40  C   UNL     1      -5.829  15.360  70.925  1.00  0.00     0.106 A  
HETATM   41  H   UNL     1      -6.860  17.359  69.794  1.00  0.00     0.000 HD 
HETATM   42  O   UNL     1      -7.253  16.557  69.468  1.00  0.00    -0.209 OA 
HETATM   43  C   UNL     1      -5.331  14.144  71.380  1.00  0.00    -0.185 A  
ENDBRANCH  15  36
BRANCH  23  44
HETATM   44  C   UNL     1      -7.038   7.479  72.621  1.00  0.00    -0.074 A  
HETATM   45  C   UNL     1      -5.403   8.225  74.215  1.00  0.00    -0.079 A  
HETATM   46  C   UNL     1      -5.862   5.879  73.933  1.00  0.00    -0.060 A  
HETATM   47  C   UNL     1      -6.349   8.517  73.250  1.00  0.00    -0.109 A  
HETATM   48  H   UNL     1      -5.037   4.383  74.980  1.00  0.00     0.000 HD 
HETATM   49  O   UNL     1      -5.678   4.575  74.305  1.00  0.00    -0.015 OA 
HETATM   50  C   UNL     1      -5.155   6.891  74.564  1.00  0.00    -0.042 A  
HETATM   51  C   UNL     1      -6.798   6.158  72.949  1.00  0.00    -0.075 A  
ENDBRANCH  23  44
BRANCH  32  52
HETATM   52  C   UNL     1      -8.460   3.863  68.134  1.00  0.00    -0.106 A  
HETATM   53  O   UNL     1      -5.171   2.207  66.978  1.00  0.00    -0.008 OA 
HETATM   54  C   UNL     1      -6.646   1.469  68.585  1.00  0.00    -0.029 A  
HETATM   55  H   UNL     1      -4.616   1.449  67.113  1.00  0.00     0.000 HD 
HETATM   56  C   UNL     1      -7.770   1.703  69.366  1.00  0.00    -0.044 A  
HETATM   57  C   UNL     1      -7.207   3.599  67.433  1.00  0.00    -0.059 A  
HETATM   58  C   UNL     1      -8.632   2.865  69.163  1.00  0.00    -0.117 A  
HETATM   59  C   UNL     1      -6.356   2.435  67.640  1.00  0.00    -0.031 A  
ENDBRANCH  32  52
ENDBRANCH   7   9
TORSDOF 4
ENDMDL
MODEL        4
REMARK 921   NORMALIZED FREE ENERGY PREDICTED BY IDOCK:   -1.33 KCAL/MOL
REMARK 922        TOTAL FREE ENERGY PREDICTED BY IDOCK:   -2.51 KCAL/MOL
REMARK 923 INTER-LIGAND FREE ENERGY PREDICTED BY IDOCK:   -1.11 KCAL/MOL
REMARK 924 INTRA-LIGAND FREE ENERGY PREDICTED BY IDOCK:   -1.40 KCAL/MOL
REMARK 927      BINDING AFFINITY PREDICTED BY RF-SCORE:    0.00 PKD
ROOT
HETATM    1  O   UNL     1     -11.943   1.559  63.192  1.00  0.00    -0.478 OA 
HETATM    2  H   UNL     1     -12.699   1.747  63.736  1.00  0.00     0.000 HD 
HETATM    3  C   UNL     1     -10.922   2.483  63.303  1.00  0.00    -0.215 A  
HETATM    4  C   UNL     1      -9.782   2.199  62.483  1.00  0.00    -0.088 A  
HETATM    5  C   UNL     1      -8.769   3.122  62.582  1.00  0.00    -0.078 A  
HETATM    6  C   UNL     1      -8.912   4.266  63.444  1.00  0.00    -0.130 A  
HETATM    7  C   UNL     1     -10.035   4.623  64.324  1.00  0.00     0.217 A  
HETATM    8  C   UNL     1     -11.031   3.639  64.217  1.00  0.00     0.018 A  
ENDROOT
BRANCH   7   9
HETATM    9  C   UNL     1      -9.955   6.036  65.298  1.00  0.00     1.050 C  
HETATM   10  C   UNL     1     -10.110   5.435  66.512  1.00  0.00    -0.216 C  
HETATM   11  C   UNL     1     -11.345   5.403  67.371  1.00  0.00     1.284 C  
HETATM   12  C   UNL     1     -10.672   5.945  68.600  1.00  0.00    -0.339 C  
HETATM   13  C   UNL     1      -9.362   5.156  68.474  1.00  0.00    -0.125 C  
HETATM   14  N   UNL     1      -9.087   4.833  67.239  1.00  0.00    -0.116 NA 
HETATM   15  C   UNL     1      -8.330   5.236  69.547  1.00  0.00    -0.095 C  
HETATM   16  H   UNL     1     -10.429   8.896  66.836  1.00  0.00     0.000 HD 
HETATM   17  C   UNL     1      -7.685   6.428  69.471  1.00  0.00    -0.100 A  
HETATM   18  N   UNL     1      -6.711   7.122  70.181  1.00  0.00    -0.050 NA 
HETATM   19  N   UNL     1      -9.656   8.902  66.171  1.00  0.00    -0.254 NA 
HETATM   20  H   UNL     1      -6.300   6.818  71.064  1.00  0.00     0.000 HD 
HETATM   21  C   UNL     1      -6.379   8.294  69.505  1.00  0.00    -0.033 A  
HETATM   22  C   UNL     1      -9.326   7.626  65.271  1.00  0.00     0.726 A  
HETATM   23  C   UNL     1      -5.877   9.488  69.846  1.00  0.00    -0.036 C  
HETATM   24  C   UNL     1      -6.968   8.144  68.202  1.00  0.00    -0.077 A  
HETATM   25  C   UNL     1      -8.318   8.237  64.510  1.00  0.00    -0.097 A  
HETATM   26  C   UNL     1      -8.000   9.642  64.911  1.00  0.00    -0.124 A  
HETATM   27  C   UNL     1      -8.744  10.162  65.994  1.00  0.00    -0.140 A  
HETATM   28  C   UNL     1      -5.152  10.409  67.566  1.00  0.00    -0.037 A  
HETATM   29  C   UNL     1      -5.942  10.532  68.797  1.00  0.00    -0.040 A  
HETATM   30  C   UNL     1      -7.840   7.201  68.269  1.00  0.00    -0.122 A  
HETATM   31  C   UNL     1      -5.876  11.181  66.754  1.00  0.00    -0.111 A  
HETATM   32  C   UNL     1      -8.397  11.483  67.003  1.00  0.00    -0.165 C  
HETATM   33  H   UNL     1      -7.370  11.860  69.549  1.00  0.00     0.000 HD 
HETATM   34  N   UNL     1      -6.888  11.422  68.764  1.00  0.00    -0.074 NA 
HETATM   35  C   UNL     1      -7.091  11.637  67.401  1.00  0.00    -0.124 A  
BRANCH  15  36
HETATM   36  C   UNL     1      -7.699   4.109  70.227  1.00  0.00    -0.048 A  
HETATM   37  C   UNL     1      -6.331   3.846  70.004  1.00  0.00    -0.028 A  
HETATM   38  C   UNL     1      -8.373   3.405  71.218  1.00  0.00    -0.086 A  
HETATM   39  C   UNL     1      -7.622   2.659  72.119  1.00  0.00    -0.052 A  
HETATM   40  C   UNL     1      -6.255   2.456  71.959  1.00  0.00    -0.014 A  
HETATM   41  H   UNL     1      -7.691   1.723  73.892  1.00  0.00     0.000 HD 
HETATM   42  O   UNL     1      -8.204   2.233  73.276  1.00  0.00    -0.053 OA 
HETATM   43  C   UNL     1      -5.611   3.015  70.860  1.00  0.00    -0.013 A  
ENDBRANCH  15  36
BRANCH  23  44
HETATM   44  C   UNL     1      -5.592   9.819  71.213  1.00  0.00    -0.075 A  
HETATM   45  C   UNL     1      -5.311  11.403  72.998  1.00  0.00     0.849 A  
HETATM   46  C   UNL     1      -5.223   9.037  73.430  1.00  0.00    -0.092 A  
HETATM   47  C   UNL     1      -5.538  11.141  71.659  1.00  0.00     0.353 A  
HETATM   48  H   UNL     1      -4.991   8.175  75.224  1.00  0.00     0.000 HD 
HETATM   49  O   UNL     1      -5.132   7.987  74.304  1.00  0.00    -0.056 OA 
HETATM   50  C   UNL     1      -5.152  10.341  73.896  1.00  0.00     0.075 A  
HETATM   51  C   UNL     1      -5.429   8.761  72.088  1.00  0.00    -0.055 A  
ENDBRANCH  23  44
BRANCH  32  52
HETATM   52  C   UNL     1      -8.936  13.051  67.525  1.00  0.00    -0.193 A  
HETATM   53  O   UNL     1      -9.177  16.666  66.196  1.00  0.00    -0.300 OA 
HETATM   54  C   UNL     1     -10.458  15.662  67.826  1.00  0.00    -0.273 A  
HETATM   55  H   UNL     1      -9.647  17.485  66.305  1.00  0.00     0.000 HD 
HETATM   56  C   UNL     1     -10.818  14.513  68.516  1.00  0.00    -0.256 A  
HETATM   57  C   UNL     1      -8.692  14.272  66.763  1.00  0.00    -0.161 A  
HETATM   58  C   UNL     1     -10.098  13.251  68.357  1.00  0.00    -0.237 A  
HETATM   59  C   UNL     1      -9.413  15.527  66.932  1.00  0.00    -0.228 A  
ENDBRANCH  32  52
ENDBRANCH   7   9
TORSDOF 4
ENDMDL
MODEL        5
REMARK 921   NORMALIZED FREE ENERGY PREDICTED BY IDOCK:   23.24 KCAL/MOL
REMARK 922        TOTAL FREE ENERGY PREDICTED BY IDOCK:   27.81 KCAL/MOL
REMARK 923 INTER-LIGAND FREE ENERGY PREDICTED BY IDOCK:   28.99 KCAL/MOL
REMARK 924 INTRA-LIGAND FREE ENERGY PREDICTED BY IDOCK:   -1.18 KCAL/MOL
REMARK 927      BINDING AFFINITY PREDICTED BY RF-SCORE:    0.00 PKD
ROOT
HETATM    1  O   UNL     1     -10.544   4.714  63.389  1.00  0.00    -0.272 OA 
HETATM    2  H   UNL     1      -9.910   5.272  62.954  1.00  0.00     0.000 HD 
HETATM    3  C   UNL     1     -11.103   5.270  64.523  1.00  0.00     2.214 A  
HETATM    4  C   UNL     1     -12.059   4.429  65.180  1.00  0.00     3.277 A  
HETATM    5  C   UNL     1     -12.610   4.975  66.314  1.00  0.00     7.817 A  
HETATM    6  C   UNL     1     -12.201   6.281  66.761  1.00  0.00     3.826 A  
HETATM    7  C   UNL     1     -11.244   7.210  66.143  1.00  0.00     2.268 A  
HETATM    8  C   UNL     1     -10.732   6.628  64.973  1.00  0.00     4.958 A  
ENDROOT
BRANCH   7   9
HETATM    9  C   UNL     1     -10.950   8.747  66.853  1.00  0.00     0.250 C  
HETATM   10  C   UNL     1     -11.141   8.390  68.155  1.00  0.00     0.389 C  
HETATM   11  C   UNL     1     -12.341   8.672  69.019  1.00  0.00     3.207 C  
HETATM   12  C   UNL     1     -11.563   9.323  70.127  1.00  0.00    -0.078 C  
HETATM   13  C   UNL     1     -10.371   8.357  70.129  1.00  0.00    -0.211 C  
HETATM   14  N   UNL     1     -10.182   7.793  68.967  1.00  0.00    -0.204 NA 
HETATM   15  C   UNL     1      -9.303   8.483  71.161  1.00  0.00    -0.249 C  
HETATM   16  H   UNL     1     -10.998  11.867  67.870  1.00  0.00     0.000 HD 
HETATM   17  C   UNL     1      -8.511   9.546  70.870  1.00  0.00     0.080 A  
HETATM   18  N   UNL     1      -7.433  10.217  71.438  1.00  0.00     0.461 NA 
HETATM   19  N   UNL     1     -10.253  11.654  67.207  1.00  0.00    -0.199 NA 
HETATM   20  H   UNL     1      -7.036  10.018  72.357  1.00  0.00     0.000 HD 
HETATM   21  C   UNL     1      -6.974  11.200  70.564  1.00  0.00     0.965 A  
HETATM   22  C   UNL     1     -10.121  10.210  66.541  1.00  0.00    -0.234 A  
HETATM   23  C   UNL     1      -6.311  12.357  70.685  1.00  0.00     0.623 C  
HETATM   24  C   UNL     1      -7.621  10.907  69.313  1.00  0.00    -0.113 A  
HETATM   25  C   UNL     1      -9.069  10.541  65.676  1.00  0.00    -0.209 A  
HETATM   26  C   UNL     1      -8.557  11.939  65.820  1.00  0.00     0.301 A  
HETATM   27  C   UNL     1      -9.192  12.733  66.803  1.00  0.00    -0.225 A  
HETATM   28  C   UNL     1      -5.549  12.765  68.272  1.00  0.00    -0.070 A  
HETATM   29  C   UNL     1      -6.275  13.203  69.470  1.00  0.00    -0.116 A  
HETATM   30  C   UNL     1      -8.605  10.115  69.553  1.00  0.00    -0.177 A  
HETATM   31  C   UNL     1      -6.193  13.476  67.344  1.00  0.00     0.072 A  
HETATM   32  C   UNL     1      -8.643  14.150  67.561  1.00  0.00    -0.196 C  
HETATM   33  H   UNL     1      -7.493  14.820  69.992  1.00  0.00     0.000 HD 
HETATM   34  N   UNL     1      -7.098  14.192  69.290  1.00  0.00    -0.108 NA 
HETATM   35  C   UNL     1      -7.316  14.194  67.913  1.00  0.00    -0.157 A  
BRANCH  15  36
HETATM   36  C   UNL     1      -8.801   7.416  72.021  1.00  0.00    -0.141 A  
HETATM   37  C   UNL     1      -8.911   7.549  73.422  1.00  0.00    -0.241 A  
HETATM   38  C   UNL     1      -8.385   6.204  71.485  1.00  0.00    -0.127 A  
HETATM   39  C   UNL     1      -8.338   5.096  72.325  1.00  0.00    -0.121 A  
HETATM   40  C   UNL     1      -8.524   5.197  73.699  1.00  0.00    -0.112 A  
HETATM   41  H   UNL     1      -8.224   3.093  72.350  1.00  0.00     0.000 HD 
HETATM   42  O   UNL     1      -8.256   3.850  71.776  1.00  0.00    -0.078 OA 
HETATM   43  C   UNL     1      -8.763   6.446  74.261  1.00  0.00    -0.145 A  
ENDBRANCH  15  36
BRANCH  23  44
HETATM   44  C   UNL     1      -5.941  12.878  71.970  1.00  0.00     1.388 A  
HETATM   45  C   UNL     1      -5.134  12.608  74.217  1.00  0.00     0.093 A  
HETATM   46  C   UNL     1      -5.536  14.802  73.312  1.00  0.00     0.053 A  
HETATM   47  C   UNL     1      -5.529  12.050  73.015  1.00  0.00     1.140 A  
HETATM   48  H   UNL     1      -5.196  16.542  74.246  1.00  0.00     0.000 HD 
HETATM   49  O   UNL     1      -5.483  16.165  73.422  1.00  0.00     1.276 OA 
HETATM   50  C   UNL     1      -5.135  14.000  74.369  1.00  0.00     0.082 A  
HETATM   51  C   UNL     1      -5.955  14.254  72.110  1.00  0.00     0.180 A  
ENDBRANCH  23  44
BRANCH  32  52
HETATM   52  C   UNL     1      -8.957  15.841  67.805  1.00  0.00    -0.176 A  
HETATM   53  O   UNL     1      -9.633  19.031  65.740  1.00  0.00    -0.417 OA 
HETATM   54  C   UNL     1     -10.265  18.581  67.908  1.00  0.00    -0.415 A  
HETATM   55  H   UNL     1     -10.030  19.892  65.783  1.00  0.00     0.000 HD 
HETATM   56  C   UNL     1     -10.365  17.675  68.954  1.00  0.00    -0.323 A  
HETATM   57  C   UNL     1      -8.991  16.812  66.715  1.00  0.00    -0.265 A  
HETATM   58  C   UNL     1      -9.753  16.348  68.898  1.00  0.00    -0.257 A  
HETATM   59  C   UNL     1      -9.600  18.133  66.782  1.00  0.00    -0.301 A  
ENDBRANCH  32  52
ENDBRANCH   7   9
TORSDOF 4
ENDMDL
MODEL        6
REMARK 921   NORMALIZED FREE ENERGY PREDICTED BY IDOCK:   26.75 KCAL/MOL
REMARK 922        TOTAL FREE ENERGY PREDICTED BY IDOCK:   32.14 KCAL/MOL
REMARK 923 INTER-LIGAND FREE ENERGY PREDICTED BY IDOCK:   33.29 KCAL/MOL
REMARK 924 INTRA-LIGAND FREE ENERGY PREDICTED BY IDOCK:   -1.15 KCAL/MOL
REMARK 927      BINDING AFFINITY PREDICTED BY RF-SCORE:    0.00 PKD
ROOT
HETATM    1  O   UNL     1     -10.560   2.834  62.949  1.00  0.00    -0.146 OA 
HETATM    2  H   UNL     1      -9.818   3.286  62.566  1.00  0.00     0.000 HD 
HETATM    3  C   UNL     1     -11.162   3.516  63.989  1.00  0.00     0.400 A  
HETATM    4  C   UNL     1     -12.282   2.834  64.567  1.00  0.00     6.550 A  
HETATM    5  C   UNL     1     -12.877   3.504  65.609  1.00  0.00    14.185 A  
HETATM    6  C   UNL     1     -12.355   4.774  66.046  1.00  0.00     5.987 A  
HETATM    7  C   UNL     1     -11.227   5.544  65.503  1.00  0.00     1.265 A  
HETATM    8  C   UNL     1     -10.671   4.840  64.422  1.00  0.00     0.602 A  
ENDROOT
BRANCH   7   9
HETATM    9  C   UNL     1     -10.817   7.070  66.178  1.00  0.00     1.265 C  
HETATM   10  C   UNL     1     -11.174   6.805  67.467  1.00  0.00    -0.167 C  
HETATM   11  C   UNL     1     -12.408   7.269  68.193  1.00  0.00     4.323 C  
HETATM   12  C   UNL     1     -11.666   7.880  69.348  1.00  0.00     0.855 C  
HETATM   13  C   UNL     1     -10.606   6.782  69.508  1.00  0.00    -0.232 C  
HETATM   14  N   UNL     1     -10.377   6.141  68.394  1.00  0.00    -0.178 NA 
HETATM   15  C   UNL     1      -9.635   6.834  70.637  1.00  0.00    -0.174 C  
HETATM   16  H   UNL     1     -10.583  10.221  67.063  1.00  0.00     0.000 HD 
HETATM   17  C   UNL     1      -8.695   7.781  70.387  1.00  0.00    -0.139 A  
HETATM   18  N   UNL     1      -7.602   8.348  71.034  1.00  0.00    -0.076 NA 
HETATM   19  N   UNL     1      -9.809   9.890  66.487  1.00  0.00    -0.202 NA 
HETATM   20  H   UNL     1      -7.323   8.151  71.995  1.00  0.00     0.000 HD 
HETATM   21  C   UNL     1      -6.946   9.225  70.173  1.00  0.00    -0.067 A  
HETATM   22  C   UNL     1      -9.791   8.408  65.895  1.00  0.00     0.121 A  
HETATM   23  C   UNL     1      -6.162  10.301  70.315  1.00  0.00    -0.113 C  
HETATM   24  C   UNL     1      -7.501   8.947  68.876  1.00  0.00    -0.082 A  
HETATM   25  C   UNL     1      -8.628   8.568  65.128  1.00  0.00    -0.179 A  
HETATM   26  C   UNL     1      -7.966   9.902  65.268  1.00  0.00    -0.137 A  
HETATM   27  C   UNL     1      -8.591  10.814  66.150  1.00  0.00    -0.168 A  
HETATM   28  C   UNL     1      -5.128  10.494  67.977  1.00  0.00    -0.033 A  
HETATM   29  C   UNL     1      -5.907  11.074  69.078  1.00  0.00    -0.040 A  
HETATM   30  C   UNL     1      -8.593   8.289  69.046  1.00  0.00    -0.135 A  
HETATM   31  C   UNL     1      -5.589  11.227  66.962  1.00  0.00    -0.088 A  
HETATM   32  C   UNL     1      -7.949  12.193  66.904  1.00  0.00    -0.089 C  
HETATM   33  H   UNL     1      -6.963  12.847  69.410  1.00  0.00     0.000 HD 
HETATM   34  N   UNL     1      -6.582  12.142  68.777  1.00  0.00    -0.077 NA 
HETATM   35  C   UNL     1      -6.666  12.100  67.386  1.00  0.00    -0.143 A  
BRANCH  15  36
HETATM   36  C   UNL     1      -9.351   5.761  71.585  1.00  0.00    -0.162 A  
HETATM   37  C   UNL     1      -9.970   5.779  72.853  1.00  0.00    -0.194 A  
HETATM   38  C   UNL     1      -8.630   4.639  71.197  1.00  0.00    -0.128 A  
HETATM   39  C   UNL     1      -8.755   3.482  71.959  1.00  0.00    -0.090 A  
HETATM   40  C   UNL     1      -9.432   3.462  73.174  1.00  0.00    -0.136 A  
HETATM   41  H   UNL     1      -8.421   1.504  71.957  1.00  0.00     0.000 HD 
HETATM   42  O   UNL     1      -8.336   2.294  71.436  1.00  0.00    -0.056 OA 
HETATM   43  C   UNL     1     -10.002   4.636  73.652  1.00  0.00    -0.188 A  
ENDBRANCH  15  36
BRANCH  23  44
HETATM   44  C   UNL     1      -5.855  10.840  71.610  1.00  0.00     0.490 A  
HETATM   45  C   UNL     1      -5.285  10.592  73.930  1.00  0.00     0.342 A  
HETATM   46  C   UNL     1      -5.373  12.772  72.914  1.00  0.00     0.515 A  
HETATM   47  C   UNL     1      -5.627  10.023  72.718  1.00  0.00     0.376 A  
HETATM   48  H   UNL     1      -4.939  14.509  73.812  1.00  0.00     0.000 HD 
HETATM   49  O   UNL     1      -5.189  14.127  72.979  1.00  0.00    -0.230 OA 
HETATM   50  C   UNL     1      -5.154  11.983  74.032  1.00  0.00     0.363 A  
HETATM   51  C   UNL     1      -5.738  12.215  71.698  1.00  0.00     0.660 A  
ENDBRANCH  23  44
BRANCH  32  52
HETATM   52  C   UNL     1      -8.076  13.921  67.049  1.00  0.00    -0.016 A  
HETATM   53  O   UNL     1      -5.834  17.057  66.862  1.00  0.00    -0.161 OA 
HETATM   54  C   UNL     1      -8.099  16.903  66.473  1.00  0.00    -0.327 A  
HETATM   55  H   UNL     1      -5.851  17.992  66.696  1.00  0.00     0.000 HD 
HETATM   56  C   UNL     1      -9.228  16.111  66.315  1.00  0.00    -0.366 A  
HETATM   57  C   UNL     1      -6.915  14.805  67.087  1.00  0.00     0.188 A  
HETATM   58  C   UNL     1      -9.213  14.672  66.573  1.00  0.00    -0.294 A  
HETATM   59  C   UNL     1      -6.941  16.239  66.833  1.00  0.00    -0.191 A  
ENDBRANCH  32  52
ENDBRANCH   7   9
TORSDOF 4
ENDMDL
MODEL        7
REMARK 921   NORMALIZED FREE ENERGY PREDICTED BY IDOCK:   28.36 KCAL/MOL
REMARK 922        TOTAL FREE ENERGY PREDICTED BY IDOCK:   34.13 KCAL/MOL
REMARK 923 INTER-LIGAND FREE ENERGY PREDICTED BY IDOCK:   35.17 KCAL/MOL
REMARK 924 INTRA-LIGAND FREE ENERGY PREDICTED BY IDOCK:   -1.04 KCAL/MOL
REMARK 927      BINDING AFFINITY PREDICTED BY RF-SCORE:    0.00 PKD
ROOT
HETATM    1  O   UNL     1     -12.466  17.465  65.248  1.00  0.00     4.065 OA 
HETATM    2  H   UNL     1     -11.800  17.548  65.920  1.00  0.00     0.000 HD 
HETATM    3  C   UNL     1     -12.638  16.177  64.779  1.00  0.00     1.550 A  
HETATM    4  C   UNL     1     -13.642  16.051  63.764  1.00  0.00     4.165 A  
HETATM    5  C   UNL     1     -13.808  14.773  63.288  1.00  0.00     6.215 A  
HETATM    6  C   UNL     1     -12.994  13.698  63.794  1.00  0.00     0.696 A  
HETATM    7  C   UNL     1     -11.958  13.739  64.837  1.00  0.00    -0.412 A  
HETATM    8  C   UNL     1     -11.845  15.053  65.318  1.00  0.00    -0.148 A  
ENDROOT
BRANCH   7   9
HETATM    9  C   UNL     1     -11.143  12.300  65.301  1.00  0.00    -0.359 C  
HETATM   10  C   UNL     1      -9.940  12.861  65.617  1.00  0.00    -0.235 C  
HETATM   11  C   UNL     1      -8.673  12.836  64.806  1.00  0.00     2.222 C  
HETATM   12  C   UNL     1      -7.817  12.276  65.906  1.00  0.00     1.261 C  
HETATM   13  C   UNL     1      -8.406  13.101  67.057  1.00  0.00    -0.085 C  
HETATM   14  N   UNL     1      -9.638  13.467  66.833  1.00  0.00    -0.249 NA 
HETATM   15  C   UNL     1      -7.813  13.015  68.422  1.00  0.00    -0.134 C  
HETATM   16  H   UNL     1      -9.647   9.385  65.489  1.00  0.00     0.000 HD 
HETATM   17  C   UNL     1      -8.175  11.844  69.004  1.00  0.00     0.210 A  
HETATM   18  N   UNL     1      -7.919  11.154  70.184  1.00  0.00     0.266 NA 
HETATM   19  N   UNL     1     -10.557   9.418  65.948  1.00  0.00     0.274 NA 
HETATM   20  H   UNL     1      -7.249  11.442  70.898  1.00  0.00     0.000 HD 
HETATM   21  C   UNL     1      -8.713  10.011  70.246  1.00  0.00     0.119 A  
HETATM   22  C   UNL     1     -11.467  10.728  65.891  1.00  0.00     0.785 A  
HETATM   23  C   UNL     1      -8.634   8.821  70.854  1.00  0.00    -0.229 C  
HETATM   24  C   UNL     1      -9.684  10.184  69.200  1.00  0.00    -0.225 A  
HETATM   25  C   UNL     1     -12.578  10.166  66.537  1.00  0.00     8.355 A  
HETATM   26  C   UNL     1     -12.382   8.758  67.003  1.00  0.00     8.530 A  
HETATM   27  C   UNL     1     -11.117   8.187  66.737  1.00  0.00     0.844 A  
HETATM   28  C   UNL     1     -11.051   7.987  70.660  1.00  0.00    -0.266 A  
HETATM   29  C   UNL     1      -9.616   7.807  70.405  1.00  0.00    -0.175 A  
HETATM   30  C   UNL     1      -9.253  11.102  68.409  1.00  0.00    -0.175 A  
HETATM   31  C   UNL     1     -11.551   7.220  69.690  1.00  0.00     0.122 A  
HETATM   32  C   UNL     1     -10.367   6.847  67.462  1.00  0.00    -0.277 C  
HETATM   33  H   UNL     1      -8.424   6.421  69.392  1.00  0.00     0.000 HD 
HETATM   34  N   UNL     1      -9.318   6.895  69.529  1.00  0.00    -0.148 NA 
HETATM   35  C   UNL     1     -10.505   6.715  68.822  1.00  0.00    -0.213 A  
BRANCH  15  36
HETATM   36  C   UNL     1      -7.386  14.138  69.252  1.00  0.00    -0.016 A  
HETATM   37  C   UNL     1      -6.256  13.991  70.084  1.00  0.00    -0.138 A  
HETATM   38  C   UNL     1      -7.961  15.395  69.103  1.00  0.00    -0.222 A  
HETATM   39  C   UNL     1      -7.256  16.499  69.570  1.00  0.00    -0.049 A  
HETATM   40  C   UNL     1      -6.094  16.374  70.324  1.00  0.00     0.005 A  
HETATM   41  H   UNL     1      -7.142  18.499  69.475  1.00  0.00     0.000 HD 
HETATM   42  O   UNL     1      -7.623  17.745  69.156  1.00  0.00    -0.189 OA 
HETATM   43  C   UNL     1      -5.616  15.104  70.628  1.00  0.00    -0.122 A  
ENDBRANCH  15  36
BRANCH  23  44
HETATM   44  C   UNL     1      -7.494   8.457  71.646  1.00  0.00    -0.118 A  
HETATM   45  C   UNL     1      -5.784   6.908  72.316  1.00  0.00    -0.038 A  
HETATM   46  C   UNL     1      -5.813   9.155  73.180  1.00  0.00     0.034 A  
HETATM   47  C   UNL     1      -6.913   7.190  71.570  1.00  0.00    -0.064 A  
HETATM   48  H   UNL     1      -4.460   9.958  74.420  1.00  0.00     0.000 HD 
HETATM   49  O   UNL     1      -5.244  10.155  73.922  1.00  0.00    -0.322 OA 
HETATM   50  C   UNL     1      -5.224   7.901  73.131  1.00  0.00    -0.040 A  
HETATM   51  C   UNL     1      -6.957   9.443  72.453  1.00  0.00     0.718 A  
ENDBRANCH  23  44
BRANCH  32  52
HETATM   52  C   UNL     1      -9.737   5.251  67.183  1.00  0.00    -0.165 A  
HETATM   53  O   UNL     1      -6.469   3.542  66.044  1.00  0.00    -0.032 OA 
HETATM   54  C   UNL     1      -8.144   2.670  67.363  1.00  0.00    -0.074 A  
HETATM   55  H   UNL     1      -5.983   2.727  66.091  1.00  0.00     0.000 HD 
HETATM   56  C   UNL     1      -9.322   2.863  68.072  1.00  0.00    -0.258 A  
HETATM   57  C   UNL     1      -8.441   5.003  66.558  1.00  0.00    -0.110 A  
HETATM   58  C   UNL     1     -10.079   4.112  68.002  1.00  0.00     0.103 A  
HETATM   59  C   UNL     1      -7.696   3.754  66.631  1.00  0.00    -0.088 A  
ENDBRANCH  32  52
ENDBRANCH   7   9
TORSDOF 4
ENDMDL
MODEL        8
REMARK 921   NORMALIZED FREE ENERGY PREDICTED BY IDOCK:   33.09 KCAL/MOL
REMARK 922        TOTAL FREE ENERGY PREDICTED BY IDOCK:   39.96 KCAL/MOL
REMARK 923 INTER-LIGAND FREE ENERGY PREDICTED BY IDOCK:   41.05 KCAL/MOL
REMARK 924 INTRA-LIGAND FREE ENERGY PREDICTED BY IDOCK:   -1.09 KCAL/MOL
REMARK 927      BINDING AFFINITY PREDICTED BY RF-SCORE:    0.00 PKD
ROOT
HETATM    1  O   UNL     1      -6.260  19.323  71.912  1.00  0.00     0.273 OA 
HETATM    2  H   UNL     1      -6.767  19.384  71.111  1.00  0.00     0.000 HD 
HETATM    3  C   UNL     1      -6.081  18.032  72.371  1.00  0.00     2.623 A  
HETATM    4  C   UNL     1      -5.316  17.940  73.580  1.00  0.00     8.116 A  
HETATM    5  C   UNL     1      -5.146  16.659  74.046  1.00  0.00     8.981 A  
HETATM    6  C   UNL     1      -5.731  15.547  73.341  1.00  0.00     1.388 A  
HETATM    7  C   UNL     1      -6.512  15.553  72.096  1.00  0.00     2.350 A  
HETATM    8  C   UNL     1      -6.633  16.875  71.638  1.00  0.00     3.979 A  
ENDROOT
BRANCH   7   9
HETATM    9  C   UNL     1      -7.075  14.076  71.421  1.00  0.00     2.525 C  
HETATM   10  C   UNL     1      -8.179  14.569  70.790  1.00  0.00     2.565 C  
HETATM   11  C   UNL     1      -9.615  14.449  71.224  1.00  0.00     4.131 C  
HETATM   12  C   UNL     1     -10.100  13.860  69.930  1.00  0.00     1.025 C  
HETATM   13  C   UNL     1      -9.275  14.743  68.986  1.00  0.00    -0.145 C  
HETATM   14  N   UNL     1      -8.176  15.180  69.540  1.00  0.00    -0.207 NA 
HETATM   15  C   UNL     1      -9.465  14.649  67.510  1.00  0.00    -0.198 C  
HETATM   16  H   UNL     1      -8.270  11.079  70.823  1.00  0.00     0.000 HD 
HETATM   17  C   UNL     1      -8.883  13.515  67.047  1.00  0.00    -0.211 A  
HETATM   18  N   UNL     1      -8.762  12.835  65.839  1.00  0.00    -0.097 NA 
HETATM   19  N   UNL     1      -7.273  11.178  70.630  1.00  0.00     0.786 NA 
HETATM   20  H   UNL     1      -9.228  13.096  64.970  1.00  0.00     0.000 HD 
HETATM   21  C   UNL     1      -7.909  11.745  65.994  1.00  0.00     0.429 A  
HETATM   22  C   UNL     1      -6.500  12.540  70.938  1.00  0.00     1.405 A  
HETATM   23  C   UNL     1      -7.740  10.565  65.384  1.00  0.00    -0.106 C  
HETATM   24  C   UNL     1      -7.273  11.956  67.266  1.00  0.00    -0.147 A  
HETATM   25  C   UNL     1      -5.221  12.061  70.619  1.00  0.00    -0.136 A  
HETATM   26  C   UNL     1      -5.191  10.653  70.114  1.00  0.00    -0.044 A  
HETATM   27  C   UNL     1      -6.441  10.001  70.021  1.00  0.00    -0.092 A  
HETATM   28  C   UNL     1      -5.420   9.877  66.229  1.00  0.00    -0.045 A  
HETATM   29  C   UNL     1      -6.855   9.604  66.082  1.00  0.00    -0.091 A  
HETATM   30  C   UNL     1      -7.963  12.829  67.912  1.00  0.00    -0.158 A  
HETATM   31  C   UNL     1      -5.155   9.123  67.297  1.00  0.00    -0.036 A  
HETATM   32  C   UNL     1      -6.875   8.631  69.115  1.00  0.00    -0.055 C  
HETATM   33  H   UNL     1      -8.186   8.127  66.726  1.00  0.00     0.000 HD 
HETATM   34  N   UNL     1      -7.321   8.657  66.839  1.00  0.00    -0.079 NA 
HETATM   35  C   UNL     1      -6.363   8.536  67.844  1.00  0.00    -0.057 A  
BRANCH  15  36
HETATM   36  C   UNL     1      -9.722  15.761  66.599  1.00  0.00    -0.266 A  
HETATM   37  C   UNL     1     -10.778  15.661  65.669  1.00  0.00    -0.376 A  
HETATM   38  C   UNL     1      -9.063  16.975  66.752  1.00  0.00    -0.266 A  
HETATM   39  C   UNL     1      -9.630  18.106  66.175  1.00  0.00    -0.170 A  
HETATM   40  C   UNL     1     -10.724  18.035  65.318  1.00  0.00     0.334 A  
HETATM   41  H   UNL     1      -9.590  20.112  66.177  1.00  0.00     0.000 HD 
HETATM   42  O   UNL     1      -9.203  19.339  66.571  1.00  0.00    -0.322 OA 
HETATM   43  C   UNL     1     -11.273  16.792  65.021  1.00  0.00     0.032 A  
ENDBRANCH  15  36
BRANCH  23  44
HETATM   44  C   UNL     1      -8.595  10.147  64.309  1.00  0.00    -0.200 A  
HETATM   45  C   UNL     1      -9.119   8.726  62.444  1.00  0.00     0.219 A  
HETATM   46  C   UNL     1     -10.710  10.348  63.236  1.00  0.00     1.135 A  
HETATM   47  C   UNL     1      -8.236   9.123  63.431  1.00  0.00    -0.178 A  
HETATM   48  H   UNL     1     -12.561  10.630  62.521  1.00  0.00     0.000 HD 
HETATM   49  O   UNL     1     -11.954  10.919  63.192  1.00  0.00     0.815 OA 
HETATM   50  C   UNL     1     -10.372   9.343  62.344  1.00  0.00     2.930 A  
HETATM   51  C   UNL     1      -9.826  10.771  64.216  1.00  0.00    -0.384 A  
ENDBRANCH  23  44
BRANCH  32  52
HETATM   52  C   UNL     1      -7.453   6.995  69.205  1.00  0.00    -0.094 A  
HETATM   53  O   UNL     1     -10.658   5.058  70.141  1.00  0.00    -0.236 OA 
HETATM   54  C   UNL     1      -8.963   4.402  68.727  1.00  0.00    -0.152 A  
HETATM   55  H   UNL     1     -11.117   4.239  69.999  1.00  0.00     0.000 HD 
HETATM   56  C   UNL     1      -7.795   4.715  68.044  1.00  0.00    -0.081 A  
HETATM   57  C   UNL     1      -8.737   6.634  69.799  1.00  0.00    -0.140 A  
HETATM   58  C   UNL     1      -7.078   5.971  68.259  1.00  0.00    -0.082 A  
HETATM   59  C   UNL     1      -9.441   5.377  69.581  1.00  0.00    -0.144 A  
ENDBRANCH  32  52
ENDBRANCH   7   9
TORSDOF 4
ENDMDL
MODEL        9
REMARK 921   NORMALIZED FREE ENERGY PREDICTED BY IDOCK:   59.82 KCAL/MOL
REMARK 922        TOTAL FREE ENERGY PREDICTED BY IDOCK:   72.94 KCAL/MOL
REMARK 923 INTER-LIGAND FREE ENERGY PREDICTED BY IDOCK:   74.24 KCAL/MOL
REMARK 924 INTRA-LIGAND FREE ENERGY PREDICTED BY IDOCK:   -1.31 KCAL/MOL
REMARK 927      BINDING AFFINITY PREDICTED BY RF-SCORE:    0.00 PKD
ROOT
HETATM    1  O   UNL     1      -6.291  17.625  71.719  1.00  0.00     2.285 OA 
HETATM    2  H   UNL     1      -6.796  17.670  70.916  1.00  0.00     0.000 HD 
HETATM    3  C   UNL     1      -6.151  16.350  72.230  1.00  0.00     2.630 A  
HETATM    4  C   UNL     1      -5.387  16.284  73.441  1.00  0.00     3.254 A  
HETATM    5  C   UNL     1      -5.255  15.018  73.959  1.00  0.00     1.460 A  
HETATM    6  C   UNL     1      -5.874  13.897  73.299  1.00  0.00     0.249 A  
HETATM    7  C   UNL     1      -6.657  13.876  72.055  1.00  0.00     1.995 A  
HETATM    8  C   UNL     1      -6.738  15.181  71.544  1.00  0.00     1.421 A  
ENDROOT
BRANCH   7   9
HETATM    9  C   UNL     1      -7.265  12.391  71.441  1.00  0.00     6.261 C  
HETATM   10  C   UNL     1      -8.389  12.882  70.845  1.00  0.00     8.507 C  
HETATM   11  C   UNL     1      -9.807  12.791  71.341  1.00  0.00    11.593 C  
HETATM   12  C   UNL     1     -10.353  12.177  70.084  1.00  0.00     2.049 C  
HETATM   13  C   UNL     1      -9.557  13.027  69.084  1.00  0.00     0.566 C  
HETATM   14  N   UNL     1      -8.432  13.463  69.581  1.00  0.00     1.312 NA 
HETATM   15  C   UNL     1      -9.811  12.901  67.621  1.00  0.00    -0.211 C  
HETATM   16  H   UNL     1      -8.520   9.396  70.967  1.00  0.00     0.000 HD 
HETATM   17  C   UNL     1      -9.262  11.748  67.161  1.00  0.00    -0.179 A  
HETATM   18  N   UNL     1      -9.201  11.038  65.967  1.00  0.00    -0.187 NA 
HETATM   19  N   UNL     1      -7.531   9.477  70.731  1.00  0.00    -0.265 NA 
HETATM   20  H   UNL     1      -9.700  11.284  65.112  1.00  0.00     0.000 HD 
HETATM   21  C   UNL     1      -8.355   9.941  66.112  1.00  0.00    -0.122 A  
HETATM   22  C   UNL     1      -6.729  10.836  70.972  1.00  0.00     1.041 A  
HETATM   23  C   UNL     1      -8.226   8.744  65.525  1.00  0.00    -0.133 C  
HETATM   24  C   UNL     1      -7.664  10.174  67.352  1.00  0.00    -0.095 A  
HETATM   25  C   UNL     1      -5.471  10.333  70.612  1.00  0.00    -0.076 A  
HETATM   26  C   UNL     1      -5.478   8.913  70.140  1.00  0.00    -0.027 A  
HETATM   27  C   UNL     1      -6.739   8.275  70.116  1.00  0.00    -0.036 A  
HETATM   28  C   UNL     1      -5.881   8.047  66.289  1.00  0.00    -0.041 A  
HETATM   29  C   UNL     1      -7.324   7.789  66.208  1.00  0.00    -0.079 A  
HETATM   30  C   UNL     1      -8.315  11.071  68.004  1.00  0.00    -0.125 A  
HETATM   31  C   UNL     1      -5.580   7.316  67.363  1.00  0.00    -0.029 A  
HETATM   32  C   UNL     1      -7.228   6.890  69.263  1.00  0.00    -0.090 C  
HETATM   33  H   UNL     1      -8.644   6.345  66.943  1.00  0.00     0.000 HD 
HETATM   34  N   UNL     1      -7.769   6.867  67.008  1.00  0.00    -0.102 NA 
HETATM   35  C   UNL     1      -6.770   6.758  67.974  1.00  0.00    -0.068 A  
BRANCH  15  36
HETATM   36  C   UNL     1     -10.093  13.993  66.694  1.00  0.00    -0.276 A  
HETATM   37  C   UNL     1      -9.035  14.558  65.952  1.00  0.00     0.346 A  
HETATM   38  C   UNL     1     -11.400  14.361  66.402  1.00  0.00    -0.351 A  
HETATM   39  C   UNL     1     -11.636  15.071  65.229  1.00  0.00    -0.258 A  
HETATM   40  C   UNL     1     -10.603  15.567  64.441  1.00  0.00     0.423 A  
HETATM   41  H   UNL     1     -13.071  15.646  63.951  1.00  0.00     0.000 HD 
HETATM   42  O   UNL     1     -12.910  15.160  64.752  1.00  0.00    -0.128 OA 
HETATM   43  C   UNL     1      -9.286  15.352  64.833  1.00  0.00     1.437 A  
ENDBRANCH  15  36
BRANCH  23  44
HETATM   44  C   UNL     1      -9.131   8.312  64.497  1.00  0.00     0.643 A  
HETATM   45  C   UNL     1     -10.286   8.634  62.415  1.00  0.00     4.427 A  
HETATM   46  C   UNL     1     -10.452   6.547  63.602  1.00  0.00     7.711 A  
HETATM   47  C   UNL     1      -9.449   9.119  63.403  1.00  0.00     0.941 A  
HETATM   48  H   UNL     1     -11.451   4.920  62.992  1.00  0.00     0.000 HD 
HETATM   49  O   UNL     1     -10.889   5.251  63.682  1.00  0.00     1.917 OA 
HETATM   50  C   UNL     1     -10.794   7.332  62.512  1.00  0.00    10.070 A  
HETATM   51  C   UNL     1      -9.632   7.029  64.610  1.00  0.00     2.348 A  
ENDBRANCH  23  44
BRANCH  32  52
HETATM   52  C   UNL     1      -7.820   5.263  69.417  1.00  0.00    -0.088 A  
HETATM   53  O   UNL     1     -10.883   3.145  68.404  1.00  0.00     2.772 OA 
HETATM   54  C   UNL     1      -8.739   2.426  68.842  1.00  0.00    -0.130 A  
HETATM   55  H   UNL     1     -11.168   2.254  68.240  1.00  0.00     0.000 HD 
HETATM   56  C   UNL     1      -7.412   2.734  69.104  1.00  0.00    -0.044 A  
HETATM   57  C   UNL     1      -9.171   4.866  69.030  1.00  0.00    -0.165 A  
HETATM   58  C   UNL     1      -6.965   4.102  69.362  1.00  0.00    -0.046 A  
HETATM   59  C   UNL     1      -9.607   3.499  68.780  1.00  0.00    -0.067 A  
ENDBRANCH  32  52
ENDBRANCH   7   9
TORSDOF 4
ENDMDL
MODEL       10
REMARK 921   NORMALIZED FREE ENERGY PREDICTED BY IDOCK:   69.19 KCAL/MOL
REMARK 922        TOTAL FREE ENERGY PREDICTED BY IDOCK:   84.51 KCAL/MOL
REMARK 923 INTER-LIGAND FREE ENERGY PREDICTED BY IDOCK:   85.75 KCAL/MOL
REMARK 924 INTRA-LIGAND FREE ENERGY PREDICTED BY IDOCK:   -1.24 KCAL/MOL
REMARK 927      BINDING AFFINITY PREDICTED BY RF-SCORE:    0.00 PKD
ROOT
HETATM    1  O   UNL     1      -9.445  18.399  65.365  1.00  0.00     0.157 OA 
HETATM    2  H   UNL     1      -9.782  18.317  66.249  1.00  0.00     0.000 HD 
HETATM    3  C   UNL     1      -8.903  17.235  64.855  1.00  0.00     3.955 A  
HETATM    4  C   UNL     1      -8.395  17.359  63.521  1.00  0.00    17.890 A  
HETATM    5  C   UNL     1      -7.845  16.206  63.015  1.00  0.00    26.478 A  
HETATM    6  C   UNL     1      -7.796  15.012  63.819  1.00  0.00    19.106 A  
HETATM    7  C   UNL     1      -8.303  14.798  65.182  1.00  0.00     4.803 A  
HETATM    8  C   UNL     1      -8.885  15.988  65.647  1.00  0.00     0.276 A  
ENDROOT
BRANCH   7   9
HETATM    9  C   UNL     1      -8.161  13.254  65.924  1.00  0.00     1.892 C  
HETATM   10  C   UNL     1      -8.255  13.662  67.222  1.00  0.00    -0.152 C  
HETATM   11  C   UNL     1      -7.142  13.798  68.225  1.00  0.00    -0.109 C  
HETATM   12  C   UNL     1      -7.791  12.933  69.269  1.00  0.00     0.538 C  
HETATM   13  C   UNL     1      -9.224  13.452  69.094  1.00  0.00     0.582 C  
HETATM   14  N   UNL     1      -9.447  13.915  67.894  1.00  0.00    -0.205 NA 
HETATM   15  C   UNL     1     -10.308  12.986  70.005  1.00  0.00     1.742 C  
HETATM   16  H   UNL     1      -7.217  10.332  67.081  1.00  0.00     0.000 HD 
HETATM   17  C   UNL     1     -10.667  11.719  69.677  1.00  0.00     0.215 A  
HETATM   18  N   UNL     1     -11.527  10.734  70.151  1.00  0.00    -0.312 NA 
HETATM   19  N   UNL     1      -7.905  10.282  66.330  1.00  0.00    -0.114 NA 
HETATM   20  H   UNL     1     -12.074  10.796  71.010  1.00  0.00     0.000 HD 
HETATM   21  C   UNL     1     -11.530   9.649  69.277  1.00  0.00     0.136 A  
HETATM   22  C   UNL     1      -8.421  11.598  65.589  1.00  0.00     0.290 A  
HETATM   23  C   UNL     1     -11.787   8.339  69.376  1.00  0.00     1.201 C  
HETATM   24  C   UNL     1     -10.870  10.131  68.094  1.00  0.00    -0.310 A  
HETATM   25  C   UNL     1      -9.196  10.932  64.627  1.00  0.00    -0.223 A  
HETATM   26  C   UNL     1      -9.235   9.445  64.778  1.00  0.00    -0.220 A  
HETATM   27  C   UNL     1      -8.498   8.912  65.860  1.00  0.00    -0.136 A  
HETATM   28  C   UNL     1     -12.079   7.686  66.914  1.00  0.00     5.069 A  
HETATM   29  C   UNL     1     -11.398   7.520  68.205  1.00  0.00     0.635 A  
HETATM   30  C   UNL     1     -10.235  11.206  68.406  1.00  0.00    -0.200 A  
HETATM   31  C   UNL     1     -11.131   7.223  66.098  1.00  0.00     2.093 A  
HETATM   32  C   UNL     1      -8.640   7.398  66.616  1.00  0.00    -0.128 C  
HETATM   33  H   UNL     1      -9.791   6.400  68.931  1.00  0.00     0.000 HD 
HETATM   34  N   UNL     1     -10.282   6.858  68.163  1.00  0.00    -0.167 NA 
HETATM   35  C   UNL     1      -9.912   6.919  66.820  1.00  0.00    -0.182 A  
BRANCH  15  36
HETATM   36  C   UNL     1     -11.231  13.833  70.755  1.00  0.00     0.778 A  
HETATM   37  C   UNL     1     -11.698  15.030  70.172  1.00  0.00    -0.340 A  
HETATM   38  C   UNL     1     -11.791  13.395  71.949  1.00  0.00     1.373 A  
HETATM   39  C   UNL     1     -12.958  14.010  72.390  1.00  0.00    -0.381 A  
HETATM   40  C   UNL     1     -13.478  15.145  71.777  1.00  0.00    -0.529 A  
HETATM   41  H   UNL     1     -14.500  13.823  73.660  1.00  0.00     0.000 HD 
HETATM   42  O   UNL     1     -13.703  13.403  73.358  1.00  0.00     0.360 OA 
HETATM   43  C   UNL     1     -12.812  15.692  70.686  1.00  0.00    -0.400 A  
ENDBRANCH  15  36
BRANCH  23  44
HETATM   44  C   UNL     1     -12.118   7.732  70.635  1.00  0.00    -0.030 A  
HETATM   45  C   UNL     1     -13.589   7.391  72.503  1.00  0.00     0.429 A  
HETATM   46  C   UNL     1     -11.560   6.115  72.288  1.00  0.00    -0.313 A  
HETATM   47  C   UNL     1     -13.294   8.043  71.320  1.00  0.00    -0.177 A  
HETATM   48  H   UNL     1     -10.943   4.666  73.527  1.00  0.00     0.000 HD 
HETATM   49  O   UNL     1     -10.725   5.119  72.721  1.00  0.00    -0.214 OA 
HETATM   50  C   UNL     1     -12.714   6.415  72.995  1.00  0.00     1.351 A  
HETATM   51  C   UNL     1     -11.242   6.776  71.113  1.00  0.00    -0.327 A  
ENDBRANCH  23  44
BRANCH  32  52
HETATM   52  C   UNL     1      -7.822   5.906  66.970  1.00  0.00    -0.102 A  
HETATM   53  O   UNL     1      -5.180   4.515  69.417  1.00  0.00    -0.003 OA 
HETATM   54  C   UNL     1      -6.841   3.363  68.312  1.00  0.00    -0.049 A  
HETATM   55  H   UNL     1      -4.869   3.714  69.821  1.00  0.00     0.000 HD 
HETATM   56  C   UNL     1      -7.975   3.387  67.512  1.00  0.00    -0.081 A  
HETATM   57  C   UNL     1      -6.705   5.812  67.907  1.00  0.00    -0.058 A  
HETATM   58  C   UNL     1      -8.459   4.614  66.882  1.00  0.00    -0.105 A  
HETATM   59  C   UNL     1      -6.228   4.583  68.527  1.00  0.00    -0.032 A  
ENDBRANCH  32  52
ENDBRANCH   7   9
TORSDOF 4
ENDMDL
MODEL       11
REMARK 921   NORMALIZED FREE ENERGY PREDICTED BY IDOCK:   80.20 KCAL/MOL
REMARK 922        TOTAL FREE ENERGY PREDICTED BY IDOCK:   98.09 KCAL/MOL
REMARK 923 INTER-LIGAND FREE ENERGY PREDICTED BY IDOCK:   99.66 KCAL/MOL
REMARK 924 INTRA-LIGAND FREE ENERGY PREDICTED BY IDOCK:   -1.57 KCAL/MOL
REMARK 927      BINDING AFFINITY PREDICTED BY RF-SCORE:    0.00 PKD
ROOT
HETATM    1  O   UNL     1      -9.420  18.378  65.320  1.00  0.00     0.482 OA 
HETATM    2  H   UNL     1      -9.638  18.248  66.235  1.00  0.00     0.000 HD 
HETATM    3  C   UNL     1      -9.020  17.231  64.664  1.00  0.00     5.470 A  
HETATM    4  C   UNL     1      -8.691  17.427  63.283  1.00  0.00    21.075 A  
HETATM    5  C   UNL     1      -8.281  16.290  62.631  1.00  0.00    28.581 A  
HETATM    6  C   UNL     1      -8.194  15.039  63.340  1.00  0.00    19.943 A  
HETATM    7  C   UNL     1      -8.523  14.749  64.743  1.00  0.00     6.263 A  
HETATM    8  C   UNL     1      -8.967  15.929  65.361  1.00  0.00     0.801 A  
ENDROOT
BRANCH   7   9
HETATM    9  C   UNL     1      -8.372  13.151  65.354  1.00  0.00     2.804 C  
HETATM   10  C   UNL     1      -7.268  13.351  66.129  1.00  0.00     3.398 C  
HETATM   11  C   UNL     1      -5.851  12.939  65.833  1.00  0.00     4.626 C  
HETATM   12  C   UNL     1      -5.655  12.188  67.120  1.00  0.00    -0.115 C  
HETATM   13  C   UNL     1      -6.374  13.182  68.042  1.00  0.00    -0.127 C  
HETATM   14  N   UNL     1      -7.282  13.880  67.416  1.00  0.00    -0.153 NA 
HETATM   15  C   UNL     1      -6.378  12.969  69.517  1.00  0.00    -0.103 C  
HETATM   16  H   UNL     1      -7.926   9.935  65.836  1.00  0.00     0.000 HD 
HETATM   17  C   UNL     1      -7.240  11.969  69.831  1.00  0.00     0.763 A  
HETATM   18  N   UNL     1      -7.642  11.270  70.965  1.00  0.00     2.604 NA 
HETATM   19  N   UNL     1      -8.893  10.243  65.935  1.00  0.00    -0.153 NA 
HETATM   20  H   UNL     1      -7.233  11.374  71.893  1.00  0.00     0.000 HD 
HETATM   21  C   UNL     1      -8.686  10.406  70.642  1.00  0.00     1.589 A  
HETATM   22  C   UNL     1      -9.315  11.757  65.657  1.00  0.00    -0.152 A  
HETATM   23  C   UNL     1      -9.172   9.262  71.139  1.00  0.00    -0.225 C  
HETATM   24  C   UNL     1      -9.111  10.820  69.332  1.00  0.00     0.018 A  
HETATM   25  C   UNL     1     -10.695  11.557  65.809  1.00  0.00    -0.325 A  
HETATM   26  C   UNL     1     -11.085  10.167  66.199  1.00  0.00     0.440 A  
HETATM   27  C   UNL     1     -10.023   9.249  66.365  1.00  0.00    -0.286 A  
HETATM   28  C   UNL     1     -11.474   9.153  70.015  1.00  0.00    -0.034 A  
HETATM   29  C   UNL     1     -10.157   8.560  70.284  1.00  0.00    -0.186 A  
HETATM   30  C   UNL     1      -8.181  11.552  68.828  1.00  0.00    -0.082 A  
HETATM   31  C   UNL     1     -11.771   8.534  68.871  1.00  0.00     1.432 A  
HETATM   32  C   UNL     1     -10.000   7.771  67.202  1.00  0.00    -0.298 C  
HETATM   33  H   UNL     1      -9.111   6.861  69.664  1.00  0.00     0.000 HD 
HETATM   34  N   UNL     1      -9.822   7.576  69.506  1.00  0.00    -0.168 NA 
HETATM   35  C   UNL     1     -10.663   7.724  68.404  1.00  0.00    -0.036 A  
BRANCH  15  36
HETATM   36  C   UNL     1      -5.995  13.945  70.533  1.00  0.00    -0.172 A  
HETATM   37  C   UNL     1      -6.313  15.306  70.337  1.00  0.00    -0.001 A  
HETATM   38  C   UNL     1      -5.486  13.536  71.759  1.00  0.00    -0.141 A  
HETATM   39  C   UNL     1      -5.549  14.427  72.826  1.00  0.00    -0.009 A  
HETATM   40  C   UNL     1      -5.938  15.752  72.665  1.00  0.00     1.765 A  
HETATM   41  H   UNL     1      -5.411  14.566  74.822  1.00  0.00     0.000 HD 
HETATM   42  O   UNL     1      -5.369  13.958  74.093  1.00  0.00    -0.329 OA 
HETATM   43  C   UNL     1      -6.276  16.211  71.397  1.00  0.00     1.595 A  
ENDBRANCH  15  36
BRANCH  23  44
HETATM   44  C   UNL     1      -8.556   8.608  72.259  1.00  0.00    -0.175 A  
HETATM   45  C   UNL     1      -8.662   7.346  74.300  1.00  0.00    -0.264 A  
HETATM   46  C   UNL     1      -6.542   7.866  73.286  1.00  0.00    -0.083 A  
HETATM   47  C   UNL     1      -9.306   8.007  73.271  1.00  0.00    -0.344 A  
HETATM   48  H   UNL     1      -4.744   7.281  73.950  1.00  0.00     0.000 HD 
HETATM   49  O   UNL     1      -5.178   7.750  73.247  1.00  0.00    -0.040 OA 
HETATM   50  C   UNL     1      -7.264   7.272  74.310  1.00  0.00    -0.113 A  
HETATM   51  C   UNL     1      -7.175   8.550  72.260  1.00  0.00    -0.089 A  
ENDBRANCH  23  44
BRANCH  32  52
HETATM   52  C   UNL     1      -9.781   6.054  67.043  1.00  0.00    -0.159 A  
HETATM   53  O   UNL     1      -6.930   3.476  66.688  1.00  0.00    -0.053 OA 
HETATM   54  C   UNL     1      -9.046   3.148  67.538  1.00  0.00    -0.210 A  
HETATM   55  H   UNL     1      -6.712   2.563  66.831  1.00  0.00     0.000 HD 
HETATM   56  C   UNL     1     -10.261   3.683  67.944  1.00  0.00     0.807 A  
HETATM   57  C   UNL     1      -8.491   5.438  66.746  1.00  0.00    -0.107 A  
HETATM   58  C   UNL     1     -10.608   5.085  67.724  1.00  0.00     0.032 A  
HETATM   59  C   UNL     1      -8.157   4.037  66.965  1.00  0.00    -0.096 A  
ENDBRANCH  32  52
ENDBRANCH   7   9
TORSDOF 4
ENDMDL
