MODEL        1
REMARK 921   NORMALIZED FREE ENERGY PREDICTED BY IDOCK:   -8.08 KCAL/MOL
REMARK 922        TOTAL FREE ENERGY PREDICTED BY IDOCK:  -12.94 KCAL/MOL
REMARK 923 INTER-LIGAND FREE ENERGY PREDICTED BY IDOCK:  -10.92 KCAL/MOL
REMARK 924 INTRA-LIGAND FREE ENERGY PREDICTED BY IDOCK:   -2.02 KCAL/MOL
REMARK 927      BINDING AFFINITY PREDICTED BY RF-SCORE:    0.00 PKD
ROOT
HETATM    1  C   UNL     1     -11.951   9.969  71.217  1.00  0.00    -0.483 C  
HETATM    2  C   UNL     1     -13.227  10.449  71.850  1.00  0.00    -0.429 C  
HETATM    3  O   UNL     1     -13.769   9.272  72.486  1.00  0.00    -0.467 OA 
HETATM    4  C   UNL     1     -13.328   8.153  71.814  1.00  0.00    -0.345 C  
HETATM    5  C   UNL     1     -12.383   8.586  70.722  1.00  0.00     0.047 C  
HETATM    6  O   UNL     1     -13.734   7.027  72.035  1.00  0.00    -0.222 OA 
HETATM    7  C   UNL     1     -11.176   7.702  70.395  1.00  0.00    -0.258 C  
HETATM    8  C   UNL     1     -10.140   8.518  69.601  1.00  0.00    -0.202 A  
HETATM    9  C   UNL     1     -10.209   9.953  69.464  1.00  0.00    -0.243 A  
HETATM   10  C   UNL     1      -9.063   7.809  69.032  1.00  0.00    -0.144 A  
HETATM   11  C   UNL     1      -6.220   9.201  67.520  1.00  0.00    -0.058 C  
HETATM   12  C   UNL     1      -8.065   8.522  68.408  1.00  0.00    -0.122 A  
HETATM   13  C   UNL     1      -9.167  10.625  68.798  1.00  0.00    -0.182 A  
HETATM   14  C   UNL     1      -8.114   9.888  68.299  1.00  0.00    -0.104 A  
HETATM   15  C   UNL     1     -11.315  10.809  70.099  1.00  0.00    -0.309 C  
HETATM   16  O   UNL     1      -6.930   7.998  67.873  1.00  0.00    -0.074 OA 
HETATM   17  O   UNL     1      -7.010  10.399  67.688  1.00  0.00    -0.081 OA 
ENDROOT
BRANCH   7  18
HETATM   18  C   UNL     1     -10.600   6.983  71.630  1.00  0.00    -0.226 A  
HETATM   19  O   UNL     1      -8.170   5.005  74.399  1.00  0.00    -0.102 OA 
HETATM   20  C   UNL     1      -9.017   5.704  73.579  1.00  0.00    -0.125 A  
HETATM   21  C   UNL     1      -9.111   7.098  73.592  1.00  0.00    -0.188 A  
HETATM   22  C   UNL     1     -10.601   5.591  71.739  1.00  0.00    -0.296 A  
HETATM   23  H   UNL     1      -8.106   4.057  74.390  1.00  0.00     0.000 HD 
HETATM   24  C   UNL     1      -9.911   7.718  72.615  1.00  0.00    -0.298 A  
HETATM   25  C   UNL     1      -9.799   4.945  72.686  1.00  0.00    -0.160 A  
BRANCH  21  26
HETATM   26  O   UNL     1      -8.505   8.004  74.416  1.00  0.00    -0.240 OA 
HETATM   27  C   UNL     1      -7.150   8.373  74.215  1.00  0.00    -0.157 C  
ENDBRANCH  21  26
BRANCH  25  28
HETATM   28  O   UNL     1      -9.663   3.580  72.750  1.00  0.00    -0.124 OA 
HETATM   29  C   UNL     1      -9.299   2.923  71.542  1.00  0.00    -0.130 C  
ENDBRANCH  25  28
ENDBRANCH   7  18
BRANCH  15  30
HETATM   30  O   UNL     1     -12.347  11.213  69.207  1.00  0.00    -0.381 OA 
BRANCH  30  31
HETATM   31  C   UNL     1     -12.382  12.540  68.633  1.00  0.00     0.322 C  
HETATM   32  O   UNL     1     -11.575  12.700  67.443  1.00  0.00    -0.319 OA 
HETATM   33  C   UNL     1     -11.441  14.095  67.074  1.00  0.00    -0.352 C  
HETATM   34  C   UNL     1     -10.789  14.347  65.706  1.00  0.00    -0.307 C  
HETATM   35  O   UNL     1     -10.566  15.757  65.493  1.00  0.00    -0.360 OA 
HETATM   36  C   UNL     1      -9.711  16.294  66.504  1.00  0.00    -0.263 C  
HETATM   37  H   UNL     1     -12.707  14.184  71.463  1.00  0.00     0.000 HD 
HETATM   38  O   UNL     1     -10.317  16.160  67.781  1.00  0.00    -0.267 OA 
HETATM   39  C   UNL     1     -10.581  14.800  68.116  1.00  0.00    -0.241 C  
HETATM   40  H   UNL     1     -10.989  15.361  71.265  1.00  0.00     0.000 HD 
HETATM   41  O   UNL     1     -12.995  13.629  70.747  1.00  0.00    -0.242 OA 
HETATM   42  C   UNL     1     -11.360  14.829  69.419  1.00  0.00    -0.285 C  
HETATM   43  C   UNL     1     -11.907  13.454  69.813  1.00  0.00    -0.326 C  
HETATM   44  O   UNL     1     -10.502  15.343  70.450  1.00  0.00    -0.294 OA 
BRANCH  36  45
HETATM   45  C   UNL     1      -9.560  17.784  66.316  1.00  0.00    -0.243 A  
HETATM   46  S   UNL     1      -8.010  18.503  66.552  1.00  0.00    -0.277 SA 
HETATM   47  C   UNL     1      -9.980  20.081  66.109  1.00  0.00    -0.580 A  
HETATM   48  C   UNL     1     -10.514  18.757  66.065  1.00  0.00    -0.483 A  
HETATM   49  C   UNL     1      -8.630  20.088  66.379  1.00  0.00    -0.298 A  
ENDBRANCH  36  45
ENDBRANCH  30  31
ENDBRANCH  15  30
TORSDOF 6
ENDMDL
MODEL        2
REMARK 921   NORMALIZED FREE ENERGY PREDICTED BY IDOCK:   -7.85 KCAL/MOL
REMARK 922        TOTAL FREE ENERGY PREDICTED BY IDOCK:  -12.62 KCAL/MOL
REMARK 923 INTER-LIGAND FREE ENERGY PREDICTED BY IDOCK:  -11.88 KCAL/MOL
REMARK 924 INTRA-LIGAND FREE ENERGY PREDICTED BY IDOCK:   -0.75 KCAL/MOL
REMARK 927      BINDING AFFINITY PREDICTED BY RF-SCORE:    0.00 PKD
ROOT
HETATM    1  C   UNL     1      -9.992  16.255  65.838  1.00  0.00    -0.366 C  
HETATM    2  C   UNL     1     -11.060  16.693  64.876  1.00  0.00    -0.129 C  
HETATM    3  O   UNL     1     -11.014  18.134  64.930  1.00  0.00    -0.718 OA 
HETATM    4  C   UNL     1     -10.538  18.523  66.163  1.00  0.00    -0.338 C  
HETATM    5  C   UNL     1     -10.171  17.292  66.951  1.00  0.00    -0.322 C  
HETATM    6  O   UNL     1     -10.522  19.678  66.550  1.00  0.00    -0.436 OA 
HETATM    7  C   UNL     1      -8.952  17.341  67.877  1.00  0.00    -0.235 C  
HETATM    8  C   UNL     1      -8.508  15.907  68.220  1.00  0.00    -0.170 A  
HETATM    9  C   UNL     1      -9.007  14.744  67.528  1.00  0.00    -0.192 A  
HETATM   10  C   UNL     1      -7.534  15.761  69.230  1.00  0.00    -0.220 A  
HETATM   11  C   UNL     1      -5.860  12.802  70.093  1.00  0.00    -0.155 C  
HETATM   12  C   UNL     1      -7.039  14.502  69.485  1.00  0.00    -0.125 A  
HETATM   13  C   UNL     1      -8.474  13.480  67.847  1.00  0.00    -0.179 A  
HETATM   14  C   UNL     1      -7.492  13.398  68.810  1.00  0.00    -0.061 A  
HETATM   15  C   UNL     1     -10.024  14.817  66.379  1.00  0.00    -0.277 C  
HETATM   16  O   UNL     1      -6.053  14.202  70.371  1.00  0.00    -0.158 OA 
HETATM   17  O   UNL     1      -6.841  12.261  69.182  1.00  0.00    -0.102 OA 
ENDROOT
BRANCH   7  18
HETATM   18  C   UNL     1      -7.822  18.240  67.341  1.00  0.00    -0.229 A  
HETATM   19  O   UNL     1      -5.550  21.322  65.659  1.00  0.00    -0.228 OA 
HETATM   20  C   UNL     1      -6.208  20.294  66.281  1.00  0.00    -0.191 A  
HETATM   21  C   UNL     1      -6.458  20.270  67.656  1.00  0.00    -0.244 A  
HETATM   22  C   UNL     1      -7.431  18.212  66.001  1.00  0.00    -0.264 A  
HETATM   23  H   UNL     1      -5.380  21.338  64.725  1.00  0.00     0.000 HD 
HETATM   24  C   UNL     1      -7.259  19.233  68.167  1.00  0.00    -0.304 A  
HETATM   25  C   UNL     1      -6.652  19.239  65.458  1.00  0.00    -0.270 A  
BRANCH  21  26
HETATM   26  O   UNL     1      -6.057  21.142  68.629  1.00  0.00    -0.278 OA 
HETATM   27  C   UNL     1      -5.439  20.668  69.815  1.00  0.00    -0.359 C  
ENDBRANCH  21  26
BRANCH  25  28
HETATM   28  O   UNL     1      -6.349  19.328  64.121  1.00  0.00    -0.398 OA 
HETATM   29  C   UNL     1      -5.130  18.725  63.707  1.00  0.00    -0.152 C  
ENDBRANCH  25  28
ENDBRANCH   7  18
BRANCH  15  30
HETATM   30  O   UNL     1     -11.364  14.511  66.744  1.00  0.00    -0.332 OA 
BRANCH  30  31
HETATM   31  C   UNL     1     -11.760  13.177  67.139  1.00  0.00    -0.377 C  
HETATM   32  O   UNL     1     -11.541  12.874  68.536  1.00  0.00    -0.279 OA 
HETATM   33  C   UNL     1     -11.705  11.460  68.807  1.00  0.00    -0.339 C  
HETATM   34  C   UNL     1     -11.709  11.079  70.295  1.00  0.00    -0.355 C  
HETATM   35  O   UNL     1     -11.730   9.645  70.460  1.00  0.00    -0.263 OA 
HETATM   36  C   UNL     1     -10.587   9.047  69.845  1.00  0.00    -0.228 C  
HETATM   37  H   UNL     1     -11.033  11.695  64.294  1.00  0.00     0.000 HD 
HETATM   38  O   UNL     1     -10.591   9.302  68.448  1.00  0.00    -0.218 OA 
HETATM   39  C   UNL     1     -10.561  10.696  68.152  1.00  0.00    -0.202 C  
HETATM   40  H   UNL     1      -9.674  10.311  65.076  1.00  0.00     0.000 HD 
HETATM   41  O   UNL     1     -11.538  12.253  64.874  1.00  0.00    -0.330 OA 
HETATM   42  C   UNL     1     -10.727  10.812  66.647  1.00  0.00    -0.207 C  
HETATM   43  C   UNL     1     -10.927  12.257  66.183  1.00  0.00    -0.293 C  
HETATM   44  O   UNL     1      -9.570  10.238  66.017  1.00  0.00    -0.183 OA 
BRANCH  36  45
HETATM   45  C   UNL     1     -10.670   7.544  69.949  1.00  0.00    -0.246 A  
HETATM   46  S   UNL     1     -10.917   6.826  71.498  1.00  0.00    -0.248 SA 
HETATM   47  C   UNL     1     -10.496   5.244  69.527  1.00  0.00    -0.304 A  
HETATM   48  C   UNL     1     -10.480   6.565  68.986  1.00  0.00    -0.252 A  
HETATM   49  C   UNL     1     -10.712   5.242  70.887  1.00  0.00    -0.119 A  
ENDBRANCH  36  45
ENDBRANCH  30  31
ENDBRANCH  15  30
TORSDOF 6
ENDMDL
MODEL        3
REMARK 921   NORMALIZED FREE ENERGY PREDICTED BY IDOCK:   -7.84 KCAL/MOL
REMARK 922        TOTAL FREE ENERGY PREDICTED BY IDOCK:  -12.62 KCAL/MOL
REMARK 923 INTER-LIGAND FREE ENERGY PREDICTED BY IDOCK:  -10.92 KCAL/MOL
REMARK 924 INTRA-LIGAND FREE ENERGY PREDICTED BY IDOCK:   -1.70 KCAL/MOL
REMARK 927      BINDING AFFINITY PREDICTED BY RF-SCORE:    0.00 PKD
ROOT
HETATM    1  C   UNL     1     -10.104  12.722  67.850  1.00  0.00    -0.231 C  
HETATM    2  C   UNL     1      -9.389  11.853  66.854  1.00  0.00    -0.196 C  
HETATM    3  O   UNL     1      -9.095  12.745  65.758  1.00  0.00     0.096 OA 
HETATM    4  C   UNL     1     -10.030  13.757  65.735  1.00  0.00    -0.275 C  
HETATM    5  C   UNL     1     -10.953  13.588  66.915  1.00  0.00    -0.296 C  
HETATM    6  O   UNL     1     -10.120  14.576  64.839  1.00  0.00    -0.378 OA 
HETATM    7  C   UNL     1     -11.480  14.838  67.627  1.00  0.00    -0.363 C  
HETATM    8  C   UNL     1     -12.014  14.451  69.018  1.00  0.00    -0.342 A  
HETATM    9  C   UNL     1     -11.769  13.164  69.622  1.00  0.00    -0.370 A  
HETATM   10  C   UNL     1     -12.731  15.437  69.727  1.00  0.00    -0.034 A  
HETATM   11  C   UNL     1     -13.774  15.249  73.071  1.00  0.00    -0.348 C  
HETATM   12  C   UNL     1     -13.128  15.158  71.015  1.00  0.00    -0.452 A  
HETATM   13  C   UNL     1     -12.218  12.932  70.937  1.00  0.00    -0.290 A  
HETATM   14  C   UNL     1     -12.874  13.945  71.603  1.00  0.00    -0.349 A  
HETATM   15  C   UNL     1     -10.951  12.054  68.945  1.00  0.00    -0.232 C  
HETATM   16  O   UNL     1     -13.762  16.020  71.854  1.00  0.00    -0.273 OA 
HETATM   17  O   UNL     1     -13.310  13.892  72.891  1.00  0.00    -0.604 OA 
ENDROOT
BRANCH   7  18
HETATM   18  C   UNL     1     -10.468  15.999  67.640  1.00  0.00    -0.292 A  
HETATM   19  O   UNL     1      -8.219  19.403  68.557  1.00  0.00    -0.339 OA 
HETATM   20  C   UNL     1      -8.861  18.243  68.214  1.00  0.00    -0.287 A  
HETATM   21  C   UNL     1      -8.452  16.984  68.663  1.00  0.00    -0.262 A  
HETATM   22  C   UNL     1     -10.768  17.244  67.084  1.00  0.00    -0.181 A  
HETATM   23  H   UNL     1      -8.498  20.259  68.253  1.00  0.00     0.000 HD 
HETATM   24  C   UNL     1      -9.263  15.875  68.360  1.00  0.00    -0.197 A  
HETATM   25  C   UNL     1      -9.993  18.370  67.383  1.00  0.00    -0.334 A  
BRANCH  21  26
HETATM   26  O   UNL     1      -7.357  16.637  69.403  1.00  0.00    -0.222 OA 
HETATM   27  C   UNL     1      -6.649  15.439  69.131  1.00  0.00    -0.133 C  
ENDBRANCH  21  26
BRANCH  25  28
HETATM   28  O   UNL     1     -10.318  19.638  66.970  1.00  0.00    -0.398 OA 
HETATM   29  C   UNL     1     -10.695  19.782  65.606  1.00  0.00    -0.314 C  
ENDBRANCH  25  28
ENDBRANCH   7  18
BRANCH  15  30
HETATM   30  O   UNL     1     -11.724  11.024  68.340  1.00  0.00    -0.423 OA 
BRANCH  30  31
HETATM   31  C   UNL     1     -11.783   9.691  68.896  1.00  0.00     0.552 C  
HETATM   32  O   UNL     1     -11.850   9.644  70.340  1.00  0.00    -0.240 OA 
HETATM   33  C   UNL     1     -11.640   8.301  70.841  1.00  0.00    -0.262 C  
HETATM   34  C   UNL     1     -11.911   8.116  72.342  1.00  0.00    -0.388 C  
HETATM   35  O   UNL     1     -11.537   6.791  72.774  1.00  0.00    -0.191 OA 
HETATM   36  C   UNL     1     -10.148   6.553  72.535  1.00  0.00    -0.172 C  
HETATM   37  H   UNL     1      -9.931   8.228  66.605  1.00  0.00     0.000 HD 
HETATM   38  O   UNL     1      -9.870   6.628  71.145  1.00  0.00    -0.181 OA 
HETATM   39  C   UNL     1     -10.190   7.904  70.596  1.00  0.00    -0.196 C  
HETATM   40  H   UNL     1      -8.464   7.492  67.903  1.00  0.00     0.000 HD 
HETATM   41  O   UNL     1     -10.713   8.643  66.949  1.00  0.00    -0.252 OA 
HETATM   42  C   UNL     1      -9.988   7.781  69.096  1.00  0.00    -0.182 C  
HETATM   43  C   UNL     1     -10.492   9.007  68.329  1.00  0.00    -0.200 C  
HETATM   44  O   UNL     1      -8.590   7.569  68.841  1.00  0.00    -0.129 OA 
BRANCH  36  45
HETATM   45  C   UNL     1      -9.794   5.135  72.911  1.00  0.00    -0.156 A  
HETATM   46  S   UNL     1      -8.348   4.439  72.277  1.00  0.00    -0.110 SA 
HETATM   47  C   UNL     1      -9.886   2.909  73.641  1.00  0.00    -0.151 A  
HETATM   48  C   UNL     1     -10.505   4.196  73.640  1.00  0.00    -0.263 A  
HETATM   49  C   UNL     1      -8.711   2.897  72.924  1.00  0.00    -0.079 A  
ENDBRANCH  36  45
ENDBRANCH  30  31
ENDBRANCH  15  30
TORSDOF 6
ENDMDL
MODEL        4
REMARK 921   NORMALIZED FREE ENERGY PREDICTED BY IDOCK:   -7.56 KCAL/MOL
REMARK 922        TOTAL FREE ENERGY PREDICTED BY IDOCK:  -12.23 KCAL/MOL
REMARK 923 INTER-LIGAND FREE ENERGY PREDICTED BY IDOCK:  -11.75 KCAL/MOL
REMARK 924 INTRA-LIGAND FREE ENERGY PREDICTED BY IDOCK:   -0.48 KCAL/MOL
REMARK 927      BINDING AFFINITY PREDICTED BY RF-SCORE:    0.00 PKD
ROOT
HETATM    1  C   UNL     1     -12.620  12.945  69.926  1.00  0.00     0.129 C  
HETATM    2  C   UNL     1     -13.418  13.639  70.994  1.00  0.00     0.042 C  
HETATM    3  O   UNL     1     -13.157  15.041  70.772  1.00  0.00    -0.379 OA 
HETATM    4  C   UNL     1     -11.924  15.182  70.174  1.00  0.00    -0.334 C  
HETATM    5  C   UNL     1     -11.357  13.810  69.907  1.00  0.00    -0.150 C  
HETATM    6  O   UNL     1     -11.375  16.254  69.995  1.00  0.00    -0.334 OA 
HETATM    7  C   UNL     1     -10.537  13.583  68.634  1.00  0.00    -0.259 C  
HETATM    8  C   UNL     1     -10.445  12.074  68.344  1.00  0.00    -0.231 A  
HETATM    9  C   UNL     1     -11.256  11.094  69.022  1.00  0.00    -0.318 A  
HETATM   10  C   UNL     1      -9.551  11.669  67.331  1.00  0.00    -0.173 A  
HETATM   11  C   UNL     1      -9.269   8.448  65.971  1.00  0.00    -0.187 C  
HETATM   12  C   UNL     1      -9.523  10.340  66.974  1.00  0.00    -0.163 A  
HETATM   13  C   UNL     1     -11.170   9.745  68.625  1.00  0.00    -0.068 A  
HETATM   14  C   UNL     1     -10.313   9.408  67.599  1.00  0.00    -0.246 A  
HETATM   15  C   UNL     1     -12.295  11.453  70.095  1.00  0.00    -0.266 C  
HETATM   16  O   UNL     1      -8.774   9.801  65.976  1.00  0.00    -0.135 OA 
HETATM   17  O   UNL     1     -10.166   8.164  67.067  1.00  0.00    -0.250 OA 
ENDROOT
BRANCH   7  18
HETATM   18  C   UNL     1     -11.027  14.426  67.441  1.00  0.00    -0.303 A  
HETATM   19  O   UNL     1     -11.543  16.268  63.722  1.00  0.00    -1.539 OA 
HETATM   20  C   UNL     1     -11.487  15.664  64.950  1.00  0.00    -0.245 A  
HETATM   21  C   UNL     1     -12.136  14.460  65.238  1.00  0.00    -0.380 A  
HETATM   22  C   UNL     1     -10.514  15.698  67.178  1.00  0.00    -0.303 A  
HETATM   23  H   UNL     1     -11.101  17.086  63.527  1.00  0.00     0.000 HD 
HETATM   24  C   UNL     1     -11.899  13.862  66.489  1.00  0.00    -0.440 A  
HETATM   25  C   UNL     1     -10.714  16.311  65.936  1.00  0.00    -0.229 A  
BRANCH  21  26
HETATM   26  O   UNL     1     -12.980  13.719  64.461  1.00  0.00    -0.602 OA 
HETATM   27  C   UNL     1     -12.578  12.456  63.958  1.00  0.00    -0.412 C  
ENDBRANCH  21  26
BRANCH  25  28
HETATM   28  O   UNL     1     -10.125  17.499  65.580  1.00  0.00    -0.574 OA 
HETATM   29  C   UNL     1      -9.136  18.006  66.468  1.00  0.00    -0.269 C  
ENDBRANCH  25  28
ENDBRANCH   7  18
BRANCH  15  30
HETATM   30  O   UNL     1     -11.869  11.242  71.436  1.00  0.00     0.074 OA 
BRANCH  30  31
HETATM   31  C   UNL     1     -11.476   9.934  71.913  1.00  0.00     0.300 C  
HETATM   32  O   UNL     1     -10.288   9.398  71.284  1.00  0.00    -0.317 OA 
HETATM   33  C   UNL     1     -10.101   7.998  71.605  1.00  0.00    -0.184 C  
HETATM   34  C   UNL     1      -8.755   7.403  71.165  1.00  0.00    -0.137 C  
HETATM   35  O   UNL     1      -8.720   5.979  71.396  1.00  0.00    -0.131 OA 
HETATM   36  C   UNL     1      -9.761   5.322  70.669  1.00  0.00    -0.186 C  
HETATM   37  H   UNL     1     -14.507   8.804  72.505  1.00  0.00     0.000 HD 
HETATM   38  O   UNL     1     -11.030   5.781  71.109  1.00  0.00    -0.265 OA 
HETATM   39  C   UNL     1     -11.194   7.184  70.923  1.00  0.00    -0.276 C  
HETATM   40  H   UNL     1     -14.402   7.139  71.243  1.00  0.00     0.000 HD 
HETATM   41  O   UNL     1     -13.736   9.336  72.665  1.00  0.00    -0.450 OA 
HETATM   42  C   UNL     1     -12.517   7.546  71.574  1.00  0.00    -0.346 C  
HETATM   43  C   UNL     1     -12.747   9.058  71.649  1.00  0.00    -0.358 C  
HETATM   44  O   UNL     1     -13.575   6.913  70.836  1.00  0.00    -0.042 OA 
BRANCH  36  45
HETATM   45  C   UNL     1      -9.765   3.848  70.990  1.00  0.00    -0.182 A  
HETATM   46  S   UNL     1     -10.172   3.341  72.588  1.00  0.00    -0.135 SA 
HETATM   47  C   UNL     1      -9.396   1.533  70.947  1.00  0.00    -0.173 A  
HETATM   48  C   UNL     1      -9.389   2.760  70.217  1.00  0.00    -0.210 A  
HETATM   49  C   UNL     1      -9.790   1.708  72.254  1.00  0.00    -0.116 A  
ENDBRANCH  36  45
ENDBRANCH  30  31
ENDBRANCH  15  30
TORSDOF 6
ENDMDL
MODEL        5
REMARK 921   NORMALIZED FREE ENERGY PREDICTED BY IDOCK:   -7.56 KCAL/MOL
REMARK 922        TOTAL FREE ENERGY PREDICTED BY IDOCK:  -12.23 KCAL/MOL
REMARK 923 INTER-LIGAND FREE ENERGY PREDICTED BY IDOCK:  -10.89 KCAL/MOL
REMARK 924 INTRA-LIGAND FREE ENERGY PREDICTED BY IDOCK:   -1.34 KCAL/MOL
REMARK 927      BINDING AFFINITY PREDICTED BY RF-SCORE:    0.00 PKD
ROOT
HETATM    1  C   UNL     1     -10.122  12.285  67.633  1.00  0.00    -0.204 C  
HETATM    2  C   UNL     1      -9.469  11.330  66.673  1.00  0.00    -0.186 C  
HETATM    3  O   UNL     1      -9.219  12.128  65.497  1.00  0.00    -0.067 OA 
HETATM    4  C   UNL     1     -10.142  13.150  65.441  1.00  0.00    -0.248 C  
HETATM    5  C   UNL     1     -11.006  13.089  66.675  1.00  0.00    -0.301 C  
HETATM    6  O   UNL     1     -10.267  13.899  64.489  1.00  0.00    -0.405 OA 
HETATM    7  C   UNL     1     -11.481  14.399  67.312  1.00  0.00    -0.377 C  
HETATM    8  C   UNL     1     -11.949  14.130  68.753  1.00  0.00    -0.367 A  
HETATM    9  C   UNL     1     -11.690  12.891  69.444  1.00  0.00    -0.382 A  
HETATM   10  C   UNL     1     -12.616  15.180  69.417  1.00  0.00     0.040 A  
HETATM   11  C   UNL     1     -13.491  15.270  72.813  1.00  0.00    -0.518 C  
HETATM   12  C   UNL     1     -12.951  15.009  70.742  1.00  0.00    -0.389 A  
HETATM   13  C   UNL     1     -12.073  12.770  70.794  1.00  0.00    -0.246 A  
HETATM   14  C   UNL     1     -12.683  13.842  71.410  1.00  0.00    -0.367 A  
HETATM   15  C   UNL     1     -10.920  11.719  68.817  1.00  0.00    -0.234 C  
HETATM   16  O   UNL     1     -13.531  15.944  71.541  1.00  0.00    -0.454 OA 
HETATM   17  O   UNL     1     -13.054  13.897  72.718  1.00  0.00    -0.469 OA 
ENDROOT
BRANCH   7  18
HETATM   18  C   UNL     1     -10.455  15.541  67.183  1.00  0.00    -0.286 A  
HETATM   19  O   UNL     1      -7.526  18.227  65.883  1.00  0.00    -0.435 OA 
HETATM   20  C   UNL     1      -8.532  17.433  66.366  1.00  0.00    -0.257 A  
HETATM   21  C   UNL     1      -9.887  17.717  66.172  1.00  0.00    -0.244 A  
HETATM   22  C   UNL     1      -9.106  15.358  67.493  1.00  0.00    -0.199 A  
HETATM   23  H   UNL     1      -6.605  18.034  66.015  1.00  0.00     0.000 HD 
HETATM   24  C   UNL     1     -10.832  16.763  66.592  1.00  0.00    -0.005 A  
HETATM   25  C   UNL     1      -8.141  16.277  67.070  1.00  0.00    -0.209 A  
BRANCH  21  26
HETATM   26  O   UNL     1     -10.474  18.805  65.590  1.00  0.00    -0.594 OA 
HETATM   27  C   UNL     1     -10.533  20.047  66.274  1.00  0.00    -0.422 C  
ENDBRANCH  21  26
BRANCH  25  28
HETATM   28  O   UNL     1      -6.791  16.080  67.235  1.00  0.00    -0.172 OA 
HETATM   29  C   UNL     1      -6.405  15.156  68.245  1.00  0.00    -0.117 C  
ENDBRANCH  25  28
ENDBRANCH   7  18
BRANCH  15  30
HETATM   30  O   UNL     1     -11.735  10.657  68.334  1.00  0.00    -0.406 OA 
BRANCH  30  31
HETATM   31  C   UNL     1     -11.751   9.359  68.972  1.00  0.00     0.731 C  
HETATM   32  O   UNL     1     -11.741   9.401  70.418  1.00  0.00    -0.239 OA 
HETATM   33  C   UNL     1     -11.492   8.092  70.987  1.00  0.00    -0.279 C  
HETATM   34  C   UNL     1     -11.681   7.997  72.509  1.00  0.00    -0.387 C  
HETATM   35  O   UNL     1     -11.272   6.703  73.000  1.00  0.00    -0.231 OA 
HETATM   36  C   UNL     1      -9.896   6.460  72.701  1.00  0.00    -0.166 C  
HETATM   37  H   UNL     1     -10.011   7.771  66.678  1.00  0.00     0.000 HD 
HETATM   38  O   UNL     1      -9.693   6.451  71.296  1.00  0.00    -0.173 OA 
HETATM   39  C   UNL     1     -10.054   7.689  70.689  1.00  0.00    -0.187 C  
HETATM   40  H   UNL     1      -8.471   7.125  67.937  1.00  0.00     0.000 HD 
HETATM   41  O   UNL     1     -10.778   8.201  67.037  1.00  0.00    -0.321 OA 
HETATM   42  C   UNL     1      -9.931   7.477  69.191  1.00  0.00    -0.179 C  
HETATM   43  C   UNL     1     -10.486   8.651  68.379  1.00  0.00    -0.176 C  
HETATM   44  O   UNL     1      -8.547   7.257  68.874  1.00  0.00    -0.128 OA 
BRANCH  36  45
HETATM   45  C   UNL     1      -9.509   5.069  73.142  1.00  0.00    -0.134 A  
HETATM   46  S   UNL     1      -7.896   4.782  73.684  1.00  0.00    -0.095 SA 
HETATM   47  C   UNL     1      -9.443   2.749  73.475  1.00  0.00    -0.109 A  
HETATM   48  C   UNL     1     -10.226   3.884  73.104  1.00  0.00    -0.224 A  
HETATM   49  C   UNL     1      -8.150   3.095  73.802  1.00  0.00    -0.073 A  
ENDBRANCH  36  45
ENDBRANCH  30  31
ENDBRANCH  15  30
TORSDOF 6
ENDMDL
MODEL        6
REMARK 921   NORMALIZED FREE ENERGY PREDICTED BY IDOCK:   -7.53 KCAL/MOL
REMARK 922        TOTAL FREE ENERGY PREDICTED BY IDOCK:  -12.20 KCAL/MOL
REMARK 923 INTER-LIGAND FREE ENERGY PREDICTED BY IDOCK:  -10.49 KCAL/MOL
REMARK 924 INTRA-LIGAND FREE ENERGY PREDICTED BY IDOCK:   -1.70 KCAL/MOL
REMARK 927      BINDING AFFINITY PREDICTED BY RF-SCORE:    0.00 PKD
ROOT
HETATM    1  C   UNL     1     -11.324   9.687  70.838  1.00  0.00    -0.431 C  
HETATM    2  C   UNL     1     -12.476  10.152  71.683  1.00  0.00    -0.409 C  
HETATM    3  O   UNL     1     -12.924   8.956  72.356  1.00  0.00    -0.405 OA 
HETATM    4  C   UNL     1     -12.611   7.860  71.583  1.00  0.00    -0.321 C  
HETATM    5  C   UNL     1     -11.847   8.326  70.370  1.00  0.00     0.097 C  
HETATM    6  O   UNL     1     -12.989   6.728  71.826  1.00  0.00    -0.349 OA 
HETATM    7  C   UNL     1     -10.718   7.446  69.822  1.00  0.00    -0.252 C  
HETATM    8  C   UNL     1      -9.813   8.285  68.902  1.00  0.00    -0.183 A  
HETATM    9  C   UNL     1      -9.885   9.724  68.829  1.00  0.00    -0.176 A  
HETATM   10  C   UNL     1      -8.849   7.589  68.143  1.00  0.00    -0.127 A  
HETATM   11  C   UNL     1      -6.267   9.018  66.246  1.00  0.00    -0.064 C  
HETATM   12  C   UNL     1      -7.954   8.319  67.393  1.00  0.00    -0.106 A  
HETATM   13  C   UNL     1      -8.954  10.413  68.029  1.00  0.00    -0.129 A  
HETATM   14  C   UNL     1      -8.003   9.688  67.342  1.00  0.00    -0.106 A  
HETATM   15  C   UNL     1     -10.865  10.564  69.663  1.00  0.00    -0.274 C  
HETATM   16  O   UNL     1      -6.926   7.807  66.666  1.00  0.00    -0.068 OA 
HETATM   17  O   UNL     1      -7.005  10.214  66.581  1.00  0.00    -0.087 OA 
ENDROOT
BRANCH   7  18
HETATM   18  C   UNL     1      -9.961   6.679  70.924  1.00  0.00    -0.204 A  
HETATM   19  O   UNL     1      -8.843   4.609  74.380  1.00  0.00    -0.108 OA 
HETATM   20  C   UNL     1      -9.136   5.223  73.191  1.00  0.00    -0.127 A  
HETATM   21  C   UNL     1      -9.573   4.526  72.061  1.00  0.00    -0.153 A  
HETATM   22  C   UNL     1      -9.382   7.334  72.012  1.00  0.00    -0.150 A  
HETATM   23  H   UNL     1      -8.546   5.082  75.148  1.00  0.00     0.000 HD 
HETATM   24  C   UNL     1      -9.974   5.271  70.937  1.00  0.00    -0.274 A  
HETATM   25  C   UNL     1      -8.992   6.624  73.153  1.00  0.00    -0.127 A  
BRANCH  21  26
HETATM   26  O   UNL     1      -9.707   3.180  71.866  1.00  0.00    -0.144 OA 
HETATM   27  C   UNL     1      -9.529   2.616  70.577  1.00  0.00    -0.125 C  
ENDBRANCH  21  26
BRANCH  25  28
HETATM   28  O   UNL     1      -8.539   7.232  74.299  1.00  0.00    -0.174 OA 
HETATM   29  C   UNL     1      -7.181   7.653  74.296  1.00  0.00    -0.123 C  
ENDBRANCH  25  28
ENDBRANCH   7  18
BRANCH  15  30
HETATM   30  O   UNL     1     -12.021  11.006  68.962  1.00  0.00    -0.337 OA 
BRANCH  30  31
HETATM   31  C   UNL     1     -12.146  12.364  68.481  1.00  0.00    -0.075 C  
HETATM   32  O   UNL     1     -11.324  12.673  67.331  1.00  0.00    -0.276 OA 
HETATM   33  C   UNL     1     -11.292  14.096  67.065  1.00  0.00    -0.332 C  
HETATM   34  C   UNL     1     -10.627  14.496  65.739  1.00  0.00    -0.317 C  
HETATM   35  O   UNL     1     -10.512  15.930  65.631  1.00  0.00    -0.349 OA 
HETATM   36  C   UNL     1      -9.729  16.458  66.704  1.00  0.00    -0.257 C  
HETATM   37  H   UNL     1     -12.675  13.770  71.406  1.00  0.00     0.000 HD 
HETATM   38  O   UNL     1     -10.356  16.186  67.949  1.00  0.00    -0.262 OA 
HETATM   39  C   UNL     1     -10.519  14.789  68.179  1.00  0.00    -0.239 C  
HETATM   40  H   UNL     1     -11.052  15.088  71.346  1.00  0.00     0.000 HD 
HETATM   41  O   UNL     1     -12.899  13.247  70.646  1.00  0.00    -0.183 OA 
HETATM   42  C   UNL     1     -11.331  14.664  69.456  1.00  0.00    -0.280 C  
HETATM   43  C   UNL     1     -11.777  13.226  69.736  1.00  0.00    -0.284 C  
HETATM   44  O   UNL     1     -10.544  15.167  70.548  1.00  0.00    -0.220 OA 
BRANCH  36  45
HETATM   45  C   UNL     1      -9.693  17.965  66.626  1.00  0.00    -0.319 A  
HETATM   46  S   UNL     1      -8.516  18.822  67.551  1.00  0.00    -0.272 SA 
HETATM   47  C   UNL     1     -10.251  20.216  66.280  1.00  0.00    -0.541 A  
HETATM   48  C   UNL     1     -10.542  18.850  65.981  1.00  0.00    -0.470 A  
HETATM   49  C   UNL     1      -9.179  20.343  67.135  1.00  0.00    -0.380 A  
ENDBRANCH  36  45
ENDBRANCH  30  31
ENDBRANCH  15  30
TORSDOF 6
ENDMDL
MODEL        7
REMARK 921   NORMALIZED FREE ENERGY PREDICTED BY IDOCK:   -7.43 KCAL/MOL
REMARK 922        TOTAL FREE ENERGY PREDICTED BY IDOCK:  -12.05 KCAL/MOL
REMARK 923 INTER-LIGAND FREE ENERGY PREDICTED BY IDOCK:  -10.11 KCAL/MOL
REMARK 924 INTRA-LIGAND FREE ENERGY PREDICTED BY IDOCK:   -1.95 KCAL/MOL
REMARK 927      BINDING AFFINITY PREDICTED BY RF-SCORE:    0.00 PKD
ROOT
HETATM    1  C   UNL     1     -11.315   9.642  70.679  1.00  0.00    -0.379 C  
HETATM    2  C   UNL     1     -12.293  10.146  71.702  1.00  0.00    -0.377 C  
HETATM    3  O   UNL     1     -12.722   8.955  72.395  1.00  0.00    -0.388 OA 
HETATM    4  C   UNL     1     -12.606   7.874  71.549  1.00  0.00    -0.321 C  
HETATM    5  C   UNL     1     -11.997   8.339  70.250  1.00  0.00     0.310 C  
HETATM    6  O   UNL     1     -13.026   6.761  71.810  1.00  0.00    -0.349 OA 
HETATM    7  C   UNL     1     -11.028   7.411  69.513  1.00  0.00    -0.155 C  
HETATM    8  C   UNL     1     -10.210   8.225  68.495  1.00  0.00    -0.234 A  
HETATM    9  C   UNL     1     -10.188   9.667  68.480  1.00  0.00    -0.216 A  
HETATM   10  C   UNL     1      -9.421   7.500  67.578  1.00  0.00    -0.165 A  
HETATM   11  C   UNL     1      -7.050   8.833  65.363  1.00  0.00    -0.083 C  
HETATM   12  C   UNL     1      -8.596   8.199  66.726  1.00  0.00    -0.132 A  
HETATM   13  C   UNL     1      -9.337  10.327  67.571  1.00  0.00    -0.164 A  
HETATM   14  C   UNL     1      -8.553   9.570  66.727  1.00  0.00    -0.127 A  
HETATM   15  C   UNL     1     -10.971  10.535  69.477  1.00  0.00    -0.264 C  
HETATM   16  O   UNL     1      -7.725   7.652  65.837  1.00  0.00    -0.090 OA 
HETATM   17  O   UNL     1      -7.642  10.060  65.842  1.00  0.00    -0.104 OA 
ENDROOT
BRANCH   7  18
HETATM   18  C   UNL     1     -10.175   6.549  70.463  1.00  0.00    -0.224 A  
HETATM   19  O   UNL     1      -7.226   4.155  72.212  1.00  0.00    -0.057 OA 
HETATM   20  C   UNL     1      -8.207   4.987  71.740  1.00  0.00    -0.116 A  
HETATM   21  C   UNL     1      -8.144   6.378  71.851  1.00  0.00    -0.109 A  
HETATM   22  C   UNL     1     -10.289   5.157  70.497  1.00  0.00    -0.314 A  
HETATM   23  H   UNL     1      -7.269   3.209  72.136  1.00  0.00     0.000 HD 
HETATM   24  C   UNL     1      -9.139   7.140  71.213  1.00  0.00    -0.151 A  
HETATM   25  C   UNL     1      -9.305   4.371  71.106  1.00  0.00    -0.148 A  
BRANCH  21  26
HETATM   26  O   UNL     1      -7.219   7.160  72.484  1.00  0.00    -0.071 OA 
HETATM   27  C   UNL     1      -6.738   8.347  71.874  1.00  0.00    -0.081 C  
ENDBRANCH  21  26
BRANCH  25  28
HETATM   28  O   UNL     1      -9.301   2.999  71.055  1.00  0.00    -0.119 OA 
HETATM   29  C   UNL     1      -9.384   2.413  69.762  1.00  0.00    -0.098 C  
ENDBRANCH  25  28
ENDBRANCH   7  18
BRANCH  15  30
HETATM   30  O   UNL     1     -12.183  11.083  68.972  1.00  0.00    -0.483 OA 
BRANCH  30  31
HETATM   31  C   UNL     1     -12.268  12.454  68.521  1.00  0.00     0.128 C  
HETATM   32  O   UNL     1     -11.583  12.722  67.275  1.00  0.00    -0.319 OA 
HETATM   33  C   UNL     1     -11.480  14.144  67.018  1.00  0.00    -0.352 C  
HETATM   34  C   UNL     1     -10.967  14.516  65.619  1.00  0.00    -0.323 C  
HETATM   35  O   UNL     1     -10.761  15.940  65.508  1.00  0.00    -0.361 OA 
HETATM   36  C   UNL     1      -9.806  16.391  66.472  1.00  0.00    -0.274 C  
HETATM   37  H   UNL     1     -12.303  13.844  71.502  1.00  0.00     0.000 HD 
HETATM   38  O   UNL     1     -10.284  16.144  67.786  1.00  0.00    -0.255 OA 
HETATM   39  C   UNL     1     -10.518  14.759  68.026  1.00  0.00    -0.246 C  
HETATM   40  H   UNL     1     -10.609  15.042  71.238  1.00  0.00     0.000 HD 
HETATM   41  O   UNL     1     -12.663  13.352  70.773  1.00  0.00    -0.298 OA 
HETATM   42  C   UNL     1     -11.164  14.672  69.398  1.00  0.00    -0.279 C  
HETATM   43  C   UNL     1     -11.674  13.265  69.723  1.00  0.00    -0.284 C  
HETATM   44  O   UNL     1     -10.205  15.097  70.380  1.00  0.00    -0.125 OA 
BRANCH  36  45
HETATM   45  C   UNL     1      -9.669  17.892  66.401  1.00  0.00    -0.316 A  
HETATM   46  S   UNL     1      -8.246  18.633  67.036  1.00  0.00    -0.260 SA 
HETATM   47  C   UNL     1     -10.109  20.188  66.214  1.00  0.00    -0.552 A  
HETATM   48  C   UNL     1     -10.570  18.857  65.978  1.00  0.00    -0.470 A  
HETATM   49  C   UNL     1      -8.863  20.210  66.799  1.00  0.00    -0.314 A  
ENDBRANCH  36  45
ENDBRANCH  30  31
ENDBRANCH  15  30
TORSDOF 6
ENDMDL
MODEL        8
REMARK 921   NORMALIZED FREE ENERGY PREDICTED BY IDOCK:   -7.42 KCAL/MOL
REMARK 922        TOTAL FREE ENERGY PREDICTED BY IDOCK:  -12.05 KCAL/MOL
REMARK 923 INTER-LIGAND FREE ENERGY PREDICTED BY IDOCK:  -10.64 KCAL/MOL
REMARK 924 INTRA-LIGAND FREE ENERGY PREDICTED BY IDOCK:   -1.41 KCAL/MOL
REMARK 927      BINDING AFFINITY PREDICTED BY RF-SCORE:    0.00 PKD
ROOT
HETATM    1  C   UNL     1     -11.301  13.647  67.694  1.00  0.00    -0.328 C  
HETATM    2  C   UNL     1     -12.410  14.347  68.427  1.00  0.00     0.007 C  
HETATM    3  O   UNL     1     -11.737  15.376  69.183  1.00  0.00    -0.311 OA 
HETATM    4  C   UNL     1     -10.445  14.974  69.442  1.00  0.00    -0.247 C  
HETATM    5  C   UNL     1     -10.206  13.648  68.765  1.00  0.00    -0.155 C  
HETATM    6  O   UNL     1      -9.683  15.572  70.180  1.00  0.00    -0.191 OA 
HETATM    7  C   UNL     1      -8.828  13.361  68.163  1.00  0.00    -0.180 C  
HETATM    8  C   UNL     1      -8.934  12.192  67.168  1.00  0.00    -0.189 A  
HETATM    9  C   UNL     1     -10.195  11.676  66.695  1.00  0.00    -0.249 A  
HETATM   10  C   UNL     1      -7.726  11.653  66.679  1.00  0.00    -0.065 A  
HETATM   11  C   UNL     1      -7.388   9.310  64.091  1.00  0.00    -0.106 C  
HETATM   12  C   UNL     1      -7.788  10.680  65.707  1.00  0.00    -0.141 A  
HETATM   13  C   UNL     1     -10.194  10.665  65.714  1.00  0.00    -0.317 A  
HETATM   14  C   UNL     1      -8.985  10.205  65.237  1.00  0.00    -0.187 A  
HETATM   15  C   UNL     1     -11.556  12.241  67.130  1.00  0.00    -0.353 C  
HETATM   16  O   UNL     1      -6.721  10.111  65.085  1.00  0.00    -0.120 OA 
HETATM   17  O   UNL     1      -8.824   9.281  64.251  1.00  0.00    -0.204 OA 
ENDROOT
BRANCH   7  18
HETATM   18  C   UNL     1      -8.145  14.618  67.590  1.00  0.00    -0.185 A  
HETATM   19  O   UNL     1      -6.790  18.499  66.825  1.00  0.00    -0.185 OA 
HETATM   20  C   UNL     1      -7.134  17.191  67.039  1.00  0.00    -0.190 A  
HETATM   21  C   UNL     1      -6.392  16.332  67.854  1.00  0.00    -0.131 A  
HETATM   22  C   UNL     1      -8.784  15.446  66.664  1.00  0.00    -0.332 A  
HETATM   23  H   UNL     1      -7.295  19.083  66.271  1.00  0.00     0.000 HD 
HETATM   24  C   UNL     1      -6.910  15.049  68.112  1.00  0.00    -0.137 A  
HETATM   25  C   UNL     1      -8.306  16.734  66.403  1.00  0.00    -0.309 A  
BRANCH  21  26
HETATM   26  O   UNL     1      -5.204  16.549  68.495  1.00  0.00    -0.106 OA 
HETATM   27  C   UNL     1      -5.165  16.736  69.900  1.00  0.00    -0.176 C  
ENDBRANCH  21  26
BRANCH  25  28
HETATM   28  O   UNL     1      -8.966  17.634  65.603  1.00  0.00    -0.386 OA 
HETATM   29  C   UNL     1     -10.154  18.203  66.139  1.00  0.00    -0.336 C  
ENDBRANCH  25  28
ENDBRANCH   7  18
BRANCH  15  30
HETATM   30  O   UNL     1     -12.229  11.480  68.126  1.00  0.00    -0.576 OA 
BRANCH  30  31
HETATM   31  C   UNL     1     -11.508  10.751  69.145  1.00  0.00    -0.298 C  
HETATM   32  O   UNL     1     -11.059   9.437  68.740  1.00  0.00    -0.096 OA 
HETATM   33  C   UNL     1     -10.585   8.663  69.869  1.00  0.00    -0.224 C  
HETATM   34  C   UNL     1      -9.887   7.343  69.507  1.00  0.00    -0.165 C  
HETATM   35  O   UNL     1      -9.583   6.579  70.693  1.00  0.00    -0.171 OA 
HETATM   36  C   UNL     1     -10.775   6.273  71.419  1.00  0.00    -0.248 C  
HETATM   37  H   UNL     1     -13.151  11.954  71.727  1.00  0.00     0.000 HD 
HETATM   38  O   UNL     1     -11.407   7.469  71.850  1.00  0.00    -0.247 OA 
HETATM   39  C   UNL     1     -11.770   8.313  70.760  1.00  0.00    -0.202 C  
HETATM   40  H   UNL     1     -13.821  10.118  72.474  1.00  0.00     0.000 HD 
HETATM   41  O   UNL     1     -12.537  11.984  71.004  1.00  0.00    -0.364 OA 
HETATM   42  C   UNL     1     -12.284   9.602  71.377  1.00  0.00    -0.385 C  
HETATM   43  C   UNL     1     -12.522  10.702  70.339  1.00  0.00    -0.338 C  
HETATM   44  O   UNL     1     -13.499   9.312  72.088  1.00  0.00    -0.411 OA 
BRANCH  36  45
HETATM   45  C   UNL     1     -10.431   5.551  72.699  1.00  0.00    -0.215 A  
HETATM   46  S   UNL     1      -8.803   5.593  73.270  1.00  0.00    -0.120 SA 
HETATM   47  C   UNL     1     -10.458   4.114  74.551  1.00  0.00    -0.275 A  
HETATM   48  C   UNL     1     -11.206   4.732  73.504  1.00  0.00    -0.392 A  
HETATM   49  C   UNL     1      -9.132   4.485  74.531  1.00  0.00    -0.106 A  
ENDBRANCH  36  45
ENDBRANCH  30  31
ENDBRANCH  15  30
TORSDOF 6
ENDMDL
MODEL        9
REMARK 921   NORMALIZED FREE ENERGY PREDICTED BY IDOCK:   -7.16 KCAL/MOL
REMARK 922        TOTAL FREE ENERGY PREDICTED BY IDOCK:  -11.70 KCAL/MOL
REMARK 923 INTER-LIGAND FREE ENERGY PREDICTED BY IDOCK:  -10.01 KCAL/MOL
REMARK 924 INTRA-LIGAND FREE ENERGY PREDICTED BY IDOCK:   -1.68 KCAL/MOL
REMARK 927      BINDING AFFINITY PREDICTED BY RF-SCORE:    0.00 PKD
ROOT
HETATM    1  C   UNL     1     -10.973   9.592  70.354  1.00  0.00    -0.333 C  
HETATM    2  C   UNL     1     -11.757  10.111  71.527  1.00  0.00    -0.209 C  
HETATM    3  O   UNL     1     -12.068   8.928  72.293  1.00  0.00    -0.358 OA 
HETATM    4  C   UNL     1     -12.107   7.840  71.448  1.00  0.00    -0.311 C  
HETATM    5  C   UNL     1     -11.728   8.292  70.060  1.00  0.00     0.311 C  
HETATM    6  O   UNL     1     -12.483   6.732  71.786  1.00  0.00    -0.353 OA 
HETATM    7  C   UNL     1     -10.908   7.351  69.173  1.00  0.00    -0.129 C  
HETATM    8  C   UNL     1     -10.272   8.152  68.023  1.00  0.00    -0.263 A  
HETATM    9  C   UNL     1     -10.243   9.594  67.993  1.00  0.00    -0.235 A  
HETATM   10  C   UNL     1      -9.658   7.415  66.990  1.00  0.00    -0.221 A  
HETATM   11  C   UNL     1      -7.697   8.714  64.388  1.00  0.00    -0.126 C  
HETATM   12  C   UNL     1      -8.988   8.102  66.003  1.00  0.00    -0.171 A  
HETATM   13  C   UNL     1      -9.558  10.241  66.946  1.00  0.00    -0.211 A  
HETATM   14  C   UNL     1      -8.936   9.472  65.985  1.00  0.00    -0.163 A  
HETATM   15  C   UNL     1     -10.836  10.474  69.104  1.00  0.00    -0.237 C  
HETATM   16  O   UNL     1      -8.288   7.542  64.981  1.00  0.00    -0.131 OA 
HETATM   17  O   UNL     1      -8.188   9.949  64.953  1.00  0.00    -0.131 OA 
ENDROOT
BRANCH   7  18
HETATM   18  C   UNL     1      -9.910   6.488  69.968  1.00  0.00    -0.183 A  
HETATM   19  O   UNL     1      -7.874   4.319  72.907  1.00  0.00    -0.079 OA 
HETATM   20  C   UNL     1      -8.505   4.953  71.870  1.00  0.00    -0.123 A  
HETATM   21  C   UNL     1      -9.435   4.319  71.042  1.00  0.00    -0.166 A  
HETATM   22  C   UNL     1      -8.870   7.056  70.708  1.00  0.00    -0.149 A  
HETATM   23  H   UNL     1      -7.242   4.750  73.470  1.00  0.00     0.000 HD 
HETATM   24  C   UNL     1     -10.121   5.101  70.095  1.00  0.00    -0.342 A  
HETATM   25  C   UNL     1      -8.184   6.311  71.673  1.00  0.00    -0.118 A  
BRANCH  21  26
HETATM   26  O   UNL     1      -9.828   3.011  71.015  1.00  0.00    -0.152 OA 
HETATM   27  C   UNL     1      -9.442   2.161  69.947  1.00  0.00    -0.049 C  
ENDBRANCH  21  26
BRANCH  25  28
HETATM   28  O   UNL     1      -7.246   6.854  72.516  1.00  0.00    -0.080 OA 
HETATM   29  C   UNL     1      -7.587   8.091  73.130  1.00  0.00    -0.145 C  
ENDBRANCH  25  28
ENDBRANCH   7  18
BRANCH  15  30
HETATM   30  O   UNL     1     -12.113  11.029  68.812  1.00  0.00    -0.518 OA 
BRANCH  30  31
HETATM   31  C   UNL     1     -12.273  12.418  68.441  1.00  0.00     0.159 C  
HETATM   32  O   UNL     1     -11.627  12.787  67.200  1.00  0.00    -0.323 OA 
HETATM   33  C   UNL     1     -11.597  14.224  67.022  1.00  0.00    -0.386 C  
HETATM   34  C   UNL     1     -11.131  14.698  65.637  1.00  0.00    -0.338 C  
HETATM   35  O   UNL     1     -10.995  16.134  65.602  1.00  0.00    -0.253 OA 
HETATM   36  C   UNL     1     -10.043  16.577  66.573  1.00  0.00    -0.299 C  
HETATM   37  H   UNL     1     -12.311  13.637  71.495  1.00  0.00     0.000 HD 
HETATM   38  O   UNL     1     -10.481  16.235  67.880  1.00  0.00    -0.276 OA 
HETATM   39  C   UNL     1     -10.645  14.829  68.045  1.00  0.00    -0.244 C  
HETATM   40  H   UNL     1     -10.681  14.928  71.268  1.00  0.00     0.000 HD 
HETATM   41  O   UNL     1     -12.663  13.169  70.747  1.00  0.00    -0.273 OA 
HETATM   42  C   UNL     1     -11.256  14.634  69.421  1.00  0.00    -0.279 C  
HETATM   43  C   UNL     1     -11.693  13.188  69.676  1.00  0.00    -0.303 C  
HETATM   44  O   UNL     1     -10.299  15.050  70.408  1.00  0.00    -0.090 OA 
BRANCH  36  45
HETATM   45  C   UNL     1      -9.979  18.085  66.584  1.00  0.00    -0.362 A  
HETATM   46  S   UNL     1      -9.151  18.876  67.874  1.00  0.00    -0.308 SA 
HETATM   47  C   UNL     1     -10.390  20.359  66.191  1.00  0.00    -0.232 A  
HETATM   48  C   UNL     1     -10.576  19.015  65.749  1.00  0.00    -0.388 A  
HETATM   49  C   UNL     1      -9.643  20.427  67.346  1.00  0.00    -0.444 A  
ENDBRANCH  36  45
ENDBRANCH  30  31
ENDBRANCH  15  30
TORSDOF 6
ENDMDL
MODEL       10
REMARK 921   NORMALIZED FREE ENERGY PREDICTED BY IDOCK:   -7.01 KCAL/MOL
REMARK 922        TOTAL FREE ENERGY PREDICTED BY IDOCK:  -11.49 KCAL/MOL
REMARK 923 INTER-LIGAND FREE ENERGY PREDICTED BY IDOCK:  -10.65 KCAL/MOL
REMARK 924 INTRA-LIGAND FREE ENERGY PREDICTED BY IDOCK:   -0.84 KCAL/MOL
REMARK 927      BINDING AFFINITY PREDICTED BY RF-SCORE:    0.00 PKD
ROOT
HETATM    1  C   UNL     1     -11.749  12.362  69.208  1.00  0.00    -0.386 C  
HETATM    2  C   UNL     1     -12.750  13.045  70.098  1.00  0.00     0.169 C  
HETATM    3  O   UNL     1     -12.567  14.449  69.819  1.00  0.00    -0.280 OA 
HETATM    4  C   UNL     1     -11.272  14.661  69.399  1.00  0.00    -0.279 C  
HETATM    5  C   UNL     1     -10.568  13.331  69.313  1.00  0.00     0.086 C  
HETATM    6  O   UNL     1     -10.788  15.765  69.227  1.00  0.00    -0.220 OA 
HETATM    7  C   UNL     1      -9.550  13.103  68.191  1.00  0.00    -0.227 C  
HETATM    8  C   UNL     1      -9.299  11.594  68.023  1.00  0.00    -0.178 A  
HETATM    9  C   UNL     1     -10.126  10.587  68.643  1.00  0.00    -0.190 A  
HETATM   10  C   UNL     1      -8.234  11.210  67.183  1.00  0.00    -0.137 A  
HETATM   11  C   UNL     1      -7.503   7.953  66.105  1.00  0.00    -0.079 C  
HETATM   12  C   UNL     1      -8.051   9.870  66.927  1.00  0.00    -0.113 A  
HETATM   13  C   UNL     1      -9.877   9.230  68.357  1.00  0.00    -0.173 A  
HETATM   14  C   UNL     1      -8.851   8.911  67.493  1.00  0.00    -0.130 A  
HETATM   15  C   UNL     1     -11.339  10.916  69.526  1.00  0.00    -0.283 C  
HETATM   16  O   UNL     1      -7.120   9.342  66.088  1.00  0.00    -0.088 OA 
HETATM   17  O   UNL     1      -8.530   7.656  67.076  1.00  0.00    -0.121 OA 
ENDROOT
BRANCH   7  18
HETATM   18  C   UNL     1      -9.918  13.831  66.884  1.00  0.00    -0.264 A  
HETATM   19  O   UNL     1     -11.666  16.225  63.935  1.00  0.00    -1.441 OA 
HETATM   20  C   UNL     1     -10.994  15.461  64.851  1.00  0.00    -0.437 A  
HETATM   21  C   UNL     1      -9.935  15.949  65.621  1.00  0.00    -0.334 A  
HETATM   22  C   UNL     1     -10.873  13.323  66.002  1.00  0.00    -0.284 A  
HETATM   23  H   UNL     1     -12.386  15.893  63.412  1.00  0.00     0.000 HD 
HETATM   24  C   UNL     1      -9.407  15.118  66.627  1.00  0.00    -0.291 A  
HETATM   25  C   UNL     1     -11.433  14.130  65.006  1.00  0.00    -0.352 A  
BRANCH  21  26
HETATM   26  O   UNL     1      -9.315  17.166  65.577  1.00  0.00    -0.421 OA 
HETATM   27  C   UNL     1      -8.182  17.430  66.388  1.00  0.00    -0.271 C  
ENDBRANCH  21  26
BRANCH  25  28
HETATM   28  O   UNL     1     -12.465  13.721  64.198  1.00  0.00    -0.652 OA 
HETATM   29  C   UNL     1     -12.325  12.444  63.589  1.00  0.00    -0.548 C  
ENDBRANCH  25  28
ENDBRANCH   7  18
BRANCH  15  30
HETATM   30  O   UNL     1     -11.105  10.819  70.926  1.00  0.00     0.041 OA 
BRANCH  30  31
HETATM   31  C   UNL     1     -10.861   9.548  71.571  1.00  0.00    -0.251 C  
HETATM   32  O   UNL     1      -9.472   9.147  71.602  1.00  0.00    -0.282 OA 
HETATM   33  C   UNL     1      -9.324   7.767  72.015  1.00  0.00    -0.152 C  
HETATM   34  C   UNL     1      -7.880   7.320  72.289  1.00  0.00    -0.093 C  
HETATM   35  O   UNL     1      -7.820   5.902  72.550  1.00  0.00    -0.101 OA 
HETATM   36  C   UNL     1      -8.317   5.159  71.434  1.00  0.00    -0.119 C  
HETATM   37  H   UNL     1     -13.679   8.107  70.677  1.00  0.00     0.000 HD 
HETATM   38  O   UNL     1      -9.680   5.479  71.201  1.00  0.00    -0.164 OA 
HETATM   39  C   UNL     1      -9.872   6.862  70.918  1.00  0.00    -0.185 C  
HETATM   40  H   UNL     1     -12.821   6.488  69.668  1.00  0.00     0.000 HD 
HETATM   41  O   UNL     1     -13.135   8.710  71.170  1.00  0.00    -0.198 OA 
HETATM   42  C   UNL     1     -11.373   7.075  70.847  1.00  0.00    -0.295 C  
HETATM   43  C   UNL     1     -11.759   8.554  70.758  1.00  0.00    -0.205 C  
HETATM   44  O   UNL     1     -11.882   6.355  69.713  1.00  0.00    -0.357 OA 
BRANCH  36  45
HETATM   45  C   UNL     1      -8.329   3.685  71.758  1.00  0.00    -0.074 A  
HETATM   46  S   UNL     1      -9.708   3.014  72.549  1.00  0.00    -0.151 SA 
HETATM   47  C   UNL     1      -7.697   1.468  72.185  1.00  0.00    -0.040 A  
HETATM   48  C   UNL     1      -7.339   2.726  71.613  1.00  0.00    -0.040 A  
HETATM   49  C   UNL     1      -8.957   1.490  72.741  1.00  0.00    -0.062 A  
ENDBRANCH  36  45
ENDBRANCH  30  31
ENDBRANCH  15  30
TORSDOF 6
ENDMDL
MODEL       11
REMARK 921   NORMALIZED FREE ENERGY PREDICTED BY IDOCK:   -6.87 KCAL/MOL
REMARK 922        TOTAL FREE ENERGY PREDICTED BY IDOCK:  -11.30 KCAL/MOL
REMARK 923 INTER-LIGAND FREE ENERGY PREDICTED BY IDOCK:   -9.62 KCAL/MOL
REMARK 924 INTRA-LIGAND FREE ENERGY PREDICTED BY IDOCK:   -1.68 KCAL/MOL
REMARK 927      BINDING AFFINITY PREDICTED BY RF-SCORE:    0.00 PKD
ROOT
HETATM    1  C   UNL     1     -10.382   9.245  70.577  1.00  0.00    -0.312 C  
HETATM    2  C   UNL     1     -11.424  10.139  71.188  1.00  0.00    -0.307 C  
HETATM    3  O   UNL     1     -12.343   9.226  71.823  1.00  0.00    -0.332 OA 
HETATM    4  C   UNL     1     -12.305   8.016  71.164  1.00  0.00    -0.218 C  
HETATM    5  C   UNL     1     -11.255   8.087  70.084  1.00  0.00    -0.145 C  
HETATM    6  O   UNL     1     -13.074   7.099  71.386  1.00  0.00    -0.388 OA 
HETATM    7  C   UNL     1     -10.420   6.840  69.780  1.00  0.00    -0.240 C  
HETATM    8  C   UNL     1      -9.158   7.244  68.997  1.00  0.00    -0.133 A  
HETATM    9  C   UNL     1      -8.730   8.614  68.851  1.00  0.00    -0.131 A  
HETATM   10  C   UNL     1      -8.382   6.202  68.448  1.00  0.00    -0.114 A  
HETATM   11  C   UNL     1      -5.216   6.522  66.971  1.00  0.00    -0.008 C  
HETATM   12  C   UNL     1      -7.192   6.524  67.835  1.00  0.00    -0.087 A  
HETATM   13  C   UNL     1      -7.512   8.882  68.196  1.00  0.00    -0.092 A  
HETATM   14  C   UNL     1      -6.769   7.824  67.718  1.00  0.00    -0.068 A  
HETATM   15  C   UNL     1      -9.483   9.804  69.463  1.00  0.00    -0.212 C  
HETATM   16  O   UNL     1      -6.298   5.638  67.321  1.00  0.00    -0.039 OA 
HETATM   17  O   UNL     1      -5.550   7.919  67.120  1.00  0.00    -0.034 OA 
ENDROOT
BRANCH   7  18
HETATM   18  C   UNL     1     -10.140   5.981  71.028  1.00  0.00    -0.241 A  
HETATM   19  O   UNL     1      -8.497   3.427  73.902  1.00  0.00    -0.077 OA 
HETATM   20  C   UNL     1      -9.079   4.323  73.046  1.00  0.00    -0.111 A  
HETATM   21  C   UNL     1      -8.841   5.699  73.105  1.00  0.00    -0.122 A  
HETATM   22  C   UNL     1     -10.480   4.628  71.083  1.00  0.00    -0.065 A  
HETATM   23  H   UNL     1      -8.659   2.491  73.862  1.00  0.00     0.000 HD 
HETATM   24  C   UNL     1      -9.384   6.511  72.093  1.00  0.00    -0.142 A  
HETATM   25  C   UNL     1      -9.939   3.791  72.064  1.00  0.00    -0.168 A  
BRANCH  21  26
HETATM   26  O   UNL     1      -8.111   6.418  74.010  1.00  0.00    -0.107 OA 
HETATM   27  C   UNL     1      -8.455   7.760  74.312  1.00  0.00    -0.233 C  
ENDBRANCH  21  26
BRANCH  25  28
HETATM   28  O   UNL     1     -10.137   2.432  72.086  1.00  0.00    -0.158 OA 
HETATM   29  C   UNL     1      -9.510   1.685  71.050  1.00  0.00    -0.119 C  
ENDBRANCH  25  28
ENDBRANCH   7  18
BRANCH  15  30
HETATM   30  O   UNL     1     -10.304  10.527  68.553  1.00  0.00    -0.164 OA 
BRANCH  30  31
HETATM   31  C   UNL     1      -9.914  11.821  68.039  1.00  0.00    -0.188 C  
HETATM   32  O   UNL     1      -9.676  12.824  69.054  1.00  0.00     0.120 OA 
HETATM   33  C   UNL     1      -9.552  14.147  68.478  1.00  0.00    -0.214 C  
HETATM   34  C   UNL     1      -9.082  15.239  69.450  1.00  0.00    -0.228 C  
HETATM   35  O   UNL     1      -9.129  16.540  68.826  1.00  0.00    -0.237 OA 
HETATM   36  C   UNL     1     -10.459  16.854  68.408  1.00  0.00    -0.355 C  
HETATM   37  H   UNL     1     -11.679  11.690  65.267  1.00  0.00     0.000 HD 
HETATM   38  O   UNL     1     -10.902  15.915  67.439  1.00  0.00    -0.316 OA 
HETATM   39  C   UNL     1     -10.911  14.581  67.941  1.00  0.00    -0.256 C  
HETATM   40  H   UNL     1     -12.810  13.415  65.610  1.00  0.00     0.000 HD 
HETATM   41  O   UNL     1     -10.963  11.460  65.847  1.00  0.00    -0.274 OA 
HETATM   42  C   UNL     1     -11.251  13.688  66.762  1.00  0.00    -0.314 C  
HETATM   43  C   UNL     1     -11.096  12.198  67.082  1.00  0.00    -0.291 C  
HETATM   44  O   UNL     1     -12.597  13.975  66.348  1.00  0.00    -0.428 OA 
BRANCH  36  45
HETATM   45  C   UNL     1     -10.474  18.176  67.680  1.00  0.00    -0.416 A  
HETATM   46  S   UNL     1     -10.515  18.181  65.956  1.00  0.00    -0.222 SA 
HETATM   47  C   UNL     1     -10.266  20.445  67.129  1.00  0.00    -0.418 A  
HETATM   48  C   UNL     1     -10.361  19.469  68.166  1.00  0.00    -0.550 A  
HETATM   49  C   UNL     1     -10.323  19.878  65.875  1.00  0.00    -0.464 A  
ENDBRANCH  36  45
ENDBRANCH  30  31
ENDBRANCH  15  30
TORSDOF 6
ENDMDL
MODEL       12
REMARK 921   NORMALIZED FREE ENERGY PREDICTED BY IDOCK:   -6.70 KCAL/MOL
REMARK 922        TOTAL FREE ENERGY PREDICTED BY IDOCK:  -11.08 KCAL/MOL
REMARK 923 INTER-LIGAND FREE ENERGY PREDICTED BY IDOCK:   -9.48 KCAL/MOL
REMARK 924 INTRA-LIGAND FREE ENERGY PREDICTED BY IDOCK:   -1.60 KCAL/MOL
REMARK 927      BINDING AFFINITY PREDICTED BY RF-SCORE:    0.00 PKD
ROOT
HETATM    1  C   UNL     1      -7.358  13.764  68.823  1.00  0.00    -0.103 C  
HETATM    2  C   UNL     1      -6.147  13.566  69.692  1.00  0.00    -0.121 C  
HETATM    3  O   UNL     1      -5.511  14.862  69.708  1.00  0.00    -0.094 OA 
HETATM    4  C   UNL     1      -5.829  15.535  68.549  1.00  0.00    -0.099 C  
HETATM    5  C   UNL     1      -6.787  14.691  67.747  1.00  0.00    -0.193 C  
HETATM    6  O   UNL     1      -5.324  16.593  68.220  1.00  0.00    -0.109 OA 
HETATM    7  C   UNL     1      -7.898  15.385  66.952  1.00  0.00    -0.196 C  
HETATM    8  C   UNL     1      -8.988  14.360  66.591  1.00  0.00    -0.232 A  
HETATM    9  C   UNL     1      -9.051  13.043  67.175  1.00  0.00    -0.225 A  
HETATM   10  C   UNL     1      -9.981  14.774  65.679  1.00  0.00    -0.390 A  
HETATM   11  C   UNL     1     -12.908  13.026  64.855  1.00  0.00    -0.297 C  
HETATM   12  C   UNL     1     -11.028  13.920  65.418  1.00  0.00    -0.316 A  
HETATM   13  C   UNL     1     -10.138  12.206  66.854  1.00  0.00    -0.222 A  
HETATM   14  C   UNL     1     -11.106  12.676  65.992  1.00  0.00    -0.287 A  
HETATM   15  C   UNL     1      -8.045  12.531  68.217  1.00  0.00    -0.165 C  
HETATM   16  O   UNL     1     -12.097  14.193  64.623  1.00  0.00    -0.409 OA 
HETATM   17  O   UNL     1     -12.239  12.012  65.636  1.00  0.00    -0.503 OA 
ENDROOT
BRANCH   7  18
HETATM   18  C   UNL     1      -8.430  16.656  67.641  1.00  0.00    -0.200 A  
HETATM   19  O   UNL     1     -10.651  19.998  68.818  1.00  0.00    -0.515 OA 
HETATM   20  C   UNL     1      -9.894  18.890  68.541  1.00  0.00    -0.399 A  
HETATM   21  C   UNL     1     -10.103  17.652  69.154  1.00  0.00    -0.232 A  
HETATM   22  C   UNL     1      -8.142  17.933  67.154  1.00  0.00    -0.225 A  
HETATM   23  H   UNL     1     -10.509  20.839  68.400  1.00  0.00     0.000 HD 
HETATM   24  C   UNL     1      -9.358  16.550  68.696  1.00  0.00    -0.241 A  
HETATM   25  C   UNL     1      -8.880  19.045  67.574  1.00  0.00    -0.289 A  
BRANCH  21  26
HETATM   26  O   UNL     1     -10.970  17.310  70.154  1.00  0.00     0.229 OA 
HETATM   27  C   UNL     1     -11.251  15.949  70.433  1.00  0.00    -0.378 C  
ENDBRANCH  21  26
BRANCH  25  28
HETATM   28  O   UNL     1      -8.726  20.297  67.033  1.00  0.00    -0.332 OA 
HETATM   29  C   UNL     1      -7.396  20.796  66.959  1.00  0.00    -0.296 C  
ENDBRANCH  25  28
ENDBRANCH   7  18
BRANCH  15  30
HETATM   30  O   UNL     1      -7.037  11.669  67.704  1.00  0.00    -0.083 OA 
BRANCH  30  31
HETATM   31  C   UNL     1      -7.017  10.255  68.007  1.00  0.00    -0.082 C  
HETATM   32  O   UNL     1      -8.117   9.504  67.442  1.00  0.00    -0.109 OA 
HETATM   33  C   UNL     1      -8.187   8.166  67.993  1.00  0.00    -0.129 C  
HETATM   34  C   UNL     1      -9.183   7.227  67.295  1.00  0.00    -0.131 C  
HETATM   35  O   UNL     1      -9.289   5.972  68.000  1.00  0.00    -0.116 OA 
HETATM   36  C   UNL     1      -9.733   6.181  69.343  1.00  0.00    -0.145 C  
HETATM   37  H   UNL     1      -5.668  10.513  70.995  1.00  0.00     0.000 HD 
HETATM   38  O   UNL     1      -8.793   6.975  70.052  1.00  0.00    -0.141 OA 
HETATM   39  C   UNL     1      -8.606   8.256  69.455  1.00  0.00    -0.134 C  
HETATM   40  H   UNL     1      -7.213   9.574  72.047  1.00  0.00     0.000 HD 
HETATM   41  O   UNL     1      -5.675  10.533  70.045  1.00  0.00    -0.046 OA 
HETATM   42  C   UNL     1      -7.476   8.919  70.222  1.00  0.00    -0.074 C  
HETATM   43  C   UNL     1      -7.005  10.223  69.573  1.00  0.00    -0.096 C  
HETATM   44  O   UNL     1      -7.920   9.159  71.567  1.00  0.00    -0.335 OA 
BRANCH  36  45
HETATM   45  C   UNL     1      -9.753   4.871  70.091  1.00  0.00    -0.213 A  
HETATM   46  S   UNL     1     -10.259   4.857  71.740  1.00  0.00    -0.181 SA 
HETATM   47  C   UNL     1      -9.376   2.657  70.767  1.00  0.00    -0.215 A  
HETATM   48  C   UNL     1      -9.326   3.610  69.704  1.00  0.00    -0.243 A  
HETATM   49  C   UNL     1      -9.852   3.207  71.936  1.00  0.00    -0.168 A  
ENDBRANCH  36  45
ENDBRANCH  30  31
ENDBRANCH  15  30
TORSDOF 6
ENDMDL
MODEL       13
REMARK 921   NORMALIZED FREE ENERGY PREDICTED BY IDOCK:   -6.69 KCAL/MOL
REMARK 922        TOTAL FREE ENERGY PREDICTED BY IDOCK:  -11.06 KCAL/MOL
REMARK 923 INTER-LIGAND FREE ENERGY PREDICTED BY IDOCK:  -10.05 KCAL/MOL
REMARK 924 INTRA-LIGAND FREE ENERGY PREDICTED BY IDOCK:   -1.01 KCAL/MOL
REMARK 927      BINDING AFFINITY PREDICTED BY RF-SCORE:    0.00 PKD
ROOT
HETATM    1  C   UNL     1      -8.322   8.703  67.776  1.00  0.00    -0.118 C  
HETATM    2  C   UNL     1      -7.224   8.851  66.761  1.00  0.00    -0.082 C  
HETATM    3  O   UNL     1      -6.556   7.572  66.778  1.00  0.00    -0.054 OA 
HETATM    4  C   UNL     1      -6.720   6.993  68.018  1.00  0.00    -0.065 C  
HETATM    5  C   UNL     1      -7.605   7.883  68.853  1.00  0.00    -0.100 C  
HETATM    6  O   UNL     1      -6.150   5.978  68.373  1.00  0.00    -0.019 OA 
HETATM    7  C   UNL     1      -8.598   7.238  69.825  1.00  0.00    -0.141 C  
HETATM    8  C   UNL     1      -9.670   8.267  70.224  1.00  0.00    -0.177 A  
HETATM    9  C   UNL     1      -9.839   9.528  69.544  1.00  0.00    -0.205 A  
HETATM   10  C   UNL     1     -10.541   7.912  71.275  1.00  0.00    -0.241 A  
HETATM   11  C   UNL     1     -13.407   9.665  72.285  1.00  0.00    -0.408 C  
HETATM   12  C   UNL     1     -11.577   8.765  71.584  1.00  0.00    -0.320 A  
HETATM   13  C   UNL     1     -10.907  10.367  69.919  1.00  0.00    -0.353 A  
HETATM   14  C   UNL     1     -11.756   9.953  70.923  1.00  0.00    -0.364 A  
HETATM   15  C   UNL     1      -8.973   9.969  68.354  1.00  0.00    -0.121 C  
HETATM   16  O   UNL     1     -12.539   8.538  72.517  1.00  0.00    -0.376 OA 
HETATM   17  O   UNL     1     -12.861  10.622  71.351  1.00  0.00    -0.382 OA 
ENDROOT
BRANCH   7  18
HETATM   18  C   UNL     1      -9.167   5.902  69.309  1.00  0.00    -0.134 A  
HETATM   19  O   UNL     1      -9.736   2.151  67.550  1.00  0.00    -0.411 OA 
HETATM   20  C   UNL     1      -9.623   3.348  68.207  1.00  0.00    -0.083 A  
HETATM   21  C   UNL     1      -9.245   3.449  69.548  1.00  0.00    -0.155 A  
HETATM   22  C   UNL     1      -9.687   5.771  68.020  1.00  0.00    -0.142 A  
HETATM   23  H   UNL     1      -9.993   2.083  66.638  1.00  0.00     0.000 HD 
HETATM   24  C   UNL     1      -9.028   4.732  70.082  1.00  0.00    -0.143 A  
HETATM   25  C   UNL     1      -9.892   4.508  67.453  1.00  0.00    -0.157 A  
BRANCH  21  26
HETATM   26  O   UNL     1      -9.013   2.461  70.464  1.00  0.00    -0.074 OA 
HETATM   27  C   UNL     1      -9.729   2.428  71.688  1.00  0.00    -0.152 C  
ENDBRANCH  21  26
BRANCH  25  28
HETATM   28  O   UNL     1     -10.277   4.324  66.148  1.00  0.00    -0.221 OA 
HETATM   29  C   UNL     1      -9.319   4.662  65.152  1.00  0.00    -0.150 C  
ENDBRANCH  25  28
ENDBRANCH   7  18
BRANCH  15  30
HETATM   30  O   UNL     1      -7.939  10.892  68.675  1.00  0.00    -0.123 OA 
BRANCH  30  31
HETATM   31  C   UNL     1      -7.895  12.217  68.097  1.00  0.00    -0.148 C  
HETATM   32  O   UNL     1      -7.670  13.281  69.050  1.00  0.00     0.007 OA 
HETATM   33  C   UNL     1      -7.899  14.584  68.459  1.00  0.00    -0.136 C  
HETATM   34  C   UNL     1      -7.473  15.777  69.329  1.00  0.00    -0.220 C  
HETATM   35  O   UNL     1      -7.872  17.025  68.723  1.00  0.00    -0.243 OA 
HETATM   36  C   UNL     1      -9.290  17.076  68.553  1.00  0.00    -0.265 C  
HETATM   37  H   UNL     1     -10.071  11.669  65.693  1.00  0.00     0.000 HD 
HETATM   38  O   UNL     1      -9.717  16.038  67.682  1.00  0.00    -0.222 OA 
HETATM   39  C   UNL     1      -9.388  14.744  68.179  1.00  0.00    -0.197 C  
HETATM   40  H   UNL     1     -11.424  13.170  66.235  1.00  0.00     0.000 HD 
HETATM   41  O   UNL     1      -9.233  11.595  66.133  1.00  0.00    -0.215 OA 
HETATM   42  C   UNL     1      -9.762  13.763  67.083  1.00  0.00    -0.244 C  
HETATM   43  C   UNL     1      -9.278  12.339  67.371  1.00  0.00    -0.182 C  
HETATM   44  O   UNL     1     -11.190  13.785  66.921  1.00  0.00    -0.300 OA 
BRANCH  36  45
HETATM   45  C   UNL     1      -9.681  18.346  67.839  1.00  0.00    -0.308 A  
HETATM   46  S   UNL     1     -10.266  18.249  66.219  1.00  0.00    -0.377 SA 
HETATM   47  C   UNL     1      -9.910  20.590  67.199  1.00  0.00    -0.567 A  
HETATM   48  C   UNL     1      -9.563  19.670  68.234  1.00  0.00    -0.478 A  
HETATM   49  C   UNL     1     -10.298  19.951  66.043  1.00  0.00    -0.486 A  
ENDBRANCH  36  45
ENDBRANCH  30  31
ENDBRANCH  15  30
TORSDOF 6
ENDMDL
MODEL       14
REMARK 921   NORMALIZED FREE ENERGY PREDICTED BY IDOCK:   -6.57 KCAL/MOL
REMARK 922        TOTAL FREE ENERGY PREDICTED BY IDOCK:  -10.90 KCAL/MOL
REMARK 923 INTER-LIGAND FREE ENERGY PREDICTED BY IDOCK:   -9.52 KCAL/MOL
REMARK 924 INTRA-LIGAND FREE ENERGY PREDICTED BY IDOCK:   -1.38 KCAL/MOL
REMARK 927      BINDING AFFINITY PREDICTED BY RF-SCORE:    0.00 PKD
ROOT
HETATM    1  C   UNL     1      -9.403   8.880  69.349  1.00  0.00    -0.153 C  
HETATM    2  C   UNL     1      -9.596  10.092  70.216  1.00  0.00    -0.017 C  
HETATM    3  O   UNL     1     -10.167   9.566  71.433  1.00  0.00    -0.283 OA 
HETATM    4  C   UNL     1     -10.851   8.405  71.145  1.00  0.00    -0.237 C  
HETATM    5  C   UNL     1     -10.670   8.087  69.683  1.00  0.00    -0.207 C  
HETATM    6  O   UNL     1     -11.553   7.816  71.947  1.00  0.00    -0.265 OA 
HETATM    7  C   UNL     1     -10.548   6.622  69.254  1.00  0.00    -0.276 C  
HETATM    8  C   UNL     1      -9.940   6.548  67.841  1.00  0.00    -0.148 A  
HETATM    9  C   UNL     1      -9.332   7.681  67.189  1.00  0.00    -0.180 A  
HETATM   10  C   UNL     1      -9.952   5.291  67.202  1.00  0.00    -0.211 A  
HETATM   11  C   UNL     1      -8.326   4.465  64.206  1.00  0.00    -0.110 C  
HETATM   12  C   UNL     1      -9.321   5.169  65.985  1.00  0.00    -0.158 A  
HETATM   13  C   UNL     1      -8.718   7.498  65.935  1.00  0.00    -0.170 A  
HETATM   14  C   UNL     1      -8.718   6.238  65.373  1.00  0.00    -0.045 A  
HETATM   15  C   UNL     1      -9.224   9.071  67.835  1.00  0.00    -0.141 C  
HETATM   16  O   UNL     1      -9.182   4.018  65.275  1.00  0.00    -0.133 OA 
HETATM   17  O   UNL     1      -8.116   5.894  64.203  1.00  0.00    -0.122 OA 
ENDROOT
BRANCH   7  18
HETATM   18  C   UNL     1      -9.830   5.744  70.297  1.00  0.00    -0.244 A  
HETATM   19  O   UNL     1      -7.726   2.738  72.303  1.00  0.00    -0.051 OA 
HETATM   20  C   UNL     1      -8.366   3.797  71.715  1.00  0.00    -0.078 A  
HETATM   21  C   UNL     1      -7.687   4.890  71.170  1.00  0.00    -0.083 A  
HETATM   22  C   UNL     1     -10.490   4.720  70.979  1.00  0.00    -0.114 A  
HETATM   23  H   UNL     1      -8.188   1.995  72.673  1.00  0.00     0.000 HD 
HETATM   24  C   UNL     1      -8.436   5.855  70.471  1.00  0.00    -0.128 A  
HETATM   25  C   UNL     1      -9.773   3.734  71.664  1.00  0.00    -0.168 A  
BRANCH  21  26
HETATM   26  O   UNL     1      -6.351   5.178  71.179  1.00  0.00    -0.028 OA 
HETATM   27  C   UNL     1      -5.768   5.867  72.273  1.00  0.00    -0.031 C  
ENDBRANCH  21  26
BRANCH  25  28
HETATM   28  O   UNL     1     -10.365   2.637  72.239  1.00  0.00    -0.153 OA 
HETATM   29  C   UNL     1     -11.008   2.848  73.490  1.00  0.00    -0.221 C  
ENDBRANCH  25  28
ENDBRANCH   7  18
BRANCH  15  30
HETATM   30  O   UNL     1     -10.192  10.015  67.391  1.00  0.00    -0.192 OA 
BRANCH  30  31
HETATM   31  C   UNL     1      -9.818  11.345  66.966  1.00  0.00    -0.191 C  
HETATM   32  O   UNL     1      -9.393  12.221  68.036  1.00  0.00    -0.183 OA 
HETATM   33  C   UNL     1      -9.290  13.596  67.590  1.00  0.00    -0.215 C  
HETATM   34  C   UNL     1      -8.636  14.558  68.594  1.00  0.00    -0.168 C  
HETATM   35  O   UNL     1      -8.710  15.921  68.125  1.00  0.00    -0.168 OA 
HETATM   36  C   UNL     1     -10.070  16.321  67.938  1.00  0.00    -0.247 C  
HETATM   37  H   UNL     1     -11.958  11.578  64.479  1.00  0.00     0.000 HD 
HETATM   38  O   UNL     1     -10.687  15.510  66.950  1.00  0.00    -0.312 OA 
HETATM   39  C   UNL     1     -10.688  14.129  67.305  1.00  0.00    -0.279 C  
HETATM   40  H   UNL     1     -12.948  13.290  65.163  1.00  0.00     0.000 HD 
HETATM   41  O   UNL     1     -11.179  11.264  64.923  1.00  0.00    -0.176 OA 
HETATM   42  C   UNL     1     -11.232  13.384  66.099  1.00  0.00    -0.295 C  
HETATM   43  C   UNL     1     -11.103  11.864  66.235  1.00  0.00    -0.314 C  
HETATM   44  O   UNL     1     -12.607  13.756  65.917  1.00  0.00    -0.472 OA 
BRANCH  36  45
HETATM   45  C   UNL     1     -10.125  17.715  67.365  1.00  0.00    -0.331 A  
HETATM   46  S   UNL     1      -9.892  19.062  68.417  1.00  0.00    -0.414 SA 
HETATM   47  C   UNL     1     -10.529  19.569  65.988  1.00  0.00    -0.611 A  
HETATM   48  C   UNL     1     -10.440  18.148  66.086  1.00  0.00    -0.377 A  
HETATM   49  C   UNL     1     -10.268  20.191  67.188  1.00  0.00    -0.414 A  
ENDBRANCH  36  45
ENDBRANCH  30  31
ENDBRANCH  15  30
TORSDOF 6
ENDMDL
MODEL       15
REMARK 921   NORMALIZED FREE ENERGY PREDICTED BY IDOCK:   -6.53 KCAL/MOL
REMARK 922        TOTAL FREE ENERGY PREDICTED BY IDOCK:  -10.85 KCAL/MOL
REMARK 923 INTER-LIGAND FREE ENERGY PREDICTED BY IDOCK:   -9.18 KCAL/MOL
REMARK 924 INTRA-LIGAND FREE ENERGY PREDICTED BY IDOCK:   -1.67 KCAL/MOL
REMARK 927      BINDING AFFINITY PREDICTED BY RF-SCORE:    0.00 PKD
ROOT
HETATM    1  C   UNL     1      -7.088  13.818  68.770  1.00  0.00    -0.106 C  
HETATM    2  C   UNL     1      -5.841  13.636  69.589  1.00  0.00    -0.108 C  
HETATM    3  O   UNL     1      -5.257  14.954  69.638  1.00  0.00    -0.089 OA 
HETATM    4  C   UNL     1      -5.641  15.660  68.520  1.00  0.00    -0.103 C  
HETATM    5  C   UNL     1      -6.592  14.811  67.715  1.00  0.00    -0.188 C  
HETATM    6  O   UNL     1      -5.191  16.751  68.218  1.00  0.00    -0.110 OA 
HETATM    7  C   UNL     1      -7.757  15.490  66.988  1.00  0.00    -0.246 C  
HETATM    8  C   UNL     1      -8.818  14.437  66.620  1.00  0.00    -0.188 A  
HETATM    9  C   UNL     1      -8.809  13.096  67.150  1.00  0.00    -0.222 A  
HETATM   10  C   UNL     1      -9.858  14.847  65.760  1.00  0.00    -0.380 A  
HETATM   11  C   UNL     1     -12.741  13.015  64.961  1.00  0.00    -0.410 C  
HETATM   12  C   UNL     1     -10.879  13.961  65.498  1.00  0.00    -0.306 A  
HETATM   13  C   UNL     1      -9.872  12.229  66.830  1.00  0.00    -0.216 A  
HETATM   14  C   UNL     1     -10.887  12.694  66.022  1.00  0.00    -0.277 A  
HETATM   15  C   UNL     1      -7.747  12.584  68.136  1.00  0.00    -0.141 C  
HETATM   16  O   UNL     1     -11.984  14.223  64.752  1.00  0.00    -0.395 OA 
HETATM   17  O   UNL     1     -12.005  11.998  65.676  1.00  0.00    -0.479 OA 
ENDROOT
BRANCH   7  18
HETATM   18  C   UNL     1      -8.315  16.709  67.746  1.00  0.00    -0.184 A  
HETATM   19  O   UNL     1     -10.566  19.977  69.065  1.00  0.00    -0.549 OA 
HETATM   20  C   UNL     1      -9.806  18.885  68.742  1.00  0.00    -0.404 A  
HETATM   21  C   UNL     1     -10.061  17.604  69.241  1.00  0.00    -0.147 A  
HETATM   22  C   UNL     1      -7.988  18.017  67.381  1.00  0.00    -0.227 A  
HETATM   23  H   UNL     1     -10.394  20.847  68.725  1.00  0.00     0.000 HD 
HETATM   24  C   UNL     1      -9.301  16.533  68.737  1.00  0.00    -0.247 A  
HETATM   25  C   UNL     1      -8.738  19.102  67.848  1.00  0.00    -0.305 A  
BRANCH  21  26
HETATM   26  O   UNL     1     -10.985  17.196  70.160  1.00  0.00     0.079 OA 
HETATM   27  C   UNL     1     -11.580  15.912  70.067  1.00  0.00    -0.344 C  
ENDBRANCH  21  26
BRANCH  25  28
HETATM   28  O   UNL     1      -8.542  20.392  67.419  1.00  0.00    -0.342 OA 
HETATM   29  C   UNL     1      -7.219  20.733  67.024  1.00  0.00    -0.310 C  
ENDBRANCH  25  28
ENDBRANCH   7  18
BRANCH  15  30
HETATM   30  O   UNL     1      -6.724  11.785  67.553  1.00  0.00    -0.085 OA 
BRANCH  30  31
HETATM   31  C   UNL     1      -6.668  10.355  67.754  1.00  0.00    -0.070 C  
HETATM   32  O   UNL     1      -7.180   9.573  66.650  1.00  0.00    -0.085 OA 
HETATM   33  C   UNL     1      -7.342   8.180  67.013  1.00  0.00    -0.088 C  
HETATM   34  C   UNL     1      -7.671   7.237  65.845  1.00  0.00    -0.097 C  
HETATM   35  O   UNL     1      -7.956   5.905  66.322  1.00  0.00    -0.099 OA 
HETATM   36  C   UNL     1      -9.069   5.915  67.219  1.00  0.00    -0.111 C  
HETATM   37  H   UNL     1      -7.163  10.394  71.005  1.00  0.00     0.000 HD 
HETATM   38  O   UNL     1      -8.773   6.708  68.359  1.00  0.00    -0.123 OA 
HETATM   39  C   UNL     1      -8.481   8.060  68.018  1.00  0.00    -0.126 C  
HETATM   40  H   UNL     1      -8.880   9.198  71.009  1.00  0.00     0.000 HD 
HETATM   41  O   UNL     1      -6.668  10.522  70.204  1.00  0.00    -0.137 OA 
HETATM   42  C   UNL     1      -8.038   8.735  69.304  1.00  0.00    -0.110 C  
HETATM   43  C   UNL     1      -7.485  10.144  69.074  1.00  0.00    -0.091 C  
HETATM   44  O   UNL     1      -9.157   8.776  70.205  1.00  0.00    -0.153 OA 
BRANCH  36  45
HETATM   45  C   UNL     1      -9.298   4.531  67.776  1.00  0.00    -0.147 A  
HETATM   46  S   UNL     1      -9.455   4.332  69.482  1.00  0.00    -0.200 SA 
HETATM   47  C   UNL     1      -9.411   2.206  68.053  1.00  0.00    -0.244 A  
HETATM   48  C   UNL     1      -9.314   3.300  67.141  1.00  0.00    -0.212 A  
HETATM   49  C   UNL     1      -9.481   2.626  69.362  1.00  0.00    -0.061 A  
ENDBRANCH  36  45
ENDBRANCH  30  31
ENDBRANCH  15  30
TORSDOF 6
ENDMDL
MODEL       16
REMARK 921   NORMALIZED FREE ENERGY PREDICTED BY IDOCK:   -6.49 KCAL/MOL
REMARK 922        TOTAL FREE ENERGY PREDICTED BY IDOCK:  -10.78 KCAL/MOL
REMARK 923 INTER-LIGAND FREE ENERGY PREDICTED BY IDOCK:   -9.51 KCAL/MOL
REMARK 924 INTRA-LIGAND FREE ENERGY PREDICTED BY IDOCK:   -1.28 KCAL/MOL
REMARK 927      BINDING AFFINITY PREDICTED BY RF-SCORE:    0.00 PKD
ROOT
HETATM    1  C   UNL     1      -9.226   8.872  69.034  1.00  0.00    -0.140 C  
HETATM    2  C   UNL     1      -9.482  10.038  69.948  1.00  0.00    -0.181 C  
HETATM    3  O   UNL     1     -10.046   9.438  71.133  1.00  0.00    -0.296 OA 
HETATM    4  C   UNL     1     -10.676   8.263  70.788  1.00  0.00    -0.218 C  
HETATM    5  C   UNL     1     -10.463   8.014  69.316  1.00  0.00    -0.221 C  
HETATM    6  O   UNL     1     -11.362   7.611  71.554  1.00  0.00    -0.247 OA 
HETATM    7  C   UNL     1     -10.273   6.574  68.828  1.00  0.00    -0.194 C  
HETATM    8  C   UNL     1      -9.644   6.586  67.424  1.00  0.00    -0.142 A  
HETATM    9  C   UNL     1      -9.076   7.770  66.827  1.00  0.00    -0.185 A  
HETATM   10  C   UNL     1      -9.594   5.357  66.733  1.00  0.00    -0.155 A  
HETATM   11  C   UNL     1      -7.896   4.726  63.729  1.00  0.00    -0.085 C  
HETATM   12  C   UNL     1      -8.943   5.313  65.521  1.00  0.00    -0.155 A  
HETATM   13  C   UNL     1      -8.439   7.665  65.575  1.00  0.00    -0.132 A  
HETATM   14  C   UNL     1      -8.379   6.431  64.963  1.00  0.00    -0.087 A  
HETATM   15  C   UNL     1      -9.037   9.135  67.532  1.00  0.00    -0.124 C  
HETATM   16  O   UNL     1      -8.746   4.199  64.766  1.00  0.00    -0.118 OA 
HETATM   17  O   UNL     1      -7.748   6.162  63.788  1.00  0.00    -0.096 OA 
ENDROOT
BRANCH   7  18
HETATM   18  C   UNL     1      -9.531   5.685  69.845  1.00  0.00    -0.197 A  
HETATM   19  O   UNL     1      -7.731   4.062  73.252  1.00  0.00    -0.077 OA 
HETATM   20  C   UNL     1      -8.349   4.489  72.107  1.00  0.00    -0.109 A  
HETATM   21  C   UNL     1      -9.687   4.209  71.814  1.00  0.00    -0.175 A  
HETATM   22  C   UNL     1      -8.162   5.823  70.084  1.00  0.00    -0.116 A  
HETATM   23  H   UNL     1      -6.822   4.253  73.451  1.00  0.00     0.000 HD 
HETATM   24  C   UNL     1     -10.257   4.810  70.677  1.00  0.00    -0.250 A  
HETATM   25  C   UNL     1      -7.570   5.256  71.217  1.00  0.00    -0.100 A  
BRANCH  21  26
HETATM   26  O   UNL     1     -10.584   3.434  72.495  1.00  0.00    -0.112 OA 
HETATM   27  C   UNL     1     -11.402   3.996  73.508  1.00  0.00    -0.186 C  
ENDBRANCH  21  26
BRANCH  25  28
HETATM   28  O   UNL     1      -6.260   5.469  71.568  1.00  0.00    -0.032 OA 
HETATM   29  C   UNL     1      -5.276   4.884  70.724  1.00  0.00    -0.004 C  
ENDBRANCH  25  28
ENDBRANCH   7  18
BRANCH  15  30
HETATM   30  O   UNL     1     -10.038  10.055  67.113  1.00  0.00    -0.191 OA 
BRANCH  30  31
HETATM   31  C   UNL     1      -9.710  11.403  66.706  1.00  0.00    -0.198 C  
HETATM   32  O   UNL     1      -9.176  12.237  67.761  1.00  0.00    -0.177 OA 
HETATM   33  C   UNL     1      -9.119  13.628  67.363  1.00  0.00    -0.222 C  
HETATM   34  C   UNL     1      -8.365  14.552  68.332  1.00  0.00    -0.153 C  
HETATM   35  O   UNL     1      -8.486  15.932  67.928  1.00  0.00    -0.159 OA 
HETATM   36  C   UNL     1      -9.858  16.333  67.901  1.00  0.00    -0.237 C  
HETATM   37  H   UNL     1     -12.097  11.727  64.467  1.00  0.00     0.000 HD 
HETATM   38  O   UNL     1     -10.575  15.561  66.950  1.00  0.00    -0.298 OA 
HETATM   39  C   UNL     1     -10.539  14.167  67.246  1.00  0.00    -0.277 C  
HETATM   40  H   UNL     1     -13.010  13.406  65.319  1.00  0.00     0.000 HD 
HETATM   41  O   UNL     1     -11.276  11.399  64.814  1.00  0.00    -0.238 OA 
HETATM   42  C   UNL     1     -11.206  13.469  66.074  1.00  0.00    -0.295 C  
HETATM   43  C   UNL     1     -11.064  11.945  66.134  1.00  0.00    -0.326 C  
HETATM   44  O   UNL     1     -12.593  13.843  66.051  1.00  0.00    -0.467 OA 
BRANCH  36  45
HETATM   45  C   UNL     1      -9.972  17.750  67.393  1.00  0.00    -0.323 A  
HETATM   46  S   UNL     1      -9.758  19.055  68.501  1.00  0.00    -0.421 SA 
HETATM   47  C   UNL     1     -10.470  19.650  66.112  1.00  0.00    -0.624 A  
HETATM   48  C   UNL     1     -10.332  18.229  66.143  1.00  0.00    -0.414 A  
HETATM   49  C   UNL     1     -10.199  20.225  67.334  1.00  0.00    -0.354 A  
ENDBRANCH  36  45
ENDBRANCH  30  31
ENDBRANCH  15  30
TORSDOF 6
ENDMDL
MODEL       17
REMARK 921   NORMALIZED FREE ENERGY PREDICTED BY IDOCK:   -6.48 KCAL/MOL
REMARK 922        TOTAL FREE ENERGY PREDICTED BY IDOCK:  -10.77 KCAL/MOL
REMARK 923 INTER-LIGAND FREE ENERGY PREDICTED BY IDOCK:  -10.82 KCAL/MOL
REMARK 924 INTRA-LIGAND FREE ENERGY PREDICTED BY IDOCK:    0.05 KCAL/MOL
REMARK 927      BINDING AFFINITY PREDICTED BY RF-SCORE:    0.00 PKD
ROOT
HETATM    1  C   UNL     1     -11.495  11.494  65.136  1.00  0.00    -0.090 C  
HETATM    2  C   UNL     1     -12.006  12.151  63.885  1.00  0.00    -0.486 C  
HETATM    3  O   UNL     1     -11.022  11.816  62.884  1.00  0.00    -0.103 OA 
HETATM    4  C   UNL     1      -9.806  11.611  63.498  1.00  0.00    -0.370 C  
HETATM    5  C   UNL     1      -9.990  11.736  64.989  1.00  0.00    -0.287 C  
HETATM    6  O   UNL     1      -8.760  11.453  62.895  1.00  0.00    -0.140 OA 
HETATM    7  C   UNL     1      -9.179  10.823  65.914  1.00  0.00    -0.214 C  
HETATM    8  C   UNL     1      -9.826  10.801  67.311  1.00  0.00    -0.208 A  
HETATM    9  C   UNL     1     -11.139  11.334  67.576  1.00  0.00    -0.346 A  
HETATM   10  C   UNL     1      -9.095  10.182  68.347  1.00  0.00    -0.133 A  
HETATM   11  C   UNL     1     -10.263   9.463  71.575  1.00  0.00    -0.152 C  
HETATM   12  C   UNL     1      -9.690  10.051  69.581  1.00  0.00    -0.229 A  
HETATM   13  C   UNL     1     -11.688  11.185  68.865  1.00  0.00    -0.406 A  
HETATM   14  C   UNL     1     -10.950  10.533  69.830  1.00  0.00    -0.294 A  
HETATM   15  C   UNL     1     -12.026  11.972  66.496  1.00  0.00    -0.006 C  
HETATM   16  O   UNL     1      -9.152   9.421  70.659  1.00  0.00    -0.240 OA 
HETATM   17  O   UNL     1     -11.368  10.261  71.096  1.00  0.00    -0.314 OA 
ENDROOT
BRANCH   7  18
HETATM   18  C   UNL     1      -8.924   9.427  65.314  1.00  0.00    -0.250 A  
HETATM   19  O   UNL     1      -7.449   5.627  64.379  1.00  0.00    -0.065 OA 
HETATM   20  C   UNL     1      -8.036   6.833  64.663  1.00  0.00    -0.117 A  
HETATM   21  C   UNL     1      -9.045   6.983  65.618  1.00  0.00     0.139 A  
HETATM   22  C   UNL     1      -8.027   9.230  64.263  1.00  0.00    -0.135 A  
HETATM   23  H   UNL     1      -6.763   5.526  63.730  1.00  0.00     0.000 HD 
HETATM   24  C   UNL     1      -9.479   8.285  65.925  1.00  0.00    -0.125 A  
HETATM   25  C   UNL     1      -7.559   7.950  63.948  1.00  0.00    -0.121 A  
BRANCH  21  26
HETATM   26  O   UNL     1      -9.691   6.034  66.359  1.00  0.00    -0.158 OA 
HETATM   27  C   UNL     1     -10.892   6.346  67.045  1.00  0.00    -0.392 C  
ENDBRANCH  21  26
BRANCH  25  28
HETATM   28  O   UNL     1      -6.581   7.715  63.013  1.00  0.00    -0.061 OA 
HETATM   29  C   UNL     1      -5.317   8.319  63.254  1.00  0.00    -0.062 C  
ENDBRANCH  25  28
ENDBRANCH   7  18
BRANCH  15  30
HETATM   30  O   UNL     1     -12.037  13.394  66.492  1.00  0.00    -0.395 OA 
BRANCH  30  31
HETATM   31  C   UNL     1     -10.814  14.165  66.538  1.00  0.00    -0.298 C  
HETATM   32  O   UNL     1     -10.418  14.587  67.863  1.00  0.00    -0.239 OA 
HETATM   33  C   UNL     1      -9.350  15.565  67.815  1.00  0.00    -0.195 C  
HETATM   34  C   UNL     1      -8.718  15.905  69.173  1.00  0.00    -0.256 C  
HETATM   35  O   UNL     1      -7.771  16.986  69.044  1.00  0.00    -0.239 OA 
HETATM   36  C   UNL     1      -8.408  18.161  68.538  1.00  0.00    -0.301 C  
HETATM   37  H   UNL     1     -11.186  15.662  63.633  1.00  0.00     0.000 HD 
HETATM   38  O   UNL     1      -8.932  17.915  67.242  1.00  0.00    -0.245 OA 
HETATM   39  C   UNL     1      -9.896  16.864  67.238  1.00  0.00    -0.265 C  
HETATM   40  H   UNL     1     -11.128  17.624  64.355  1.00  0.00     0.000 HD 
HETATM   41  O   UNL     1     -11.005  14.931  64.212  1.00  0.00    -0.135 OA 
HETATM   42  C   UNL     1     -10.244  16.616  65.781  1.00  0.00    -0.307 C  
HETATM   43  C   UNL     1     -11.114  15.371  65.583  1.00  0.00    -0.271 C  
HETATM   44  O   UNL     1     -10.910  17.780  65.267  1.00  0.00    -0.599 OA 
BRANCH  36  45
HETATM   45  C   UNL     1      -7.388  19.253  68.326  1.00  0.00    -0.294 A  
HETATM   46  S   UNL     1      -6.111  19.438  69.471  1.00  0.00    -0.289 SA 
HETATM   47  C   UNL     1      -6.280  21.192  67.611  1.00  0.00    -0.426 A  
HETATM   48  C   UNL     1      -7.335  20.259  67.374  1.00  0.00    -0.343 A  
HETATM   49  C   UNL     1      -5.544  20.871  68.730  1.00  0.00    -0.353 A  
ENDBRANCH  36  45
ENDBRANCH  30  31
ENDBRANCH  15  30
TORSDOF 6
ENDMDL
MODEL       18
REMARK 921   NORMALIZED FREE ENERGY PREDICTED BY IDOCK:   -6.45 KCAL/MOL
REMARK 922        TOTAL FREE ENERGY PREDICTED BY IDOCK:  -10.73 KCAL/MOL
REMARK 923 INTER-LIGAND FREE ENERGY PREDICTED BY IDOCK:   -9.34 KCAL/MOL
REMARK 924 INTRA-LIGAND FREE ENERGY PREDICTED BY IDOCK:   -1.39 KCAL/MOL
REMARK 927      BINDING AFFINITY PREDICTED BY RF-SCORE:    0.00 PKD
ROOT
HETATM    1  C   UNL     1     -10.094  12.444  66.263  1.00  0.00    -0.257 C  
HETATM    2  C   UNL     1      -9.938  12.993  64.872  1.00  0.00    -0.130 C  
HETATM    3  O   UNL     1     -10.899  14.067  64.809  1.00  0.00    -0.382 OA 
HETATM    4  C   UNL     1     -11.928  13.805  65.686  1.00  0.00    -0.388 C  
HETATM    5  C   UNL     1     -11.613  12.535  66.435  1.00  0.00    -0.449 C  
HETATM    6  O   UNL     1     -12.951  14.462  65.747  1.00  0.00    -0.357 OA 
HETATM    7  C   UNL     1     -12.021  12.423  67.907  1.00  0.00    -0.260 C  
HETATM    8  C   UNL     1     -11.235  11.280  68.574  1.00  0.00    -0.311 A  
HETATM    9  C   UNL     1     -10.102  10.640  67.952  1.00  0.00    -0.194 A  
HETATM   10  C   UNL     1     -11.636  10.895  69.870  1.00  0.00    -0.410 A  
HETATM   11  C   UNL     1      -9.943   8.684  72.002  1.00  0.00    -0.329 C  
HETATM   12  C   UNL     1     -10.887   9.951  70.535  1.00  0.00    -0.326 A  
HETATM   13  C   UNL     1      -9.386   9.666  68.676  1.00  0.00    -0.143 A  
HETATM   14  C   UNL     1      -9.793   9.359  69.956  1.00  0.00    -0.221 A  
HETATM   15  C   UNL     1      -9.562  11.035  66.569  1.00  0.00    -0.195 C  
HETATM   16  O   UNL     1     -11.097   9.524  71.808  1.00  0.00    -0.352 OA 
HETATM   17  O   UNL     1      -9.170   8.489  70.797  1.00  0.00    -0.153 OA 
ENDROOT
BRANCH   7  18
HETATM   18  C   UNL     1     -11.943  13.765  68.660  1.00  0.00    -0.401 A  
HETATM   19  O   UNL     1     -11.358  16.805  71.471  1.00  0.00    -0.384 OA 
HETATM   20  C   UNL     1     -11.522  15.884  70.470  1.00  0.00    -0.392 A  
HETATM   21  C   UNL     1     -10.512  15.561  69.560  1.00  0.00    -0.263 A  
HETATM   22  C   UNL     1     -12.981  14.211  69.481  1.00  0.00     0.717 A  
HETATM   23  H   UNL     1     -12.044  17.025  72.090  1.00  0.00     0.000 HD 
HETATM   24  C   UNL     1     -10.744  14.505  68.660  1.00  0.00    -0.257 A  
HETATM   25  C   UNL     1     -12.775  15.244  70.401  1.00  0.00    -0.356 A  
BRANCH  21  26
HETATM   26  O   UNL     1      -9.268  16.107  69.408  1.00  0.00    -0.248 OA 
HETATM   27  C   UNL     1      -8.117  15.280  69.360  1.00  0.00    -0.230 C  
ENDBRANCH  21  26
BRANCH  25  28
HETATM   28  O   UNL     1     -13.720  15.633  71.319  1.00  0.00    -0.568 OA 
HETATM   29  C   UNL     1     -14.197  14.624  72.202  1.00  0.00    -0.518 C  
ENDBRANCH  25  28
ENDBRANCH   7  18
BRANCH  15  30
HETATM   30  O   UNL     1      -9.952  10.174  65.505  1.00  0.00    -0.274 OA 
BRANCH  30  31
HETATM   31  C   UNL     1      -9.373   8.860  65.339  1.00  0.00    -0.088 C  
HETATM   32  O   UNL     1      -9.909   7.850  66.226  1.00  0.00    -0.182 OA 
HETATM   33  C   UNL     1      -9.115   6.639  66.197  1.00  0.00    -0.118 C  
HETATM   34  C   UNL     1      -9.730   5.440  66.935  1.00  0.00    -0.153 C  
HETATM   35  O   UNL     1      -8.808   4.331  66.976  1.00  0.00    -0.111 OA 
HETATM   36  C   UNL     1      -7.599   4.700  67.645  1.00  0.00    -0.078 C  
HETATM   37  H   UNL     1      -6.352   9.863  64.512  1.00  0.00     0.000 HD 
HETATM   38  O   UNL     1      -6.952   5.751  66.943  1.00  0.00    -0.062 OA 
HETATM   39  C   UNL     1      -7.764   6.917  66.843  1.00  0.00    -0.099 C  
HETATM   40  H   UNL     1      -5.334   8.886  66.057  1.00  0.00     0.000 HD 
HETATM   41  O   UNL     1      -7.280   9.711  64.377  1.00  0.00    -0.110 OA 
HETATM   42  C   UNL     1      -7.010   7.882  65.945  1.00  0.00    -0.057 C  
HETATM   43  C   UNL     1      -7.843   9.110  65.563  1.00  0.00    -0.095 C  
HETATM   44  O   UNL     1      -5.806   8.283  66.619  1.00  0.00    -0.042 OA 
BRANCH  36  45
HETATM   45  C   UNL     1      -6.614   3.559  67.600  1.00  0.00    -0.042 A  
HETATM   46  S   UNL     1      -6.477   2.628  66.154  1.00  0.00    -0.028 SA 
HETATM   47  C   UNL     1      -5.129   1.841  68.187  1.00  0.00    -0.008 A  
HETATM   48  C   UNL     1      -5.813   3.025  68.598  1.00  0.00    -0.023 A  
HETATM   49  C   UNL     1      -5.412   1.504  66.882  1.00  0.00    -0.017 A  
ENDBRANCH  36  45
ENDBRANCH  30  31
ENDBRANCH  15  30
TORSDOF 6
ENDMDL
MODEL       19
REMARK 921   NORMALIZED FREE ENERGY PREDICTED BY IDOCK:   -6.35 KCAL/MOL
REMARK 922        TOTAL FREE ENERGY PREDICTED BY IDOCK:  -10.60 KCAL/MOL
REMARK 923 INTER-LIGAND FREE ENERGY PREDICTED BY IDOCK:   -8.95 KCAL/MOL
REMARK 924 INTRA-LIGAND FREE ENERGY PREDICTED BY IDOCK:   -1.65 KCAL/MOL
REMARK 927      BINDING AFFINITY PREDICTED BY RF-SCORE:    0.00 PKD
ROOT
HETATM    1  C   UNL     1      -9.592   9.161  69.661  1.00  0.00    -0.182 C  
HETATM    2  C   UNL     1     -10.419  10.154  70.429  1.00  0.00    -0.173 C  
HETATM    3  O   UNL     1     -11.173   9.344  71.355  1.00  0.00    -0.330 OA 
HETATM    4  C   UNL     1     -11.337   8.084  70.821  1.00  0.00    -0.272 C  
HETATM    5  C   UNL     1     -10.595   8.013  69.511  1.00  0.00    -0.216 C  
HETATM    6  O   UNL     1     -12.051   7.228  71.311  1.00  0.00    -0.307 OA 
HETATM    7  C   UNL     1      -9.900   6.705  69.123  1.00  0.00    -0.155 C  
HETATM    8  C   UNL     1      -8.868   6.979  68.015  1.00  0.00    -0.124 A  
HETATM    9  C   UNL     1      -8.451   8.309  67.642  1.00  0.00    -0.130 A  
HETATM   10  C   UNL     1      -8.286   5.858  67.388  1.00  0.00    -0.105 A  
HETATM   11  C   UNL     1      -5.591   5.894  65.142  1.00  0.00    -0.020 C  
HETATM   12  C   UNL     1      -7.282   6.068  66.470  1.00  0.00    -0.073 A  
HETATM   13  C   UNL     1      -7.433   8.460  66.681  1.00  0.00    -0.082 A  
HETATM   14  C   UNL     1      -6.866   7.330  66.131  1.00  0.00    -0.057 A  
HETATM   15  C   UNL     1      -8.990   9.582  68.312  1.00  0.00    -0.124 C  
HETATM   16  O   UNL     1      -6.575   5.098  65.832  1.00  0.00    -0.045 OA 
HETATM   17  O   UNL     1      -5.836   7.315  65.242  1.00  0.00    -0.036 OA 
ENDROOT
BRANCH   7  18
HETATM   18  C   UNL     1      -9.337   5.937  70.335  1.00  0.00    -0.181 A  
HETATM   19  O   UNL     1      -8.620   4.297  74.114  1.00  0.00    -0.097 OA 
HETATM   20  C   UNL     1      -8.816   4.738  72.832  1.00  0.00    -0.116 A  
HETATM   21  C   UNL     1      -9.598   4.050  71.900  1.00  0.00    -0.151 A  
HETATM   22  C   UNL     1      -8.442   6.527  71.229  1.00  0.00    -0.126 A  
HETATM   23  H   UNL     1      -8.089   4.765  74.747  1.00  0.00     0.000 HD 
HETATM   24  C   UNL     1      -9.841   4.662  70.657  1.00  0.00    -0.296 A  
HETATM   25  C   UNL     1      -8.196   5.954  72.482  1.00  0.00    -0.116 A  
BRANCH  21  26
HETATM   26  O   UNL     1     -10.217   2.837  72.010  1.00  0.00    -0.151 OA 
HETATM   27  C   UNL     1      -9.695   1.696  71.349  1.00  0.00    -0.142 C  
ENDBRANCH  21  26
BRANCH  25  28
HETATM   28  O   UNL     1      -7.428   6.558  73.447  1.00  0.00    -0.085 OA 
HETATM   29  C   UNL     1      -7.923   7.783  73.974  1.00  0.00    -0.192 C  
ENDBRANCH  25  28
ENDBRANCH   7  18
BRANCH  15  30
HETATM   30  O   UNL     1      -9.994  10.269  67.574  1.00  0.00    -0.177 OA 
BRANCH  30  31
HETATM   31  C   UNL     1      -9.805  11.626  67.113  1.00  0.00    -0.188 C  
HETATM   32  O   UNL     1      -8.717  12.333  67.754  1.00  0.00    -0.157 OA 
HETATM   33  C   UNL     1      -8.747  13.748  67.448  1.00  0.00    -0.207 C  
HETATM   34  C   UNL     1      -7.511  14.539  67.902  1.00  0.00    -0.150 C  
HETATM   35  O   UNL     1      -7.695  15.954  67.686  1.00  0.00    -0.133 OA 
HETATM   36  C   UNL     1      -8.828  16.434  68.413  1.00  0.00    -0.214 C  
HETATM   37  H   UNL     1     -12.971  12.282  66.514  1.00  0.00     0.000 HD 
HETATM   38  O   UNL     1     -10.010  15.790  67.961  1.00  0.00    -0.220 OA 
HETATM   39  C   UNL     1      -9.955  14.376  68.132  1.00  0.00    -0.223 C  
HETATM   40  H   UNL     1     -13.131  13.929  67.793  1.00  0.00     0.000 HD 
HETATM   41  O   UNL     1     -12.127  11.877  66.353  1.00  0.00    -0.552 OA 
HETATM   42  C   UNL     1     -11.204  13.822  67.469  1.00  0.00    -0.294 C  
HETATM   43  C   UNL     1     -11.198  12.293  67.378  1.00  0.00    -0.301 C  
HETATM   44  O   UNL     1     -12.350  14.276  68.207  1.00  0.00    -0.224 OA 
BRANCH  36  45
HETATM   45  C   UNL     1      -9.059  17.894  68.107  1.00  0.00    -0.278 A  
HETATM   46  S   UNL     1     -10.577  18.380  67.446  1.00  0.00    -0.371 SA 
HETATM   47  C   UNL     1      -8.757  20.173  67.648  1.00  0.00    -0.380 A  
HETATM   48  C   UNL     1      -8.191  18.972  68.174  1.00  0.00    -0.349 A  
HETATM   49  C   UNL     1     -10.048  19.989  67.205  1.00  0.00    -0.446 A  
ENDBRANCH  36  45
ENDBRANCH  30  31
ENDBRANCH  15  30
TORSDOF 6
ENDMDL
MODEL       20
REMARK 921   NORMALIZED FREE ENERGY PREDICTED BY IDOCK:   -6.31 KCAL/MOL
REMARK 922        TOTAL FREE ENERGY PREDICTED BY IDOCK:  -10.54 KCAL/MOL
REMARK 923 INTER-LIGAND FREE ENERGY PREDICTED BY IDOCK:   -8.87 KCAL/MOL
REMARK 924 INTRA-LIGAND FREE ENERGY PREDICTED BY IDOCK:   -1.68 KCAL/MOL
REMARK 927      BINDING AFFINITY PREDICTED BY RF-SCORE:    0.00 PKD
ROOT
HETATM    1  C   UNL     1      -7.927  13.558  68.237  1.00  0.00    -0.147 C  
HETATM    2  C   UNL     1      -6.771  13.470  69.193  1.00  0.00    -0.103 C  
HETATM    3  O   UNL     1      -6.312  14.832  69.318  1.00  0.00    -0.103 OA 
HETATM    4  C   UNL     1      -6.625  15.521  68.166  1.00  0.00    -0.130 C  
HETATM    5  C   UNL     1      -7.401  14.606  67.252  1.00  0.00    -0.122 C  
HETATM    6  O   UNL     1      -6.239  16.650  67.925  1.00  0.00    -0.122 OA 
HETATM    7  C   UNL     1      -8.528  15.194  66.399  1.00  0.00    -0.034 C  
HETATM    8  C   UNL     1      -9.445  14.061  65.905  1.00  0.00    -0.106 A  
HETATM    9  C   UNL     1      -9.381  12.717  66.425  1.00  0.00    -0.198 A  
HETATM   10  C   UNL     1     -10.411  14.394  64.933  1.00  0.00    -0.419 A  
HETATM   11  C   UNL     1     -13.014  12.336  63.795  1.00  0.00    -0.196 C  
HETATM   12  C   UNL     1     -11.315  13.429  64.549  1.00  0.00    -0.366 A  
HETATM   13  C   UNL     1     -10.321  11.768  65.979  1.00  0.00    -0.276 A  
HETATM   14  C   UNL     1     -11.273  12.157  65.061  1.00  0.00    -0.322 A  
HETATM   15  C   UNL     1      -8.399  12.282  67.524  1.00  0.00    -0.170 C  
HETATM   16  O   UNL     1     -12.346  13.607  63.681  1.00  0.00    -0.691 OA 
HETATM   17  O   UNL     1     -12.280  11.374  64.585  1.00  0.00     0.137 OA 
ENDROOT
BRANCH   7  18
HETATM   18  C   UNL     1      -9.273  16.350  67.095  1.00  0.00    -0.225 A  
HETATM   19  O   UNL     1     -10.418  19.533  69.553  1.00  0.00    -0.503 OA 
HETATM   20  C   UNL     1     -10.101  18.540  68.664  1.00  0.00    -0.369 A  
HETATM   21  C   UNL     1      -9.467  18.784  67.443  1.00  0.00    -0.297 A  
HETATM   22  C   UNL     1     -10.038  16.147  68.245  1.00  0.00    -0.232 A  
HETATM   23  H   UNL     1     -10.848  19.368  70.383  1.00  0.00     0.000 HD 
HETATM   24  C   UNL     1      -9.068  17.677  66.671  1.00  0.00    -0.280 A  
HETATM   25  C   UNL     1     -10.432  17.224  69.045  1.00  0.00    -0.309 A  
BRANCH  21  26
HETATM   26  O   UNL     1      -9.130  19.972  66.858  1.00  0.00    -0.329 OA 
HETATM   27  C   UNL     1      -7.874  20.576  67.120  1.00  0.00    -0.315 C  
ENDBRANCH  21  26
BRANCH  25  28
HETATM   28  O   UNL     1     -11.071  17.071  70.251  1.00  0.00     0.041 OA 
HETATM   29  C   UNL     1     -11.195  15.740  70.738  1.00  0.00    -0.375 C  
ENDBRANCH  25  28
ENDBRANCH   7  18
BRANCH  15  30
HETATM   30  O   UNL     1      -7.251  11.583  67.059  1.00  0.00    -0.130 OA 
BRANCH  30  31
HETATM   31  C   UNL     1      -7.088  10.162  67.269  1.00  0.00    -0.088 C  
HETATM   32  O   UNL     1      -7.625   9.333  66.212  1.00  0.00    -0.095 OA 
HETATM   33  C   UNL     1      -7.670   7.938  66.600  1.00  0.00    -0.098 C  
HETATM   34  C   UNL     1      -8.019   6.959  65.468  1.00  0.00    -0.126 C  
HETATM   35  O   UNL     1      -8.182   5.618  65.978  1.00  0.00    -0.106 OA 
HETATM   36  C   UNL     1      -9.228   5.570  66.952  1.00  0.00    -0.119 C  
HETATM   37  H   UNL     1      -7.354  10.216  70.547  1.00  0.00     0.000 HD 
HETATM   38  O   UNL     1      -8.904   6.397  68.060  1.00  0.00    -0.116 OA 
HETATM   39  C   UNL     1      -8.725   7.760  67.685  1.00  0.00    -0.126 C  
HETATM   40  H   UNL     1      -8.984   8.913  70.686  1.00  0.00     0.000 HD 
HETATM   41  O   UNL     1      -6.926  10.364  69.712  1.00  0.00    -0.104 OA 
HETATM   42  C   UNL     1      -8.237   8.480  68.929  1.00  0.00    -0.117 C  
HETATM   43  C   UNL     1      -7.794   9.918  68.646  1.00  0.00    -0.086 C  
HETATM   44  O   UNL     1      -9.289   8.462  69.908  1.00  0.00    -0.154 OA 
BRANCH  36  45
HETATM   45  C   UNL     1      -9.326   4.183  67.537  1.00  0.00    -0.171 A  
HETATM   46  S   UNL     1      -9.388   4.002  69.252  1.00  0.00    -0.179 SA 
HETATM   47  C   UNL     1      -9.251   1.861  67.851  1.00  0.00    -0.216 A  
HETATM   48  C   UNL     1      -9.278   2.943  66.920  1.00  0.00    -0.161 A  
HETATM   49  C   UNL     1      -9.293   2.297  69.156  1.00  0.00    -0.117 A  
ENDBRANCH  36  45
ENDBRANCH  30  31
ENDBRANCH  15  30
TORSDOF 6
ENDMDL
MODEL       21
REMARK 921   NORMALIZED FREE ENERGY PREDICTED BY IDOCK:   -6.30 KCAL/MOL
REMARK 922        TOTAL FREE ENERGY PREDICTED BY IDOCK:  -10.53 KCAL/MOL
REMARK 923 INTER-LIGAND FREE ENERGY PREDICTED BY IDOCK:   -8.78 KCAL/MOL
REMARK 924 INTRA-LIGAND FREE ENERGY PREDICTED BY IDOCK:   -1.76 KCAL/MOL
REMARK 927      BINDING AFFINITY PREDICTED BY RF-SCORE:    0.00 PKD
ROOT
HETATM    1  C   UNL     1      -9.893   7.798  68.096  1.00  0.00    -0.190 C  
HETATM    2  C   UNL     1     -10.871   7.791  66.955  1.00  0.00    -0.106 C  
HETATM    3  O   UNL     1     -11.169   6.393  66.756  1.00  0.00    -0.327 OA 
HETATM    4  C   UNL     1     -10.095   5.639  67.176  1.00  0.00    -0.183 C  
HETATM    5  C   UNL     1      -9.055   6.561  67.759  1.00  0.00    -0.112 C  
HETATM    6  O   UNL     1     -10.000   4.438  67.001  1.00  0.00    -0.206 OA 
HETATM    7  C   UNL     1      -8.238   6.088  68.965  1.00  0.00    -0.108 C  
HETATM    8  C   UNL     1      -7.584   7.300  69.652  1.00  0.00    -0.099 A  
HETATM    9  C   UNL     1      -7.946   8.663  69.349  1.00  0.00    -0.102 A  
HETATM   10  C   UNL     1      -6.625   7.033  70.650  1.00  0.00    -0.052 A  
HETATM   11  C   UNL     1      -5.167   9.375  72.817  1.00  0.00    -0.068 C  
HETATM   12  C   UNL     1      -6.101   8.092  71.357  1.00  0.00    -0.035 A  
HETATM   13  C   UNL     1      -7.361   9.706  70.094  1.00  0.00    -0.141 A  
HETATM   14  C   UNL     1      -6.463   9.387  71.089  1.00  0.00    -0.067 A  
HETATM   15  C   UNL     1      -9.020   9.043  68.318  1.00  0.00    -0.133 C  
HETATM   16  O   UNL     1      -5.225   7.999  72.392  1.00  0.00    -0.035 OA 
HETATM   17  O   UNL     1      -5.864  10.276  71.929  1.00  0.00    -0.300 OA 
ENDROOT
BRANCH   7  18
HETATM   18  C   UNL     1      -9.038   5.179  69.918  1.00  0.00    -0.162 A  
HETATM   19  O   UNL     1     -10.505   3.045  73.201  1.00  0.00    -0.148 OA 
HETATM   20  C   UNL     1     -10.131   3.754  72.090  1.00  0.00    -0.150 A  
HETATM   21  C   UNL     1     -10.627   5.028  71.797  1.00  0.00    -0.134 A  
HETATM   22  C   UNL     1      -8.672   3.851  70.149  1.00  0.00    -0.120 A  
HETATM   23  H   UNL     1     -10.167   2.179  73.401  1.00  0.00     0.000 HD 
HETATM   24  C   UNL     1     -10.073   5.719  70.705  1.00  0.00    -0.263 A  
HETATM   25  C   UNL     1      -9.189   3.143  71.239  1.00  0.00    -0.123 A  
BRANCH  21  26
HETATM   26  O   UNL     1     -11.586   5.758  72.440  1.00  0.00    -0.301 OA 
HETATM   27  C   UNL     1     -11.856   7.096  72.055  1.00  0.00    -0.295 C  
ENDBRANCH  21  26
BRANCH  25  28
HETATM   28  O   UNL     1      -8.766   1.884  71.587  1.00  0.00    -0.060 OA 
HETATM   29  C   UNL     1      -7.363   1.651  71.539  1.00  0.00    -0.032 C  
ENDBRANCH  25  28
ENDBRANCH   7  18
BRANCH  15  30
HETATM   30  O   UNL     1      -8.517   9.462  67.055  1.00  0.00    -0.125 OA 
BRANCH  30  31
HETATM   31  C   UNL     1      -8.554  10.847  66.642  1.00  0.00    -0.148 C  
HETATM   32  O   UNL     1      -8.067  11.782  67.632  1.00  0.00    -0.129 OA 
HETATM   33  C   UNL     1      -8.373  13.151  67.269  1.00  0.00    -0.179 C  
HETATM   34  C   UNL     1      -7.706  14.222  68.145  1.00  0.00    -0.141 C  
HETATM   35  O   UNL     1      -8.183  15.540  67.801  1.00  0.00    -0.139 OA 
HETATM   36  C   UNL     1      -9.598  15.630  67.981  1.00  0.00    -0.203 C  
HETATM   37  H   UNL     1     -11.253  10.629  64.776  1.00  0.00     0.000 HD 
HETATM   38  O   UNL     1     -10.260  14.714  67.121  1.00  0.00    -0.252 OA 
HETATM   39  C   UNL     1      -9.878  13.364  67.371  1.00  0.00    -0.227 C  
HETATM   40  H   UNL     1     -12.377  12.069  65.795  1.00  0.00     0.000 HD 
HETATM   41  O   UNL     1     -10.339  10.490  64.993  1.00  0.00    -0.316 OA 
HETATM   42  C   UNL     1     -10.540  12.531  66.287  1.00  0.00    -0.248 C  
HETATM   43  C   UNL     1     -10.062  11.076  66.284  1.00  0.00    -0.235 C  
HETATM   44  O   UNL     1     -11.963  12.591  66.472  1.00  0.00    -0.522 OA 
BRANCH  36  45
HETATM   45  C   UNL     1     -10.091  16.984  67.534  1.00  0.00    -0.294 A  
HETATM   46  S   UNL     1     -10.267  17.294  65.846  1.00  0.00    -0.189 SA 
HETATM   47  C   UNL     1     -10.661  19.257  67.446  1.00  0.00    -0.594 A  
HETATM   48  C   UNL     1     -10.358  18.129  68.267  1.00  0.00    -0.377 A  
HETATM   49  C   UNL     1     -10.633  18.945  66.105  1.00  0.00    -0.407 A  
ENDBRANCH  36  45
ENDBRANCH  30  31
ENDBRANCH  15  30
TORSDOF 6
ENDMDL
MODEL       22
REMARK 921   NORMALIZED FREE ENERGY PREDICTED BY IDOCK:   -6.19 KCAL/MOL
REMARK 922        TOTAL FREE ENERGY PREDICTED BY IDOCK:  -10.39 KCAL/MOL
REMARK 923 INTER-LIGAND FREE ENERGY PREDICTED BY IDOCK:   -9.34 KCAL/MOL
REMARK 924 INTRA-LIGAND FREE ENERGY PREDICTED BY IDOCK:   -1.04 KCAL/MOL
REMARK 927      BINDING AFFINITY PREDICTED BY RF-SCORE:    0.00 PKD
ROOT
HETATM    1  C   UNL     1      -8.007   7.859  68.213  1.00  0.00    -0.122 C  
HETATM    2  C   UNL     1      -6.919   7.738  67.182  1.00  0.00    -0.077 C  
HETATM    3  O   UNL     1      -5.987   6.802  67.763  1.00  0.00    -0.025 OA 
HETATM    4  C   UNL     1      -6.081   6.865  69.137  1.00  0.00    -0.026 C  
HETATM    5  C   UNL     1      -7.181   7.829  69.502  1.00  0.00    -0.079 C  
HETATM    6  O   UNL     1      -5.320   6.293  69.895  1.00  0.00    -0.012 OA 
HETATM    7  C   UNL     1      -8.054   7.528  70.724  1.00  0.00    -0.108 C  
HETATM    8  C   UNL     1      -9.345   8.363  70.652  1.00  0.00    -0.182 A  
HETATM    9  C   UNL     1      -9.754   9.076  69.467  1.00  0.00    -0.171 A  
HETATM   10  C   UNL     1     -10.167   8.373  71.798  1.00  0.00    -0.323 A  
HETATM   11  C   UNL     1     -13.395   9.726  72.031  1.00  0.00    -0.451 C  
HETATM   12  C   UNL     1     -11.380   9.022  71.729  1.00  0.00    -0.377 A  
HETATM   13  C   UNL     1     -10.997   9.738  69.464  1.00  0.00    -0.256 A  
HETATM   14  C   UNL     1     -11.783   9.679  70.595  1.00  0.00    -0.280 A  
HETATM   15  C   UNL     1      -8.948   9.072  68.159  1.00  0.00    -0.133 C  
HETATM   16  O   UNL     1     -12.314   9.065  72.716  1.00  0.00    -0.196 OA 
HETATM   17  O   UNL     1     -13.028  10.214  70.722  1.00  0.00    -0.358 OA 
ENDROOT
BRANCH   7  18
HETATM   18  C   UNL     1      -8.289   6.021  70.942  1.00  0.00    -0.126 A  
HETATM   19  O   UNL     1      -9.902   2.245  71.734  1.00  0.00    -0.142 OA 
HETATM   20  C   UNL     1      -9.307   3.432  71.398  1.00  0.00    -0.137 A  
HETATM   21  C   UNL     1      -9.281   3.929  70.092  1.00  0.00    -0.147 A  
HETATM   22  C   UNL     1      -8.194   5.436  72.207  1.00  0.00    -0.115 A  
HETATM   23  H   UNL     1      -9.920   1.907  72.622  1.00  0.00     0.000 HD 
HETATM   24  C   UNL     1      -8.762   5.220  69.884  1.00  0.00    -0.117 A  
HETATM   25  C   UNL     1      -8.720   4.163  72.451  1.00  0.00    -0.107 A  
BRANCH  21  26
HETATM   26  O   UNL     1      -9.720   3.354  68.933  1.00  0.00    -0.112 OA 
HETATM   27  C   UNL     1      -9.071   2.210  68.402  1.00  0.00    -0.164 C  
ENDBRANCH  21  26
BRANCH  25  28
HETATM   28  O   UNL     1      -8.770   3.596  73.701  1.00  0.00    -0.088 OA 
HETATM   29  C   UNL     1      -9.899   3.927  74.500  1.00  0.00    -0.143 C  
ENDBRANCH  25  28
ENDBRANCH   7  18
BRANCH  15  30
HETATM   30  O   UNL     1      -8.160  10.235  67.937  1.00  0.00    -0.102 OA 
BRANCH  30  31
HETATM   31  C   UNL     1      -8.634  11.555  68.288  1.00  0.00    -0.161 C  
HETATM   32  O   UNL     1      -9.710  12.048  67.457  1.00  0.00    -0.183 OA 
HETATM   33  C   UNL     1      -9.957  13.458  67.684  1.00  0.00    -0.229 C  
HETATM   34  C   UNL     1     -11.220  14.015  67.010  1.00  0.00    -0.313 C  
HETATM   35  O   UNL     1     -11.302  15.446  67.171  1.00  0.00    -0.305 OA 
HETATM   36  C   UNL     1     -10.163  16.088  66.592  1.00  0.00    -0.291 C  
HETATM   37  H   UNL     1      -5.745  12.752  69.307  1.00  0.00     0.000 HD 
HETATM   38  O   UNL     1      -8.976  15.666  67.248  1.00  0.00    -0.188 OA 
HETATM   39  C   UNL     1      -8.775  14.258  67.150  1.00  0.00    -0.227 C  
HETATM   40  H   UNL     1      -5.659  14.362  67.975  1.00  0.00     0.000 HD 
HETATM   41  O   UNL     1      -6.528  12.216  69.365  1.00  0.00    -0.104 OA 
HETATM   42  C   UNL     1      -7.570  13.943  68.019  1.00  0.00    -0.144 C  
HETATM   43  C   UNL     1      -7.344  12.438  68.193  1.00  0.00    -0.111 C  
HETATM   44  O   UNL     1      -6.413  14.560  67.432  1.00  0.00    -0.309 OA 
BRANCH  36  45
HETATM   45  C   UNL     1     -10.221  17.574  66.847  1.00  0.00    -0.329 A  
HETATM   46  S   UNL     1      -9.910  18.162  68.438  1.00  0.00    -0.387 SA 
HETATM   47  C   UNL     1     -10.660  19.871  66.682  1.00  0.00    -0.540 A  
HETATM   48  C   UNL     1     -10.592  18.614  66.009  1.00  0.00    -0.410 A  
HETATM   49  C   UNL     1     -10.326  19.766  68.014  1.00  0.00    -0.434 A  
ENDBRANCH  36  45
ENDBRANCH  30  31
ENDBRANCH  15  30
TORSDOF 6
ENDMDL
MODEL       23
REMARK 921   NORMALIZED FREE ENERGY PREDICTED BY IDOCK:   -6.18 KCAL/MOL
REMARK 922        TOTAL FREE ENERGY PREDICTED BY IDOCK:  -10.38 KCAL/MOL
REMARK 923 INTER-LIGAND FREE ENERGY PREDICTED BY IDOCK:   -8.69 KCAL/MOL
REMARK 924 INTRA-LIGAND FREE ENERGY PREDICTED BY IDOCK:   -1.69 KCAL/MOL
REMARK 927      BINDING AFFINITY PREDICTED BY RF-SCORE:    0.00 PKD
ROOT
HETATM    1  C   UNL     1      -8.142  12.231  68.045  1.00  0.00    -0.156 C  
HETATM    2  C   UNL     1      -7.008  11.928  68.983  1.00  0.00    -0.098 C  
HETATM    3  O   UNL     1      -6.765  13.180  69.658  1.00  0.00    -0.045 OA 
HETATM    4  C   UNL     1      -7.154  14.217  68.838  1.00  0.00    -0.113 C  
HETATM    5  C   UNL     1      -7.761  13.641  67.584  1.00  0.00    -0.184 C  
HETATM    6  O   UNL     1      -6.939  15.391  69.081  1.00  0.00    -0.130 OA 
HETATM    7  C   UNL     1      -8.946  14.362  66.935  1.00  0.00    -0.263 C  
HETATM    8  C   UNL     1      -9.668  13.403  65.972  1.00  0.00    -0.228 A  
HETATM    9  C   UNL     1      -9.411  11.984  65.939  1.00  0.00    -0.207 A  
HETATM   10  C   UNL     1     -10.651  13.960  65.129  1.00  0.00    -0.391 A  
HETATM   11  C   UNL     1     -12.884  12.189  63.084  1.00  0.00    -0.011 C  
HETATM   12  C   UNL     1     -11.389  13.112  64.333  1.00  0.00    -0.363 A  
HETATM   13  C   UNL     1     -10.186  11.170  65.089  1.00  0.00    -0.347 A  
HETATM   14  C   UNL     1     -11.166  11.759  64.318  1.00  0.00    -0.344 A  
HETATM   15  C   UNL     1      -8.399  11.286  66.861  1.00  0.00    -0.155 C  
HETATM   16  O   UNL     1     -12.416  13.479  63.521  1.00  0.00    -0.745 OA 
HETATM   17  O   UNL     1     -12.030  11.100  63.499  1.00  0.00     0.159 OA 
ENDROOT
BRANCH   7  18
HETATM   18  C   UNL     1      -9.873  15.043  67.960  1.00  0.00    -0.218 A  
HETATM   19  O   UNL     1     -11.547  16.817  71.356  1.00  0.00    -0.557 OA 
HETATM   20  C   UNL     1     -11.061  16.307  70.182  1.00  0.00    -0.341 A  
HETATM   21  C   UNL     1     -10.434  17.093  69.211  1.00  0.00    -0.267 A  
HETATM   22  C   UNL     1     -10.634  14.306  68.870  1.00  0.00    -0.252 A  
HETATM   23  H   UNL     1     -11.973  16.283  72.016  1.00  0.00     0.000 HD 
HETATM   24  C   UNL     1      -9.853  16.444  68.106  1.00  0.00    -0.238 A  
HETATM   25  C   UNL     1     -11.206  14.918  69.990  1.00  0.00    -0.259 A  
BRANCH  21  26
HETATM   26  O   UNL     1     -10.259  18.447  69.167  1.00  0.00    -0.326 OA 
HETATM   27  C   UNL     1     -10.431  19.160  67.953  1.00  0.00    -0.399 C  
ENDBRANCH  21  26
BRANCH  25  28
HETATM   28  O   UNL     1     -11.851  14.220  70.981  1.00  0.00    -0.317 OA 
HETATM   29  C   UNL     1     -13.262  14.100  70.855  1.00  0.00    -0.225 C  
ENDBRANCH  25  28
ENDBRANCH   7  18
BRANCH  15  30
HETATM   30  O   UNL     1      -7.147  10.983  66.257  1.00  0.00    -0.135 OA 
BRANCH  30  31
HETATM   31  C   UNL     1      -6.819   9.646  65.815  1.00  0.00    -0.093 C  
HETATM   32  O   UNL     1      -7.359   9.291  64.521  1.00  0.00    -0.097 OA 
HETATM   33  C   UNL     1      -7.224   7.873  64.258  1.00  0.00    -0.082 C  
HETATM   34  C   UNL     1      -7.567   7.441  62.824  1.00  0.00    -0.112 C  
HETATM   35  O   UNL     1      -7.544   6.003  62.699  1.00  0.00    -0.062 OA 
HETATM   36  C   UNL     1      -8.488   5.401  63.588  1.00  0.00    -0.059 C  
HETATM   37  H   UNL     1      -6.796   8.245  68.791  1.00  0.00     0.000 HD 
HETATM   38  O   UNL     1      -8.154   5.704  64.935  1.00  0.00    -0.114 OA 
HETATM   39  C   UNL     1      -8.153   7.106  65.190  1.00  0.00    -0.127 C  
HETATM   40  H   UNL     1      -8.262   6.806  68.400  1.00  0.00     0.000 HD 
HETATM   41  O   UNL     1      -6.462   8.794  68.091  1.00  0.00    -0.058 OA 
HETATM   42  C   UNL     1      -7.634   7.277  66.607  1.00  0.00    -0.093 C  
HETATM   43  C   UNL     1      -7.371   8.741  66.969  1.00  0.00    -0.080 C  
HETATM   44  O   UNL     1      -8.587   6.699  67.514  1.00  0.00    -0.120 OA 
BRANCH  36  45
HETATM   45  C   UNL     1      -8.388   3.898  63.508  1.00  0.00    -0.092 A  
HETATM   46  S   UNL     1      -9.562   2.937  64.328  1.00  0.00    -0.149 SA 
HETATM   47  C   UNL     1      -7.611   1.705  63.214  1.00  0.00    -0.053 A  
HETATM   48  C   UNL     1      -7.414   3.092  62.940  1.00  0.00    -0.054 A  
HETATM   49  C   UNL     1      -8.738   1.481  63.973  1.00  0.00    -0.083 A  
ENDBRANCH  36  45
ENDBRANCH  30  31
ENDBRANCH  15  30
TORSDOF 6
ENDMDL
MODEL       24
REMARK 921   NORMALIZED FREE ENERGY PREDICTED BY IDOCK:   -6.14 KCAL/MOL
REMARK 922        TOTAL FREE ENERGY PREDICTED BY IDOCK:  -10.31 KCAL/MOL
REMARK 923 INTER-LIGAND FREE ENERGY PREDICTED BY IDOCK:   -8.92 KCAL/MOL
REMARK 924 INTRA-LIGAND FREE ENERGY PREDICTED BY IDOCK:   -1.40 KCAL/MOL
REMARK 927      BINDING AFFINITY PREDICTED BY RF-SCORE:    0.00 PKD
ROOT
HETATM    1  C   UNL     1      -7.938   8.148  68.219  1.00  0.00    -0.123 C  
HETATM    2  C   UNL     1      -6.807   8.027  67.236  1.00  0.00    -0.074 C  
HETATM    3  O   UNL     1      -5.934   7.041  67.825  1.00  0.00    -0.026 OA 
HETATM    4  C   UNL     1      -6.090   7.059  69.194  1.00  0.00    -0.026 C  
HETATM    5  C   UNL     1      -7.175   8.046  69.544  1.00  0.00    -0.070 C  
HETATM    6  O   UNL     1      -5.384   6.436  69.966  1.00  0.00    -0.013 OA 
HETATM    7  C   UNL     1      -8.114   7.732  70.712  1.00  0.00    -0.102 C  
HETATM    8  C   UNL     1      -9.373   8.611  70.611  1.00  0.00    -0.218 A  
HETATM    9  C   UNL     1      -9.703   9.378  69.435  1.00  0.00    -0.181 A  
HETATM   10  C   UNL     1     -10.248   8.609  71.718  1.00  0.00    -0.378 A  
HETATM   11  C   UNL     1     -13.439  10.059  71.851  1.00  0.00    -0.350 C  
HETATM   12  C   UNL     1     -11.434   9.299  71.617  1.00  0.00    -0.398 A  
HETATM   13  C   UNL     1     -10.923  10.080  69.399  1.00  0.00    -0.280 A  
HETATM   14  C   UNL     1     -11.763  10.009  70.490  1.00  0.00    -0.318 A  
HETATM   15  C   UNL     1      -8.837   9.393  68.166  1.00  0.00    -0.124 C  
HETATM   16  O   UNL     1     -12.412   9.339  72.560  1.00  0.00    -0.285 OA 
HETATM   17  O   UNL     1     -12.995  10.580  70.579  1.00  0.00    -0.345 OA 
ENDROOT
BRANCH   7  18
HETATM   18  C   UNL     1      -8.406   6.226  70.865  1.00  0.00    -0.127 A  
HETATM   19  O   UNL     1      -8.269   2.047  70.807  1.00  0.00    -0.048 OA 
HETATM   20  C   UNL     1      -8.368   3.409  70.925  1.00  0.00    -0.065 A  
HETATM   21  C   UNL     1      -7.874   4.116  72.025  1.00  0.00    -0.084 A  
HETATM   22  C   UNL     1      -9.023   5.489  69.852  1.00  0.00    -0.144 A  
HETATM   23  H   UNL     1      -8.604   1.567  70.059  1.00  0.00     0.000 HD 
HETATM   24  C   UNL     1      -7.908   5.522  71.978  1.00  0.00    -0.106 A  
HETATM   25  C   UNL     1      -8.988   4.091  69.859  1.00  0.00    -0.098 A  
BRANCH  21  26
HETATM   26  O   UNL     1      -7.313   3.649  73.180  1.00  0.00    -0.053 OA 
HETATM   27  C   UNL     1      -7.844   4.019  74.442  1.00  0.00    -0.086 C  
ENDBRANCH  21  26
BRANCH  25  28
HETATM   28  O   UNL     1      -9.463   3.322  68.825  1.00  0.00    -0.171 OA 
HETATM   29  C   UNL     1      -9.445   3.916  67.533  1.00  0.00    -0.190 C  
ENDBRANCH  25  28
ENDBRANCH   7  18
BRANCH  15  30
HETATM   30  O   UNL     1      -8.003  10.536  68.023  1.00  0.00    -0.103 OA 
BRANCH  30  31
HETATM   31  C   UNL     1      -8.479  11.868  68.321  1.00  0.00    -0.161 C  
HETATM   32  O   UNL     1      -9.414  12.403  67.355  1.00  0.00    -0.179 OA 
HETATM   33  C   UNL     1      -9.644  13.818  67.563  1.00  0.00    -0.219 C  
HETATM   34  C   UNL     1     -10.784  14.421  66.728  1.00  0.00    -0.292 C  
HETATM   35  O   UNL     1     -10.842  15.854  66.894  1.00  0.00    -0.314 OA 
HETATM   36  C   UNL     1      -9.615  16.461  66.484  1.00  0.00    -0.270 C  
HETATM   37  H   UNL     1      -5.722  12.961  69.742  1.00  0.00     0.000 HD 
HETATM   38  O   UNL     1      -8.544  15.995  67.292  1.00  0.00    -0.171 OA 
HETATM   39  C   UNL     1      -8.376  14.583  67.207  1.00  0.00    -0.212 C  
HETATM   40  H   UNL     1      -5.402  14.578  68.453  1.00  0.00     0.000 HD 
HETATM   41  O   UNL     1      -6.521  12.451  69.685  1.00  0.00    -0.119 OA 
HETATM   42  C   UNL     1      -7.313  14.221  68.229  1.00  0.00    -0.124 C  
HETATM   43  C   UNL     1      -7.160  12.709  68.415  1.00  0.00    -0.101 C  
HETATM   44  O   UNL     1      -6.067  14.804  67.814  1.00  0.00    -0.162 OA 
BRANCH  36  45
HETATM   45  C   UNL     1      -9.660  17.947  66.746  1.00  0.00    -0.305 A  
HETATM   46  S   UNL     1      -8.242  18.889  66.468  1.00  0.00    -0.300 SA 
HETATM   47  C   UNL     1     -10.254  20.081  67.515  1.00  0.00    -0.551 A  
HETATM   48  C   UNL     1     -10.664  18.732  67.291  1.00  0.00    -0.490 A  
HETATM   49  C   UNL     1      -8.952  20.300  67.124  1.00  0.00    -0.358 A  
ENDBRANCH  36  45
ENDBRANCH  30  31
ENDBRANCH  15  30
TORSDOF 6
ENDMDL
MODEL       25
REMARK 921   NORMALIZED FREE ENERGY PREDICTED BY IDOCK:   -6.08 KCAL/MOL
REMARK 922        TOTAL FREE ENERGY PREDICTED BY IDOCK:  -10.24 KCAL/MOL
REMARK 923 INTER-LIGAND FREE ENERGY PREDICTED BY IDOCK:   -9.67 KCAL/MOL
REMARK 924 INTRA-LIGAND FREE ENERGY PREDICTED BY IDOCK:   -0.57 KCAL/MOL
REMARK 927      BINDING AFFINITY PREDICTED BY RF-SCORE:    0.00 PKD
ROOT
HETATM    1  C   UNL     1     -10.307  10.388  65.822  1.00  0.00    -0.257 C  
HETATM    2  C   UNL     1     -10.256  10.850  64.392  1.00  0.00    -0.358 C  
HETATM    3  O   UNL     1      -8.895  10.591  63.987  1.00  0.00    -0.184 OA 
HETATM    4  C   UNL     1      -8.079  10.631  65.096  1.00  0.00    -0.065 C  
HETATM    5  C   UNL     1      -8.934  10.850  66.319  1.00  0.00    -0.188 C  
HETATM    6  O   UNL     1      -6.863  10.589  65.045  1.00  0.00    -0.096 OA 
HETATM    7  C   UNL     1      -8.545  10.156  67.628  1.00  0.00    -0.118 C  
HETATM    8  C   UNL     1      -9.751  10.149  68.584  1.00  0.00    -0.167 A  
HETATM    9  C   UNL     1     -11.088  10.490  68.164  1.00  0.00    -0.346 A  
HETATM   10  C   UNL     1      -9.514   9.742  69.913  1.00  0.00    -0.264 A  
HETATM   11  C   UNL     1     -11.945   9.121  72.365  1.00  0.00    -0.099 C  
HETATM   12  C   UNL     1     -10.590   9.622  70.764  1.00  0.00    -0.322 A  
HETATM   13  C   UNL     1     -12.145  10.366  69.086  1.00  0.00     0.047 A  
HETATM   14  C   UNL     1     -11.866   9.920  70.360  1.00  0.00    -0.234 A  
HETATM   15  C   UNL     1     -11.445  10.888  66.723  1.00  0.00     0.290 C  
HETATM   16  O   UNL     1     -10.541   9.177  72.047  1.00  0.00    -0.333 OA 
HETATM   17  O   UNL     1     -12.785   9.693  71.338  1.00  0.00    -0.328 OA 
ENDROOT
BRANCH   7  18
HETATM   18  C   UNL     1      -7.904   8.772  67.411  1.00  0.00    -0.098 A  
HETATM   19  O   UNL     1      -6.677   4.785  67.703  1.00  0.00    -0.049 OA 
HETATM   20  C   UNL     1      -7.078   6.078  67.495  1.00  0.00    -0.074 A  
HETATM   21  C   UNL     1      -8.224   6.412  66.768  1.00  0.00    -0.110 A  
HETATM   22  C   UNL     1      -6.687   8.423  68.001  1.00  0.00    -0.065 A  
HETATM   23  H   UNL     1      -5.898   4.558  68.198  1.00  0.00     0.000 HD 
HETATM   24  C   UNL     1      -8.616   7.763  66.733  1.00  0.00    -0.133 A  
HETATM   25  C   UNL     1      -6.280   7.087  68.072  1.00  0.00    -0.035 A  
BRANCH  21  26
HETATM   26  O   UNL     1      -9.083   5.605  66.077  1.00  0.00    -0.154 OA 
HETATM   27  C   UNL     1      -8.641   4.889  64.936  1.00  0.00    -0.148 C  
ENDBRANCH  21  26
BRANCH  25  28
HETATM   28  O   UNL     1      -5.161   6.676  68.753  1.00  0.00    -0.011 OA 
HETATM   29  C   UNL     1      -5.162   6.891  70.159  1.00  0.00    -0.018 C  
ENDBRANCH  25  28
ENDBRANCH   7  18
BRANCH  15  30
HETATM   30  O   UNL     1     -11.598  12.286  66.509  1.00  0.00    -0.363 OA 
BRANCH  30  31
HETATM   31  C   UNL     1     -10.490  13.204  66.650  1.00  0.00    -0.277 C  
HETATM   32  O   UNL     1     -10.383  13.822  67.954  1.00  0.00    -0.236 OA 
HETATM   33  C   UNL     1      -9.431  14.913  67.950  1.00  0.00    -0.200 C  
HETATM   34  C   UNL     1      -9.090  15.484  69.335  1.00  0.00    -0.280 C  
HETATM   35  O   UNL     1      -8.252  16.653  69.219  1.00  0.00    -0.183 OA 
HETATM   36  C   UNL     1      -8.907  17.673  68.461  1.00  0.00    -0.285 C  
HETATM   37  H   UNL     1     -10.490  14.300  63.549  1.00  0.00     0.000 HD 
HETATM   38  O   UNL     1      -9.163  17.216  67.142  1.00  0.00    -0.228 OA 
HETATM   39  C   UNL     1      -9.996  16.060  67.121  1.00  0.00    -0.249 C  
HETATM   40  H   UNL     1     -10.765  16.324  64.000  1.00  0.00     0.000 HD 
HETATM   41  O   UNL     1     -10.340  13.668  64.243  1.00  0.00    -0.376 OA 
HETATM   42  C   UNL     1     -10.050  15.604  65.674  1.00  0.00    -0.365 C  
HETATM   43  C   UNL     1     -10.737  14.246  65.506  1.00  0.00    -0.331 C  
HETATM   44  O   UNL     1     -10.731  16.609  64.905  1.00  0.00    -0.710 OA 
BRANCH  36  45
HETATM   45  C   UNL     1      -7.984  18.853  68.275  1.00  0.00    -0.310 A  
HETATM   46  S   UNL     1      -8.267  19.936  66.962  1.00  0.00    -0.329 SA 
HETATM   47  C   UNL     1      -6.155  20.316  68.363  1.00  0.00    -0.323 A  
HETATM   48  C   UNL     1      -6.823  19.199  68.948  1.00  0.00    -0.357 A  
HETATM   49  C   UNL     1      -6.826  20.807  67.265  1.00  0.00    -0.348 A  
ENDBRANCH  36  45
ENDBRANCH  30  31
ENDBRANCH  15  30
TORSDOF 6
ENDMDL
MODEL       26
REMARK 921   NORMALIZED FREE ENERGY PREDICTED BY IDOCK:   -6.04 KCAL/MOL
REMARK 922        TOTAL FREE ENERGY PREDICTED BY IDOCK:  -10.18 KCAL/MOL
REMARK 923 INTER-LIGAND FREE ENERGY PREDICTED BY IDOCK:   -8.86 KCAL/MOL
REMARK 924 INTRA-LIGAND FREE ENERGY PREDICTED BY IDOCK:   -1.32 KCAL/MOL
REMARK 927      BINDING AFFINITY PREDICTED BY RF-SCORE:    0.00 PKD
ROOT
HETATM    1  C   UNL     1      -8.754   8.384  65.622  1.00  0.00    -0.204 C  
HETATM    2  C   UNL     1      -8.196   8.641  64.251  1.00  0.00    -0.158 C  
HETATM    3  O   UNL     1      -7.210   7.602  64.072  1.00  0.00    -0.071 OA 
HETATM    4  C   UNL     1      -6.733   7.216  65.305  1.00  0.00    -0.047 C  
HETATM    5  C   UNL     1      -7.484   7.970  66.373  1.00  0.00    -0.087 C  
HETATM    6  O   UNL     1      -5.793   6.458  65.461  1.00  0.00    -0.024 OA 
HETATM    7  C   UNL     1      -7.813   7.260  67.689  1.00  0.00    -0.113 C  
HETATM    8  C   UNL     1      -8.929   8.027  68.422  1.00  0.00    -0.133 A  
HETATM    9  C   UNL     1      -9.707   9.068  67.797  1.00  0.00    -0.190 A  
HETATM   10  C   UNL     1      -9.211   7.637  69.748  1.00  0.00    -0.147 A  
HETATM   11  C   UNL     1     -11.909   8.725  71.708  1.00  0.00    -0.344 C  
HETATM   12  C   UNL     1     -10.273   8.229  70.393  1.00  0.00    -0.201 A  
HETATM   13  C   UNL     1     -10.769   9.650  68.516  1.00  0.00    -0.239 A  
HETATM   14  C   UNL     1     -11.031   9.202  69.793  1.00  0.00    -0.181 A  
HETATM   15  C   UNL     1      -9.506   9.515  66.341  1.00  0.00    -0.195 C  
HETATM   16  O   UNL     1     -10.717   7.919  71.640  1.00  0.00    -0.216 OA 
HETATM   17  O   UNL     1     -12.056   9.622  70.585  1.00  0.00    -0.263 OA 
ENDROOT
BRANCH   7  18
HETATM   18  C   UNL     1      -8.093   5.756  67.511  1.00  0.00    -0.102 A  
HETATM   19  O   UNL     1      -9.633   1.872  67.694  1.00  0.00    -0.390 OA 
HETATM   20  C   UNL     1      -9.103   3.124  67.526  1.00  0.00    -0.177 A  
HETATM   21  C   UNL     1      -9.548   4.015  66.545  1.00  0.00    -0.205 A  
HETATM   22  C   UNL     1      -7.563   4.800  68.380  1.00  0.00    -0.077 A  
HETATM   23  H   UNL     1      -9.330   1.267  68.361  1.00  0.00     0.000 HD 
HETATM   24  C   UNL     1      -9.027   5.321  66.550  1.00  0.00    -0.120 A  
HETATM   25  C   UNL     1      -8.074   3.498  68.414  1.00  0.00    -0.070 A  
BRANCH  21  26
HETATM   26  O   UNL     1     -10.468   3.828  65.552  1.00  0.00     0.051 OA 
HETATM   27  C   UNL     1     -10.089   3.919  64.188  1.00  0.00    -0.201 C  
ENDBRANCH  21  26
BRANCH  25  28
HETATM   28  O   UNL     1      -7.680   2.559  69.335  1.00  0.00    -0.043 OA 
HETATM   29  C   UNL     1      -7.805   2.924  70.704  1.00  0.00    -0.042 C  
ENDBRANCH  25  28
ENDBRANCH   7  18
BRANCH  15  30
HETATM   30  O   UNL     1      -8.760  10.715  66.180  1.00  0.00    -0.158 OA 
BRANCH  30  31
HETATM   31  C   UNL     1      -9.195  11.966  66.762  1.00  0.00    -0.194 C  
HETATM   32  O   UNL     1      -9.874  12.852  65.842  1.00  0.00    -0.268 OA 
HETATM   33  C   UNL     1     -10.044  14.176  66.406  1.00  0.00    -0.293 C  
HETATM   34  C   UNL     1     -10.946  15.118  65.593  1.00  0.00    -0.355 C  
HETATM   35  O   UNL     1     -10.938  16.449  66.152  1.00  0.00    -0.126 OA 
HETATM   36  C   UNL     1      -9.614  16.988  66.159  1.00  0.00    -0.240 C  
HETATM   37  H   UNL     1      -6.717  12.286  68.900  1.00  0.00     0.000 HD 
HETATM   38  O   UNL     1      -8.765  16.193  66.973  1.00  0.00    -0.180 OA 
HETATM   39  C   UNL     1      -8.681  14.846  66.515  1.00  0.00    -0.169 C  
HETATM   40  H   UNL     1      -6.031  14.138  68.211  1.00  0.00     0.000 HD 
HETATM   41  O   UNL     1      -7.521  11.913  68.558  1.00  0.00    -0.106 OA 
HETATM   42  C   UNL     1      -7.876  14.094  67.559  1.00  0.00    -0.192 C  
HETATM   43  C   UNL     1      -7.868  12.580  67.325  1.00  0.00    -0.160 C  
HETATM   44  O   UNL     1      -6.534  14.608  67.557  1.00  0.00    -0.258 OA 
BRANCH  36  45
HETATM   45  C   UNL     1      -9.610  18.341  66.826  1.00  0.00    -0.299 A  
HETATM   46  S   UNL     1      -9.957  18.443  68.513  1.00  0.00    -0.392 SA 
HETATM   47  C   UNL     1      -9.674  20.649  67.239  1.00  0.00    -0.562 A  
HETATM   48  C   UNL     1      -9.462  19.608  66.284  1.00  0.00    -0.474 A  
HETATM   49  C   UNL     1      -9.965  20.153  68.491  1.00  0.00    -0.249 A  
ENDBRANCH  36  45
ENDBRANCH  30  31
ENDBRANCH  15  30
TORSDOF 6
ENDMDL
MODEL       27
REMARK 921   NORMALIZED FREE ENERGY PREDICTED BY IDOCK:   -5.91 KCAL/MOL
REMARK 922        TOTAL FREE ENERGY PREDICTED BY IDOCK:  -10.00 KCAL/MOL
REMARK 923 INTER-LIGAND FREE ENERGY PREDICTED BY IDOCK:   -8.41 KCAL/MOL
REMARK 924 INTRA-LIGAND FREE ENERGY PREDICTED BY IDOCK:   -1.59 KCAL/MOL
REMARK 927      BINDING AFFINITY PREDICTED BY RF-SCORE:    0.00 PKD
ROOT
HETATM    1  C   UNL     1      -9.301   8.676  69.781  1.00  0.00    -0.165 C  
HETATM    2  C   UNL     1      -9.910   8.997  71.118  1.00  0.00    -0.300 C  
HETATM    3  O   UNL     1     -10.549   7.766  71.517  1.00  0.00    -0.211 OA 
HETATM    4  C   UNL     1     -10.893   7.050  70.391  1.00  0.00    -0.254 C  
HETATM    5  C   UNL     1     -10.394   7.791  69.176  1.00  0.00    -0.219 C  
HETATM    6  O   UNL     1     -11.571   6.039  70.412  1.00  0.00    -0.275 OA 
HETATM    7  C   UNL     1      -9.872   6.987  67.982  1.00  0.00    -0.156 C  
HETATM    8  C   UNL     1      -9.029   7.901  67.075  1.00  0.00    -0.145 A  
HETATM    9  C   UNL     1      -8.589   9.215  67.477  1.00  0.00    -0.116 A  
HETATM   10  C   UNL     1      -8.646   7.385  65.820  1.00  0.00    -0.150 A  
HETATM   11  C   UNL     1      -6.383   8.843  63.572  1.00  0.00    -0.089 C  
HETATM   12  C   UNL     1      -7.803   8.135  65.032  1.00  0.00    -0.128 A  
HETATM   13  C   UNL     1      -7.743   9.943  66.618  1.00  0.00    -0.106 A  
HETATM   14  C   UNL     1      -7.362   9.374  65.422  1.00  0.00    -0.096 A  
HETATM   15  C   UNL     1      -8.912   9.832  68.847  1.00  0.00    -0.144 C  
HETATM   16  O   UNL     1      -7.287   7.753  63.834  1.00  0.00    -0.083 OA 
HETATM   17  O   UNL     1      -6.504   9.926  64.521  1.00  0.00    -0.107 OA 
ENDROOT
BRANCH   7  18
HETATM   18  C   UNL     1      -9.165   5.682  68.394  1.00  0.00    -0.125 A  
HETATM   19  O   UNL     1      -6.799   2.238  68.573  1.00  0.00    -0.038 OA 
HETATM   20  C   UNL     1      -7.558   3.377  68.626  1.00  0.00    -0.052 A  
HETATM   21  C   UNL     1      -7.075   4.592  69.120  1.00  0.00    -0.052 A  
HETATM   22  C   UNL     1      -9.672   4.428  68.047  1.00  0.00    -0.182 A  
HETATM   23  H   UNL     1      -7.128   1.412  68.237  1.00  0.00     0.000 HD 
HETATM   24  C   UNL     1      -7.895   5.729  69.001  1.00  0.00    -0.094 A  
HETATM   25  C   UNL     1      -8.875   3.281  68.134  1.00  0.00    -0.124 A  
BRANCH  21  26
HETATM   26  O   UNL     1      -5.872   4.879  69.702  1.00  0.00    -0.015 OA 
HETATM   27  C   UNL     1      -5.812   5.377  71.029  1.00  0.00    -0.021 C  
ENDBRANCH  21  26
BRANCH  25  28
HETATM   28  O   UNL     1      -9.280   2.048  67.684  1.00  0.00    -0.157 OA 
HETATM   29  C   UNL     1      -9.219   1.835  66.279  1.00  0.00     0.044 C  
ENDBRANCH  25  28
ENDBRANCH   7  18
BRANCH  15  30
HETATM   30  O   UNL     1      -9.976  10.776  68.843  1.00  0.00    -0.188 OA 
BRANCH  30  31
HETATM   31  C   UNL     1      -9.861  12.050  68.169  1.00  0.00    -0.201 C  
HETATM   32  O   UNL     1      -8.682  12.811  68.518  1.00  0.00    -0.146 OA 
HETATM   33  C   UNL     1      -8.758  14.170  68.023  1.00  0.00    -0.177 C  
HETATM   34  C   UNL     1      -7.461  14.984  68.154  1.00  0.00    -0.112 C  
HETATM   35  O   UNL     1      -7.675  16.359  67.771  1.00  0.00    -0.143 OA 
HETATM   36  C   UNL     1      -8.673  16.966  68.596  1.00  0.00    -0.267 C  
HETATM   37  H   UNL     1     -13.082  12.697  68.001  1.00  0.00     0.000 HD 
HETATM   38  O   UNL     1      -9.914  16.295  68.437  1.00  0.00    -0.224 OA 
HETATM   39  C   UNL     1      -9.836  14.918  68.796  1.00  0.00    -0.225 C  
HETATM   40  H   UNL     1     -13.026  14.511  69.041  1.00  0.00     0.000 HD 
HETATM   41  O   UNL     1     -12.276  12.252  67.766  1.00  0.00    -0.425 OA 
HETATM   42  C   UNL     1     -11.178  14.309  68.429  1.00  0.00    -0.269 C  
HETATM   43  C   UNL     1     -11.190  12.783  68.557  1.00  0.00    -0.279 C  
HETATM   44  O   UNL     1     -12.187  14.892  69.270  1.00  0.00    -0.266 OA 
BRANCH  36  45
HETATM   45  C   UNL     1      -8.946  18.374  68.126  1.00  0.00    -0.309 A  
HETATM   46  S   UNL     1     -10.498  18.750  67.473  1.00  0.00    -0.439 SA 
HETATM   47  C   UNL     1      -8.712  20.586  67.385  1.00  0.00    -0.373 A  
HETATM   48  C   UNL     1      -8.100  19.467  68.028  1.00  0.00    -0.345 A  
HETATM   49  C   UNL     1     -10.014  20.327  67.019  1.00  0.00    -0.460 A  
ENDBRANCH  36  45
ENDBRANCH  30  31
ENDBRANCH  15  30
TORSDOF 6
ENDMDL
MODEL       28
REMARK 921   NORMALIZED FREE ENERGY PREDICTED BY IDOCK:   -5.90 KCAL/MOL
REMARK 922        TOTAL FREE ENERGY PREDICTED BY IDOCK:   -9.99 KCAL/MOL
REMARK 923 INTER-LIGAND FREE ENERGY PREDICTED BY IDOCK:   -8.52 KCAL/MOL
REMARK 924 INTRA-LIGAND FREE ENERGY PREDICTED BY IDOCK:   -1.47 KCAL/MOL
REMARK 927      BINDING AFFINITY PREDICTED BY RF-SCORE:    0.00 PKD
ROOT
HETATM    1  C   UNL     1      -8.764   8.268  65.428  1.00  0.00    -0.147 C  
HETATM    2  C   UNL     1      -8.327   8.743  64.071  1.00  0.00    -0.141 C  
HETATM    3  O   UNL     1      -7.392   7.735  63.630  1.00  0.00    -0.087 OA 
HETATM    4  C   UNL     1      -6.815   7.142  64.731  1.00  0.00    -0.050 C  
HETATM    5  C   UNL     1      -7.443   7.717  65.975  1.00  0.00    -0.078 C  
HETATM    6  O   UNL     1      -5.887   6.356  64.670  1.00  0.00    -0.022 OA 
HETATM    7  C   UNL     1      -7.671   6.801  67.181  1.00  0.00    -0.104 C  
HETATM    8  C   UNL     1      -8.692   7.449  68.134  1.00  0.00    -0.122 A  
HETATM    9  C   UNL     1      -9.493   8.591  67.767  1.00  0.00    -0.168 A  
HETATM   10  C   UNL     1      -8.862   6.847  69.398  1.00  0.00    -0.136 A  
HETATM   11  C   UNL     1     -11.336   7.628  71.758  1.00  0.00    -0.255 C  
HETATM   12  C   UNL     1      -9.843   7.337  70.230  1.00  0.00    -0.179 A  
HETATM   13  C   UNL     1     -10.468   9.058  68.670  1.00  0.00    -0.229 A  
HETATM   14  C   UNL     1     -10.624   8.406  69.874  1.00  0.00    -0.228 A  
HETATM   15  C   UNL     1      -9.413   9.272  66.392  1.00  0.00    -0.218 C  
HETATM   16  O   UNL     1     -10.180   6.828  71.445  1.00  0.00    -0.197 OA 
HETATM   17  O   UNL     1     -11.559   8.701  70.818  1.00  0.00    -0.278 OA 
ENDROOT
BRANCH   7  18
HETATM   18  C   UNL     1      -8.009   5.352  66.784  1.00  0.00    -0.101 A  
HETATM   19  O   UNL     1      -8.275   1.620  64.915  1.00  0.00    -0.073 OA 
HETATM   20  C   UNL     1      -8.199   2.789  65.626  1.00  0.00    -0.089 A  
HETATM   21  C   UNL     1      -7.250   3.010  66.628  1.00  0.00    -0.065 A  
HETATM   22  C   UNL     1      -9.039   5.054  65.890  1.00  0.00    -0.150 A  
HETATM   23  H   UNL     1      -8.920   1.470  64.234  1.00  0.00     0.000 HD 
HETATM   24  C   UNL     1      -7.175   4.294  67.198  1.00  0.00    -0.068 A  
HETATM   25  C   UNL     1      -9.128   3.794  65.289  1.00  0.00    -0.143 A  
BRANCH  21  26
HETATM   26  O   UNL     1      -6.321   2.156  67.151  1.00  0.00    -0.027 OA 
HETATM   27  C   UNL     1      -6.565   1.486  68.377  1.00  0.00    -0.029 C  
ENDBRANCH  21  26
BRANCH  25  28
HETATM   28  O   UNL     1     -10.040   3.490  64.308  1.00  0.00    -0.176 OA 
HETATM   29  C   UNL     1      -9.867   4.147  63.058  1.00  0.00    -0.115 C  
ENDBRANCH  25  28
ENDBRANCH   7  18
BRANCH  15  30
HETATM   30  O   UNL     1      -8.651  10.472  66.361  1.00  0.00    -0.136 OA 
BRANCH  30  31
HETATM   31  C   UNL     1      -9.180  11.724  66.855  1.00  0.00    -0.189 C  
HETATM   32  O   UNL     1      -9.747  12.581  65.837  1.00  0.00    -0.256 OA 
HETATM   33  C   UNL     1     -10.014  13.910  66.347  1.00  0.00    -0.297 C  
HETATM   34  C   UNL     1     -10.816  14.820  65.403  1.00  0.00    -0.363 C  
HETATM   35  O   UNL     1     -10.905  16.160  65.932  1.00  0.00    -0.277 OA 
HETATM   36  C   UNL     1      -9.603  16.726  66.104  1.00  0.00    -0.274 C  
HETATM   37  H   UNL     1      -7.015  12.130  69.297  1.00  0.00     0.000 HD 
HETATM   38  O   UNL     1      -8.856  15.961  67.039  1.00  0.00    -0.191 OA 
HETATM   39  C   UNL     1      -8.688  14.609  66.622  1.00  0.00    -0.163 C  
HETATM   40  H   UNL     1      -6.275  13.983  68.668  1.00  0.00     0.000 HD 
HETATM   41  O   UNL     1      -7.759  11.735  68.859  1.00  0.00    -0.116 OA 
HETATM   42  C   UNL     1      -8.016  13.891  67.779  1.00  0.00    -0.172 C  
HETATM   43  C   UNL     1      -7.951  12.374  67.577  1.00  0.00    -0.173 C  
HETATM   44  O   UNL     1      -6.695  14.432  67.944  1.00  0.00    -0.133 OA 
BRANCH  36  45
HETATM   45  C   UNL     1      -9.711  18.090  66.739  1.00  0.00    -0.323 A  
HETATM   46  S   UNL     1     -10.099  18.203  68.416  1.00  0.00    -0.393 SA 
HETATM   47  C   UNL     1      -9.951  20.395  67.096  1.00  0.00    -0.568 A  
HETATM   48  C   UNL     1      -9.645  19.352  66.170  1.00  0.00    -0.384 A  
HETATM   49  C   UNL     1     -10.231  19.908  68.353  1.00  0.00    -0.433 A  
ENDBRANCH  36  45
ENDBRANCH  30  31
ENDBRANCH  15  30
TORSDOF 6
ENDMDL
MODEL       29
REMARK 921   NORMALIZED FREE ENERGY PREDICTED BY IDOCK:   -5.76 KCAL/MOL
REMARK 922        TOTAL FREE ENERGY PREDICTED BY IDOCK:   -9.80 KCAL/MOL
REMARK 923 INTER-LIGAND FREE ENERGY PREDICTED BY IDOCK:   -9.45 KCAL/MOL
REMARK 924 INTRA-LIGAND FREE ENERGY PREDICTED BY IDOCK:   -0.35 KCAL/MOL
REMARK 927      BINDING AFFINITY PREDICTED BY RF-SCORE:    0.00 PKD
ROOT
HETATM    1  C   UNL     1     -10.171  12.151  67.194  1.00  0.00    -0.226 C  
HETATM    2  C   UNL     1      -9.997  12.835  65.867  1.00  0.00    -0.266 C  
HETATM    3  O   UNL     1     -10.797  14.031  65.980  1.00  0.00    -0.290 OA 
HETATM    4  C   UNL     1     -11.816  13.808  66.881  1.00  0.00    -0.413 C  
HETATM    5  C   UNL     1     -11.653  12.428  67.464  1.00  0.00    -0.431 C  
HETATM    6  O   UNL     1     -12.731  14.587  67.075  1.00  0.00     0.132 OA 
HETATM    7  C   UNL     1     -12.010  12.198  68.935  1.00  0.00    -0.296 C  
HETATM    8  C   UNL     1     -11.367  10.887  69.423  1.00  0.00    -0.347 A  
HETATM    9  C   UNL     1     -10.364  10.177  68.668  1.00  0.00    -0.208 A  
HETATM   10  C   UNL     1     -11.765  10.410  70.689  1.00  0.00    -0.444 A  
HETATM   11  C   UNL     1     -10.315   7.750  72.458  1.00  0.00    -0.268 C  
HETATM   12  C   UNL     1     -11.130   9.300  71.199  1.00  0.00    -0.341 A  
HETATM   13  C   UNL     1      -9.764   9.036  69.236  1.00  0.00    -0.168 A  
HETATM   14  C   UNL     1     -10.157   8.637  70.496  1.00  0.00    -0.196 A  
HETATM   15  C   UNL     1      -9.832  10.657  67.309  1.00  0.00    -0.176 C  
HETATM   16  O   UNL     1     -11.345   8.757  72.427  1.00  0.00    -0.338 OA 
HETATM   17  O   UNL     1      -9.629   7.597  71.196  1.00  0.00    -0.159 OA 
ENDROOT
BRANCH   7  18
HETATM   18  C   UNL     1     -11.711  13.418  69.827  1.00  0.00    -0.355 A  
HETATM   19  O   UNL     1     -11.708  17.142  71.731  1.00  0.00    -0.188 OA 
HETATM   20  C   UNL     1     -11.676  15.877  71.205  1.00  0.00    -0.448 A  
HETATM   21  C   UNL     1     -12.404  14.811  71.741  1.00  0.00    -0.346 A  
HETATM   22  C   UNL     1     -10.879  14.456  69.402  1.00  0.00    -0.227 A  
HETATM   23  H   UNL     1     -11.213  17.866  71.366  1.00  0.00     0.000 HD 
HETATM   24  C   UNL     1     -12.403  13.590  71.042  1.00  0.00    -0.422 A  
HETATM   25  C   UNL     1     -10.873  15.689  70.062  1.00  0.00    -0.330 A  
BRANCH  21  26
HETATM   26  O   UNL     1     -13.173  14.762  72.869  1.00  0.00    -0.445 OA 
HETATM   27  C   UNL     1     -12.630  15.114  74.131  1.00  0.00    -0.437 C  
ENDBRANCH  21  26
BRANCH  25  28
HETATM   28  O   UNL     1     -10.174  16.781  69.610  1.00  0.00    -0.210 OA 
HETATM   29  C   UNL     1     -10.341  17.115  68.238  1.00  0.00    -0.354 C  
ENDBRANCH  25  28
ENDBRANCH   7  18
BRANCH  15  30
HETATM   30  O   UNL     1     -10.384   9.990  66.180  1.00  0.00    -0.224 OA 
BRANCH  30  31
HETATM   31  C   UNL     1      -9.823   8.757  65.675  1.00  0.00     0.177 C  
HETATM   32  O   UNL     1     -10.192   7.576  66.425  1.00  0.00    -0.140 OA 
HETATM   33  C   UNL     1      -9.397   6.429  66.038  1.00  0.00    -0.017 C  
HETATM   34  C   UNL     1      -9.866   5.087  66.622  1.00  0.00    -0.196 C  
HETATM   35  O   UNL     1      -8.934   4.032  66.301  1.00  0.00    -0.117 OA 
HETATM   36  C   UNL     1      -7.637   4.324  66.828  1.00  0.00    -0.085 C  
HETATM   37  H   UNL     1      -6.993  10.032  64.587  1.00  0.00     0.000 HD 
HETATM   38  O   UNL     1      -7.129   5.515  66.246  1.00  0.00    -0.069 OA 
HETATM   39  C   UNL     1      -7.962   6.642  66.503  1.00  0.00    -0.106 C  
HETATM   40  H   UNL     1      -5.722   8.830  65.733  1.00  0.00     0.000 HD 
HETATM   41  O   UNL     1      -7.929   9.867  64.574  1.00  0.00    -0.133 OA 
HETATM   42  C   UNL     1      -7.380   7.790  65.699  1.00  0.00    -0.073 C  
HETATM   43  C   UNL     1      -8.280   9.029  65.697  1.00  0.00    -0.119 C  
HETATM   44  O   UNL     1      -6.086   8.111  66.236  1.00  0.00    -0.044 OA 
BRANCH  36  45
HETATM   45  C   UNL     1      -6.657   3.256  66.409  1.00  0.00    -0.040 A  
HETATM   46  S   UNL     1      -6.619   2.757  64.758  1.00  0.00    -0.039 SA 
HETATM   47  C   UNL     1      -5.136   1.471  66.405  1.00  0.00    -0.005 A  
HETATM   48  C   UNL     1      -5.790   2.486  67.168  1.00  0.00    -0.023 A  
HETATM   49  C   UNL     1      -5.507   1.497  65.079  1.00  0.00    -0.005 A  
ENDBRANCH  36  45
ENDBRANCH  30  31
ENDBRANCH  15  30
TORSDOF 6
ENDMDL
MODEL       30
REMARK 921   NORMALIZED FREE ENERGY PREDICTED BY IDOCK:   -5.72 KCAL/MOL
REMARK 922        TOTAL FREE ENERGY PREDICTED BY IDOCK:   -9.74 KCAL/MOL
REMARK 923 INTER-LIGAND FREE ENERGY PREDICTED BY IDOCK:  -10.57 KCAL/MOL
REMARK 924 INTRA-LIGAND FREE ENERGY PREDICTED BY IDOCK:    0.82 KCAL/MOL
REMARK 927      BINDING AFFINITY PREDICTED BY RF-SCORE:    0.00 PKD
ROOT
HETATM    1  C   UNL     1      -8.160  12.268  68.384  1.00  0.00    -0.151 C  
HETATM    2  C   UNL     1      -7.157  12.909  67.467  1.00  0.00    -0.152 C  
HETATM    3  O   UNL     1      -7.891  13.979  66.836  1.00  0.00     0.018 OA 
HETATM    4  C   UNL     1      -9.229  13.651  66.805  1.00  0.00    -0.241 C  
HETATM    5  C   UNL     1      -9.421  12.337  67.518  1.00  0.00    -0.182 C  
HETATM    6  O   UNL     1     -10.071  14.296  66.207  1.00  0.00    -0.278 OA 
HETATM    7  C   UNL     1     -10.689  12.124  68.350  1.00  0.00    -0.252 C  
HETATM    8  C   UNL     1     -10.479  10.945  69.317  1.00  0.00    -0.230 A  
HETATM    9  C   UNL     1      -9.186  10.356  69.567  1.00  0.00    -0.143 A  
HETATM   10  C   UNL     1     -11.613  10.472  70.009  1.00  0.00    -0.392 A  
HETATM   11  C   UNL     1     -11.630   8.135  72.625  1.00  0.00    -0.375 C  
HETATM   12  C   UNL     1     -11.439   9.491  70.958  1.00  0.00    -0.349 A  
HETATM   13  C   UNL     1      -9.075   9.341  70.537  1.00  0.00    -0.307 A  
HETATM   14  C   UNL     1     -10.207   8.947  71.217  1.00  0.00    -0.291 A  
HETATM   15  C   UNL     1      -7.891  10.846  68.900  1.00  0.00    -0.142 C  
HETATM   16  O   UNL     1     -12.412   8.979  71.758  1.00  0.00    -0.323 OA 
HETATM   17  O   UNL     1     -10.248   8.027  72.220  1.00  0.00    -0.217 OA 
ENDROOT
BRANCH   7  18
HETATM   18  C   UNL     1     -11.191  13.414  69.028  1.00  0.00    -0.323 A  
HETATM   19  O   UNL     1     -11.860  16.640  71.602  1.00  0.00    -0.645 OA 
HETATM   20  C   UNL     1     -11.660  15.654  70.673  1.00  0.00    -0.367 A  
HETATM   21  C   UNL     1     -10.716  15.753  69.647  1.00  0.00    -0.292 A  
HETATM   22  C   UNL     1     -12.227  13.399  69.963  1.00  0.00    -0.367 A  
HETATM   23  H   UNL     1     -12.501  16.573  72.300  1.00  0.00     0.000 HD 
HETATM   24  C   UNL     1     -10.501  14.627  68.833  1.00  0.00    -0.248 A  
HETATM   25  C   UNL     1     -12.452  14.496  70.803  1.00  0.00    -0.351 A  
BRANCH  21  26
HETATM   26  O   UNL     1      -9.910  16.802  69.304  1.00  0.00    -0.241 OA 
HETATM   27  C   UNL     1     -10.088  17.477  68.070  1.00  0.00    -0.332 C  
ENDBRANCH  21  26
BRANCH  25  28
HETATM   28  O   UNL     1     -13.370  14.485  71.824  1.00  0.00    -0.323 OA 
HETATM   29  C   UNL     1     -13.658  13.218  72.403  1.00  0.00    -0.594 C  
ENDBRANCH  25  28
ENDBRANCH   7  18
BRANCH  15  30
HETATM   30  O   UNL     1      -7.444  10.055  67.806  1.00  0.00    -0.088 OA 
BRANCH  30  31
HETATM   31  C   UNL     1      -8.333   9.162  67.098  1.00  0.00    -0.117 C  
HETATM   32  O   UNL     1      -8.528   7.877  67.734  1.00  0.00    -0.124 OA 
HETATM   33  C   UNL     1      -9.205   6.945  66.856  1.00  0.00    -0.145 C  
HETATM   34  C   UNL     1      -9.649   5.632  67.520  1.00  0.00    -0.118 C  
HETATM   35  O   UNL     1     -10.179   4.714  66.541  1.00  0.00    -0.242 OA 
HETATM   36  C   UNL     1      -9.196   4.406  65.549  1.00  0.00    -0.150 C  
HETATM   37  H   UNL     1      -7.557  10.161  64.062  1.00  0.00     0.000 HD 
HETATM   38  O   UNL     1      -8.821   5.584  64.850  1.00  0.00    -0.119 OA 
HETATM   39  C   UNL     1      -8.269   6.574  65.713  1.00  0.00    -0.135 C  
HETATM   40  H   UNL     1      -6.931   8.300  63.340  1.00  0.00     0.000 HD 
HETATM   41  O   UNL     1      -7.958  10.234  64.920  1.00  0.00    -0.151 OA 
HETATM   42  C   UNL     1      -8.065   7.813  64.859  1.00  0.00    -0.136 C  
HETATM   43  C   UNL     1      -7.671   9.042  65.683  1.00  0.00    -0.091 C  
HETATM   44  O   UNL     1      -7.059   7.525  63.874  1.00  0.00    -0.056 OA 
BRANCH  36  45
HETATM   45  C   UNL     1      -9.794   3.516  64.487  1.00  0.00    -0.179 A  
HETATM   46  S   UNL     1      -9.257   1.881  64.368  1.00  0.00    -0.133 SA 
HETATM   47  C   UNL     1     -10.884   2.715  62.572  1.00  0.00    -0.175 A  
HETATM   48  C   UNL     1     -10.682   3.810  63.465  1.00  0.00    -0.217 A  
HETATM   49  C   UNL     1     -10.156   1.605  62.939  1.00  0.00    -0.103 A  
ENDBRANCH  36  45
ENDBRANCH  30  31
ENDBRANCH  15  30
TORSDOF 6
ENDMDL
MODEL       31
REMARK 921   NORMALIZED FREE ENERGY PREDICTED BY IDOCK:   -5.68 KCAL/MOL
REMARK 922        TOTAL FREE ENERGY PREDICTED BY IDOCK:   -9.69 KCAL/MOL
REMARK 923 INTER-LIGAND FREE ENERGY PREDICTED BY IDOCK:   -8.83 KCAL/MOL
REMARK 924 INTRA-LIGAND FREE ENERGY PREDICTED BY IDOCK:   -0.86 KCAL/MOL
REMARK 927      BINDING AFFINITY PREDICTED BY RF-SCORE:    0.00 PKD
ROOT
HETATM    1  C   UNL     1      -9.409   7.878  70.845  1.00  0.00    -0.162 C  
HETATM    2  C   UNL     1      -9.566   8.836  71.993  1.00  0.00    -0.286 C  
HETATM    3  O   UNL     1      -9.962   7.997  73.099  1.00  0.00    -0.293 OA 
HETATM    4  C   UNL     1     -10.610   6.883  72.611  1.00  0.00    -0.233 C  
HETATM    5  C   UNL     1     -10.583   6.929  71.104  1.00  0.00    -0.246 C  
HETATM    6  O   UNL     1     -11.181   6.069  73.314  1.00  0.00    -0.209 OA 
HETATM    7  C   UNL     1     -10.431   5.619  70.326  1.00  0.00    -0.363 C  
HETATM    8  C   UNL     1      -9.989   5.925  68.884  1.00  0.00    -0.201 A  
HETATM    9  C   UNL     1      -9.524   7.224  68.465  1.00  0.00    -0.140 A  
HETATM   10  C   UNL     1     -10.006   4.854  67.967  1.00  0.00    -0.175 A  
HETATM   11  C   UNL     1      -8.696   4.880  64.713  1.00  0.00    -0.154 C  
HETATM   12  C   UNL     1      -9.515   5.069  66.699  1.00  0.00    -0.146 A  
HETATM   13  C   UNL     1      -9.051   7.387  67.148  1.00  0.00    -0.146 A  
HETATM   14  C   UNL     1      -9.047   6.297  66.305  1.00  0.00    -0.153 A  
HETATM   15  C   UNL     1      -9.419   8.430  69.412  1.00  0.00    -0.158 C  
HETATM   16  O   UNL     1      -9.396   4.130  65.724  1.00  0.00    -0.141 OA 
HETATM   17  O   UNL     1      -8.568   6.283  65.031  1.00  0.00    -0.099 OA 
ENDROOT
BRANCH   7  18
HETATM   18  C   UNL     1      -9.549   4.584  71.051  1.00  0.00    -0.248 A  
HETATM   19  O   UNL     1      -7.335   2.395  73.843  1.00  0.00    -0.035 OA 
HETATM   20  C   UNL     1      -8.087   3.014  72.879  1.00  0.00    -0.067 A  
HETATM   21  C   UNL     1      -9.434   2.715  72.656  1.00  0.00    -0.103 A  
HETATM   22  C   UNL     1      -8.171   4.758  71.189  1.00  0.00    -0.104 A  
HETATM   23  H   UNL     1      -6.419   2.599  73.995  1.00  0.00     0.000 HD 
HETATM   24  C   UNL     1     -10.145   3.506  71.735  1.00  0.00    -0.147 A  
HETATM   25  C   UNL     1      -7.440   4.003  72.112  1.00  0.00    -0.066 A  
BRANCH  21  26
HETATM   26  O   UNL     1     -10.220   1.756  73.230  1.00  0.00    -0.090 OA 
HETATM   27  C   UNL     1     -11.614   1.963  73.388  1.00  0.00    -0.161 C  
ENDBRANCH  21  26
BRANCH  25  28
HETATM   28  O   UNL     1      -6.111   4.223  72.380  1.00  0.00    -0.015 OA 
HETATM   29  C   UNL     1      -5.194   3.900  71.341  1.00  0.00     0.000 C  
ENDBRANCH  25  28
ENDBRANCH   7  18
BRANCH  15  30
HETATM   30  O   UNL     1     -10.482   9.369  69.306  1.00  0.00    -0.207 OA 
BRANCH  30  31
HETATM   31  C   UNL     1     -10.257  10.791  69.440  1.00  0.00    -0.160 C  
HETATM   32  O   UNL     1     -11.417  11.612  69.167  1.00  0.00    -0.248 OA 
HETATM   33  C   UNL     1     -11.065  13.013  69.058  1.00  0.00    -0.231 C  
HETATM   34  C   UNL     1     -12.258  13.979  68.989  1.00  0.00    -0.245 C  
HETATM   35  O   UNL     1     -11.813  15.329  68.736  1.00  0.00    -0.338 OA 
HETATM   36  C   UNL     1     -11.101  15.405  67.499  1.00  0.00    -0.315 C  
HETATM   37  H   UNL     1      -7.123  10.788  68.441  1.00  0.00     0.000 HD 
HETATM   38  O   UNL     1      -9.939  14.590  67.552  1.00  0.00    -0.222 OA 
HETATM   39  C   UNL     1     -10.248  13.220  67.789  1.00  0.00    -0.228 C  
HETATM   40  H   UNL     1      -7.370  12.114  66.842  1.00  0.00     0.000 HD 
HETATM   41  O   UNL     1      -7.839  10.623  69.044  1.00  0.00    -0.117 OA 
HETATM   42  C   UNL     1      -8.918  12.512  67.972  1.00  0.00    -0.192 C  
HETATM   43  C   UNL     1      -9.077  11.064  68.445  1.00  0.00    -0.161 C  
HETATM   44  O   UNL     1      -8.203  12.557  66.727  1.00  0.00    -0.116 OA 
BRANCH  36  45
HETATM   45  C   UNL     1     -10.569  16.802  67.293  1.00  0.00    -0.275 A  
HETATM   46  S   UNL     1     -10.386  17.837  68.661  1.00  0.00    -0.303 SA 
HETATM   47  C   UNL     1      -9.932  18.853  66.354  1.00  0.00    -0.435 A  
HETATM   48  C   UNL     1     -10.267  17.484  66.126  1.00  0.00    -0.339 A  
HETATM   49  C   UNL     1      -9.971  19.182  67.690  1.00  0.00    -0.357 A  
ENDBRANCH  36  45
ENDBRANCH  30  31
ENDBRANCH  15  30
TORSDOF 6
ENDMDL
MODEL       32
REMARK 921   NORMALIZED FREE ENERGY PREDICTED BY IDOCK:   -5.64 KCAL/MOL
REMARK 922        TOTAL FREE ENERGY PREDICTED BY IDOCK:   -9.64 KCAL/MOL
REMARK 923 INTER-LIGAND FREE ENERGY PREDICTED BY IDOCK:   -8.78 KCAL/MOL
REMARK 924 INTRA-LIGAND FREE ENERGY PREDICTED BY IDOCK:   -0.86 KCAL/MOL
REMARK 927      BINDING AFFINITY PREDICTED BY RF-SCORE:    0.00 PKD
ROOT
HETATM    1  C   UNL     1      -8.152  10.639  68.941  1.00  0.00    -0.139 C  
HETATM    2  C   UNL     1      -6.782  10.750  68.332  1.00  0.00    -0.059 C  
HETATM    3  O   UNL     1      -7.001  11.473  67.102  1.00  0.00    -0.117 OA 
HETATM    4  C   UNL     1      -8.289  11.245  66.668  1.00  0.00    -0.163 C  
HETATM    5  C   UNL     1      -9.000  10.394  67.689  1.00  0.00    -0.139 C  
HETATM    6  O   UNL     1      -8.714  11.609  65.587  1.00  0.00    -0.045 OA 
HETATM    7  C   UNL     1     -10.487  10.645  67.957  1.00  0.00    -0.228 C  
HETATM    8  C   UNL     1     -10.884  10.003  69.298  1.00  0.00    -0.261 A  
HETATM    9  C   UNL     1      -9.918   9.509  70.249  1.00  0.00    -0.310 A  
HETATM   10  C   UNL     1     -12.260   9.952  69.603  1.00  0.00     0.318 A  
HETATM   11  C   UNL     1     -13.679   9.014  72.671  1.00  0.00    -0.359 C  
HETATM   12  C   UNL     1     -12.640   9.482  70.840  1.00  0.00    -0.177 A  
HETATM   13  C   UNL     1     -10.370   9.022  71.490  1.00  0.00    -0.412 A  
HETATM   14  C   UNL     1     -11.723   9.036  71.756  1.00  0.00    -0.369 A  
HETATM   15  C   UNL     1      -8.400   9.578  70.023  1.00  0.00    -0.179 C  
HETATM   16  O   UNL     1     -13.914   9.434  71.313  1.00  0.00    -0.272 OA 
HETATM   17  O   UNL     1     -12.303   8.657  72.927  1.00  0.00    -0.265 OA 
ENDROOT
BRANCH   7  18
HETATM   18  C   UNL     1     -10.882  12.129  67.826  1.00  0.00    -0.263 A  
HETATM   19  O   UNL     1     -11.122  16.185  66.837  1.00  0.00    -0.164 OA 
HETATM   20  C   UNL     1     -11.156  14.855  67.165  1.00  0.00    -0.332 A  
HETATM   21  C   UNL     1     -11.850  13.903  66.413  1.00  0.00    -0.411 A  
HETATM   22  C   UNL     1     -10.324  13.115  68.643  1.00  0.00    -0.207 A  
HETATM   23  H   UNL     1     -10.650  16.832  67.348  1.00  0.00     0.000 HD 
HETATM   24  C   UNL     1     -11.705  12.548  66.763  1.00  0.00    -0.453 A  
HETATM   25  C   UNL     1     -10.432  14.469  68.311  1.00  0.00    -0.242 A  
BRANCH  21  26
HETATM   26  O   UNL     1     -12.661  14.073  65.327  1.00  0.00    -0.595 OA 
HETATM   27  C   UNL     1     -12.111  14.206  64.027  1.00  0.00    -0.348 C  
ENDBRANCH  21  26
BRANCH  25  28
HETATM   28  O   UNL     1      -9.794  15.467  69.005  1.00  0.00    -0.207 OA 
HETATM   29  C   UNL     1      -8.402  15.288  69.236  1.00  0.00    -0.243 C  
ENDBRANCH  25  28
ENDBRANCH   7  18
BRANCH  15  30
HETATM   30  O   UNL     1      -7.802   8.360  69.594  1.00  0.00    -0.096 OA 
BRANCH  30  31
HETATM   31  C   UNL     1      -8.085   7.789  68.296  1.00  0.00    -0.124 C  
HETATM   32  O   UNL     1      -9.304   7.012  68.235  1.00  0.00    -0.129 OA 
HETATM   33  C   UNL     1      -9.393   6.257  67.002  1.00  0.00    -0.126 C  
HETATM   34  C   UNL     1     -10.748   5.577  66.752  1.00  0.00    -0.253 C  
HETATM   35  O   UNL     1     -10.695   4.736  65.581  1.00  0.00    -0.274 OA 
HETATM   36  C   UNL     1      -9.703   3.717  65.733  1.00  0.00    -0.135 C  
HETATM   37  H   UNL     1      -4.961   7.291  67.396  1.00  0.00     0.000 HD 
HETATM   38  O   UNL     1      -8.418   4.303  65.880  1.00  0.00    -0.112 OA 
HETATM   39  C   UNL     1      -8.339   5.157  67.018  1.00  0.00    -0.107 C  
HETATM   40  H   UNL     1      -5.115   5.227  67.093  1.00  0.00     0.000 HD 
HETATM   41  O   UNL     1      -5.736   7.810  67.580  1.00  0.00    -0.034 OA 
HETATM   42  C   UNL     1      -6.975   5.821  66.954  1.00  0.00    -0.065 C  
HETATM   43  C   UNL     1      -6.808   6.933  67.993  1.00  0.00    -0.078 C  
HETATM   44  O   UNL     1      -5.968   4.812  67.133  1.00  0.00    -0.025 OA 
BRANCH  36  45
HETATM   45  C   UNL     1      -9.599   2.902  64.468  1.00  0.00    -0.142 A  
HETATM   46  S   UNL     1      -8.053   2.317  63.975  1.00  0.00    -0.082 SA 
HETATM   47  C   UNL     1     -10.019   1.923  62.379  1.00  0.00    -0.087 A  
HETATM   48  C   UNL     1     -10.559   2.595  63.517  1.00  0.00    -0.199 A  
HETATM   49  C   UNL     1      -8.661   1.721  62.491  1.00  0.00    -0.072 A  
ENDBRANCH  36  45
ENDBRANCH  30  31
ENDBRANCH  15  30
TORSDOF 6
ENDMDL
MODEL       33
REMARK 921   NORMALIZED FREE ENERGY PREDICTED BY IDOCK:   -5.62 KCAL/MOL
REMARK 922        TOTAL FREE ENERGY PREDICTED BY IDOCK:   -9.62 KCAL/MOL
REMARK 923 INTER-LIGAND FREE ENERGY PREDICTED BY IDOCK:   -9.76 KCAL/MOL
REMARK 924 INTRA-LIGAND FREE ENERGY PREDICTED BY IDOCK:    0.15 KCAL/MOL
REMARK 927      BINDING AFFINITY PREDICTED BY RF-SCORE:    0.00 PKD
ROOT
HETATM    1  C   UNL     1      -9.676  11.485  65.098  1.00  0.00    -0.268 C  
HETATM    2  C   UNL     1     -10.458  11.449  63.815  1.00  0.00    -0.399 C  
HETATM    3  O   UNL     1     -11.551  12.363  64.044  1.00  0.00    -0.348 OA 
HETATM    4  C   UNL     1     -11.820  12.416  65.394  1.00  0.00    -0.406 C  
HETATM    5  C   UNL     1     -10.813  11.562  66.122  1.00  0.00    -0.330 C  
HETATM    6  O   UNL     1     -12.779  12.994  65.872  1.00  0.00    -0.439 OA 
HETATM    7  C   UNL     1     -10.307  12.019  67.493  1.00  0.00    -0.217 C  
HETATM    8  C   UNL     1      -9.007  11.270  67.838  1.00  0.00    -0.146 A  
HETATM    9  C   UNL     1      -8.269  10.494  66.872  1.00  0.00    -0.123 A  
HETATM   10  C   UNL     1      -8.517  11.408  69.153  1.00  0.00     0.150 A  
HETATM   11  C   UNL     1      -5.407  10.301  70.340  1.00  0.00    -0.053 C  
HETATM   12  C   UNL     1      -7.301  10.840  69.462  1.00  0.00    -0.124 A  
HETATM   13  C   UNL     1      -7.041   9.921  67.253  1.00  0.00    -0.085 A  
HETATM   14  C   UNL     1      -6.584  10.123  68.538  1.00  0.00    -0.053 A  
HETATM   15  C   UNL     1      -8.700  10.339  65.405  1.00  0.00    -0.169 C  
HETATM   16  O   UNL     1      -6.659  10.939  70.656  1.00  0.00    -0.319 OA 
HETATM   17  O   UNL     1      -5.394   9.686  69.033  1.00  0.00    -0.036 OA 
ENDROOT
BRANCH   7  18
HETATM   18  C   UNL     1     -10.207  13.551  67.621  1.00  0.00    -0.239 A  
HETATM   19  O   UNL     1     -10.698  17.687  67.253  1.00  0.00    -0.325 OA 
HETATM   20  C   UNL     1     -10.514  16.349  67.483  1.00  0.00    -0.304 A  
HETATM   21  C   UNL     1     -11.228  15.637  68.450  1.00  0.00    -0.352 A  
HETATM   22  C   UNL     1      -9.401  14.310  66.770  1.00  0.00    -0.290 A  
HETATM   23  H   UNL     1     -10.213  18.171  66.596  1.00  0.00     0.000 HD 
HETATM   24  C   UNL     1     -11.056  14.241  68.507  1.00  0.00    -0.276 A  
HETATM   25  C   UNL     1      -9.563  15.696  66.674  1.00  0.00    -0.248 A  
BRANCH  21  26
HETATM   26  O   UNL     1     -12.129  16.086  69.374  1.00  0.00    -0.279 OA 
HETATM   27  C   UNL     1     -12.506  15.270  70.472  1.00  0.00    -0.405 C  
ENDBRANCH  21  26
BRANCH  25  28
HETATM   28  O   UNL     1      -8.889  16.470  65.762  1.00  0.00    -0.474 OA 
HETATM   29  C   UNL     1      -7.728  17.141  66.236  1.00  0.00    -0.315 C  
ENDBRANCH  25  28
ENDBRANCH   7  18
BRANCH  15  30
HETATM   30  O   UNL     1      -9.349   9.110  65.098  1.00  0.00    -0.218 OA 
BRANCH  30  31
HETATM   31  C   UNL     1      -9.769   8.192  66.133  1.00  0.00    -0.084 C  
HETATM   32  O   UNL     1     -10.179   8.824  67.368  1.00  0.00    -0.213 OA 
HETATM   33  C   UNL     1     -10.330   7.858  68.437  1.00  0.00    -0.199 C  
HETATM   34  C   UNL     1     -10.973   8.404  69.721  1.00  0.00    -0.127 C  
HETATM   35  O   UNL     1     -10.948   7.414  70.771  1.00  0.00    -0.244 OA 
HETATM   36  C   UNL     1      -9.605   7.025  71.070  1.00  0.00    -0.170 C  
HETATM   37  H   UNL     1      -7.719   5.745  65.340  1.00  0.00     0.000 HD 
HETATM   38  O   UNL     1      -9.001   6.433  69.929  1.00  0.00    -0.141 OA 
HETATM   39  C   UNL     1      -8.956   7.322  68.817  1.00  0.00    -0.129 C  
HETATM   40  H   UNL     1      -6.749   5.625  67.190  1.00  0.00     0.000 HD 
HETATM   41  O   UNL     1      -8.475   6.309  65.230  1.00  0.00    -0.151 OA 
HETATM   42  C   UNL     1      -8.434   6.508  67.646  1.00  0.00    -0.117 C  
HETATM   43  C   UNL     1      -8.522   7.261  66.315  1.00  0.00    -0.134 C  
HETATM   44  O   UNL     1      -7.075   6.134  67.922  1.00  0.00    -0.073 OA 
BRANCH  36  45
HETATM   45  C   UNL     1      -9.603   5.927  72.105  1.00  0.00    -0.148 A  
HETATM   46  S   UNL     1     -11.083   5.514  72.889  1.00  0.00    -0.304 SA 
HETATM   47  C   UNL     1      -8.954   4.357  73.721  1.00  0.00    -0.102 A  
HETATM   48  C   UNL     1      -8.550   5.206  72.646  1.00  0.00    -0.117 A  
HETATM   49  C   UNL     1     -10.306   4.437  73.967  1.00  0.00    -0.221 A  
ENDBRANCH  36  45
ENDBRANCH  30  31
ENDBRANCH  15  30
TORSDOF 6
ENDMDL
MODEL       34
REMARK 921   NORMALIZED FREE ENERGY PREDICTED BY IDOCK:   -5.59 KCAL/MOL
REMARK 922        TOTAL FREE ENERGY PREDICTED BY IDOCK:   -9.58 KCAL/MOL
REMARK 923 INTER-LIGAND FREE ENERGY PREDICTED BY IDOCK:   -8.47 KCAL/MOL
REMARK 924 INTRA-LIGAND FREE ENERGY PREDICTED BY IDOCK:   -1.10 KCAL/MOL
REMARK 927      BINDING AFFINITY PREDICTED BY RF-SCORE:    0.00 PKD
ROOT
HETATM    1  C   UNL     1      -7.824   8.661  67.637  1.00  0.00    -0.103 C  
HETATM    2  C   UNL     1      -6.755   9.101  66.676  1.00  0.00    -0.076 C  
HETATM    3  O   UNL     1      -5.874   7.961  66.584  1.00  0.00    -0.041 OA 
HETATM    4  C   UNL     1      -5.951   7.235  67.752  1.00  0.00    -0.034 C  
HETATM    5  C   UNL     1      -6.989   7.866  68.646  1.00  0.00    -0.071 C  
HETATM    6  O   UNL     1      -5.218   6.301  68.020  1.00  0.00    -0.004 OA 
HETATM    7  C   UNL     1      -7.867   6.961  69.516  1.00  0.00    -0.120 C  
HETATM    8  C   UNL     1      -9.107   7.743  69.984  1.00  0.00    -0.150 A  
HETATM    9  C   UNL     1      -9.484   9.021  69.432  1.00  0.00    -0.159 A  
HETATM   10  C   UNL     1      -9.916   7.135  70.966  1.00  0.00    -0.192 A  
HETATM   11  C   UNL     1     -13.056   8.252  72.059  1.00  0.00    -0.327 C  
HETATM   12  C   UNL     1     -11.088   7.759  71.328  1.00  0.00    -0.246 A  
HETATM   13  C   UNL     1     -10.686   9.620  69.856  1.00  0.00    -0.283 A  
HETATM   14  C   UNL     1     -11.463   8.962  70.785  1.00  0.00    -0.275 A  
HETATM   15  C   UNL     1      -8.692   9.728  68.320  1.00  0.00    -0.119 C  
HETATM   16  O   UNL     1     -12.009   7.273  72.202  1.00  0.00    -0.291 OA 
HETATM   17  O   UNL     1     -12.673   9.382  71.245  1.00  0.00    -0.318 OA 
ENDROOT
BRANCH   7  18
HETATM   18  C   UNL     1      -8.187   5.610  68.849  1.00  0.00    -0.100 A  
HETATM   19  O   UNL     1      -9.847   1.939  67.727  1.00  0.00    -0.385 OA 
HETATM   20  C   UNL     1      -9.276   3.157  67.986  1.00  0.00    -0.198 A  
HETATM   21  C   UNL     1      -9.671   4.336  67.347  1.00  0.00    -0.163 A  
HETATM   22  C   UNL     1      -7.707   4.403  69.363  1.00  0.00    -0.054 A  
HETATM   23  H   UNL     1      -9.579   1.138  68.162  1.00  0.00     0.000 HD 
HETATM   24  C   UNL     1      -9.111   5.549  67.788  1.00  0.00    -0.107 A  
HETATM   25  C   UNL     1      -8.258   3.182  68.961  1.00  0.00    -0.059 A  
BRANCH  21  26
HETATM   26  O   UNL     1     -10.572   4.518  66.336  1.00  0.00    -0.193 OA 
HETATM   27  C   UNL     1     -10.198   4.300  64.986  1.00  0.00    -0.196 C  
ENDBRANCH  21  26
BRANCH  25  28
HETATM   28  O   UNL     1      -7.915   1.979  69.528  1.00  0.00    -0.042 OA 
HETATM   29  C   UNL     1      -6.561   1.570  69.374  1.00  0.00    -0.029 C  
ENDBRANCH  25  28
ENDBRANCH   7  18
BRANCH  15  30
HETATM   30  O   UNL     1      -7.839  10.775  68.765  1.00  0.00    -0.112 OA 
BRANCH  30  31
HETATM   31  C   UNL     1      -7.838  12.077  68.134  1.00  0.00    -0.145 C  
HETATM   32  O   UNL     1      -7.265  13.134  68.938  1.00  0.00    -0.101 OA 
HETATM   33  C   UNL     1      -7.532  14.440  68.371  1.00  0.00    -0.119 C  
HETATM   34  C   UNL     1      -6.778  15.603  69.033  1.00  0.00    -0.131 C  
HETATM   35  O   UNL     1      -7.216  16.871  68.499  1.00  0.00    -0.179 OA 
HETATM   36  C   UNL     1      -8.616  17.058  68.721  1.00  0.00    -0.238 C  
HETATM   37  H   UNL     1     -10.634  11.694  66.444  1.00  0.00     0.000 HD 
HETATM   38  O   UNL     1      -9.357  16.049  68.050  1.00  0.00    -0.200 OA 
HETATM   39  C   UNL     1      -9.020  14.740  68.499  1.00  0.00    -0.182 C  
HETATM   40  H   UNL     1     -11.645  13.333  67.261  1.00  0.00     0.000 HD 
HETATM   41  O   UNL     1      -9.716  11.547  66.642  1.00  0.00    -0.193 OA 
HETATM   42  C   UNL     1      -9.768  13.777  67.595  1.00  0.00    -0.227 C  
HETATM   43  C   UNL     1      -9.352  12.319  67.808  1.00  0.00    -0.194 C  
HETATM   44  O   UNL     1     -11.177  13.936  67.827  1.00  0.00    -0.273 OA 
BRANCH  36  45
HETATM   45  C   UNL     1      -9.074  18.345  68.080  1.00  0.00    -0.309 A  
HETATM   46  S   UNL     1      -7.986  19.683  68.024  1.00  0.00    -0.304 SA 
HETATM   47  C   UNL     1     -10.379  20.081  67.196  1.00  0.00    -0.554 A  
HETATM   48  C   UNL     1     -10.314  18.707  67.581  1.00  0.00    -0.455 A  
HETATM   49  C   UNL     1      -9.183  20.733  67.398  1.00  0.00    -0.224 A  
ENDBRANCH  36  45
ENDBRANCH  30  31
ENDBRANCH  15  30
TORSDOF 6
ENDMDL
MODEL       35
REMARK 921   NORMALIZED FREE ENERGY PREDICTED BY IDOCK:   -5.57 KCAL/MOL
REMARK 922        TOTAL FREE ENERGY PREDICTED BY IDOCK:   -9.55 KCAL/MOL
REMARK 923 INTER-LIGAND FREE ENERGY PREDICTED BY IDOCK:   -9.38 KCAL/MOL
REMARK 924 INTRA-LIGAND FREE ENERGY PREDICTED BY IDOCK:   -0.17 KCAL/MOL
REMARK 927      BINDING AFFINITY PREDICTED BY RF-SCORE:    0.00 PKD
ROOT
HETATM    1  C   UNL     1      -9.919  11.718  64.424  1.00  0.00    -0.281 C  
HETATM    2  C   UNL     1     -10.649  11.606  63.114  1.00  0.00    -0.277 C  
HETATM    3  O   UNL     1     -11.871  12.344  63.328  1.00  0.00    -0.466 OA 
HETATM    4  C   UNL     1     -12.184  12.318  64.669  1.00  0.00    -0.377 C  
HETATM    5  C   UNL     1     -11.086  11.599  65.409  1.00  0.00    -0.299 C  
HETATM    6  O   UNL     1     -13.232  12.736  65.128  1.00  0.00    -0.686 OA 
HETATM    7  C   UNL     1     -10.694  12.084  66.808  1.00  0.00    -0.280 C  
HETATM    8  C   UNL     1      -9.309  11.524  67.178  1.00  0.00    -0.177 A  
HETATM    9  C   UNL     1      -8.436  10.892  66.219  1.00  0.00    -0.166 A  
HETATM   10  C   UNL     1      -8.883  11.693  68.512  1.00  0.00    -0.131 A  
HETATM   11  C   UNL     1      -5.682  11.017  69.776  1.00  0.00    -0.062 C  
HETATM   12  C   UNL     1      -7.608  11.299  68.848  1.00  0.00    -0.126 A  
HETATM   13  C   UNL     1      -7.149  10.493  66.628  1.00  0.00    -0.118 A  
HETATM   14  C   UNL     1      -6.766  10.722  67.932  1.00  0.00    -0.064 A  
HETATM   15  C   UNL     1      -8.796  10.718  64.735  1.00  0.00    -0.149 C  
HETATM   16  O   UNL     1      -7.023  11.457  70.065  1.00  0.00    -0.032 OA 
HETATM   17  O   UNL     1      -5.540  10.449  68.456  1.00  0.00    -0.038 OA 
ENDROOT
BRANCH   7  18
HETATM   18  C   UNL     1     -10.823  13.610  66.976  1.00  0.00    -0.291 A  
HETATM   19  O   UNL     1     -10.425  17.604  68.149  1.00  0.00    -0.364 OA 
HETATM   20  C   UNL     1     -10.577  16.334  67.660  1.00  0.00    -0.311 A  
HETATM   21  C   UNL     1      -9.824  15.833  66.594  1.00  0.00    -0.252 A  
HETATM   22  C   UNL     1     -11.664  14.177  67.935  1.00  0.00    -0.402 A  
HETATM   23  H   UNL     1     -10.936  17.945  68.874  1.00  0.00     0.000 HD 
HETATM   24  C   UNL     1      -9.966  14.473  66.264  1.00  0.00    -0.320 A  
HETATM   25  C   UNL     1     -11.533  15.521  68.301  1.00  0.00    -0.353 A  
BRANCH  21  26
HETATM   26  O   UNL     1      -8.912  16.466  65.799  1.00  0.00    -0.455 OA 
HETATM   27  C   UNL     1      -7.651  16.860  66.317  1.00  0.00    -0.277 C  
ENDBRANCH  21  26
BRANCH  25  28
HETATM   28  O   UNL     1     -12.244  16.094  69.327  1.00  0.00    -0.151 OA 
HETATM   29  C   UNL     1     -12.211  15.415  70.576  1.00  0.00    -0.394 C  
ENDBRANCH  25  28
ENDBRANCH   7  18
BRANCH  15  30
HETATM   30  O   UNL     1      -9.248   9.417  64.377  1.00  0.00    -0.202 OA 
BRANCH  30  31
HETATM   31  C   UNL     1      -9.514   8.403  65.372  1.00  0.00     0.325 C  
HETATM   32  O   UNL     1     -10.030   8.910  66.624  1.00  0.00    -0.230 OA 
HETATM   33  C   UNL     1     -10.024   7.891  67.655  1.00  0.00    -0.181 C  
HETATM   34  C   UNL     1     -10.755   8.273  68.951  1.00  0.00    -0.062 C  
HETATM   35  O   UNL     1     -10.571   7.261  69.964  1.00  0.00    -0.221 OA 
HETATM   36  C   UNL     1      -9.183   7.090  70.263  1.00  0.00    -0.156 C  
HETATM   37  H   UNL     1      -7.080   6.364  64.513  1.00  0.00     0.000 HD 
HETATM   38  O   UNL     1      -8.483   6.651  69.109  1.00  0.00    -0.122 OA 
HETATM   39  C   UNL     1      -8.581   7.578  68.031  1.00  0.00    -0.122 C  
HETATM   40  H   UNL     1      -6.113   6.336  66.367  1.00  0.00     0.000 HD 
HETATM   41  O   UNL     1      -7.920   6.798  64.414  1.00  0.00    -0.119 OA 
HETATM   42  C   UNL     1      -7.925   6.908  66.837  1.00  0.00    -0.109 C  
HETATM   43  C   UNL     1      -8.130   7.687  65.534  1.00  0.00    -0.130 C  
HETATM   44  O   UNL     1      -6.523   6.755  67.114  1.00  0.00    -0.042 OA 
BRANCH  36  45
HETATM   45  C   UNL     1      -9.003   5.969  71.258  1.00  0.00    -0.136 A  
HETATM   46  S   UNL     1      -7.408   5.548  71.763  1.00  0.00    -0.094 SA 
HETATM   47  C   UNL     1      -9.330   4.072  72.596  1.00  0.00    -0.153 A  
HETATM   48  C   UNL     1      -9.931   5.098  71.805  1.00  0.00    -0.244 A  
HETATM   49  C   UNL     1      -7.959   4.191  72.646  1.00  0.00    -0.084 A  
ENDBRANCH  36  45
ENDBRANCH  30  31
ENDBRANCH  15  30
TORSDOF 6
ENDMDL
MODEL       36
REMARK 921   NORMALIZED FREE ENERGY PREDICTED BY IDOCK:   -5.55 KCAL/MOL
REMARK 922        TOTAL FREE ENERGY PREDICTED BY IDOCK:   -9.51 KCAL/MOL
REMARK 923 INTER-LIGAND FREE ENERGY PREDICTED BY IDOCK:   -8.30 KCAL/MOL
REMARK 924 INTRA-LIGAND FREE ENERGY PREDICTED BY IDOCK:   -1.21 KCAL/MOL
REMARK 927      BINDING AFFINITY PREDICTED BY RF-SCORE:    0.00 PKD
ROOT
HETATM    1  C   UNL     1      -8.186  14.975  68.830  1.00  0.00    -0.168 C  
HETATM    2  C   UNL     1      -7.190  15.017  69.955  1.00  0.00    -0.088 C  
HETATM    3  O   UNL     1      -6.286  16.078  69.585  1.00  0.00    -0.164 OA 
HETATM    4  C   UNL     1      -6.271  16.201  68.212  1.00  0.00    -0.118 C  
HETATM    5  C   UNL     1      -7.270  15.233  67.630  1.00  0.00    -0.204 C  
HETATM    6  O   UNL     1      -5.497  16.917  67.604  1.00  0.00    -0.115 OA 
HETATM    7  C   UNL     1      -8.068  15.648  66.390  1.00  0.00    -0.046 C  
HETATM    8  C   UNL     1      -9.298  14.736  66.241  1.00  0.00    -0.310 A  
HETATM    9  C   UNL     1      -9.744  13.842  67.282  1.00  0.00    -0.245 A  
HETATM   10  C   UNL     1     -10.029  14.836  65.039  1.00  0.00    -0.204 A  
HETATM   11  C   UNL     1     -13.127  13.339  64.356  1.00  0.00     0.408 C  
HETATM   12  C   UNL     1     -11.194  14.113  64.918  1.00  0.00    -0.373 A  
HETATM   13  C   UNL     1     -10.934  13.114  67.092  1.00  0.00    -0.289 A  
HETATM   14  C   UNL     1     -11.635  13.282  65.916  1.00  0.00    -0.347 A  
HETATM   15  C   UNL     1      -9.041  13.713  68.642  1.00  0.00    -0.035 C  
HETATM   16  O   UNL     1     -12.046  14.151  63.860  1.00  0.00    -0.443 OA 
HETATM   17  O   UNL     1     -12.826  12.697  65.615  1.00  0.00    -0.435 OA 
ENDROOT
BRANCH   7  18
HETATM   18  C   UNL     1      -8.390  17.154  66.356  1.00  0.00    -0.315 A  
HETATM   19  O   UNL     1      -8.618  21.266  67.083  1.00  0.00    -0.530 OA 
HETATM   20  C   UNL     1      -8.553  19.943  66.734  1.00  0.00    -0.337 A  
HETATM   21  C   UNL     1      -7.604  19.435  65.843  1.00  0.00    -0.269 A  
HETATM   22  C   UNL     1      -9.419  17.705  67.123  1.00  0.00    -0.267 A  
HETATM   23  H   UNL     1      -9.262  21.611  67.689  1.00  0.00     0.000 HD 
HETATM   24  C   UNL     1      -7.543  18.041  65.662  1.00  0.00     0.094 A  
HETATM   25  C   UNL     1      -9.494  19.085  67.338  1.00  0.00    -0.301 A  
BRANCH  21  26
HETATM   26  O   UNL     1      -6.664  20.095  65.103  1.00  0.00    -0.291 OA 
HETATM   27  C   UNL     1      -5.814  19.386  64.216  1.00  0.00    -0.281 C  
ENDBRANCH  21  26
BRANCH  25  28
HETATM   28  O   UNL     1     -10.405  19.665  68.187  1.00  0.00    -0.428 OA 
HETATM   29  C   UNL     1     -10.023  19.764  69.553  1.00  0.00    -0.039 C  
ENDBRANCH  25  28
ENDBRANCH   7  18
BRANCH  15  30
HETATM   30  O   UNL     1      -8.192  12.579  68.773  1.00  0.00    -0.032 OA 
BRANCH  30  31
HETATM   31  C   UNL     1      -8.672  11.236  68.533  1.00  0.00    -0.156 C  
HETATM   32  O   UNL     1      -8.939  10.471  69.732  1.00  0.00    -0.054 OA 
HETATM   33  C   UNL     1      -9.157   9.071  69.433  1.00  0.00    -0.146 C  
HETATM   34  C   UNL     1      -9.662   8.224  70.611  1.00  0.00    -0.171 C  
HETATM   35  O   UNL     1      -9.710   6.826  70.258  1.00  0.00    -0.171 OA 
HETATM   36  C   UNL     1      -8.414   6.351  69.887  1.00  0.00    -0.131 C  
HETATM   37  H   UNL     1      -6.987  10.704  65.760  1.00  0.00     0.000 HD 
HETATM   38  O   UNL     1      -7.946   7.050  68.743  1.00  0.00    -0.116 OA 
HETATM   39  C   UNL     1      -7.844   8.453  68.970  1.00  0.00    -0.102 C  
HETATM   40  H   UNL     1      -5.949   9.012  66.420  1.00  0.00     0.000 HD 
HETATM   41  O   UNL     1      -7.671  11.089  66.296  1.00  0.00    -0.158 OA 
HETATM   42  C   UNL     1      -7.486   9.072  67.630  1.00  0.00    -0.085 C  
HETATM   43  C   UNL     1      -7.544  10.603  67.650  1.00  0.00    -0.092 C  
HETATM   44  O   UNL     1      -6.173   8.625  67.258  1.00  0.00    -0.054 OA 
BRANCH  36  45
HETATM   45  C   UNL     1      -8.498   4.913  69.437  1.00  0.00    -0.087 A  
HETATM   46  S   UNL     1      -7.369   4.335  68.269  1.00  0.00    -0.064 SA 
HETATM   47  C   UNL     1      -9.240   2.736  68.982  1.00  0.00    -0.221 A  
HETATM   48  C   UNL     1      -9.430   3.933  69.737  1.00  0.00    -0.264 A  
HETATM   49  C   UNL     1      -8.160   2.825  68.132  1.00  0.00    -0.061 A  
ENDBRANCH  36  45
ENDBRANCH  30  31
ENDBRANCH  15  30
TORSDOF 6
ENDMDL
MODEL       37
REMARK 921   NORMALIZED FREE ENERGY PREDICTED BY IDOCK:   -5.51 KCAL/MOL
REMARK 922        TOTAL FREE ENERGY PREDICTED BY IDOCK:   -9.47 KCAL/MOL
REMARK 923 INTER-LIGAND FREE ENERGY PREDICTED BY IDOCK:   -8.17 KCAL/MOL
REMARK 924 INTRA-LIGAND FREE ENERGY PREDICTED BY IDOCK:   -1.30 KCAL/MOL
REMARK 927      BINDING AFFINITY PREDICTED BY RF-SCORE:    0.00 PKD
ROOT
HETATM    1  C   UNL     1     -11.356  12.432  67.659  1.00  0.00    -0.371 C  
HETATM    2  C   UNL     1     -12.499  12.858  68.536  1.00  0.00     0.508 C  
HETATM    3  O   UNL     1     -12.046  14.095  69.127  1.00  0.00    -0.341 OA 
HETATM    4  C   UNL     1     -10.670  14.089  69.185  1.00  0.00    -0.173 C  
HETATM    5  C   UNL     1     -10.163  12.828  68.533  1.00  0.00    -0.206 C  
HETATM    6  O   UNL     1     -10.012  14.937  69.762  1.00  0.00    -0.100 OA 
HETATM    7  C   UNL     1      -8.864  12.884  67.724  1.00  0.00    -0.188 C  
HETATM    8  C   UNL     1      -8.775  11.649  66.809  1.00  0.00    -0.189 A  
HETATM    9  C   UNL     1      -9.890  10.765  66.573  1.00  0.00    -0.246 A  
HETATM   10  C   UNL     1      -7.548  11.426  66.149  1.00  0.00     0.104 A  
HETATM   11  C   UNL     1      -6.936   9.053  63.640  1.00  0.00    -0.089 C  
HETATM   12  C   UNL     1      -7.470  10.394  65.243  1.00  0.00    -0.113 A  
HETATM   13  C   UNL     1      -9.742   9.714  65.647  1.00  0.00    -0.363 A  
HETATM   14  C   UNL     1      -8.536   9.567  64.996  1.00  0.00    -0.154 A  
HETATM   15  C   UNL     1     -11.276  10.966  67.204  1.00  0.00    -0.184 C  
HETATM   16  O   UNL     1      -6.388  10.091  64.476  1.00  0.00    -0.116 OA 
HETATM   17  O   UNL     1      -8.262   8.642  64.036  1.00  0.00    -0.159 OA 
ENDROOT
BRANCH   7  18
HETATM   18  C   UNL     1      -8.663  14.226  66.994  1.00  0.00    -0.231 A  
HETATM   19  O   UNL     1      -8.654  18.243  65.831  1.00  0.00    -0.502 OA 
HETATM   20  C   UNL     1      -8.555  16.918  66.166  1.00  0.00    -0.242 A  
HETATM   21  C   UNL     1      -7.506  16.403  66.933  1.00  0.00    -0.234 A  
HETATM   22  C   UNL     1      -9.615  14.732  66.107  1.00  0.00    -0.338 A  
HETATM   23  H   UNL     1      -9.367  18.593  65.310  1.00  0.00     0.000 HD 
HETATM   24  C   UNL     1      -7.575  15.055  67.331  1.00  0.00    -0.233 A  
HETATM   25  C   UNL     1      -9.586  16.073  65.710  1.00  0.00    -0.276 A  
BRANCH  21  26
HETATM   26  O   UNL     1      -6.386  17.026  67.407  1.00  0.00    -0.129 OA 
HETATM   27  C   UNL     1      -5.652  17.918  66.584  1.00  0.00    -0.162 C  
ENDBRANCH  21  26
BRANCH  25  28
HETATM   28  O   UNL     1     -10.569  16.652  64.945  1.00  0.00    -0.694 OA 
HETATM   29  C   UNL     1     -11.680  15.829  64.613  1.00  0.00    -0.147 C  
ENDBRANCH  25  28
ENDBRANCH   7  18
BRANCH  15  30
HETATM   30  O   UNL     1     -11.549  10.138  68.328  1.00  0.00    -0.193 OA 
BRANCH  30  31
HETATM   31  C   UNL     1     -10.601   9.150  68.793  1.00  0.00    -0.181 C  
HETATM   32  O   UNL     1     -10.705   7.863  68.140  1.00  0.00    -0.152 OA 
HETATM   33  C   UNL     1      -9.923   6.853  68.824  1.00  0.00    -0.153 C  
HETATM   34  C   UNL     1      -9.797   5.515  68.080  1.00  0.00    -0.143 C  
HETATM   35  O   UNL     1      -9.129   4.532  68.899  1.00  0.00    -0.107 OA 
HETATM   36  C   UNL     1      -9.851   4.306  70.112  1.00  0.00    -0.201 C  
HETATM   37  H   UNL     1     -10.473  10.169  71.917  1.00  0.00     0.000 HD 
HETATM   38  O   UNL     1      -9.916   5.503  70.873  1.00  0.00    -0.180 OA 
HETATM   39  C   UNL     1     -10.569   6.557  70.171  1.00  0.00    -0.227 C  
HETATM   40  H   UNL     1     -11.077   8.367  72.792  1.00  0.00     0.000 HD 
HETATM   41  O   UNL     1     -10.299  10.217  70.985  1.00  0.00     0.057 OA 
HETATM   42  C   UNL     1     -10.423   7.796  71.038  1.00  0.00    -0.203 C  
HETATM   43  C   UNL     1     -10.890   9.072  70.331  1.00  0.00    -0.246 C  
HETATM   44  O   UNL     1     -11.168   7.593  72.250  1.00  0.00    -0.255 OA 
BRANCH  36  45
HETATM   45  C   UNL     1      -9.095   3.343  70.994  1.00  0.00    -0.112 A  
HETATM   46  S   UNL     1      -9.971   2.385  72.129  1.00  0.00    -0.149 SA 
HETATM   47  C   UNL     1      -7.413   2.236  72.195  1.00  0.00    -0.043 A  
HETATM   48  C   UNL     1      -7.731   3.139  71.136  1.00  0.00    -0.047 A  
HETATM   49  C   UNL     1      -8.540   1.761  72.829  1.00  0.00    -0.062 A  
ENDBRANCH  36  45
ENDBRANCH  30  31
ENDBRANCH  15  30
TORSDOF 6
ENDMDL
MODEL       38
REMARK 921   NORMALIZED FREE ENERGY PREDICTED BY IDOCK:   -5.49 KCAL/MOL
REMARK 922        TOTAL FREE ENERGY PREDICTED BY IDOCK:   -9.44 KCAL/MOL
REMARK 923 INTER-LIGAND FREE ENERGY PREDICTED BY IDOCK:   -7.76 KCAL/MOL
REMARK 924 INTRA-LIGAND FREE ENERGY PREDICTED BY IDOCK:   -1.67 KCAL/MOL
REMARK 927      BINDING AFFINITY PREDICTED BY RF-SCORE:    0.00 PKD
ROOT
HETATM    1  C   UNL     1      -8.498  11.565  68.676  1.00  0.00    -0.115 C  
HETATM    2  C   UNL     1      -7.657  10.854  69.698  1.00  0.00     0.023 C  
HETATM    3  O   UNL     1      -6.558  11.757  69.939  1.00  0.00    -0.106 OA 
HETATM    4  C   UNL     1      -6.353  12.527  68.815  1.00  0.00    -0.079 C  
HETATM    5  C   UNL     1      -7.410  12.187  67.796  1.00  0.00    -0.114 C  
HETATM    6  O   UNL     1      -5.405  13.279  68.673  1.00  0.00    -0.068 OA 
HETATM    7  C   UNL     1      -7.971  13.303  66.910  1.00  0.00     0.143 C  
HETATM    8  C   UNL     1      -9.301  12.846  66.285  1.00  0.00    -0.148 A  
HETATM    9  C   UNL     1     -10.008  11.666  66.722  1.00  0.00    -0.229 A  
HETATM   10  C   UNL     1      -9.850  13.662  65.275  1.00  0.00    -0.135 A  
HETATM   11  C   UNL     1     -13.035  13.338  63.840  1.00  0.00     0.465 C  
HETATM   12  C   UNL     1     -11.090  13.338  64.773  1.00  0.00    -0.342 A  
HETATM   13  C   UNL     1     -11.265  11.377  66.156  1.00  0.00    -0.203 A  
HETATM   14  C   UNL     1     -11.777  12.232  65.204  1.00  0.00    -0.361 A  
HETATM   15  C   UNL     1      -9.511  10.754  67.853  1.00  0.00    -0.157 C  
HETATM   16  O   UNL     1     -11.786  14.056  63.852  1.00  0.00    -0.349 OA 
HETATM   17  O   UNL     1     -12.999  12.119  64.614  1.00  0.00    -0.651 OA 
ENDROOT
BRANCH   7  18
HETATM   18  C   UNL     1      -8.046  14.665  67.628  1.00  0.00    -0.185 A  
HETATM   19  O   UNL     1      -8.883  18.597  68.778  1.00  0.00    -0.319 OA 
HETATM   20  C   UNL     1      -8.605  17.282  68.511  1.00  0.00    -0.270 A  
HETATM   21  C   UNL     1      -9.391  16.227  68.981  1.00  0.00    -0.254 A  
HETATM   22  C   UNL     1      -7.193  15.720  67.297  1.00  0.00    -0.254 A  
HETATM   23  H   UNL     1      -8.349  19.314  68.458  1.00  0.00     0.000 HD 
HETATM   24  C   UNL     1      -9.092  14.927  68.534  1.00  0.00    -0.191 A  
HETATM   25  C   UNL     1      -7.475  17.027  67.708  1.00  0.00    -0.165 A  
BRANCH  21  26
HETATM   26  O   UNL     1     -10.469  16.250  69.821  1.00  0.00    -0.281 OA 
HETATM   27  C   UNL     1     -11.781  16.054  69.318  1.00  0.00    -0.298 C  
ENDBRANCH  21  26
BRANCH  25  28
HETATM   28  O   UNL     1      -6.745  18.117  67.303  1.00  0.00    -0.185 OA 
HETATM   29  C   UNL     1      -6.995  18.593  65.986  1.00  0.00    -0.269 C  
ENDBRANCH  25  28
ENDBRANCH   7  18
BRANCH  15  30
HETATM   30  O   UNL     1      -8.873   9.557  67.421  1.00  0.00    -0.128 OA 
BRANCH  30  31
HETATM   31  C   UNL     1      -9.232   8.265  67.963  1.00  0.00    -0.136 C  
HETATM   32  O   UNL     1     -10.072   8.319  69.140  1.00  0.00    -0.192 OA 
HETATM   33  C   UNL     1     -10.174   7.025  69.782  1.00  0.00    -0.201 C  
HETATM   34  C   UNL     1     -11.217   6.937  70.907  1.00  0.00    -0.289 C  
HETATM   35  O   UNL     1     -11.144   5.661  71.578  1.00  0.00    -0.245 OA 
HETATM   36  C   UNL     1      -9.848   5.462  72.149  1.00  0.00    -0.169 C  
HETATM   37  H   UNL     1      -6.441   6.718  67.166  1.00  0.00     0.000 HD 
HETATM   38  O   UNL     1      -8.860   5.449  71.130  1.00  0.00    -0.133 OA 
HETATM   39  C   UNL     1      -8.825   6.669  70.394  1.00  0.00    -0.152 C  
HETATM   40  H   UNL     1      -5.917   6.135  69.106  1.00  0.00     0.000 HD 
HETATM   41  O   UNL     1      -7.283   7.125  66.997  1.00  0.00    -0.086 OA 
HETATM   42  C   UNL     1      -7.843   6.448  69.257  1.00  0.00    -0.106 C  
HETATM   43  C   UNL     1      -7.843   7.595  68.243  1.00  0.00    -0.121 C  
HETATM   44  O   UNL     1      -6.531   6.273  69.817  1.00  0.00    -0.039 OA 
BRANCH  36  45
HETATM   45  C   UNL     1      -9.762   4.090  72.771  1.00  0.00    -0.141 A  
HETATM   46  S   UNL     1      -8.211   3.450  73.172  1.00  0.00    -0.075 SA 
HETATM   47  C   UNL     1     -10.232   1.903  73.475  1.00  0.00    -0.169 A  
HETATM   48  C   UNL     1     -10.751   3.149  73.009  1.00  0.00    -0.219 A  
HETATM   49  C   UNL     1      -8.861   1.925  73.596  1.00  0.00    -0.062 A  
ENDBRANCH  36  45
ENDBRANCH  30  31
ENDBRANCH  15  30
TORSDOF 6
ENDMDL
MODEL       39
REMARK 921   NORMALIZED FREE ENERGY PREDICTED BY IDOCK:   -5.49 KCAL/MOL
REMARK 922        TOTAL FREE ENERGY PREDICTED BY IDOCK:   -9.43 KCAL/MOL
REMARK 923 INTER-LIGAND FREE ENERGY PREDICTED BY IDOCK:   -8.63 KCAL/MOL
REMARK 924 INTRA-LIGAND FREE ENERGY PREDICTED BY IDOCK:   -0.81 KCAL/MOL
REMARK 927      BINDING AFFINITY PREDICTED BY RF-SCORE:    0.00 PKD
ROOT
HETATM    1  C   UNL     1      -9.580  14.368  65.903  1.00  0.00    -0.252 C  
HETATM    2  C   UNL     1     -10.633  14.619  64.859  1.00  0.00    -0.422 C  
HETATM    3  O   UNL     1     -10.933  16.024  64.993  1.00  0.00    -0.421 OA 
HETATM    4  C   UNL     1     -10.673  16.420  66.287  1.00  0.00    -0.161 C  
HETATM    5  C   UNL     1     -10.096  15.251  67.044  1.00  0.00    -0.248 C  
HETATM    6  O   UNL     1     -10.964  17.515  66.732  1.00  0.00    -0.065 OA 
HETATM    7  C   UNL     1      -9.009  15.510  68.091  1.00  0.00    -0.179 C  
HETATM    8  C   UNL     1      -8.272  14.195  68.404  1.00  0.00    -0.149 A  
HETATM    9  C   UNL     1      -8.419  13.004  67.604  1.00  0.00    -0.187 A  
HETATM   10  C   UNL     1      -7.384  14.203  69.499  1.00  0.00     0.097 A  
HETATM   11  C   UNL     1      -5.141  11.652  70.376  1.00  0.00    -0.094 C  
HETATM   12  C   UNL     1      -6.630  13.076  69.739  1.00  0.00     0.069 A  
HETATM   13  C   UNL     1      -7.633  11.876  67.911  1.00  0.00    -0.128 A  
HETATM   14  C   UNL     1      -6.748  11.950  68.965  1.00  0.00    -0.099 A  
HETATM   15  C   UNL     1      -9.319  12.926  66.362  1.00  0.00    -0.187 C  
HETATM   16  O   UNL     1      -5.682  12.946  70.705  1.00  0.00    -0.184 OA 
HETATM   17  O   UNL     1      -5.883  10.969  69.342  1.00  0.00    -0.042 OA 
ENDROOT
BRANCH   7  18
HETATM   18  C   UNL     1      -8.081  16.682  67.722  1.00  0.00    -0.185 A  
HETATM   19  O   UNL     1      -6.465  20.337  66.488  1.00  0.00    -0.199 OA 
HETATM   20  C   UNL     1      -6.911  19.133  66.968  1.00  0.00    -0.198 A  
HETATM   21  C   UNL     1      -7.223  18.918  68.313  1.00  0.00    -0.271 A  
HETATM   22  C   UNL     1      -7.621  16.875  66.417  1.00  0.00    -0.339 A  
HETATM   23  H   UNL     1      -6.253  20.484  65.574  1.00  0.00     0.000 HD 
HETATM   24  C   UNL     1      -7.801  17.685  68.670  1.00  0.00    -0.280 A  
HETATM   25  C   UNL     1      -7.062  18.096  66.026  1.00  0.00    -0.283 A  
BRANCH  21  26
HETATM   26  O   UNL     1      -7.081  19.753  69.385  1.00  0.00    -0.351 OA 
HETATM   27  C   UNL     1      -5.797  20.209  69.780  1.00  0.00    -0.331 C  
ENDBRANCH  21  26
BRANCH  25  28
HETATM   28  O   UNL     1      -6.715  18.383  64.728  1.00  0.00    -0.276 OA 
HETATM   29  C   UNL     1      -5.339  18.651  64.486  1.00  0.00    -0.173 C  
ENDBRANCH  25  28
ENDBRANCH   7  18
BRANCH  15  30
HETATM   30  O   UNL     1     -10.576  12.293  66.571  1.00  0.00    -0.227 OA 
BRANCH  30  31
HETATM   31  C   UNL     1     -10.771  10.883  66.316  1.00  0.00    -0.176 C  
HETATM   32  O   UNL     1     -10.701  10.044  67.493  1.00  0.00    -0.256 OA 
HETATM   33  C   UNL     1     -10.637   8.640  67.143  1.00  0.00    -0.234 C  
HETATM   34  C   UNL     1     -10.782   7.668  68.324  1.00  0.00    -0.051 C  
HETATM   35  O   UNL     1     -10.562   6.306  67.901  1.00  0.00    -0.200 OA 
HETATM   36  C   UNL     1      -9.252   6.152  67.349  1.00  0.00    -0.112 C  
HETATM   37  H   UNL     1      -9.386  10.830  63.334  1.00  0.00     0.000 HD 
HETATM   38  O   UNL     1      -9.105   6.971  66.199  1.00  0.00    -0.162 OA 
HETATM   39  C   UNL     1      -9.291   8.354  66.490  1.00  0.00    -0.201 C  
HETATM   40  H   UNL     1      -7.919   9.402  63.767  1.00  0.00     0.000 HD 
HETATM   41  O   UNL     1     -10.063  11.032  63.969  1.00  0.00    -0.291 OA 
HETATM   42  C   UNL     1      -9.259   9.075  65.155  1.00  0.00    -0.093 C  
HETATM   43  C   UNL     1      -9.655  10.550  65.269  1.00  0.00    -0.249 C  
HETATM   44  O   UNL     1      -7.939   8.951  64.602  1.00  0.00    -0.117 OA 
BRANCH  36  45
HETATM   45  C   UNL     1      -9.070   4.746  66.832  1.00  0.00    -0.117 A  
HETATM   46  S   UNL     1      -9.100   4.471  65.129  1.00  0.00    -0.154 SA 
HETATM   47  C   UNL     1      -8.961   2.411  66.647  1.00  0.00    -0.133 A  
HETATM   48  C   UNL     1      -8.970   3.545  67.515  1.00  0.00    -0.170 A  
HETATM   49  C   UNL     1      -9.041   2.773  65.321  1.00  0.00    -0.148 A  
ENDBRANCH  36  45
ENDBRANCH  30  31
ENDBRANCH  15  30
TORSDOF 6
ENDMDL
MODEL       40
REMARK 921   NORMALIZED FREE ENERGY PREDICTED BY IDOCK:   -5.29 KCAL/MOL
REMARK 922        TOTAL FREE ENERGY PREDICTED BY IDOCK:   -9.17 KCAL/MOL
REMARK 923 INTER-LIGAND FREE ENERGY PREDICTED BY IDOCK:   -7.61 KCAL/MOL
REMARK 924 INTRA-LIGAND FREE ENERGY PREDICTED BY IDOCK:   -1.56 KCAL/MOL
REMARK 927      BINDING AFFINITY PREDICTED BY RF-SCORE:    0.00 PKD
ROOT
HETATM    1  C   UNL     1      -7.998  12.959  68.430  1.00  0.00    -0.137 C  
HETATM    2  C   UNL     1      -6.923  12.462  69.356  1.00  0.00     0.084 C  
HETATM    3  O   UNL     1      -6.116  13.630  69.616  1.00  0.00    -0.107 OA 
HETATM    4  C   UNL     1      -6.214  14.494  68.547  1.00  0.00    -0.089 C  
HETATM    5  C   UNL     1      -7.194  13.923  67.553  1.00  0.00    -0.178 C  
HETATM    6  O   UNL     1      -5.534  15.496  68.419  1.00  0.00    -0.094 OA 
HETATM    7  C   UNL     1      -8.109  14.879  66.781  1.00  0.00    -0.008 C  
HETATM    8  C   UNL     1      -9.289  14.092  66.185  1.00  0.00    -0.166 A  
HETATM    9  C   UNL     1      -9.598  12.734  66.561  1.00  0.00    -0.257 A  
HETATM   10  C   UNL     1     -10.115  14.773  65.266  1.00  0.00    -0.388 A  
HETATM   11  C   UNL     1     -13.159  13.623  63.956  1.00  0.00     0.957 C  
HETATM   12  C   UNL     1     -11.240  14.133  64.797  1.00  0.00    -0.378 A  
HETATM   13  C   UNL     1     -10.753  12.126  66.032  1.00  0.00    -0.308 A  
HETATM   14  C   UNL     1     -11.551  12.851  65.173  1.00  0.00    -0.332 A  
HETATM   15  C   UNL     1      -8.786  11.939  67.595  1.00  0.00    -0.169 C  
HETATM   16  O   UNL     1     -12.172  14.672  63.967  1.00  0.00    -0.582 OA 
HETATM   17  O   UNL     1     -12.724  12.423  64.631  1.00  0.00    -0.599 OA 
ENDROOT
BRANCH   7  18
HETATM   18  C   UNL     1      -8.524  16.113  67.604  1.00  0.00    -0.178 A  
HETATM   19  O   UNL     1     -10.459  19.472  69.173  1.00  0.00    -0.533 OA 
HETATM   20  C   UNL     1      -9.793  18.347  68.764  1.00  0.00    -0.361 A  
HETATM   21  C   UNL     1     -10.066  17.074  69.272  1.00  0.00    -0.208 A  
HETATM   22  C   UNL     1      -8.166  17.408  67.223  1.00  0.00    -0.221 A  
HETATM   23  H   UNL     1     -10.274  20.337  68.827  1.00  0.00     0.000 HD 
HETATM   24  C   UNL     1      -9.417  15.972  68.684  1.00  0.00    -0.224 A  
HETATM   25  C   UNL     1      -8.807  18.523  67.773  1.00  0.00    -0.275 A  
BRANCH  21  26
HETATM   26  O   UNL     1     -10.918  16.699  70.273  1.00  0.00    -0.300 OA 
HETATM   27  C   UNL     1     -11.867  15.667  70.066  1.00  0.00    -0.367 C  
ENDBRANCH  21  26
BRANCH  25  28
HETATM   28  O   UNL     1      -8.586  19.807  67.341  1.00  0.00    -0.300 OA 
HETATM   29  C   UNL     1      -7.263  20.306  67.492  1.00  0.00    -0.298 C  
ENDBRANCH  25  28
ENDBRANCH   7  18
BRANCH  15  30
HETATM   30  O   UNL     1      -7.862  11.008  67.044  1.00  0.00    -0.124 OA 
BRANCH  30  31
HETATM   31  C   UNL     1      -8.278   9.700  66.590  1.00  0.00    -0.120 C  
HETATM   32  O   UNL     1      -7.738   8.598  67.357  1.00  0.00    -0.096 OA 
HETATM   33  C   UNL     1      -7.972   7.328  66.701  1.00  0.00    -0.114 C  
HETATM   34  C   UNL     1      -7.631   6.088  67.543  1.00  0.00    -0.090 C  
HETATM   35  O   UNL     1      -7.757   4.883  66.760  1.00  0.00    -0.090 OA 
HETATM   36  C   UNL     1      -6.878   4.916  65.633  1.00  0.00    -0.061 C  
HETATM   37  H   UNL     1      -8.465  10.436  63.390  1.00  0.00     0.000 HD 
HETATM   38  O   UNL     1      -7.217   6.000  64.780  1.00  0.00    -0.058 OA 
HETATM   39  C   UNL     1      -7.121   7.259  65.440  1.00  0.00    -0.061 C  
HETATM   40  H   UNL     1      -7.100   8.998  62.724  1.00  0.00     0.000 HD 
HETATM   41  O   UNL     1      -8.744  10.451  64.298  1.00  0.00    -0.181 OA 
HETATM   42  C   UNL     1      -7.655   8.290  64.462  1.00  0.00    -0.108 C  
HETATM   43  C   UNL     1      -7.818   9.676  65.093  1.00  0.00    -0.117 C  
HETATM   44  O   UNL     1      -6.766   8.353  63.335  1.00  0.00    -0.084 OA 
BRANCH  36  45
HETATM   45  C   UNL     1      -7.086   3.690  64.779  1.00  0.00    -0.061 A  
HETATM   46  S   UNL     1      -7.895   3.853  63.264  1.00  0.00    -0.075 SA 
HETATM   47  C   UNL     1      -7.305   1.479  64.027  1.00  0.00    -0.052 A  
HETATM   48  C   UNL     1      -6.814   2.356  65.042  1.00  0.00    -0.043 A  
HETATM   49  C   UNL     1      -7.927   2.162  63.006  1.00  0.00    -0.064 A  
ENDBRANCH  36  45
ENDBRANCH  30  31
ENDBRANCH  15  30
TORSDOF 6
ENDMDL
MODEL       41
REMARK 921   NORMALIZED FREE ENERGY PREDICTED BY IDOCK:   -5.28 KCAL/MOL
REMARK 922        TOTAL FREE ENERGY PREDICTED BY IDOCK:   -9.16 KCAL/MOL
REMARK 923 INTER-LIGAND FREE ENERGY PREDICTED BY IDOCK:   -8.28 KCAL/MOL
REMARK 924 INTRA-LIGAND FREE ENERGY PREDICTED BY IDOCK:   -0.88 KCAL/MOL
REMARK 927      BINDING AFFINITY PREDICTED BY RF-SCORE:    0.00 PKD
ROOT
HETATM    1  C   UNL     1      -8.040  14.848  68.769  1.00  0.00    -0.162 C  
HETATM    2  C   UNL     1      -6.987  14.868  69.841  1.00  0.00    -0.143 C  
HETATM    3  O   UNL     1      -6.093  15.926  69.435  1.00  0.00    -0.126 OA 
HETATM    4  C   UNL     1      -6.149  16.064  68.066  1.00  0.00    -0.128 C  
HETATM    5  C   UNL     1      -7.185  15.111  67.526  1.00  0.00    -0.227 C  
HETATM    6  O   UNL     1      -5.401  16.780  67.425  1.00  0.00    -0.122 OA 
HETATM    7  C   UNL     1      -8.043  15.547  66.334  1.00  0.00     0.044 C  
HETATM    8  C   UNL     1      -9.288  14.648  66.239  1.00  0.00    -0.293 A  
HETATM    9  C   UNL     1      -9.687  13.746  67.292  1.00  0.00    -0.242 A  
HETATM   10  C   UNL     1     -10.079  14.767  65.078  1.00  0.00    -0.308 A  
HETATM   11  C   UNL     1     -13.222  13.304  64.542  1.00  0.00     0.563 C  
HETATM   12  C   UNL     1     -11.256  14.056  65.011  1.00  0.00    -0.352 A  
HETATM   13  C   UNL     1     -10.892  13.030  67.156  1.00  0.00    -0.278 A  
HETATM   14  C   UNL     1     -11.651  13.217  66.021  1.00  0.00    -0.349 A  
HETATM   15  C   UNL     1      -8.915  13.595  68.612  1.00  0.00    -0.025 C  
HETATM   16  O   UNL     1     -12.161  14.114  63.998  1.00  0.00    -0.571 OA 
HETATM   17  O   UNL     1     -12.862  12.646  65.776  1.00  0.00    -0.347 OA 
ENDROOT
BRANCH   7  18
HETATM   18  C   UNL     1      -8.353  17.057  66.333  1.00  0.00    -0.319 A  
HETATM   19  O   UNL     1      -8.605  21.141  67.193  1.00  0.00    -0.543 OA 
HETATM   20  C   UNL     1      -8.525  19.831  66.802  1.00  0.00    -0.321 A  
HETATM   21  C   UNL     1      -7.519  19.347  65.960  1.00  0.00    -0.289 A  
HETATM   22  C   UNL     1      -9.429  17.588  67.046  1.00  0.00    -0.268 A  
HETATM   23  H   UNL     1      -9.289  21.469  67.766  1.00  0.00     0.000 HD 
HETATM   24  C   UNL     1      -7.454  17.960  65.733  1.00  0.00    -0.105 A  
HETATM   25  C   UNL     1      -9.511  18.960  67.307  1.00  0.00    -0.301 A  
BRANCH  21  26
HETATM   26  O   UNL     1      -6.526  20.025  65.312  1.00  0.00    -0.240 OA 
HETATM   27  C   UNL     1      -5.869  19.451  64.194  1.00  0.00    -0.263 C  
ENDBRANCH  21  26
BRANCH  25  28
HETATM   28  O   UNL     1     -10.475  19.517  68.111  1.00  0.00    -0.422 OA 
HETATM   29  C   UNL     1     -10.094  19.801  69.451  1.00  0.00    -0.126 C  
ENDBRANCH  25  28
ENDBRANCH   7  18
BRANCH  15  30
HETATM   30  O   UNL     1      -8.071  12.453  68.686  1.00  0.00    -0.114 OA 
BRANCH  30  31
HETATM   31  C   UNL     1      -8.161  11.376  67.725  1.00  0.00    -0.125 C  
HETATM   32  O   UNL     1      -9.113  10.342  68.069  1.00  0.00    -0.130 OA 
HETATM   33  C   UNL     1      -8.967   9.179  67.218  1.00  0.00    -0.123 C  
HETATM   34  C   UNL     1     -10.074   8.123  67.363  1.00  0.00    -0.233 C  
HETATM   35  O   UNL     1      -9.767   6.944  66.589  1.00  0.00    -0.177 OA 
HETATM   36  C   UNL     1      -8.533   6.364  67.017  1.00  0.00    -0.112 C  
HETATM   37  H   UNL     1      -5.008  11.418  66.792  1.00  0.00     0.000 HD 
HETATM   38  O   UNL     1      -7.465   7.278  66.817  1.00  0.00    -0.088 OA 
HETATM   39  C   UNL     1      -7.647   8.490  67.544  1.00  0.00    -0.098 C  
HETATM   40  H   UNL     1      -4.574   9.434  67.293  1.00  0.00     0.000 HD 
HETATM   41  O   UNL     1      -5.899  11.742  66.840  1.00  0.00    -0.133 OA 
HETATM   42  C   UNL     1      -6.522   9.415  67.114  1.00  0.00    -0.067 C  
HETATM   43  C   UNL     1      -6.691  10.841  67.646  1.00  0.00    -0.069 C  
HETATM   44  O   UNL     1      -5.277   8.855  67.562  1.00  0.00    -0.033 OA 
BRANCH  36  45
HETATM   45  C   UNL     1      -8.183   5.186  66.141  1.00  0.00    -0.109 A  
HETATM   46  S   UNL     1      -9.439   4.403  65.253  1.00  0.00    -0.178 SA 
HETATM   47  C   UNL     1      -7.106   3.346  65.165  1.00  0.00    -0.065 A  
HETATM   48  C   UNL     1      -6.983   4.514  65.977  1.00  0.00    -0.066 A  
HETATM   49  C   UNL     1      -8.394   3.160  64.715  1.00  0.00    -0.090 A  
ENDBRANCH  36  45
ENDBRANCH  30  31
ENDBRANCH  15  30
TORSDOF 6
ENDMDL
MODEL       42
REMARK 921   NORMALIZED FREE ENERGY PREDICTED BY IDOCK:   -5.27 KCAL/MOL
REMARK 922        TOTAL FREE ENERGY PREDICTED BY IDOCK:   -9.14 KCAL/MOL
REMARK 923 INTER-LIGAND FREE ENERGY PREDICTED BY IDOCK:  -10.21 KCAL/MOL
REMARK 924 INTRA-LIGAND FREE ENERGY PREDICTED BY IDOCK:    1.07 KCAL/MOL
REMARK 927      BINDING AFFINITY PREDICTED BY RF-SCORE:    0.00 PKD
ROOT
HETATM    1  C   UNL     1     -10.105   8.179  66.839  1.00  0.00    -0.367 C  
HETATM    2  C   UNL     1      -9.529   7.247  65.811  1.00  0.00     0.314 C  
HETATM    3  O   UNL     1      -8.978   6.163  66.589  1.00  0.00    -0.122 OA 
HETATM    4  C   UNL     1      -8.635   6.633  67.837  1.00  0.00    -0.118 C  
HETATM    5  C   UNL     1      -9.044   8.080  67.939  1.00  0.00    -0.134 C  
HETATM    6  O   UNL     1      -8.018   5.981  68.661  1.00  0.00    -0.101 OA 
HETATM    7  C   UNL     1      -9.567   8.610  69.277  1.00  0.00    -0.166 C  
HETATM    8  C   UNL     1     -10.321   9.932  69.048  1.00  0.00    -0.224 A  
HETATM    9  C   UNL     1     -10.698  10.404  67.738  1.00  0.00    -0.327 A  
HETATM   10  C   UNL     1     -10.686  10.670  70.193  1.00  0.00    -0.151 A  
HETATM   11  C   UNL     1     -12.775  13.486  70.276  1.00  0.00    -0.052 C  
HETATM   12  C   UNL     1     -11.454  11.800  70.028  1.00  0.00    -0.151 A  
HETATM   13  C   UNL     1     -11.468  11.578  67.632  1.00  0.00    -0.357 A  
HETATM   14  C   UNL     1     -11.837  12.237  68.785  1.00  0.00    -0.306 A  
HETATM   15  C   UNL     1     -10.392   9.636  66.443  1.00  0.00    -0.176 C  
HETATM   16  O   UNL     1     -11.947  12.579  71.027  1.00  0.00    -0.084 OA 
HETATM   17  O   UNL     1     -12.626  13.344  68.846  1.00  0.00     0.100 OA 
ENDROOT
BRANCH   7  18
HETATM   18  C   UNL     1     -10.364   7.559  70.074  1.00  0.00    -0.222 A  
HETATM   19  O   UNL     1     -12.413   5.399  73.010  1.00  0.00    -0.466 OA 
HETATM   20  C   UNL     1     -11.814   6.064  71.973  1.00  0.00    -0.224 A  
HETATM   21  C   UNL     1     -12.505   6.936  71.127  1.00  0.00    -0.349 A  
HETATM   22  C   UNL     1      -9.729   6.573  70.832  1.00  0.00    -0.190 A  
HETATM   23  H   UNL     1     -11.943   4.807  73.585  1.00  0.00     0.000 HD 
HETATM   24  C   UNL     1     -11.764   7.668  70.181  1.00  0.00     0.081 A  
HETATM   25  C   UNL     1     -10.434   5.843  71.795  1.00  0.00    -0.227 A  
BRANCH  21  26
HETATM   26  O   UNL     1     -13.838   7.231  71.080  1.00  0.00    -0.319 OA 
HETATM   27  C   UNL     1     -14.339   8.411  71.686  1.00  0.00    -0.448 C  
ENDBRANCH  21  26
BRANCH  25  28
HETATM   28  O   UNL     1      -9.833   4.957  72.655  1.00  0.00    -0.152 OA 
HETATM   29  C   UNL     1      -9.859   3.587  72.273  1.00  0.00    -0.163 C  
ENDBRANCH  25  28
ENDBRANCH   7  18
BRANCH  15  30
HETATM   30  O   UNL     1      -9.275  10.122  65.708  1.00  0.00    -0.160 OA 
BRANCH  30  31
HETATM   31  C   UNL     1      -8.981  11.535  65.615  1.00  0.00    -0.074 C  
HETATM   32  O   UNL     1      -8.866  12.210  66.890  1.00  0.00    -0.192 OA 
HETATM   33  C   UNL     1      -8.838  13.649  66.730  1.00  0.00    -0.133 C  
HETATM   34  C   UNL     1      -8.498  14.439  68.004  1.00  0.00    -0.164 C  
HETATM   35  O   UNL     1      -8.636  15.858  67.783  1.00  0.00    -0.158 OA 
HETATM   36  C   UNL     1      -9.973  16.183  67.396  1.00  0.00    -0.247 C  
HETATM   37  H   UNL     1     -10.632  12.096  62.827  1.00  0.00     0.000 HD 
HETATM   38  O   UNL     1     -10.300  15.541  66.173  1.00  0.00    -0.284 OA 
HETATM   39  C   UNL     1     -10.209  14.122  66.265  1.00  0.00    -0.295 C  
HETATM   40  H   UNL     1     -11.919  13.558  63.589  1.00  0.00     0.000 HD 
HETATM   41  O   UNL     1      -9.918  11.760  63.356  1.00  0.00    -0.379 OA 
HETATM   42  C   UNL     1     -10.431  13.592  64.859  1.00  0.00    -0.409 C  
HETATM   43  C   UNL     1     -10.158  12.090  64.742  1.00  0.00    -0.257 C  
HETATM   44  O   UNL     1     -11.781  13.889  64.468  1.00  0.00    -0.376 OA 
BRANCH  36  45
HETATM   45  C   UNL     1     -10.078  17.656  67.084  1.00  0.00    -0.328 A  
HETATM   46  S   UNL     1      -9.628  18.801  68.294  1.00  0.00    -0.373 SA 
HETATM   47  C   UNL     1     -10.647  19.721  66.130  1.00  0.00    -0.569 A  
HETATM   48  C   UNL     1     -10.589  18.303  65.971  1.00  0.00    -0.318 A  
HETATM   49  C   UNL     1     -10.167  20.126  67.356  1.00  0.00    -0.394 A  
ENDBRANCH  36  45
ENDBRANCH  30  31
ENDBRANCH  15  30
TORSDOF 6
ENDMDL
MODEL       43
REMARK 921   NORMALIZED FREE ENERGY PREDICTED BY IDOCK:   -5.15 KCAL/MOL
REMARK 922        TOTAL FREE ENERGY PREDICTED BY IDOCK:   -8.98 KCAL/MOL
REMARK 923 INTER-LIGAND FREE ENERGY PREDICTED BY IDOCK:   -7.83 KCAL/MOL
REMARK 924 INTRA-LIGAND FREE ENERGY PREDICTED BY IDOCK:   -1.15 KCAL/MOL
REMARK 927      BINDING AFFINITY PREDICTED BY RF-SCORE:    0.00 PKD
ROOT
HETATM    1  C   UNL     1     -11.739  12.051  69.288  1.00  0.00    -0.389 C  
HETATM    2  C   UNL     1     -12.879  12.158  70.261  1.00  0.00     0.327 C  
HETATM    3  O   UNL     1     -13.155  13.573  70.325  1.00  0.00     0.072 OA 
HETATM    4  C   UNL     1     -12.004  14.271  70.030  1.00  0.00    -0.334 C  
HETATM    5  C   UNL     1     -10.920  13.286  69.673  1.00  0.00     0.103 C  
HETATM    6  O   UNL     1     -11.896  15.478  70.144  1.00  0.00    -0.305 OA 
HETATM    7  C   UNL     1      -9.912  13.658  68.582  1.00  0.00    -0.163 C  
HETATM    8  C   UNL     1      -9.203  12.387  68.081  1.00  0.00    -0.205 A  
HETATM    9  C   UNL     1      -9.655  11.056  68.408  1.00  0.00    -0.181 A  
HETATM   10  C   UNL     1      -8.094  12.564  67.228  1.00  0.00    -0.179 A  
HETATM   11  C   UNL     1      -6.404  10.047  65.462  1.00  0.00    -0.094 C  
HETATM   12  C   UNL     1      -7.506  11.447  66.678  1.00  0.00    -0.110 A  
HETATM   13  C   UNL     1      -8.999   9.952  67.828  1.00  0.00    -0.134 A  
HETATM   14  C   UNL     1      -7.949  10.182  66.966  1.00  0.00    -0.110 A  
HETATM   15  C   UNL     1     -10.886  10.773  69.282  1.00  0.00    -0.242 C  
HETATM   16  O   UNL     1      -6.479  11.449  65.787  1.00  0.00     0.147 OA 
HETATM   17  O   UNL     1      -7.260   9.225  66.286  1.00  0.00    -0.086 OA 
ENDROOT
BRANCH   7  18
HETATM   18  C   UNL     1     -10.525  14.521  67.462  1.00  0.00    -0.253 A  
HETATM   19  O   UNL     1     -11.221  16.805  64.029  1.00  0.00    -1.438 OA 
HETATM   20  C   UNL     1     -11.099  16.019  65.144  1.00  0.00    -0.283 A  
HETATM   21  C   UNL     1     -11.322  14.639  65.132  1.00  0.00    -0.375 A  
HETATM   22  C   UNL     1     -10.454  15.916  67.486  1.00  0.00    -0.298 A  
HETATM   23  H   UNL     1     -11.068  17.743  64.038  1.00  0.00     0.000 HD 
HETATM   24  C   UNL     1     -11.036  13.911  66.301  1.00  0.00    -0.304 A  
HETATM   25  C   UNL     1     -10.712  16.667  66.334  1.00  0.00    -0.123 A  
BRANCH  21  26
HETATM   26  O   UNL     1     -11.767  13.838  64.118  1.00  0.00    -0.395 OA 
HETATM   27  C   UNL     1     -11.209  12.550  63.916  1.00  0.00    -0.436 C  
ENDBRANCH  21  26
BRANCH  25  28
HETATM   28  O   UNL     1     -10.531  18.027  66.267  1.00  0.00    -0.375 OA 
HETATM   29  C   UNL     1      -9.254  18.475  65.831  1.00  0.00     0.208 C  
ENDBRANCH  25  28
ENDBRANCH   7  18
BRANCH  15  30
HETATM   30  O   UNL     1     -10.597  10.426  70.631  1.00  0.00    -0.126 OA 
BRANCH  30  31
HETATM   31  C   UNL     1     -10.132   9.107  70.995  1.00  0.00    -0.303 C  
HETATM   32  O   UNL     1      -8.698   8.931  70.916  1.00  0.00    -0.172 OA 
HETATM   33  C   UNL     1      -8.325   7.536  71.032  1.00  0.00    -0.113 C  
HETATM   34  C   UNL     1      -6.818   7.277  71.179  1.00  0.00    -0.055 C  
HETATM   35  O   UNL     1      -6.532   5.862  71.141  1.00  0.00    -0.042 OA 
HETATM   36  C   UNL     1      -6.969   5.290  69.906  1.00  0.00    -0.057 C  
HETATM   37  H   UNL     1     -12.744   7.449  69.880  1.00  0.00     0.000 HD 
HETATM   38  O   UNL     1      -8.375   5.431  69.771  1.00  0.00    -0.097 OA 
HETATM   39  C   UNL     1      -8.786   6.796  69.784  1.00  0.00    -0.141 C  
HETATM   40  H   UNL     1     -11.707   6.220  68.542  1.00  0.00     0.000 HD 
HETATM   41  O   UNL     1     -12.272   8.019  70.475  1.00  0.00     0.000 OA 
HETATM   42  C   UNL     1     -10.304   6.779  69.788  1.00  0.00    -0.201 C  
HETATM   43  C   UNL     1     -10.911   8.167  70.013  1.00  0.00    -0.199 C  
HETATM   44  O   UNL     1     -10.757   6.230  68.540  1.00  0.00    -0.231 OA 
BRANCH  36  45
HETATM   45  C   UNL     1      -6.743   3.798  69.920  1.00  0.00    -0.034 A  
HETATM   46  S   UNL     1      -5.377   3.166  70.763  1.00  0.00    -0.008 SA 
HETATM   47  C   UNL     1      -6.793   1.508  69.417  1.00  0.00    -0.033 A  
HETATM   48  C   UNL     1      -7.419   2.782  69.261  1.00  0.00    -0.044 A  
HETATM   49  C   UNL     1      -5.663   1.576  70.200  1.00  0.00    -0.017 A  
ENDBRANCH  36  45
ENDBRANCH  30  31
ENDBRANCH  15  30
TORSDOF 6
ENDMDL
MODEL       44
REMARK 921   NORMALIZED FREE ENERGY PREDICTED BY IDOCK:   -5.03 KCAL/MOL
REMARK 922        TOTAL FREE ENERGY PREDICTED BY IDOCK:   -8.82 KCAL/MOL
REMARK 923 INTER-LIGAND FREE ENERGY PREDICTED BY IDOCK:   -7.23 KCAL/MOL
REMARK 924 INTRA-LIGAND FREE ENERGY PREDICTED BY IDOCK:   -1.59 KCAL/MOL
REMARK 927      BINDING AFFINITY PREDICTED BY RF-SCORE:    0.00 PKD
ROOT
HETATM    1  C   UNL     1      -6.770  14.107  69.516  1.00  0.00    -0.112 C  
HETATM    2  C   UNL     1      -5.673  14.241  70.535  1.00  0.00    -0.157 C  
HETATM    3  O   UNL     1      -5.284  15.628  70.453  1.00  0.00    -0.133 OA 
HETATM    4  C   UNL     1      -5.555  16.099  69.187  1.00  0.00    -0.114 C  
HETATM    5  C   UNL     1      -6.230  15.005  68.398  1.00  0.00    -0.106 C  
HETATM    6  O   UNL     1      -5.205  17.192  68.781  1.00  0.00    -0.137 OA 
HETATM    7  C   UNL     1      -7.328  15.383  67.399  1.00  0.00    -0.244 C  
HETATM    8  C   UNL     1      -8.160  14.135  67.053  1.00  0.00    -0.044 A  
HETATM    9  C   UNL     1      -8.069  12.901  67.794  1.00  0.00    -0.166 A  
HETATM   10  C   UNL     1      -9.077  14.250  65.988  1.00  0.00     0.096 A  
HETATM   11  C   UNL     1     -11.510  11.895  65.073  1.00  0.00    -0.244 C  
HETATM   12  C   UNL     1      -9.911  13.188  65.724  1.00  0.00    -0.252 A  
HETATM   13  C   UNL     1      -8.937  11.842  67.464  1.00  0.00    -0.168 A  
HETATM   14  C   UNL     1      -9.846  12.022  66.443  1.00  0.00    -0.220 A  
HETATM   15  C   UNL     1      -7.140  12.707  69.002  1.00  0.00    -0.028 C  
HETATM   16  O   UNL     1     -10.893  13.164  64.784  1.00  0.00    -0.315 OA 
HETATM   17  O   UNL     1     -10.785  11.118  66.051  1.00  0.00    -0.259 OA 
ENDROOT
BRANCH   7  18
HETATM   18  C   UNL     1      -8.165  16.595  67.849  1.00  0.00    -0.183 A  
HETATM   19  O   UNL     1     -11.146  19.470  68.426  1.00  0.00    -0.116 OA 
HETATM   20  C   UNL     1     -10.141  18.543  68.345  1.00  0.00    -0.388 A  
HETATM   21  C   UNL     1     -10.068  17.425  69.181  1.00  0.00    -0.242 A  
HETATM   22  C   UNL     1      -8.175  17.792  67.130  1.00  0.00    -0.233 A  
HETATM   23  H   UNL     1     -11.197  20.230  67.857  1.00  0.00     0.000 HD 
HETATM   24  C   UNL     1      -9.070  16.468  68.921  1.00  0.00    -0.245 A  
HETATM   25  C   UNL     1      -9.166  18.754  67.350  1.00  0.00    -0.282 A  
BRANCH  21  26
HETATM   26  O   UNL     1     -10.856  17.076  70.241  1.00  0.00    -0.034 OA 
HETATM   27  C   UNL     1     -11.084  15.712  70.555  1.00  0.00    -0.355 C  
ENDBRANCH  21  26
BRANCH  25  28
HETATM   28  O   UNL     1      -9.299  19.886  66.584  1.00  0.00    -0.351 OA 
HETATM   29  C   UNL     1     -10.410  19.923  65.696  1.00  0.00    -0.326 C  
ENDBRANCH  25  28
ENDBRANCH   7  18
BRANCH  15  30
HETATM   30  O   UNL     1      -5.934  12.005  68.725  1.00  0.00    -0.053 OA 
BRANCH  30  31
HETATM   31  C   UNL     1      -5.826  10.575  68.911  1.00  0.00    -0.040 C  
HETATM   32  O   UNL     1      -6.300   9.785  67.795  1.00  0.00    -0.052 OA 
HETATM   33  C   UNL     1      -6.412   8.384  68.144  1.00  0.00    -0.056 C  
HETATM   34  C   UNL     1      -6.695   7.441  66.964  1.00  0.00    -0.069 C  
HETATM   35  O   UNL     1      -6.934   6.095  67.426  1.00  0.00    -0.065 OA 
HETATM   36  C   UNL     1      -8.055   6.054  68.313  1.00  0.00    -0.110 C  
HETATM   37  H   UNL     1      -6.351  10.563  72.158  1.00  0.00     0.000 HD 
HETATM   38  O   UNL     1      -7.798   6.846  69.463  1.00  0.00    -0.114 OA 
HETATM   39  C   UNL     1      -7.554   8.212  69.137  1.00  0.00    -0.096 C  
HETATM   40  H   UNL     1      -8.021   9.304  72.136  1.00  0.00     0.000 HD 
HETATM   41  O   UNL     1      -5.854  10.717  71.363  1.00  0.00    -0.342 OA 
HETATM   42  C   UNL     1      -7.148   8.889  70.434  1.00  0.00    -0.054 C  
HETATM   43  C   UNL     1      -6.646  10.321  70.222  1.00  0.00    -0.142 C  
HETATM   44  O   UNL     1      -8.275   8.879  71.325  1.00  0.00    -0.162 OA 
BRANCH  36  45
HETATM   45  C   UNL     1      -8.236   4.657  68.854  1.00  0.00    -0.081 A  
HETATM   46  S   UNL     1      -9.645   4.296  69.782  1.00  0.00    -0.216 SA 
HETATM   47  C   UNL     1      -7.867   2.461  69.588  1.00  0.00    -0.050 A  
HETATM   48  C   UNL     1      -7.383   3.565  68.823  1.00  0.00    -0.050 A  
HETATM   49  C   UNL     1      -9.083   2.730  70.176  1.00  0.00    -0.118 A  
ENDBRANCH  36  45
ENDBRANCH  30  31
ENDBRANCH  15  30
TORSDOF 6
ENDMDL
MODEL       45
REMARK 921   NORMALIZED FREE ENERGY PREDICTED BY IDOCK:   -5.03 KCAL/MOL
REMARK 922        TOTAL FREE ENERGY PREDICTED BY IDOCK:   -8.81 KCAL/MOL
REMARK 923 INTER-LIGAND FREE ENERGY PREDICTED BY IDOCK:   -9.26 KCAL/MOL
REMARK 924 INTRA-LIGAND FREE ENERGY PREDICTED BY IDOCK:    0.45 KCAL/MOL
REMARK 927      BINDING AFFINITY PREDICTED BY RF-SCORE:    0.00 PKD
ROOT
HETATM    1  C   UNL     1     -10.567  10.563  65.584  1.00  0.00    -0.132 C  
HETATM    2  C   UNL     1     -10.693  11.094  64.183  1.00  0.00    -0.345 C  
HETATM    3  O   UNL     1      -9.426  10.776  63.571  1.00  0.00    -0.241 OA 
HETATM    4  C   UNL     1      -8.456  10.712  64.548  1.00  0.00    -0.079 C  
HETATM    5  C   UNL     1      -9.109  10.917  65.891  1.00  0.00    -0.212 C  
HETATM    6  O   UNL     1      -7.266  10.600  64.316  1.00  0.00     0.050 OA 
HETATM    7  C   UNL     1      -8.582  10.136  67.098  1.00  0.00    -0.125 C  
HETATM    8  C   UNL     1      -9.634  10.152  68.221  1.00  0.00    -0.150 A  
HETATM    9  C   UNL     1     -10.992  10.592  68.018  1.00  0.00    -0.336 A  
HETATM   10  C   UNL     1      -9.234   9.664  69.483  1.00  0.00    -0.214 A  
HETATM   11  C   UNL     1     -11.320   9.064  72.239  1.00  0.00    -0.117 C  
HETATM   12  C   UNL     1     -10.181   9.565  70.477  1.00  0.00    -0.287 A  
HETATM   13  C   UNL     1     -11.911  10.484  69.080  1.00  0.00    -0.218 A  
HETATM   14  C   UNL     1     -11.480   9.959  70.279  1.00  0.00    -0.281 A  
HETATM   15  C   UNL     1     -11.527  11.084  66.664  1.00  0.00     0.244 C  
HETATM   16  O   UNL     1      -9.976   9.053  71.720  1.00  0.00    -0.325 OA 
HETATM   17  O   UNL     1     -12.260   9.736  71.372  1.00  0.00    -0.342 OA 
ENDROOT
BRANCH   7  18
HETATM   18  C   UNL     1      -8.071   8.730  66.732  1.00  0.00    -0.104 A  
HETATM   19  O   UNL     1      -7.230   5.085  64.861  1.00  0.00    -0.061 OA 
HETATM   20  C   UNL     1      -7.402   6.275  65.518  1.00  0.00    -0.080 A  
HETATM   21  C   UNL     1      -6.548   7.369  65.349  1.00  0.00    -0.044 A  
HETATM   22  C   UNL     1      -8.819   7.581  66.999  1.00  0.00    -0.134 A  
HETATM   23  H   UNL     1      -7.811   4.342  64.976  1.00  0.00     0.000 HD 
HETATM   24  C   UNL     1      -6.896   8.583  65.968  1.00  0.00    -0.061 A  
HETATM   25  C   UNL     1      -8.512   6.364  66.382  1.00  0.00    -0.123 A  
BRANCH  21  26
HETATM   26  O   UNL     1      -5.392   7.468  64.627  1.00  0.00    -0.029 OA 
HETATM   27  C   UNL     1      -5.432   7.667  63.224  1.00  0.00    -0.042 C  
ENDBRANCH  21  26
BRANCH  25  28
HETATM   28  O   UNL     1      -9.290   5.239  66.508  1.00  0.00    -0.132 OA 
HETATM   29  C   UNL     1     -10.359   5.102  65.580  1.00  0.00     0.039 C  
ENDBRANCH  25  28
ENDBRANCH   7  18
BRANCH  15  30
HETATM   30  O   UNL     1     -11.617  12.498  66.533  1.00  0.00    -0.347 OA 
BRANCH  30  31
HETATM   31  C   UNL     1     -10.456  13.350  66.663  1.00  0.00    -0.280 C  
HETATM   32  O   UNL     1     -10.241  13.873  67.994  1.00  0.00    -0.234 OA 
HETATM   33  C   UNL     1      -9.235  14.916  68.002  1.00  0.00    -0.185 C  
HETATM   34  C   UNL     1      -8.785  15.376  69.397  1.00  0.00    -0.252 C  
HETATM   35  O   UNL     1      -7.895  16.509  69.303  1.00  0.00    -0.229 OA 
HETATM   36  C   UNL     1      -8.540  17.607  68.655  1.00  0.00    -0.264 C  
HETATM   37  H   UNL     1     -10.582  14.649  63.644  1.00  0.00     0.000 HD 
HETATM   38  O   UNL     1      -8.896  17.251  67.327  1.00  0.00    -0.217 OA 
HETATM   39  C   UNL     1      -9.788  16.141  67.284  1.00  0.00    -0.241 C  
HETATM   40  H   UNL     1     -10.724  16.649  64.240  1.00  0.00     0.000 HD 
HETATM   41  O   UNL     1     -10.424  13.966  64.286  1.00  0.00    -0.313 OA 
HETATM   42  C   UNL     1      -9.951  15.786  65.817  1.00  0.00    -0.358 C  
HETATM   43  C   UNL     1     -10.716  14.476  65.606  1.00  0.00    -0.327 C  
HETATM   44  O   UNL     1     -10.622  16.872  65.158  1.00  0.00    -0.679 OA 
BRANCH  36  45
HETATM   45  C   UNL     1      -7.570  18.751  68.487  1.00  0.00    -0.327 A  
HETATM   46  S   UNL     1      -7.461  19.537  66.955  1.00  0.00    -0.234 SA 
HETATM   47  C   UNL     1      -5.793  20.255  68.763  1.00  0.00    -0.330 A  
HETATM   48  C   UNL     1      -6.624  19.260  69.362  1.00  0.00    -0.348 A  
HETATM   49  C   UNL     1      -6.131  20.493  67.450  1.00  0.00    -0.214 A  
ENDBRANCH  36  45
ENDBRANCH  30  31
ENDBRANCH  15  30
TORSDOF 6
ENDMDL
MODEL       46
REMARK 921   NORMALIZED FREE ENERGY PREDICTED BY IDOCK:   -4.86 KCAL/MOL
REMARK 922        TOTAL FREE ENERGY PREDICTED BY IDOCK:   -8.58 KCAL/MOL
REMARK 923 INTER-LIGAND FREE ENERGY PREDICTED BY IDOCK:   -7.76 KCAL/MOL
REMARK 924 INTRA-LIGAND FREE ENERGY PREDICTED BY IDOCK:   -0.82 KCAL/MOL
REMARK 927      BINDING AFFINITY PREDICTED BY RF-SCORE:    0.00 PKD
ROOT
HETATM    1  C   UNL     1      -9.297   8.827  69.899  1.00  0.00    -0.165 C  
HETATM    2  C   UNL     1     -10.108   9.471  70.989  1.00  0.00    -0.229 C  
HETATM    3  O   UNL     1     -10.854   8.377  71.564  1.00  0.00    -0.232 OA 
HETATM    4  C   UNL     1     -11.032   7.401  70.609  1.00  0.00    -0.256 C  
HETATM    5  C   UNL     1     -10.308   7.814  69.353  1.00  0.00    -0.219 C  
HETATM    6  O   UNL     1     -11.744   6.424  70.763  1.00  0.00    -0.366 OA 
HETATM    7  C   UNL     1      -9.625   6.738  68.504  1.00  0.00    -0.130 C  
HETATM    8  C   UNL     1      -8.606   7.399  67.559  1.00  0.00    -0.122 A  
HETATM    9  C   UNL     1      -8.188   8.773  67.692  1.00  0.00    -0.110 A  
HETATM   10  C   UNL     1      -8.038   6.584  66.556  1.00  0.00    -0.111 A  
HETATM   11  C   UNL     1      -5.374   7.440  64.442  1.00  0.00    -0.029 C  
HETATM   12  C   UNL     1      -7.046   7.116  65.764  1.00  0.00    -0.069 A  
HETATM   13  C   UNL     1      -7.181   9.265  66.839  1.00  0.00    -0.086 A  
HETATM   14  C   UNL     1      -6.627   8.414  65.905  1.00  0.00    -0.053 A  
HETATM   15  C   UNL     1      -8.711   9.712  68.789  1.00  0.00    -0.126 C  
HETATM   16  O   UNL     1      -6.352   6.447  64.806  1.00  0.00    -0.032 OA 
HETATM   17  O   UNL     1      -5.609   8.725  65.057  1.00  0.00    -0.046 OA 
ENDROOT
BRANCH   7  18
HETATM   18  C   UNL     1      -9.050   5.580  69.343  1.00  0.00    -0.134 A  
HETATM   19  O   UNL     1      -8.375   2.566  72.161  1.00  0.00    -0.057 OA 
HETATM   20  C   UNL     1      -8.543   3.488  71.162  1.00  0.00    -0.072 A  
HETATM   21  C   UNL     1      -9.180   3.195  69.953  1.00  0.00    -0.152 A  
HETATM   22  C   UNL     1      -8.287   5.810  70.490  1.00  0.00    -0.119 A  
HETATM   23  H   UNL     1      -7.943   2.765  72.983  1.00  0.00     0.000 HD 
HETATM   24  C   UNL     1      -9.418   4.251  69.055  1.00  0.00    -0.242 A  
HETATM   25  C   UNL     1      -8.052   4.785  71.412  1.00  0.00    -0.102 A  
BRANCH  21  26
HETATM   26  O   UNL     1      -9.656   2.002  69.487  1.00  0.00    -0.082 OA 
HETATM   27  C   UNL     1      -9.612   1.697  68.102  1.00  0.00    -0.104 C  
ENDBRANCH  21  26
BRANCH  25  28
HETATM   28  O   UNL     1      -7.422   4.987  72.616  1.00  0.00    -0.090 OA 
HETATM   29  C   UNL     1      -7.497   6.300  73.157  1.00  0.00    -0.092 C  
ENDBRANCH  25  28
ENDBRANCH   7  18
BRANCH  15  30
HETATM   30  O   UNL     1      -9.721  10.622  68.368  1.00  0.00    -0.155 OA 
BRANCH  30  31
HETATM   31  C   UNL     1      -9.708  12.012  68.766  1.00  0.00    -0.016 C  
HETATM   32  O   UNL     1     -10.856  12.774  68.326  1.00  0.00    -0.229 OA 
HETATM   33  C   UNL     1     -10.659  14.195  68.522  1.00  0.00    -0.252 C  
HETATM   34  C   UNL     1     -11.906  15.063  68.290  1.00  0.00    -0.268 C  
HETATM   35  O   UNL     1     -11.578  16.466  68.366  1.00  0.00    -0.286 OA 
HETATM   36  C   UNL     1     -10.600  16.813  67.382  1.00  0.00    -0.291 C  
HETATM   37  H   UNL     1      -6.448  12.428  68.629  1.00  0.00     0.000 HD 
HETATM   38  O   UNL     1      -9.397  16.095  67.614  1.00  0.00    -0.212 OA 
HETATM   39  C   UNL     1      -9.588  14.684  67.555  1.00  0.00    -0.206 C  
HETATM   40  H   UNL     1      -6.455  13.989  67.237  1.00  0.00     0.000 HD 
HETATM   41  O   UNL     1      -7.264  12.104  68.993  1.00  0.00    -0.103 OA 
HETATM   42  C   UNL     1      -8.268  14.061  67.972  1.00  0.00    -0.155 C  
HETATM   43  C   UNL     1      -8.362  12.545  68.165  1.00  0.00    -0.175 C  
HETATM   44  O   UNL     1      -7.281  14.380  66.977  1.00  0.00    -0.057 OA 
BRANCH  36  45
HETATM   45  C   UNL     1     -10.205  18.261  67.533  1.00  0.00    -0.369 A  
HETATM   46  S   UNL     1     -10.438  19.334  66.202  1.00  0.00    -0.471 SA 
HETATM   47  C   UNL     1      -9.232  20.266  68.263  1.00  0.00    -0.112 A  
HETATM   48  C   UNL     1      -9.564  18.913  68.575  1.00  0.00    -0.432 A  
HETATM   49  C   UNL     1      -9.639  20.622  66.996  1.00  0.00    -0.344 A  
ENDBRANCH  36  45
ENDBRANCH  30  31
ENDBRANCH  15  30
TORSDOF 6
ENDMDL
MODEL       47
REMARK 921   NORMALIZED FREE ENERGY PREDICTED BY IDOCK:   -4.75 KCAL/MOL
REMARK 922        TOTAL FREE ENERGY PREDICTED BY IDOCK:   -8.43 KCAL/MOL
REMARK 923 INTER-LIGAND FREE ENERGY PREDICTED BY IDOCK:  -10.96 KCAL/MOL
REMARK 924 INTRA-LIGAND FREE ENERGY PREDICTED BY IDOCK:    2.52 KCAL/MOL
REMARK 927      BINDING AFFINITY PREDICTED BY RF-SCORE:    0.00 PKD
ROOT
HETATM    1  C   UNL     1      -8.499  11.687  67.631  1.00  0.00    -0.142 C  
HETATM    2  C   UNL     1      -8.833  10.247  67.360  1.00  0.00    -0.131 C  
HETATM    3  O   UNL     1     -10.180  10.290  66.844  1.00  0.00    -0.210 OA 
HETATM    4  C   UNL     1     -10.820  11.403  67.344  1.00  0.00    -0.254 C  
HETATM    5  C   UNL     1      -9.839  12.193  68.173  1.00  0.00    -0.207 C  
HETATM    6  O   UNL     1     -12.008  11.626  67.196  1.00  0.00    -0.614 OA 
HETATM    7  C   UNL     1      -9.914  13.723  68.151  1.00  0.00    -0.242 C  
HETATM    8  C   UNL     1      -8.595  14.311  68.682  1.00  0.00    -0.149 A  
HETATM    9  C   UNL     1      -7.406  13.518  68.880  1.00  0.00    -0.045 A  
HETATM   10  C   UNL     1      -8.565  15.698  68.933  1.00  0.00    -0.211 A  
HETATM   11  C   UNL     1      -5.731  17.611  69.716  1.00  0.00    -0.235 C  
HETATM   12  C   UNL     1      -7.370  16.271  69.306  1.00  0.00    -0.221 A  
HETATM   13  C   UNL     1      -6.218  14.159  69.280  1.00  0.00    -0.103 A  
HETATM   14  C   UNL     1      -6.231  15.525  69.469  1.00  0.00    -0.145 A  
HETATM   15  C   UNL     1      -7.333  12.014  68.577  1.00  0.00    -0.111 C  
HETATM   16  O   UNL     1      -7.157  17.598  69.515  1.00  0.00    -0.113 OA 
HETATM   17  O   UNL     1      -5.154  16.289  69.795  1.00  0.00    -0.116 OA 
ENDROOT
BRANCH   7  18
HETATM   18  C   UNL     1     -10.353  14.287  66.787  1.00  0.00    -0.274 A  
HETATM   19  O   UNL     1     -12.376  16.138  63.630  1.00  0.00    -1.039 OA 
HETATM   20  C   UNL     1     -11.617  15.565  64.615  1.00  0.00    -0.281 A  
HETATM   21  C   UNL     1     -10.689  16.282  65.376  1.00  0.00    -0.327 A  
HETATM   22  C   UNL     1     -11.171  13.562  65.918  1.00  0.00    -0.310 A  
HETATM   23  H   UNL     1     -13.007  15.651  63.113  1.00  0.00     0.000 HD 
HETATM   24  C   UNL     1     -10.064  15.625  66.451  1.00  0.00    -0.301 A  
HETATM   25  C   UNL     1     -11.824  14.192  64.853  1.00  0.00    -0.402 A  
BRANCH  21  26
HETATM   26  O   UNL     1     -10.289  17.584  65.261  1.00  0.00    -0.590 OA 
HETATM   27  C   UNL     1      -9.685  18.253  66.356  1.00  0.00    -0.334 C  
ENDBRANCH  21  26
BRANCH  25  28
HETATM   28  O   UNL     1     -12.738  13.555  64.049  1.00  0.00    -0.660 OA 
HETATM   29  C   UNL     1     -12.435  12.215  63.684  1.00  0.00    -0.549 C  
ENDBRANCH  25  28
ENDBRANCH   7  18
BRANCH  15  30
HETATM   30  O   UNL     1      -7.438  11.167  69.716  1.00  0.00     0.000 OA 
BRANCH  30  31
HETATM   31  C   UNL     1      -7.962   9.823  69.620  1.00  0.00    -0.150 C  
HETATM   32  O   UNL     1      -9.141   9.579  70.422  1.00  0.00    -0.238 OA 
HETATM   33  C   UNL     1      -9.456   8.167  70.491  1.00  0.00    -0.163 C  
HETATM   34  C   UNL     1     -10.810   7.832  71.134  1.00  0.00    -0.235 C  
HETATM   35  O   UNL     1     -10.969   6.406  71.290  1.00  0.00    -0.249 OA 
HETATM   36  C   UNL     1      -9.934   5.868  72.116  1.00  0.00    -0.170 C  
HETATM   37  H   UNL     1      -5.073   8.305  69.209  1.00  0.00     0.000 HD 
HETATM   38  O   UNL     1      -8.666   6.079  71.512  1.00  0.00    -0.131 OA 
HETATM   39  C   UNL     1      -8.384   7.461  71.313  1.00  0.00    -0.110 C  
HETATM   40  H   UNL     1      -5.218   7.041  70.869  1.00  0.00     0.000 HD 
HETATM   41  O   UNL     1      -5.810   8.846  68.950  1.00  0.00    -0.039 OA 
HETATM   42  C   UNL     1      -7.085   7.519  70.530  1.00  0.00    -0.056 C  
HETATM   43  C   UNL     1      -6.746   8.932  70.048  1.00  0.00    -0.043 C  
HETATM   44  O   UNL     1      -6.030   7.005  71.359  1.00  0.00    -0.036 OA 
BRANCH  36  45
HETATM   45  C   UNL     1     -10.064   4.367  72.196  1.00  0.00    -0.195 A  
HETATM   46  S   UNL     1     -10.815   3.665  73.582  1.00  0.00    -0.244 SA 
HETATM   47  C   UNL     1      -9.788   2.062  71.867  1.00  0.00    -0.216 A  
HETATM   48  C   UNL     1      -9.580   3.378  71.354  1.00  0.00    -0.236 A  
HETATM   49  C   UNL     1     -10.438   2.074  73.081  1.00  0.00    -0.132 A  
ENDBRANCH  36  45
ENDBRANCH  30  31
ENDBRANCH  15  30
TORSDOF 6
ENDMDL
MODEL       48
REMARK 921   NORMALIZED FREE ENERGY PREDICTED BY IDOCK:   -4.69 KCAL/MOL
REMARK 922        TOTAL FREE ENERGY PREDICTED BY IDOCK:   -8.35 KCAL/MOL
REMARK 923 INTER-LIGAND FREE ENERGY PREDICTED BY IDOCK:   -7.82 KCAL/MOL
REMARK 924 INTRA-LIGAND FREE ENERGY PREDICTED BY IDOCK:   -0.53 KCAL/MOL
REMARK 927      BINDING AFFINITY PREDICTED BY RF-SCORE:    0.00 PKD
ROOT
HETATM    1  C   UNL     1      -9.211   8.975  69.652  1.00  0.00    -0.160 C  
HETATM    2  C   UNL     1      -9.977   9.951  70.500  1.00  0.00    -0.098 C  
HETATM    3  O   UNL     1     -10.780   9.115  71.360  1.00  0.00    -0.290 OA 
HETATM    4  C   UNL     1     -11.019   7.915  70.728  1.00  0.00    -0.252 C  
HETATM    5  C   UNL     1     -10.281   7.906  69.413  1.00  0.00    -0.206 C  
HETATM    6  O   UNL     1     -11.784   7.067  71.150  1.00  0.00    -0.290 OA 
HETATM    7  C   UNL     1      -9.666   6.593  68.918  1.00  0.00    -0.136 C  
HETATM    8  C   UNL     1      -8.617   6.893  67.832  1.00  0.00    -0.122 A  
HETATM    9  C   UNL     1      -8.121   8.222  67.566  1.00  0.00    -0.122 A  
HETATM   10  C   UNL     1      -8.104   5.794  67.115  1.00  0.00    -0.102 A  
HETATM   11  C   UNL     1      -5.409   5.849  64.869  1.00  0.00    -0.016 C  
HETATM   12  C   UNL     1      -7.088   6.016  66.213  1.00  0.00    -0.068 A  
HETATM   13  C   UNL     1      -7.094   8.388  66.617  1.00  0.00    -0.073 A  
HETATM   14  C   UNL     1      -6.596   7.274  65.975  1.00  0.00    -0.052 A  
HETATM   15  C   UNL     1      -8.583   9.466  68.339  1.00  0.00    -0.124 C  
HETATM   16  O   UNL     1      -6.439   5.061  65.496  1.00  0.00    -0.034 OA 
HETATM   17  O   UNL     1      -5.568   7.269  65.084  1.00  0.00    -0.032 OA 
ENDROOT
BRANCH   7  18
HETATM   18  C   UNL     1      -9.151   5.698  70.062  1.00  0.00    -0.157 A  
HETATM   19  O   UNL     1      -7.014   3.028  72.469  1.00  0.00    -0.029 OA 
HETATM   20  C   UNL     1      -7.737   3.962  71.774  1.00  0.00    -0.065 A  
HETATM   21  C   UNL     1      -7.441   5.328  71.800  1.00  0.00    -0.091 A  
HETATM   22  C   UNL     1      -9.520   4.356  70.170  1.00  0.00    -0.245 A  
HETATM   23  H   UNL     1      -7.215   2.100  72.450  1.00  0.00     0.000 HD 
HETATM   24  C   UNL     1      -8.163   6.179  70.943  1.00  0.00    -0.126 A  
HETATM   25  C   UNL     1      -8.809   3.479  70.996  1.00  0.00    -0.083 A  
BRANCH  21  26
HETATM   26  O   UNL     1      -6.507   6.002  72.534  1.00  0.00    -0.056 OA 
HETATM   27  C   UNL     1      -6.505   7.420  72.574  1.00  0.00    -0.051 C  
ENDBRANCH  21  26
BRANCH  25  28
HETATM   28  O   UNL     1      -9.046   2.127  71.040  1.00  0.00    -0.079 OA 
HETATM   29  C   UNL     1      -9.179   1.467  69.787  1.00  0.00    -0.096 C  
ENDBRANCH  25  28
ENDBRANCH   7  18
BRANCH  15  30
HETATM   30  O   UNL     1      -9.543  10.270  67.662  1.00  0.00    -0.150 OA 
BRANCH  30  31
HETATM   31  C   UNL     1      -9.697  11.678  67.952  1.00  0.00    -0.179 C  
HETATM   32  O   UNL     1     -10.548  12.393  67.026  1.00  0.00    -0.222 OA 
HETATM   33  C   UNL     1     -10.450  13.826  67.209  1.00  0.00    -0.264 C  
HETATM   34  C   UNL     1     -11.478  14.655  66.423  1.00  0.00    -0.347 C  
HETATM   35  O   UNL     1     -11.210  16.067  66.554  1.00  0.00    -0.066 OA 
HETATM   36  C   UNL     1      -9.906  16.384  66.061  1.00  0.00    -0.335 C  
HETATM   37  H   UNL     1      -6.687  12.156  69.187  1.00  0.00     0.000 HD 
HETATM   38  O   UNL     1      -8.917  15.704  66.819  1.00  0.00    -0.219 OA 
HETATM   39  C   UNL     1      -9.069  14.288  66.762  1.00  0.00    -0.249 C  
HETATM   40  H   UNL     1      -6.098  13.644  67.841  1.00  0.00     0.000 HD 
HETATM   41  O   UNL     1      -7.580  11.834  69.188  1.00  0.00    -0.046 OA 
HETATM   42  C   UNL     1      -8.051  13.715  67.732  1.00  0.00    -0.173 C  
HETATM   43  C   UNL     1      -8.223  12.209  67.950  1.00  0.00    -0.155 C  
HETATM   44  O   UNL     1      -6.735  14.003  67.234  1.00  0.00    -0.244 OA 
BRANCH  36  45
HETATM   45  C   UNL     1      -9.609  17.846  66.285  1.00  0.00    -0.241 A  
HETATM   46  S   UNL     1      -8.028  18.309  66.797  1.00  0.00    -0.253 SA 
HETATM   47  C   UNL     1      -9.806  20.150  66.670  1.00  0.00    -0.588 A  
HETATM   48  C   UNL     1     -10.448  18.948  66.244  1.00  0.00    -0.510 A  
HETATM   49  C   UNL     1      -8.489  19.942  67.014  1.00  0.00    -0.328 A  
ENDBRANCH  36  45
ENDBRANCH  30  31
ENDBRANCH  15  30
TORSDOF 6
ENDMDL
MODEL       49
REMARK 921   NORMALIZED FREE ENERGY PREDICTED BY IDOCK:   -4.50 KCAL/MOL
REMARK 922        TOTAL FREE ENERGY PREDICTED BY IDOCK:   -8.10 KCAL/MOL
REMARK 923 INTER-LIGAND FREE ENERGY PREDICTED BY IDOCK:   -8.99 KCAL/MOL
REMARK 924 INTRA-LIGAND FREE ENERGY PREDICTED BY IDOCK:    0.89 KCAL/MOL
REMARK 927      BINDING AFFINITY PREDICTED BY RF-SCORE:    0.00 PKD
ROOT
HETATM    1  C   UNL     1      -8.029  12.047  68.448  1.00  0.00    -0.152 C  
HETATM    2  C   UNL     1      -7.128  12.761  67.480  1.00  0.00    -0.148 C  
HETATM    3  O   UNL     1      -7.968  13.784  66.906  1.00  0.00    -0.013 OA 
HETATM    4  C   UNL     1      -9.281  13.368  66.952  1.00  0.00    -0.248 C  
HETATM    5  C   UNL     1      -9.342  12.039  67.660  1.00  0.00    -0.185 C  
HETATM    6  O   UNL     1     -10.199  13.960  66.414  1.00  0.00    -0.278 OA 
HETATM    7  C   UNL     1     -10.540  11.736  68.564  1.00  0.00    -0.242 C  
HETATM    8  C   UNL     1     -10.194  10.566  69.503  1.00  0.00    -0.230 A  
HETATM    9  C   UNL     1      -8.853  10.062  69.667  1.00  0.00    -0.217 A  
HETATM   10  C   UNL     1     -11.251  10.013  70.256  1.00  0.00    -0.379 A  
HETATM   11  C   UNL     1     -10.954   7.661  72.841  1.00  0.00    -0.400 C  
HETATM   12  C   UNL     1     -10.955   9.038  71.182  1.00  0.00    -0.301 A  
HETATM   13  C   UNL     1      -8.616   9.050  70.617  1.00  0.00    -0.245 A  
HETATM   14  C   UNL     1      -9.676   8.575  71.360  1.00  0.00    -0.220 A  
HETATM   15  C   UNL     1      -7.636  10.642  68.930  1.00  0.00    -0.113 C  
HETATM   16  O   UNL     1     -11.842   8.457  72.033  1.00  0.00    -0.305 OA 
HETATM   17  O   UNL     1      -9.595   7.648  72.352  1.00  0.00    -0.151 OA 
ENDROOT
BRANCH   7  18
HETATM   18  C   UNL     1     -11.084  12.984  69.286  1.00  0.00    -0.194 A  
HETATM   19  O   UNL     1     -13.396  16.193  70.645  1.00  0.00    -0.407 OA 
HETATM   20  C   UNL     1     -12.597  15.133  70.304  1.00  0.00    -0.326 A  
HETATM   21  C   UNL     1     -12.648  13.899  70.958  1.00  0.00    -0.371 A  
HETATM   22  C   UNL     1     -10.943  14.265  68.749  1.00  0.00    -0.271 A  
HETATM   23  H   UNL     1     -13.361  17.031  70.200  1.00  0.00     0.000 HD 
HETATM   24  C   UNL     1     -11.881  12.841  70.439  1.00  0.00    -0.238 A  
HETATM   25  C   UNL     1     -11.708  15.333  69.229  1.00  0.00    -0.338 A  
BRANCH  21  26
HETATM   26  O   UNL     1     -13.374  13.524  72.053  1.00  0.00    -0.404 OA 
HETATM   27  C   UNL     1     -13.619  12.153  72.323  1.00  0.00    -0.121 C  
ENDBRANCH  21  26
BRANCH  25  28
HETATM   28  O   UNL     1     -11.704  16.580  68.653  1.00  0.00    -0.180 OA 
HETATM   29  C   UNL     1     -10.470  17.016  68.096  1.00  0.00    -0.357 C  
ENDBRANCH  25  28
ENDBRANCH   7  18
BRANCH  15  30
HETATM   30  O   UNL     1      -7.205   9.891  67.801  1.00  0.00    -0.086 OA 
BRANCH  30  31
HETATM   31  C   UNL     1      -8.032   8.864  67.209  1.00  0.00    -0.097 C  
HETATM   32  O   UNL     1      -7.761   7.525  67.686  1.00  0.00    -0.110 OA 
HETATM   33  C   UNL     1      -8.425   6.525  66.875  1.00  0.00    -0.114 C  
HETATM   34  C   UNL     1      -8.374   5.095  67.434  1.00  0.00    -0.106 C  
HETATM   35  O   UNL     1      -8.931   4.154  66.493  1.00  0.00    -0.115 OA 
HETATM   36  C   UNL     1      -8.206   4.180  65.261  1.00  0.00    -0.102 C  
HETATM   37  H   UNL     1      -8.335  10.261  64.248  1.00  0.00     0.000 HD 
HETATM   38  O   UNL     1      -8.301   5.466  64.664  1.00  0.00    -0.135 OA 
HETATM   39  C   UNL     1      -7.770   6.491  65.500  1.00  0.00    -0.097 C  
HETATM   40  H   UNL     1      -7.530   8.678  63.142  1.00  0.00     0.000 HD 
HETATM   41  O   UNL     1      -8.498  10.164  65.179  1.00  0.00    -0.146 OA 
HETATM   42  C   UNL     1      -8.080   7.805  64.805  1.00  0.00    -0.131 C  
HETATM   43  C   UNL     1      -7.762   9.024  65.675  1.00  0.00    -0.091 C  
HETATM   44  O   UNL     1      -7.337   7.856  63.577  1.00  0.00    -0.091 OA 
BRANCH  36  45
HETATM   45  C   UNL     1      -8.854   3.256  64.259  1.00  0.00    -0.098 A  
HETATM   46  S   UNL     1      -7.905   2.012  63.533  1.00  0.00    -0.061 SA 
HETATM   47  C   UNL     1     -10.300   2.311  62.674  1.00  0.00    -0.113 A  
HETATM   48  C   UNL     1     -10.126   3.279  63.709  1.00  0.00    -0.187 A  
HETATM   49  C   UNL     1      -9.163   1.562  62.466  1.00  0.00    -0.078 A  
ENDBRANCH  36  45
ENDBRANCH  30  31
ENDBRANCH  15  30
TORSDOF 6
ENDMDL
MODEL       50
REMARK 921   NORMALIZED FREE ENERGY PREDICTED BY IDOCK:   -4.47 KCAL/MOL
REMARK 922        TOTAL FREE ENERGY PREDICTED BY IDOCK:   -8.06 KCAL/MOL
REMARK 923 INTER-LIGAND FREE ENERGY PREDICTED BY IDOCK:   -8.50 KCAL/MOL
REMARK 924 INTRA-LIGAND FREE ENERGY PREDICTED BY IDOCK:    0.44 KCAL/MOL
REMARK 927      BINDING AFFINITY PREDICTED BY RF-SCORE:    0.00 PKD
ROOT
HETATM    1  C   UNL     1      -8.441   6.843  67.209  1.00  0.00    -0.121 C  
HETATM    2  C   UNL     1      -7.647   5.978  66.272  1.00  0.00    -0.090 C  
HETATM    3  O   UNL     1      -6.625   5.398  67.109  1.00  0.00    -0.050 OA 
HETATM    4  C   UNL     1      -6.373   6.245  68.165  1.00  0.00    -0.040 C  
HETATM    5  C   UNL     1      -7.322   7.414  68.085  1.00  0.00    -0.100 C  
HETATM    6  O   UNL     1      -5.461   6.089  68.958  1.00  0.00    -0.004 OA 
HETATM    7  C   UNL     1      -7.871   8.013  69.384  1.00  0.00    -0.113 C  
HETATM    8  C   UNL     1      -9.117   8.861  69.072  1.00  0.00    -0.137 A  
HETATM    9  C   UNL     1      -9.789   8.829  67.796  1.00  0.00    -0.217 A  
HETATM   10  C   UNL     1      -9.628   9.658  70.117  1.00  0.00    -0.300 A  
HETATM   11  C   UNL     1     -12.661  11.421  70.098  1.00  0.00    -0.101 C  
HETATM   12  C   UNL     1     -10.802  10.344  69.904  1.00  0.00    -0.298 A  
HETATM   13  C   UNL     1     -10.977   9.569  67.633  1.00  0.00    -0.150 A  
HETATM   14  C   UNL     1     -11.458  10.296  68.700  1.00  0.00    -0.112 A  
HETATM   15  C   UNL     1      -9.335   7.947  66.624  1.00  0.00    -0.193 C  
HETATM   16  O   UNL     1     -11.460  11.097  70.825  1.00  0.00    -0.143 OA 
HETATM   17  O   UNL     1     -12.618  11.008  68.714  1.00  0.00    -0.350 OA 
ENDROOT
BRANCH   7  18
HETATM   18  C   UNL     1      -8.082   6.963  70.491  1.00  0.00    -0.115 A  
HETATM   19  O   UNL     1      -9.562   4.620  73.623  1.00  0.00    -0.126 OA 
HETATM   20  C   UNL     1      -9.029   5.294  72.556  1.00  0.00    -0.130 A  
HETATM   21  C   UNL     1      -9.275   4.933  71.228  1.00  0.00    -0.145 A  
HETATM   22  C   UNL     1      -7.730   7.211  71.819  1.00  0.00    -0.092 A  
HETATM   23  H   UNL     1      -9.395   4.865  74.526  1.00  0.00     0.000 HD 
HETATM   24  C   UNL     1      -8.788   5.776  70.212  1.00  0.00    -0.145 A  
HETATM   25  C   UNL     1      -8.215   6.405  72.854  1.00  0.00    -0.113 A  
BRANCH  21  26
HETATM   26  O   UNL     1      -9.964   3.864  70.729  1.00  0.00    -0.179 OA 
HETATM   27  C   UNL     1      -9.275   2.760  70.165  1.00  0.00    -0.135 C  
ENDBRANCH  21  26
BRANCH  25  28
HETATM   28  O   UNL     1      -8.007   6.681  74.183  1.00  0.00    -0.106 OA 
HETATM   29  C   UNL     1      -7.995   8.055  74.550  1.00  0.00    -0.241 C  
ENDBRANCH  25  28
ENDBRANCH   7  18
BRANCH  15  30
HETATM   30  O   UNL     1      -8.597   8.625  65.614  1.00  0.00    -0.149 OA 
BRANCH  30  31
HETATM   31  C   UNL     1      -8.441  10.063  65.621  1.00  0.00    -0.148 C  
HETATM   32  O   UNL     1      -8.379  10.654  66.940  1.00  0.00    -0.121 OA 
HETATM   33  C   UNL     1      -8.490  12.097  66.882  1.00  0.00    -0.173 C  
HETATM   34  C   UNL     1      -8.215  12.825  68.207  1.00  0.00    -0.159 C  
HETATM   35  O   UNL     1      -8.491  14.236  68.088  1.00  0.00    -0.150 OA 
HETATM   36  C   UNL     1      -9.857  14.457  67.729  1.00  0.00    -0.221 C  
HETATM   37  H   UNL     1     -10.163  10.657  62.883  1.00  0.00     0.000 HD 
HETATM   38  O   UNL     1     -10.132  13.874  66.464  1.00  0.00    -0.271 OA 
HETATM   39  C   UNL     1      -9.905  12.467  66.455  1.00  0.00    -0.253 C  
HETATM   40  H   UNL     1     -11.578  11.930  63.750  1.00  0.00     0.000 HD 
HETATM   41  O   UNL     1      -9.416  10.354  63.386  1.00  0.00    -0.273 OA 
HETATM   42  C   UNL     1     -10.088  12.019  65.016  1.00  0.00    -0.264 C  
HETATM   43  C   UNL     1      -9.673  10.562  64.792  1.00  0.00    -0.305 C  
HETATM   44  O   UNL     1     -11.464  12.211  64.650  1.00  0.00    -0.319 OA 
BRANCH  36  45
HETATM   45  C   UNL     1     -10.105  15.931  67.522  1.00  0.00    -0.247 A  
HETATM   46  S   UNL     1      -9.687  16.645  66.008  1.00  0.00    -0.246 SA 
HETATM   47  C   UNL     1     -10.503  18.217  67.861  1.00  0.00    -0.408 A  
HETATM   48  C   UNL     1     -10.548  16.900  68.409  1.00  0.00    -0.365 A  
HETATM   49  C   UNL     1     -10.040  18.224  66.564  1.00  0.00    -0.385 A  
ENDBRANCH  36  45
ENDBRANCH  30  31
ENDBRANCH  15  30
TORSDOF 6
ENDMDL
MODEL       51
REMARK 921   NORMALIZED FREE ENERGY PREDICTED BY IDOCK:   -4.47 KCAL/MOL
REMARK 922        TOTAL FREE ENERGY PREDICTED BY IDOCK:   -8.06 KCAL/MOL
REMARK 923 INTER-LIGAND FREE ENERGY PREDICTED BY IDOCK:   -6.37 KCAL/MOL
REMARK 924 INTRA-LIGAND FREE ENERGY PREDICTED BY IDOCK:   -1.69 KCAL/MOL
REMARK 927      BINDING AFFINITY PREDICTED BY RF-SCORE:    0.00 PKD
ROOT
HETATM    1  C   UNL     1      -7.880  13.837  68.638  1.00  0.00    -0.108 C  
HETATM    2  C   UNL     1      -6.804  13.563  69.652  1.00  0.00     0.107 C  
HETATM    3  O   UNL     1      -5.917  14.695  69.539  1.00  0.00    -0.097 OA 
HETATM    4  C   UNL     1      -6.001  15.209  68.263  1.00  0.00    -0.123 C  
HETATM    5  C   UNL     1      -7.050  14.440  67.501  1.00  0.00    -0.197 C  
HETATM    6  O   UNL     1      -5.265  16.078  67.833  1.00  0.00    -0.111 OA 
HETATM    7  C   UNL     1      -7.931  15.187  66.495  1.00  0.00     0.263 C  
HETATM    8  C   UNL     1      -9.179  14.344  66.179  1.00  0.00    -0.152 A  
HETATM    9  C   UNL     1      -9.558  13.184  66.947  1.00  0.00    -0.248 A  
HETATM   10  C   UNL     1      -9.994  14.780  65.113  1.00  0.00    -0.279 A  
HETATM   11  C   UNL     1     -13.150  13.511  64.255  1.00  0.00     0.679 C  
HETATM   12  C   UNL     1     -11.173  14.110  64.874  1.00  0.00    -0.373 A  
HETATM   13  C   UNL     1     -10.767  12.529  66.642  1.00  0.00    -0.261 A  
HETATM   14  C   UNL     1     -11.549  13.022  65.619  1.00  0.00    -0.354 A  
HETATM   15  C   UNL     1      -8.760  12.674  68.157  1.00  0.00    -0.190 C  
HETATM   16  O   UNL     1     -12.099  14.444  63.936  1.00  0.00    -0.435 OA 
HETATM   17  O   UNL     1     -12.766  12.537  65.249  1.00  0.00    -0.654 OA 
ENDROOT
BRANCH   7  18
HETATM   18  C   UNL     1      -8.238  16.636  66.920  1.00  0.00    -0.247 A  
HETATM   19  O   UNL     1      -9.865  20.458  67.401  1.00  0.00    -0.425 OA 
HETATM   20  C   UNL     1      -9.304  19.209  67.353  1.00  0.00    -0.304 A  
HETATM   21  C   UNL     1      -9.706  18.161  68.186  1.00  0.00    -0.325 A  
HETATM   22  C   UNL     1      -7.751  17.732  66.206  1.00  0.00    -0.308 A  
HETATM   23  H   UNL     1      -9.593  21.170  66.834  1.00  0.00     0.000 HD 
HETATM   24  C   UNL     1      -9.157  16.886  67.958  1.00  0.00    -0.234 A  
HETATM   25  C   UNL     1      -8.291  19.009  66.394  1.00  0.00    -0.307 A  
BRANCH  21  26
HETATM   26  O   UNL     1     -10.604  18.162  69.216  1.00  0.00    -0.006 OA 
HETATM   27  C   UNL     1     -10.939  16.957  69.884  1.00  0.00     0.102 C  
ENDBRANCH  21  26
BRANCH  25  28
HETATM   28  O   UNL     1      -7.941  20.094  65.628  1.00  0.00    -0.247 OA 
HETATM   29  C   UNL     1      -6.973  19.865  64.612  1.00  0.00     0.306 C  
ENDBRANCH  25  28
ENDBRANCH   7  18
BRANCH  15  30
HETATM   30  O   UNL     1      -7.916  11.560  67.893  1.00  0.00    -0.115 OA 
BRANCH  30  31
HETATM   31  C   UNL     1      -8.454  10.242  67.635  1.00  0.00    -0.118 C  
HETATM   32  O   UNL     1      -8.241   9.287  68.700  1.00  0.00    -0.110 OA 
HETATM   33  C   UNL     1      -8.559   7.938  68.278  1.00  0.00    -0.124 C  
HETATM   34  C   UNL     1      -8.575   6.891  69.403  1.00  0.00    -0.133 C  
HETATM   35  O   UNL     1      -8.757   5.563  68.868  1.00  0.00    -0.102 OA 
HETATM   36  C   UNL     1      -7.702   5.233  67.960  1.00  0.00    -0.084 C  
HETATM   37  H   UNL     1      -7.962  10.248  64.383  1.00  0.00     0.000 HD 
HETATM   38  O   UNL     1      -7.708   6.127  66.857  1.00  0.00    -0.100 OA 
HETATM   39  C   UNL     1      -7.525   7.483  67.257  1.00  0.00    -0.100 C  
HETATM   40  H   UNL     1      -6.754   8.543  64.310  1.00  0.00     0.000 HD 
HETATM   41  O   UNL     1      -8.388  10.503  65.193  1.00  0.00    -0.164 OA 
HETATM   42  C   UNL     1      -7.708   8.321  66.004  1.00  0.00    -0.093 C  
HETATM   43  C   UNL     1      -7.752   9.823  66.298  1.00  0.00    -0.103 C  
HETATM   44  O   UNL     1      -6.639   8.018  65.094  1.00  0.00    -0.051 OA 
BRANCH  36  45
HETATM   45  C   UNL     1      -7.955   3.879  67.345  1.00  0.00    -0.091 A  
HETATM   46  S   UNL     1      -6.910   2.568  67.751  1.00  0.00    -0.040 SA 
HETATM   47  C   UNL     1      -8.685   2.138  65.954  1.00  0.00    -0.120 A  
HETATM   48  C   UNL     1      -8.871   3.488  66.381  1.00  0.00    -0.132 A  
HETATM   49  C   UNL     1      -7.641   1.525  66.610  1.00  0.00    -0.060 A  
ENDBRANCH  36  45
ENDBRANCH  30  31
ENDBRANCH  15  30
TORSDOF 6
ENDMDL
MODEL       52
REMARK 921   NORMALIZED FREE ENERGY PREDICTED BY IDOCK:   -4.45 KCAL/MOL
REMARK 922        TOTAL FREE ENERGY PREDICTED BY IDOCK:   -8.03 KCAL/MOL
REMARK 923 INTER-LIGAND FREE ENERGY PREDICTED BY IDOCK:   -7.58 KCAL/MOL
REMARK 924 INTRA-LIGAND FREE ENERGY PREDICTED BY IDOCK:   -0.45 KCAL/MOL
REMARK 927      BINDING AFFINITY PREDICTED BY RF-SCORE:    0.00 PKD
ROOT
HETATM    1  C   UNL     1      -9.667  13.258  65.522  1.00  0.00    -0.063 C  
HETATM    2  C   UNL     1     -10.552  12.866  64.372  1.00  0.00    -0.396 C  
HETATM    3  O   UNL     1     -11.301  14.064  64.080  1.00  0.00    -0.300 OA 
HETATM    4  C   UNL     1     -11.403  14.822  65.226  1.00  0.00    -0.363 C  
HETATM    5  C   UNL     1     -10.621  14.147  66.324  1.00  0.00    -0.284 C  
HETATM    6  O   UNL     1     -12.099  15.818  65.321  1.00  0.00     0.424 OA 
HETATM    7  C   UNL     1      -9.867  15.014  67.337  1.00  0.00    -0.224 C  
HETATM    8  C   UNL     1      -8.814  14.159  68.063  1.00  0.00    -0.182 A  
HETATM    9  C   UNL     1      -8.437  12.837  67.624  1.00  0.00    -0.178 A  
HETATM   10  C   UNL     1      -8.173  14.739  69.178  1.00  0.00    -0.106 A  
HETATM   11  C   UNL     1      -5.418  13.429  70.909  1.00  0.00    -0.185 C  
HETATM   12  C   UNL     1      -7.152  14.042  69.782  1.00  0.00     0.169 A  
HETATM   13  C   UNL     1      -7.397  12.166  68.295  1.00  0.00    -0.100 A  
HETATM   14  C   UNL     1      -6.773  12.796  69.351  1.00  0.00    -0.018 A  
HETATM   15  C   UNL     1      -9.042  12.154  66.388  1.00  0.00    -0.177 C  
HETATM   16  O   UNL     1      -6.390  14.488  70.817  1.00  0.00    -0.169 OA 
HETATM   17  O   UNL     1      -5.718  12.303  70.055  1.00  0.00    -0.111 OA 
ENDROOT
BRANCH   7  18
HETATM   18  C   UNL     1      -9.311  16.314  66.725  1.00  0.00    -0.258 A  
HETATM   19  O   UNL     1      -7.588  20.066  66.061  1.00  0.00    -0.315 OA 
HETATM   20  C   UNL     1      -8.108  18.804  66.180  1.00  0.00    -0.199 A  
HETATM   21  C   UNL     1      -7.322  17.649  66.140  1.00  0.00    -0.309 A  
HETATM   22  C   UNL     1     -10.091  17.467  66.610  1.00  0.00    -0.317 A  
HETATM   23  H   UNL     1      -8.122  20.851  66.088  1.00  0.00     0.000 HD 
HETATM   24  C   UNL     1      -7.942  16.415  66.408  1.00  0.00    -0.329 A  
HETATM   25  C   UNL     1      -9.502  18.711  66.365  1.00  0.00    -0.311 A  
BRANCH  21  26
HETATM   26  O   UNL     1      -5.983  17.514  65.901  1.00  0.00    -0.175 OA 
HETATM   27  C   UNL     1      -5.170  16.735  66.762  1.00  0.00    -0.036 C  
ENDBRANCH  21  26
BRANCH  25  28
HETATM   28  O   UNL     1     -10.205  19.891  66.372  1.00  0.00    -0.439 OA 
HETATM   29  C   UNL     1     -10.890  20.213  67.577  1.00  0.00     0.033 C  
ENDBRANCH  25  28
ENDBRANCH   7  18
BRANCH  15  30
HETATM   30  O   UNL     1     -10.049  11.189  66.670  1.00  0.00    -0.204 OA 
BRANCH  30  31
HETATM   31  C   UNL     1      -9.951   9.826  66.196  1.00  0.00    -0.268 C  
HETATM   32  O   UNL     1     -10.506   8.837  67.094  1.00  0.00    -0.282 OA 
HETATM   33  C   UNL     1     -10.145   7.492  66.694  1.00  0.00    -0.193 C  
HETATM   34  C   UNL     1     -10.867   6.370  67.456  1.00  0.00    -0.354 C  
HETATM   35  O   UNL     1     -10.339   5.077  67.093  1.00  0.00    -0.203 OA 
HETATM   36  C   UNL     1      -8.943   4.998  67.393  1.00  0.00    -0.110 C  
HETATM   37  H   UNL     1      -7.102  10.172  64.590  1.00  0.00     0.000 HD 
HETATM   38  O   UNL     1      -8.225   5.964  66.640  1.00  0.00    -0.105 OA 
HETATM   39  C   UNL     1      -8.651   7.295  66.919  1.00  0.00    -0.124 C  
HETATM   40  H   UNL     1      -6.047   8.699  65.635  1.00  0.00     0.000 HD 
HETATM   41  O   UNL     1      -8.035  10.288  64.731  1.00  0.00    -0.151 OA 
HETATM   42  C   UNL     1      -7.912   8.189  65.939  1.00  0.00    -0.102 C  
HETATM   43  C   UNL     1      -8.414   9.636  65.963  1.00  0.00    -0.124 C  
HETATM   44  O   UNL     1      -6.509   8.139  66.247  1.00  0.00    -0.046 OA 
BRANCH  36  45
HETATM   45  C   UNL     1      -8.389   3.674  66.927  1.00  0.00    -0.103 A  
HETATM   46  S   UNL     1      -6.684   3.417  66.980  1.00  0.00    -0.050 SA 
HETATM   47  C   UNL     1      -8.113   1.583  65.903  1.00  0.00    -0.079 A  
HETATM   48  C   UNL     1      -9.024   2.591  66.341  1.00  0.00    -0.127 A  
HETATM   49  C   UNL     1      -6.804   1.911  66.177  1.00  0.00    -0.042 A  
ENDBRANCH  36  45
ENDBRANCH  30  31
ENDBRANCH  15  30
TORSDOF 6
ENDMDL
MODEL       53
REMARK 921   NORMALIZED FREE ENERGY PREDICTED BY IDOCK:   -4.42 KCAL/MOL
REMARK 922        TOTAL FREE ENERGY PREDICTED BY IDOCK:   -7.99 KCAL/MOL
REMARK 923 INTER-LIGAND FREE ENERGY PREDICTED BY IDOCK:   -6.69 KCAL/MOL
REMARK 924 INTRA-LIGAND FREE ENERGY PREDICTED BY IDOCK:   -1.30 KCAL/MOL
REMARK 927      BINDING AFFINITY PREDICTED BY RF-SCORE:    0.00 PKD
ROOT
HETATM    1  C   UNL     1      -6.770   9.289  67.868  1.00  0.00    -0.071 C  
HETATM    2  C   UNL     1      -5.776   8.951  68.943  1.00  0.00    -0.040 C  
HETATM    3  O   UNL     1      -5.923   7.526  69.123  1.00  0.00    -0.031 OA 
HETATM    4  C   UNL     1      -7.204   7.157  68.773  1.00  0.00    -0.094 C  
HETATM    5  C   UNL     1      -7.933   8.372  68.258  1.00  0.00    -0.119 C  
HETATM    6  O   UNL     1      -7.662   6.044  68.955  1.00  0.00    -0.089 OA 
HETATM    7  C   UNL     1      -8.930   8.204  67.108  1.00  0.00    -0.154 C  
HETATM    8  C   UNL     1      -9.209   9.575  66.465  1.00  0.00    -0.201 A  
HETATM    9  C   UNL     1      -8.417  10.748  66.743  1.00  0.00    -0.134 A  
HETATM   10  C   UNL     1     -10.263   9.643  65.530  1.00  0.00    -0.016 A  
HETATM   11  C   UNL     1     -11.037  12.368  63.461  1.00  0.00    -0.458 C  
HETATM   12  C   UNL     1     -10.468  10.827  64.859  1.00  0.00    -0.254 A  
HETATM   13  C   UNL     1      -8.688  11.936  66.037  1.00  0.00     0.056 A  
HETATM   14  C   UNL     1      -9.700  11.937  65.102  1.00  0.00    -0.176 A  
HETATM   15  C   UNL     1      -7.217  10.749  67.703  1.00  0.00    -0.092 C  
HETATM   16  O   UNL     1     -11.390  11.036  63.882  1.00  0.00    -0.050 OA 
HETATM   17  O   UNL     1     -10.038  12.985  64.302  1.00  0.00    -0.342 OA 
ENDROOT
BRANCH   7  18
HETATM   18  C   UNL     1      -8.518   7.109  66.106  1.00  0.00    -0.143 A  
HETATM   19  O   UNL     1      -8.172   4.551  62.816  1.00  0.00    -0.079 OA 
HETATM   20  C   UNL     1      -8.173   5.382  63.905  1.00  0.00    -0.127 A  
HETATM   21  C   UNL     1      -7.420   6.557  63.968  1.00  0.00    -0.082 A  
HETATM   22  C   UNL     1      -9.142   5.859  66.083  1.00  0.00    -0.160 A  
HETATM   23  H   UNL     1      -8.685   3.752  62.774  1.00  0.00     0.000 HD 
HETATM   24  C   UNL     1      -7.602   7.403  65.078  1.00  0.00    -0.103 A  
HETATM   25  C   UNL     1      -8.998   5.005  64.984  1.00  0.00    -0.130 A  
BRANCH  21  26
HETATM   26  O   UNL     1      -6.515   7.060  63.077  1.00  0.00    -0.046 OA 
HETATM   27  C   UNL     1      -6.459   8.451  62.810  1.00  0.00    -0.087 C  
ENDBRANCH  21  26
BRANCH  25  28
HETATM   28  O   UNL     1      -9.691   3.827  64.853  1.00  0.00    -0.164 OA 
HETATM   29  C   UNL     1      -9.102   2.677  65.448  1.00  0.00    -0.129 C  
ENDBRANCH  25  28
ENDBRANCH   7  18
BRANCH  15  30
HETATM   30  O   UNL     1      -7.484  11.280  68.996  1.00  0.00    -0.121 OA 
BRANCH  30  31
HETATM   31  C   UNL     1      -7.723  12.690  69.205  1.00  0.00     0.461 C  
HETATM   32  O   UNL     1      -8.982  13.171  68.681  1.00  0.00    -0.091 OA 
HETATM   33  C   UNL     1      -9.043  14.619  68.684  1.00  0.00    -0.189 C  
HETATM   34  C   UNL     1     -10.420  15.213  68.352  1.00  0.00    -0.233 C  
HETATM   35  O   UNL     1     -10.348  16.650  68.237  1.00  0.00    -0.273 OA 
HETATM   36  C   UNL     1      -9.433  17.030  67.206  1.00  0.00    -0.240 C  
HETATM   37  H   UNL     1      -4.587  13.656  68.980  1.00  0.00     0.000 HD 
HETATM   38  O   UNL     1      -8.125  16.574  67.519  1.00  0.00    -0.149 OA 
HETATM   39  C   UNL     1      -8.063  15.157  67.650  1.00  0.00    -0.162 C  
HETATM   40  H   UNL     1      -4.852  14.993  67.393  1.00  0.00     0.000 HD 
HETATM   41  O   UNL     1      -5.337  13.244  69.392  1.00  0.00    -0.075 OA 
HETATM   42  C   UNL     1      -6.658  14.839  68.131  1.00  0.00    -0.132 C  
HETATM   43  C   UNL     1      -6.486  13.369  68.525  1.00  0.00    -0.086 C  
HETATM   44  O   UNL     1      -5.730  15.192  67.092  1.00  0.00    -0.265 OA 
BRANCH  36  45
HETATM   45  C   UNL     1      -9.304  18.533  67.159  1.00  0.00    -0.277 A  
HETATM   46  S   UNL     1      -7.857  19.228  66.527  1.00  0.00    -0.291 SA 
HETATM   47  C   UNL     1      -9.583  20.830  67.536  1.00  0.00    -0.439 A  
HETATM   48  C   UNL     1     -10.144  19.522  67.645  1.00  0.00    -0.526 A  
HETATM   49  C   UNL     1      -8.334  20.813  66.956  1.00  0.00    -0.087 A  
ENDBRANCH  36  45
ENDBRANCH  30  31
ENDBRANCH  15  30
TORSDOF 6
ENDMDL
MODEL       54
REMARK 921   NORMALIZED FREE ENERGY PREDICTED BY IDOCK:   -4.37 KCAL/MOL
REMARK 922        TOTAL FREE ENERGY PREDICTED BY IDOCK:   -7.92 KCAL/MOL
REMARK 923 INTER-LIGAND FREE ENERGY PREDICTED BY IDOCK:   -7.05 KCAL/MOL
REMARK 924 INTRA-LIGAND FREE ENERGY PREDICTED BY IDOCK:   -0.88 KCAL/MOL
REMARK 927      BINDING AFFINITY PREDICTED BY RF-SCORE:    0.00 PKD
ROOT
HETATM    1  C   UNL     1      -9.561  10.677  68.738  1.00  0.00    -0.190 C  
HETATM    2  C   UNL     1     -10.067  12.057  69.052  1.00  0.00     0.092 C  
HETATM    3  O   UNL     1     -11.189  11.829  69.930  1.00  0.00    -0.164 OA 
HETATM    4  C   UNL     1     -11.726  10.588  69.663  1.00  0.00    -0.256 C  
HETATM    5  C   UNL     1     -10.882   9.913  68.612  1.00  0.00    -0.244 C  
HETATM    6  O   UNL     1     -12.766  10.181  70.148  1.00  0.00    -0.133 OA 
HETATM    7  C   UNL     1     -10.667   8.398  68.695  1.00  0.00    -0.075 C  
HETATM    8  C   UNL     1      -9.459   8.001  67.828  1.00  0.00    -0.166 A  
HETATM    9  C   UNL     1      -8.536   8.965  67.280  1.00  0.00    -0.119 A  
HETATM   10  C   UNL     1      -9.246   6.624  67.617  1.00  0.00    -0.110 A  
HETATM   11  C   UNL     1      -6.434   5.159  66.116  1.00  0.00    -0.040 C  
HETATM   12  C   UNL     1      -8.115   6.232  66.937  1.00  0.00    -0.109 A  
HETATM   13  C   UNL     1      -7.407   8.503  66.577  1.00  0.00    -0.084 A  
HETATM   14  C   UNL     1      -7.221   7.144  66.437  1.00  0.00    -0.078 A  
HETATM   15  C   UNL     1      -8.661  10.479  67.509  1.00  0.00    -0.121 C  
HETATM   16  O   UNL     1      -7.728   4.948  66.712  1.00  0.00    -0.090 OA 
HETATM   17  O   UNL     1      -6.153   6.549  65.840  1.00  0.00    -0.028 OA 
ENDROOT
BRANCH   7  18
HETATM   18  C   UNL     1     -10.604   7.876  70.143  1.00  0.00    -0.237 A  
HETATM   19  O   UNL     1     -10.742   7.431  74.299  1.00  0.00    -0.454 OA 
HETATM   20  C   UNL     1     -10.730   7.469  72.930  1.00  0.00    -0.358 A  
HETATM   21  C   UNL     1     -11.849   7.163  72.150  1.00  0.00    -0.277 A  
HETATM   22  C   UNL     1      -9.463   8.030  70.933  1.00  0.00    -0.178 A  
HETATM   23  H   UNL     1      -9.982   7.640  74.829  1.00  0.00     0.000 HD 
HETATM   24  C   UNL     1     -11.764   7.367  70.760  1.00  0.00    -0.305 A  
HETATM   25  C   UNL     1      -9.520   7.856  72.320  1.00  0.00    -0.189 A  
BRANCH  21  26
HETATM   26  O   UNL     1     -13.078   6.704  72.532  1.00  0.00     0.223 OA 
HETATM   27  C   UNL     1     -14.150   6.652  71.605  1.00  0.00     0.073 C  
ENDBRANCH  21  26
BRANCH  25  28
HETATM   28  O   UNL     1      -8.463   8.121  73.155  1.00  0.00    -0.183 OA 
HETATM   29  C   UNL     1      -7.165   8.051  72.576  1.00  0.00    -0.097 C  
ENDBRANCH  25  28
ENDBRANCH   7  18
BRANCH  15  30
HETATM   30  O   UNL     1      -9.226  11.204  66.423  1.00  0.00    -0.173 OA 
BRANCH  30  31
HETATM   31  C   UNL     1      -8.817  12.557  66.116  1.00  0.00     0.165 C  
HETATM   32  O   UNL     1      -7.916  13.146  67.082  1.00  0.00    -0.157 OA 
HETATM   33  C   UNL     1      -7.757  14.570  66.864  1.00  0.00     0.258 C  
HETATM   34  C   UNL     1      -6.654  15.237  67.699  1.00  0.00    -0.171 C  
HETATM   35  O   UNL     1      -6.669  16.669  67.523  1.00  0.00    -0.131 OA 
HETATM   36  C   UNL     1      -7.928  17.217  67.921  1.00  0.00    -0.192 C  
HETATM   37  H   UNL     1     -11.619  13.496  64.673  1.00  0.00     0.000 HD 
HETATM   38  O   UNL     1      -8.969  16.690  67.112  1.00  0.00    -0.202 OA 
HETATM   39  C   UNL     1      -9.065  15.271  67.208  1.00  0.00    -0.198 C  
HETATM   40  H   UNL     1     -12.029  15.104  65.946  1.00  0.00     0.000 HD 
HETATM   41  O   UNL     1     -10.795  13.028  64.738  1.00  0.00    -0.304 OA 
HETATM   42  C   UNL     1     -10.103  14.848  66.184  1.00  0.00    -0.298 C  
HETATM   43  C   UNL     1     -10.177  13.328  66.009  1.00  0.00    -0.291 C  
HETATM   44  O   UNL     1     -11.380  15.369  66.587  1.00  0.00    -0.243 OA 
BRANCH  36  45
HETATM   45  C   UNL     1      -7.957  18.700  67.647  1.00  0.00    -0.246 A  
HETATM   46  S   UNL     1      -6.478  19.513  67.290  1.00  0.00    -0.194 SA 
HETATM   47  C   UNL     1      -8.581  20.958  67.535  1.00  0.00    -0.087 A  
HETATM   48  C   UNL     1      -9.002  19.607  67.725  1.00  0.00    -0.385 A  
HETATM   49  C   UNL     1      -7.227  21.051  67.302  1.00  0.00    -0.301 A  
ENDBRANCH  36  45
ENDBRANCH  30  31
ENDBRANCH  15  30
TORSDOF 6
ENDMDL
MODEL       55
REMARK 921   NORMALIZED FREE ENERGY PREDICTED BY IDOCK:   -4.28 KCAL/MOL
REMARK 922        TOTAL FREE ENERGY PREDICTED BY IDOCK:   -7.80 KCAL/MOL
REMARK 923 INTER-LIGAND FREE ENERGY PREDICTED BY IDOCK:   -8.20 KCAL/MOL
REMARK 924 INTRA-LIGAND FREE ENERGY PREDICTED BY IDOCK:    0.40 KCAL/MOL
REMARK 927      BINDING AFFINITY PREDICTED BY RF-SCORE:    0.00 PKD
ROOT
HETATM    1  C   UNL     1      -8.577   6.733  66.684  1.00  0.00    -0.123 C  
HETATM    2  C   UNL     1      -7.874   5.902  65.648  1.00  0.00    -0.101 C  
HETATM    3  O   UNL     1      -6.894   5.156  66.400  1.00  0.00    -0.059 OA 
HETATM    4  C   UNL     1      -6.555   5.869  67.530  1.00  0.00    -0.056 C  
HETATM    5  C   UNL     1      -7.401   7.116  67.587  1.00  0.00    -0.093 C  
HETATM    6  O   UNL     1      -5.650   5.556  68.282  1.00  0.00    -0.010 OA 
HETATM    7  C   UNL     1      -7.878   7.625  68.950  1.00  0.00    -0.123 C  
HETATM    8  C   UNL     1      -9.051   8.603  68.752  1.00  0.00    -0.142 A  
HETATM    9  C   UNL     1      -9.740   8.757  67.494  1.00  0.00    -0.214 A  
HETATM   10  C   UNL     1      -9.476   9.331  69.882  1.00  0.00    -0.214 A  
HETATM   11  C   UNL     1     -12.345  11.338  70.104  1.00  0.00    -0.276 C  
HETATM   12  C   UNL     1     -10.589  10.133  69.763  1.00  0.00    -0.260 A  
HETATM   13  C   UNL     1     -10.861   9.607  67.431  1.00  0.00    -0.242 A  
HETATM   14  C   UNL     1     -11.263  10.262  68.576  1.00  0.00    -0.214 A  
HETATM   15  C   UNL     1      -9.380   7.962  66.230  1.00  0.00    -0.164 C  
HETATM   16  O   UNL     1     -11.167  10.842  70.769  1.00  0.00    -0.174 OA 
HETATM   17  O   UNL     1     -12.357  11.064  68.686  1.00  0.00    -0.539 OA 
ENDROOT
BRANCH   7  18
HETATM   18  C   UNL     1      -8.165   6.490  69.952  1.00  0.00    -0.126 A  
HETATM   19  O   UNL     1      -8.114   2.971  72.211  1.00  0.00    -0.057 OA 
HETATM   20  C   UNL     1      -8.167   4.178  71.564  1.00  0.00    -0.086 A  
HETATM   21  C   UNL     1      -7.475   5.309  72.004  1.00  0.00    -0.097 A  
HETATM   22  C   UNL     1      -8.964   5.395  69.617  1.00  0.00    -0.130 A  
HETATM   23  H   UNL     1      -8.584   2.202  71.911  1.00  0.00     0.000 HD 
HETATM   24  C   UNL     1      -7.492   6.456  71.189  1.00  0.00    -0.085 A  
HETATM   25  C   UNL     1      -8.953   4.233  70.395  1.00  0.00    -0.090 A  
BRANCH  21  26
HETATM   26  O   UNL     1      -6.727   5.488  73.134  1.00  0.00    -0.069 OA 
HETATM   27  C   UNL     1      -5.587   6.331  73.120  1.00  0.00    -0.038 C  
ENDBRANCH  21  26
BRANCH  25  28
HETATM   28  O   UNL     1      -9.617   3.084  70.041  1.00  0.00    -0.157 OA 
HETATM   29  C   UNL     1      -9.461   2.653  68.694  1.00  0.00    -0.125 C  
ENDBRANCH  25  28
ENDBRANCH   7  18
BRANCH  15  30
HETATM   30  O   UNL     1      -8.599   8.673  65.277  1.00  0.00    -0.172 OA 
BRANCH  30  31
HETATM   31  C   UNL     1      -8.387  10.100  65.378  1.00  0.00    -0.157 C  
HETATM   32  O   UNL     1      -8.179  10.582  66.727  1.00  0.00    -0.121 OA 
HETATM   33  C   UNL     1      -8.239  12.028  66.791  1.00  0.00    -0.110 C  
HETATM   34  C   UNL     1      -7.813  12.638  68.135  1.00  0.00    -0.145 C  
HETATM   35  O   UNL     1      -8.043  14.062  68.151  1.00  0.00    -0.130 OA 
HETATM   36  C   UNL     1      -9.427  14.355  67.943  1.00  0.00    -0.214 C  
HETATM   37  H   UNL     1     -10.334  10.965  62.873  1.00  0.00     0.000 HD 
HETATM   38  O   UNL     1      -9.841  13.883  66.669  1.00  0.00    -0.267 OA 
HETATM   39  C   UNL     1      -9.672  12.475  66.531  1.00  0.00    -0.246 C  
HETATM   40  H   UNL     1     -11.610  12.209  63.967  1.00  0.00     0.000 HD 
HETATM   41  O   UNL     1      -9.555  10.600  63.276  1.00  0.00    -0.287 OA 
HETATM   42  C   UNL     1     -10.006  12.149  65.086  1.00  0.00    -0.228 C  
HETATM   43  C   UNL     1      -9.671  10.702  64.713  1.00  0.00    -0.292 C  
HETATM   44  O   UNL     1     -11.402  12.414  64.871  1.00  0.00    -0.300 OA 
BRANCH  36  45
HETATM   45  C   UNL     1      -9.636  15.848  67.875  1.00  0.00    -0.215 A  
HETATM   46  S   UNL     1      -8.496  16.887  68.646  1.00  0.00    -0.253 SA 
HETATM   47  C   UNL     1     -10.577  17.981  67.626  1.00  0.00    -0.413 A  
HETATM   48  C   UNL     1     -10.689  16.583  67.355  1.00  0.00    -0.260 A  
HETATM   49  C   UNL     1      -9.436  18.282  68.335  1.00  0.00    -0.323 A  
ENDBRANCH  36  45
ENDBRANCH  30  31
ENDBRANCH  15  30
TORSDOF 6
ENDMDL
MODEL       56
REMARK 921   NORMALIZED FREE ENERGY PREDICTED BY IDOCK:   -4.26 KCAL/MOL
REMARK 922        TOTAL FREE ENERGY PREDICTED BY IDOCK:   -7.77 KCAL/MOL
REMARK 923 INTER-LIGAND FREE ENERGY PREDICTED BY IDOCK:  -10.89 KCAL/MOL
REMARK 924 INTRA-LIGAND FREE ENERGY PREDICTED BY IDOCK:    3.11 KCAL/MOL
REMARK 927      BINDING AFFINITY PREDICTED BY RF-SCORE:    0.00 PKD
ROOT
HETATM    1  C   UNL     1      -8.905  11.410  67.668  1.00  0.00    -0.139 C  
HETATM    2  C   UNL     1      -9.249   9.958  67.484  1.00  0.00    -0.134 C  
HETATM    3  O   UNL     1     -10.682   9.955  67.314  1.00  0.00    -0.265 OA 
HETATM    4  C   UNL     1     -11.215  11.050  67.959  1.00  0.00    -0.309 C  
HETATM    5  C   UNL     1     -10.087  11.875  68.524  1.00  0.00    -0.211 C  
HETATM    6  O   UNL     1     -12.410  11.234  68.107  1.00  0.00    -0.500 OA 
HETATM    7  C   UNL     1     -10.215  13.402  68.526  1.00  0.00    -0.224 C  
HETATM    8  C   UNL     1      -8.825  14.034  68.718  1.00  0.00    -0.031 A  
HETATM    9  C   UNL     1      -7.599  13.282  68.616  1.00  0.00    -0.094 A  
HETATM   10  C   UNL     1      -8.780  15.423  68.958  1.00  0.00    -0.231 A  
HETATM   11  C   UNL     1      -5.905  17.431  69.027  1.00  0.00    -0.191 C  
HETATM   12  C   UNL     1      -7.550  16.037  69.027  1.00  0.00    -0.209 A  
HETATM   13  C   UNL     1      -6.371  13.963  68.715  1.00  0.00    -0.091 A  
HETATM   14  C   UNL     1      -6.382  15.328  68.904  1.00  0.00    -0.095 A  
HETATM   15  C   UNL     1      -7.555  11.779  68.301  1.00  0.00    -0.122 C  
HETATM   16  O   UNL     1      -7.336  17.370  69.182  1.00  0.00    -0.232 OA 
HETATM   17  O   UNL     1      -5.283  16.129  68.958  1.00  0.00    -0.107 OA 
ENDROOT
BRANCH   7  18
HETATM   18  C   UNL     1     -10.993  13.944  67.312  1.00  0.00    -0.299 A  
HETATM   19  O   UNL     1     -12.267  15.075  63.493  1.00  0.00    -0.886 OA 
HETATM   20  C   UNL     1     -11.958  14.683  64.768  1.00  0.00    -0.433 A  
HETATM   21  C   UNL     1     -12.300  13.430  65.284  1.00  0.00    -0.469 A  
HETATM   22  C   UNL     1     -10.796  15.240  66.829  1.00  0.00    -0.312 A  
HETATM   23  H   UNL     1     -12.035  15.927  63.142  1.00  0.00     0.000 HD 
HETATM   24  C   UNL     1     -11.814  13.082  66.558  1.00  0.00    -0.464 A  
HETATM   25  C   UNL     1     -11.248  15.610  65.558  1.00  0.00    -0.140 A  
BRANCH  21  26
HETATM   26  O   UNL     1     -13.039  12.428  64.720  1.00  0.00    -0.806 OA 
HETATM   27  C   UNL     1     -12.617  11.809  63.516  1.00  0.00    -0.367 C  
ENDBRANCH  21  26
BRANCH  25  28
HETATM   28  O   UNL     1     -10.968  16.826  64.985  1.00  0.00    -0.584 OA 
HETATM   29  C   UNL     1     -10.467  17.834  65.853  1.00  0.00    -0.251 C  
ENDBRANCH  25  28
ENDBRANCH   7  18
BRANCH  15  30
HETATM   30  O   UNL     1      -7.349  10.936  69.428  1.00  0.00    -0.122 OA 
BRANCH  30  31
HETATM   31  C   UNL     1      -8.065   9.690  69.588  1.00  0.00    -0.141 C  
HETATM   32  O   UNL     1      -8.876   9.612  70.784  1.00  0.00    -0.202 OA 
HETATM   33  C   UNL     1      -9.349   8.263  71.020  1.00  0.00    -0.162 C  
HETATM   34  C   UNL     1     -10.393   8.126  72.138  1.00  0.00    -0.274 C  
HETATM   35  O   UNL     1     -10.693   6.738  72.396  1.00  0.00    -0.212 OA 
HETATM   36  C   UNL     1      -9.516   6.030  72.791  1.00  0.00    -0.151 C  
HETATM   37  H   UNL     1      -5.809   7.757  68.177  1.00  0.00     0.000 HD 
HETATM   38  O   UNL     1      -8.554   6.057  71.747  1.00  0.00    -0.132 OA 
HETATM   39  C   UNL     1      -8.165   7.384  71.404  1.00  0.00    -0.104 C  
HETATM   40  H   UNL     1      -5.502   6.494  69.816  1.00  0.00     0.000 HD 
HETATM   41  O   UNL     1      -6.499   8.410  68.195  1.00  0.00    -0.054 OA 
HETATM   42  C   UNL     1      -7.265   7.259  70.187  1.00  0.00    -0.074 C  
HETATM   43  C   UNL     1      -6.926   8.614  69.560  1.00  0.00    -0.048 C  
HETATM   44  O   UNL     1      -6.065   6.572  70.577  1.00  0.00    -0.026 OA 
BRANCH  36  45
HETATM   45  C   UNL     1      -9.829   4.565  72.972  1.00  0.00    -0.140 A  
HETATM   46  S   UNL     1      -9.110   3.418  71.902  1.00  0.00    -0.116 SA 
HETATM   47  C   UNL     1     -10.831   2.535  73.582  1.00  0.00    -0.286 A  
HETATM   48  C   UNL     1     -10.716   3.936  73.831  1.00  0.00    -0.308 A  
HETATM   49  C   UNL     1     -10.021   2.123  72.548  1.00  0.00    -0.138 A  
ENDBRANCH  36  45
ENDBRANCH  30  31
ENDBRANCH  15  30
TORSDOF 6
ENDMDL
MODEL       57
REMARK 921   NORMALIZED FREE ENERGY PREDICTED BY IDOCK:   -4.19 KCAL/MOL
REMARK 922        TOTAL FREE ENERGY PREDICTED BY IDOCK:   -7.68 KCAL/MOL
REMARK 923 INTER-LIGAND FREE ENERGY PREDICTED BY IDOCK:   -7.04 KCAL/MOL
REMARK 924 INTRA-LIGAND FREE ENERGY PREDICTED BY IDOCK:   -0.64 KCAL/MOL
REMARK 927      BINDING AFFINITY PREDICTED BY RF-SCORE:    0.00 PKD
ROOT
HETATM    1  C   UNL     1      -9.846   7.315  67.873  1.00  0.00    -0.172 C  
HETATM    2  C   UNL     1     -10.855   6.928  66.828  1.00  0.00    -0.200 C  
HETATM    3  O   UNL     1     -10.816   5.485  66.819  1.00  0.00    -0.281 OA 
HETATM    4  C   UNL     1      -9.571   5.064  67.232  1.00  0.00    -0.148 C  
HETATM    5  C   UNL     1      -8.754   6.273  67.613  1.00  0.00    -0.113 C  
HETATM    6  O   UNL     1      -9.198   3.906  67.191  1.00  0.00    -0.147 OA 
HETATM    7  C   UNL     1      -7.782   6.169  68.792  1.00  0.00    -0.096 C  
HETATM    8  C   UNL     1      -7.405   7.581  69.274  1.00  0.00    -0.089 A  
HETATM    9  C   UNL     1      -8.101   8.769  68.846  1.00  0.00    -0.114 A  
HETATM   10  C   UNL     1      -6.356   7.679  70.213  1.00  0.00    -0.034 A  
HETATM   11  C   UNL     1      -5.392  10.565  71.959  1.00  0.00     0.178 C  
HETATM   12  C   UNL     1      -6.066   8.916  70.743  1.00  0.00    -0.040 A  
HETATM   13  C   UNL     1      -7.746  10.009  69.411  1.00  0.00    -0.129 A  
HETATM   14  C   UNL     1      -6.744  10.044  70.358  1.00  0.00    -0.138 A  
HETATM   15  C   UNL     1      -9.289   8.747  67.872  1.00  0.00    -0.142 C  
HETATM   16  O   UNL     1      -5.139   9.170  71.705  1.00  0.00    -0.036 OA 
HETATM   17  O   UNL     1      -6.333  11.152  71.034  1.00  0.00    -0.268 OA 
ENDROOT
BRANCH   7  18
HETATM   18  C   UNL     1      -8.286   5.234  69.909  1.00  0.00    -0.094 A  
HETATM   19  O   UNL     1     -10.326   2.393  72.201  1.00  0.00    -0.145 OA 
HETATM   20  C   UNL     1      -9.564   3.295  71.506  1.00  0.00    -0.164 A  
HETATM   21  C   UNL     1      -8.421   2.933  70.787  1.00  0.00    -0.057 A  
HETATM   22  C   UNL     1      -9.338   5.595  70.753  1.00  0.00    -0.194 A  
HETATM   23  H   UNL     1     -11.103   2.638  72.689  1.00  0.00     0.000 HD 
HETATM   24  C   UNL     1      -7.794   3.917  70.001  1.00  0.00    -0.051 A  
HETATM   25  C   UNL     1      -9.996   4.636  71.531  1.00  0.00    -0.195 A  
BRANCH  21  26
HETATM   26  O   UNL     1      -7.798   1.721  70.694  1.00  0.00    -0.039 OA 
HETATM   27  C   UNL     1      -6.386   1.640  70.592  1.00  0.00    -0.023 C  
ENDBRANCH  21  26
BRANCH  25  28
HETATM   28  O   UNL     1     -11.116   4.912  72.276  1.00  0.00    -0.115 OA 
HETATM   29  C   UNL     1     -11.681   6.207  72.113  1.00  0.00    -0.309 C  
ENDBRANCH  25  28
ENDBRANCH   7  18
BRANCH  15  30
HETATM   30  O   UNL     1      -8.972   9.098  66.531  1.00  0.00    -0.137 OA 
BRANCH  30  31
HETATM   31  C   UNL     1      -8.711  10.466  66.143  1.00  0.00    -0.152 C  
HETATM   32  O   UNL     1      -7.897  11.211  67.079  1.00  0.00    -0.128 OA 
HETATM   33  C   UNL     1      -7.894  12.627  66.774  1.00  0.00     0.171 C  
HETATM   34  C   UNL     1      -6.886  13.464  67.576  1.00  0.00    -0.144 C  
HETATM   35  O   UNL     1      -7.058  14.872  67.310  1.00  0.00    -0.189 OA 
HETATM   36  C   UNL     1      -8.376  15.298  67.662  1.00  0.00    -0.164 C  
HETATM   37  H   UNL     1     -11.577  10.995  64.619  1.00  0.00     0.000 HD 
HETATM   38  O   UNL     1      -9.339  14.609  66.878  1.00  0.00    -0.220 OA 
HETATM   39  C   UNL     1      -9.278  13.197  67.061  1.00  0.00    -0.233 C  
HETATM   40  H   UNL     1     -12.183  12.622  65.786  1.00  0.00     0.000 HD 
HETATM   41  O   UNL     1     -10.707  10.628  64.721  1.00  0.00    -0.225 OA 
HETATM   42  C   UNL     1     -10.245  12.598  66.056  1.00  0.00    -0.272 C  
HETATM   43  C   UNL     1     -10.146  11.072  65.976  1.00  0.00    -0.247 C  
HETATM   44  O   UNL     1     -11.578  12.997  66.414  1.00  0.00    -0.327 OA 
BRANCH  36  45
HETATM   45  C   UNL     1      -8.566  16.750  67.296  1.00  0.00    -0.192 A  
HETATM   46  S   UNL     1      -9.993  17.565  67.822  1.00  0.00    -0.327 SA 
HETATM   47  C   UNL     1      -8.413  18.852  66.269  1.00  0.00    -0.268 A  
HETATM   48  C   UNL     1      -7.806  17.578  66.486  1.00  0.00    -0.312 A  
HETATM   49  C   UNL     1      -9.615  18.973  66.928  1.00  0.00    -0.321 A  
ENDBRANCH  36  45
ENDBRANCH  30  31
ENDBRANCH  15  30
TORSDOF 6
ENDMDL
MODEL       58
REMARK 921   NORMALIZED FREE ENERGY PREDICTED BY IDOCK:   -4.17 KCAL/MOL
REMARK 922        TOTAL FREE ENERGY PREDICTED BY IDOCK:   -7.66 KCAL/MOL
REMARK 923 INTER-LIGAND FREE ENERGY PREDICTED BY IDOCK:   -6.06 KCAL/MOL
REMARK 924 INTRA-LIGAND FREE ENERGY PREDICTED BY IDOCK:   -1.60 KCAL/MOL
REMARK 927      BINDING AFFINITY PREDICTED BY RF-SCORE:    0.00 PKD
ROOT
HETATM    1  C   UNL     1      -8.621  12.691  68.219  1.00  0.00    -0.167 C  
HETATM    2  C   UNL     1      -7.643  12.356  69.310  1.00  0.00     0.354 C  
HETATM    3  O   UNL     1      -6.843  13.550  69.444  1.00  0.00    -0.094 OA 
HETATM    4  C   UNL     1      -6.830  14.221  68.241  1.00  0.00    -0.109 C  
HETATM    5  C   UNL     1      -7.725  13.492  67.270  1.00  0.00    -0.093 C  
HETATM    6  O   UNL     1      -6.124  15.186  68.011  1.00  0.00    -0.124 OA 
HETATM    7  C   UNL     1      -8.550  14.306  66.269  1.00  0.00     0.430 C  
HETATM    8  C   UNL     1      -9.684  13.432  65.706  1.00  0.00    -0.147 A  
HETATM    9  C   UNL     1     -10.048  12.157  66.274  1.00  0.00    -0.247 A  
HETATM   10  C   UNL     1     -10.412  13.949  64.614  1.00  0.00    -0.419 A  
HETATM   11  C   UNL     1     -13.344  12.599  63.241  1.00  0.00     1.305 C  
HETATM   12  C   UNL     1     -11.500  13.241  64.157  1.00  0.00    -0.396 A  
HETATM   13  C   UNL     1     -11.161  11.470  65.750  1.00  0.00    -0.272 A  
HETATM   14  C   UNL     1     -11.865  12.041  64.712  1.00  0.00    -0.254 A  
HETATM   15  C   UNL     1      -9.348  11.546  67.497  1.00  0.00    -0.166 C  
HETATM   16  O   UNL     1     -12.344  13.634  63.166  1.00  0.00    -0.729 OA 
HETATM   17  O   UNL     1     -12.991  11.529  64.144  1.00  0.00    -0.068 OA 
ENDROOT
BRANCH   7  18
HETATM   18  C   UNL     1      -9.017  15.662  66.832  1.00  0.00    -0.267 A  
HETATM   19  O   UNL     1     -11.036  19.235  67.637  1.00  0.00    -0.431 OA 
HETATM   20  C   UNL     1     -10.352  18.058  67.484  1.00  0.00    -0.385 A  
HETATM   21  C   UNL     1     -10.681  16.889  68.176  1.00  0.00    -0.375 A  
HETATM   22  C   UNL     1      -8.613  16.873  66.266  1.00  0.00    -0.319 A  
HETATM   23  H   UNL     1     -10.813  20.029  67.166  1.00  0.00     0.000 HD 
HETATM   24  C   UNL     1      -9.999  15.705  67.841  1.00  0.00    -0.223 A  
HETATM   25  C   UNL     1      -9.285  18.064  66.563  1.00  0.00    -0.275 A  
BRANCH  21  26
HETATM   26  O   UNL     1     -11.617  16.690  69.152  1.00  0.00    -0.099 OA 
HETATM   27  C   UNL     1     -11.707  15.443  69.823  1.00  0.00    -0.333 C  
ENDBRANCH  21  26
BRANCH  25  28
HETATM   28  O   UNL     1      -9.013  19.256  65.938  1.00  0.00    -0.434 OA 
HETATM   29  C   UNL     1      -8.124  20.137  66.614  1.00  0.00    -0.287 C  
ENDBRANCH  25  28
ENDBRANCH   7  18
BRANCH  15  30
HETATM   30  O   UNL     1      -8.393  10.534  67.197  1.00  0.00    -0.125 OA 
BRANCH  30  31
HETATM   31  C   UNL     1      -8.593   9.158  67.591  1.00  0.00    -0.117 C  
HETATM   32  O   UNL     1      -8.576   8.933  69.020  1.00  0.00    -0.134 OA 
HETATM   33  C   UNL     1      -8.515   7.520  69.337  1.00  0.00    -0.133 C  
HETATM   34  C   UNL     1      -8.715   7.177  70.821  1.00  0.00    -0.147 C  
HETATM   35  O   UNL     1      -8.493   5.771  71.059  1.00  0.00    -0.120 OA 
HETATM   36  C   UNL     1      -7.166   5.396  70.685  1.00  0.00    -0.069 C  
HETATM   37  H   UNL     1      -7.098   7.788  65.002  1.00  0.00     0.000 HD 
HETATM   38  O   UNL     1      -6.967   5.616  69.296  1.00  0.00    -0.059 OA 
HETATM   39  C   UNL     1      -7.149   6.982  68.933  1.00  0.00    -0.085 C  
HETATM   40  H   UNL     1      -5.664   6.714  66.082  1.00  0.00     0.000 HD 
HETATM   41  O   UNL     1      -7.795   8.248  65.454  1.00  0.00    -0.100 OA 
HETATM   42  C   UNL     1      -7.059   7.032  67.418  1.00  0.00    -0.088 C  
HETATM   43  C   UNL     1      -7.442   8.400  66.846  1.00  0.00    -0.087 C  
HETATM   44  O   UNL     1      -5.720   6.683  67.030  1.00  0.00    -0.013 OA 
BRANCH  36  45
HETATM   45  C   UNL     1      -6.980   3.908  70.857  1.00  0.00    -0.033 A  
HETATM   46  S   UNL     1      -7.922   3.080  72.041  1.00  0.00    -0.055 SA 
HETATM   47  C   UNL     1      -6.122   1.727  70.819  1.00  0.00    -0.018 A  
HETATM   48  C   UNL     1      -6.071   3.043  70.269  1.00  0.00    -0.023 A  
HETATM   49  C   UNL     1      -7.078   1.611  71.803  1.00  0.00    -0.027 A  
ENDBRANCH  36  45
ENDBRANCH  30  31
ENDBRANCH  15  30
TORSDOF 6
ENDMDL
MODEL       59
REMARK 921   NORMALIZED FREE ENERGY PREDICTED BY IDOCK:   -4.16 KCAL/MOL
REMARK 922        TOTAL FREE ENERGY PREDICTED BY IDOCK:   -7.64 KCAL/MOL
REMARK 923 INTER-LIGAND FREE ENERGY PREDICTED BY IDOCK:  -10.66 KCAL/MOL
REMARK 924 INTRA-LIGAND FREE ENERGY PREDICTED BY IDOCK:    3.02 KCAL/MOL
REMARK 927      BINDING AFFINITY PREDICTED BY RF-SCORE:    0.00 PKD
ROOT
HETATM    1  C   UNL     1     -10.808  11.023  66.989  1.00  0.00    -0.334 C  
HETATM    2  C   UNL     1     -10.702   9.524  66.990  1.00  0.00    -0.149 C  
HETATM    3  O   UNL     1     -10.689   9.174  68.390  1.00  0.00    -0.194 OA 
HETATM    4  C   UNL     1     -10.175  10.228  69.114  1.00  0.00    -0.218 C  
HETATM    5  C   UNL     1      -9.902  11.374  68.173  1.00  0.00    -0.195 C  
HETATM    6  O   UNL     1      -9.912  10.171  70.301  1.00  0.00    -0.204 OA 
HETATM    7  C   UNL     1     -10.140  12.806  68.660  1.00  0.00    -0.132 C  
HETATM    8  C   UNL     1     -10.231  13.753  67.450  1.00  0.00    -0.252 A  
HETATM    9  C   UNL     1     -10.359  13.282  66.093  1.00  0.00    -0.290 A  
HETATM   10  C   UNL     1     -10.235  15.138  67.718  1.00  0.00    -0.236 A  
HETATM   11  C   UNL     1     -10.864  17.702  65.408  1.00  0.00     0.104 C  
HETATM   12  C   UNL     1     -10.424  16.007  66.668  1.00  0.00    -0.304 A  
HETATM   13  C   UNL     1     -10.530  14.222  65.058  1.00  0.00    -0.458 A  
HETATM   14  C   UNL     1     -10.571  15.562  65.379  1.00  0.00    -0.408 A  
HETATM   15  C   UNL     1     -10.420  11.794  65.717  1.00  0.00    -0.260 C  
HETATM   16  O   UNL     1     -10.523  17.360  66.766  1.00  0.00    -0.310 OA 
HETATM   17  O   UNL     1     -10.790  16.580  64.502  1.00  0.00    -0.802 OA 
ENDROOT
BRANCH   7  18
HETATM   18  C   UNL     1     -11.321  12.921  69.643  1.00  0.00    -0.166 A  
HETATM   19  O   UNL     1     -13.764  13.191  73.026  1.00  0.00    -0.596 OA 
HETATM   20  C   UNL     1     -13.037  13.171  71.865  1.00  0.00    -0.385 A  
HETATM   21  C   UNL     1     -12.557  14.329  71.247  1.00  0.00    -0.364 A  
HETATM   22  C   UNL     1     -11.935  11.794  70.193  1.00  0.00    -0.421 A  
HETATM   23  H   UNL     1     -14.090  12.404  73.447  1.00  0.00     0.000 HD 
HETATM   24  C   UNL     1     -11.708  14.184  70.135  1.00  0.00    -0.350 A  
HETATM   25  C   UNL     1     -12.768  11.904  71.312  1.00  0.00    -0.298 A  
BRANCH  21  26
HETATM   26  O   UNL     1     -12.764  15.640  71.573  1.00  0.00    -0.405 OA 
HETATM   27  C   UNL     1     -12.054  16.238  72.645  1.00  0.00    -0.534 C  
ENDBRANCH  21  26
BRANCH  25  28
HETATM   28  O   UNL     1     -13.291  10.817  71.969  1.00  0.00    -0.447 OA 
HETATM   29  C   UNL     1     -12.666   9.564  71.718  1.00  0.00    -0.404 C  
ENDBRANCH  25  28
ENDBRANCH   7  18
BRANCH  15  30
HETATM   30  O   UNL     1      -9.202  11.249  65.224  1.00  0.00    -0.218 OA 
BRANCH  30  31
HETATM   31  C   UNL     1      -9.146   9.939  64.615  1.00  0.00    -0.242 C  
HETATM   32  O   UNL     1      -8.944   8.851  65.546  1.00  0.00    -0.190 OA 
HETATM   33  C   UNL     1      -8.634   7.613  64.861  1.00  0.00     0.114 C  
HETATM   34  C   UNL     1      -8.621   6.361  65.752  1.00  0.00    -0.148 C  
HETATM   35  O   UNL     1      -8.162   5.208  65.015  1.00  0.00    -0.117 OA 
HETATM   36  C   UNL     1      -6.839   5.419  64.517  1.00  0.00    -0.048 C  
HETATM   37  H   UNL     1      -7.737  10.878  61.795  1.00  0.00     0.000 HD 
HETATM   38  O   UNL     1      -6.823   6.517  63.617  1.00  0.00    -0.046 OA 
HETATM   39  C   UNL     1      -7.250   7.729  64.234  1.00  0.00    -0.079 C  
HETATM   40  H   UNL     1      -6.049   9.651  61.939  1.00  0.00     0.000 HD 
HETATM   41  O   UNL     1      -8.446  10.797  62.422  1.00  0.00    -0.216 OA 
HETATM   42  C   UNL     1      -7.329   8.763  63.125  1.00  0.00    -0.099 C  
HETATM   43  C   UNL     1      -7.976  10.073  63.581  1.00  0.00    -0.155 C  
HETATM   44  O   UNL     1      -6.000   9.004  62.633  1.00  0.00    -0.093 OA 
BRANCH  36  45
HETATM   45  C   UNL     1      -6.410   4.242  63.676  1.00  0.00    -0.029 A  
HETATM   46  S   UNL     1      -7.432   2.855  63.595  1.00  0.00    -0.063 SA 
HETATM   47  C   UNL     1      -5.152   2.699  62.437  1.00  0.00    -0.004 A  
HETATM   48  C   UNL     1      -5.229   4.014  62.987  1.00  0.00    -0.005 A  
HETATM   49  C   UNL     1      -6.280   1.957  62.705  1.00  0.00    -0.009 A  
ENDBRANCH  36  45
ENDBRANCH  30  31
ENDBRANCH  15  30
TORSDOF 6
ENDMDL
MODEL       60
REMARK 921   NORMALIZED FREE ENERGY PREDICTED BY IDOCK:   -4.14 KCAL/MOL
REMARK 922        TOTAL FREE ENERGY PREDICTED BY IDOCK:   -7.61 KCAL/MOL
REMARK 923 INTER-LIGAND FREE ENERGY PREDICTED BY IDOCK:   -5.92 KCAL/MOL
REMARK 924 INTRA-LIGAND FREE ENERGY PREDICTED BY IDOCK:   -1.69 KCAL/MOL
REMARK 927      BINDING AFFINITY PREDICTED BY RF-SCORE:    0.00 PKD
ROOT
HETATM    1  C   UNL     1      -7.922  14.128  68.741  1.00  0.00    -0.102 C  
HETATM    2  C   UNL     1      -6.859  13.844  69.765  1.00  0.00     0.063 C  
HETATM    3  O   UNL     1      -5.878  14.880  69.550  1.00  0.00    -0.096 OA 
HETATM    4  C   UNL     1      -5.937  15.291  68.236  1.00  0.00    -0.121 C  
HETATM    5  C   UNL     1      -7.061  14.558  67.549  1.00  0.00    -0.199 C  
HETATM    6  O   UNL     1      -5.134  16.053  67.728  1.00  0.00    -0.115 OA 
HETATM    7  C   UNL     1      -7.889  15.295  66.492  1.00  0.00     0.287 C  
HETATM    8  C   UNL     1      -9.211  14.543  66.259  1.00  0.00    -0.231 A  
HETATM    9  C   UNL     1      -9.678  13.488  67.124  1.00  0.00    -0.244 A  
HETATM   10  C   UNL     1     -10.002  14.959  65.167  1.00  0.00    -0.277 A  
HETATM   11  C   UNL     1     -13.270  13.909  64.446  1.00  0.00     1.049 C  
HETATM   12  C   UNL     1     -11.239  14.379  64.995  1.00  0.00    -0.375 A  
HETATM   13  C   UNL     1     -10.944  12.920  66.886  1.00  0.00    -0.294 A  
HETATM   14  C   UNL     1     -11.697  13.394  65.832  1.00  0.00    -0.356 A  
HETATM   15  C   UNL     1      -8.909  13.012  68.366  1.00  0.00    -0.123 C  
HETATM   16  O   UNL     1     -12.147  14.715  64.041  1.00  0.00    -0.471 OA 
HETATM   17  O   UNL     1     -12.957  12.989  65.515  1.00  0.00    -0.524 OA 
ENDROOT
BRANCH   7  18
HETATM   18  C   UNL     1      -8.061  16.795  66.797  1.00  0.00    -0.273 A  
HETATM   19  O   UNL     1      -9.238  20.808  66.858  1.00  0.00    -0.609 OA 
HETATM   20  C   UNL     1      -8.839  19.500  66.950  1.00  0.00    -0.314 A  
HETATM   21  C   UNL     1      -9.472  18.567  67.774  1.00  0.00    -0.289 A  
HETATM   22  C   UNL     1      -7.352  17.775  66.100  1.00  0.00    -0.335 A  
HETATM   23  H   UNL     1      -8.807  21.442  66.297  1.00  0.00     0.000 HD 
HETATM   24  C   UNL     1      -9.066  17.223  67.688  1.00  0.00    -0.228 A  
HETATM   25  C   UNL     1      -7.745  19.117  66.148  1.00  0.00    -0.279 A  
BRANCH  21  26
HETATM   26  O   UNL     1     -10.487  18.744  68.672  1.00  0.00    -0.276 OA 
HETATM   27  C   UNL     1     -11.289  17.649  69.082  1.00  0.00     1.384 C  
ENDBRANCH  21  26
BRANCH  25  28
HETATM   28  O   UNL     1      -7.165  20.098  65.381  1.00  0.00    -0.321 OA 
HETATM   29  C   UNL     1      -6.308  19.660  64.334  1.00  0.00    -0.052 C  
ENDBRANCH  25  28
ENDBRANCH   7  18
BRANCH  15  30
HETATM   30  O   UNL     1      -8.170  11.809  68.189  1.00  0.00    -0.138 OA 
BRANCH  30  31
HETATM   31  C   UNL     1      -8.721  10.518  68.539  1.00  0.00    -0.140 C  
HETATM   32  O   UNL     1      -8.317  10.025  69.838  1.00  0.00    -0.181 OA 
HETATM   33  C   UNL     1      -8.679   8.634  70.016  1.00  0.00    -0.141 C  
HETATM   34  C   UNL     1      -8.489   8.089  71.440  1.00  0.00    -0.121 C  
HETATM   35  O   UNL     1      -8.735   6.668  71.485  1.00  0.00    -0.131 OA 
HETATM   36  C   UNL     1      -7.842   5.970  70.614  1.00  0.00    -0.106 C  
HETATM   37  H   UNL     1      -8.780   9.277  65.495  1.00  0.00     0.000 HD 
HETATM   38  O   UNL     1      -8.047   6.382  69.271  1.00  0.00    -0.108 OA 
HETATM   39  C   UNL     1      -7.823   7.778  69.092  1.00  0.00    -0.114 C  
HETATM   40  H   UNL     1      -7.572   7.613  65.881  1.00  0.00     0.000 HD 
HETATM   41  O   UNL     1      -9.068   9.838  66.205  1.00  0.00    -0.148 OA 
HETATM   42  C   UNL     1      -8.226   8.091  67.662  1.00  0.00    -0.124 C  
HETATM   43  C   UNL     1      -8.245   9.594  67.367  1.00  0.00    -0.114 C  
HETATM   44  O   UNL     1      -7.319   7.417  66.775  1.00  0.00    -0.087 OA 
BRANCH  36  45
HETATM   45  C   UNL     1      -8.172   4.498  70.607  1.00  0.00    -0.075 A  
HETATM   46  S   UNL     1      -7.058   3.389  71.319  1.00  0.00    -0.033 SA 
HETATM   47  C   UNL     1      -9.090   2.398  70.112  1.00  0.00    -0.178 A  
HETATM   48  C   UNL     1      -9.223   3.816  70.015  1.00  0.00    -0.220 A  
HETATM   49  C   UNL     1      -7.948   2.028  70.786  1.00  0.00    -0.041 A  
ENDBRANCH  36  45
ENDBRANCH  30  31
ENDBRANCH  15  30
TORSDOF 6
ENDMDL
MODEL       61
REMARK 921   NORMALIZED FREE ENERGY PREDICTED BY IDOCK:   -4.13 KCAL/MOL
REMARK 922        TOTAL FREE ENERGY PREDICTED BY IDOCK:   -7.60 KCAL/MOL
REMARK 923 INTER-LIGAND FREE ENERGY PREDICTED BY IDOCK:   -6.54 KCAL/MOL
REMARK 924 INTRA-LIGAND FREE ENERGY PREDICTED BY IDOCK:   -1.06 KCAL/MOL
REMARK 927      BINDING AFFINITY PREDICTED BY RF-SCORE:    0.00 PKD
ROOT
HETATM    1  C   UNL     1      -6.643   9.200  67.697  1.00  0.00    -0.064 C  
HETATM    2  C   UNL     1      -5.654   8.853  68.774  1.00  0.00    -0.041 C  
HETATM    3  O   UNL     1      -5.786   7.424  68.925  1.00  0.00    -0.021 OA 
HETATM    4  C   UNL     1      -7.059   7.047  68.558  1.00  0.00    -0.089 C  
HETATM    5  C   UNL     1      -7.799   8.263  68.060  1.00  0.00    -0.118 C  
HETATM    6  O   UNL     1      -7.506   5.925  68.714  1.00  0.00    -0.082 OA 
HETATM    7  C   UNL     1      -8.784   8.107  66.898  1.00  0.00    -0.136 C  
HETATM    8  C   UNL     1      -9.073   9.486  66.279  1.00  0.00    -0.202 A  
HETATM    9  C   UNL     1      -8.297  10.662  66.586  1.00  0.00    -0.136 A  
HETATM   10  C   UNL     1     -10.120   9.560  65.337  1.00  0.00     0.025 A  
HETATM   11  C   UNL     1     -10.907  12.316  63.314  1.00  0.00    -0.303 C  
HETATM   12  C   UNL     1     -10.332  10.754  64.686  1.00  0.00    -0.324 A  
HETATM   13  C   UNL     1      -8.575  11.861  65.901  1.00  0.00     0.210 A  
HETATM   14  C   UNL     1      -9.580  11.868  64.957  1.00  0.00    -0.091 A  
HETATM   15  C   UNL     1      -7.105  10.658  67.556  1.00  0.00    -0.089 C  
HETATM   16  O   UNL     1     -11.249  10.972  63.706  1.00  0.00    -0.147 OA 
HETATM   17  O   UNL     1      -9.922  12.928  64.175  1.00  0.00    -0.284 OA 
ENDROOT
BRANCH   7  18
HETATM   18  C   UNL     1      -8.351   7.035  65.879  1.00  0.00    -0.141 A  
HETATM   19  O   UNL     1      -6.584   3.797  63.909  1.00  0.00    -0.039 OA 
HETATM   20  C   UNL     1      -7.257   4.837  64.494  1.00  0.00    -0.062 A  
HETATM   21  C   UNL     1      -8.470   4.676  65.170  1.00  0.00    -0.130 A  
HETATM   22  C   UNL     1      -7.222   7.198  65.073  1.00  0.00    -0.074 A  
HETATM   23  H   UNL     1      -5.760   3.907  63.450  1.00  0.00     0.000 HD 
HETATM   24  C   UNL     1      -9.003   5.787  65.849  1.00  0.00    -0.158 A  
HETATM   25  C   UNL     1      -6.655   6.109  64.403  1.00  0.00    -0.034 A  
BRANCH  21  26
HETATM   26  O   UNL     1      -9.247   3.561  65.310  1.00  0.00    -0.141 OA 
HETATM   27  C   UNL     1      -9.005   2.638  66.360  1.00  0.00    -0.139 C  
ENDBRANCH  21  26
BRANCH  25  28
HETATM   28  O   UNL     1      -5.475   6.186  63.706  1.00  0.00    -0.017 OA 
HETATM   29  C   UNL     1      -5.279   7.357  62.922  1.00  0.00    -0.034 C  
ENDBRANCH  25  28
ENDBRANCH   7  18
BRANCH  15  30
HETATM   30  O   UNL     1      -7.389  11.161  68.856  1.00  0.00    -0.094 OA 
BRANCH  30  31
HETATM   31  C   UNL     1      -7.759  12.541  69.075  1.00  0.00     0.186 C  
HETATM   32  O   UNL     1      -9.054  12.908  68.545  1.00  0.00    -0.155 OA 
HETATM   33  C   UNL     1      -9.249  14.343  68.560  1.00  0.00    -0.198 C  
HETATM   34  C   UNL     1     -10.674  14.809  68.223  1.00  0.00    -0.242 C  
HETATM   35  O   UNL     1     -10.734  16.248  68.119  1.00  0.00    -0.295 OA 
HETATM   36  C   UNL     1      -9.853  16.720  67.098  1.00  0.00    -0.259 C  
HETATM   37  H   UNL     1      -4.725  13.796  68.879  1.00  0.00     0.000 HD 
HETATM   38  O   UNL     1      -8.510  16.385  67.415  1.00  0.00    -0.172 OA 
HETATM   39  C   UNL     1      -8.317  14.978  67.536  1.00  0.00    -0.176 C  
HETATM   40  H   UNL     1      -5.103  15.116  67.300  1.00  0.00     0.000 HD 
HETATM   41  O   UNL     1      -5.436  13.313  69.283  1.00  0.00    -0.074 OA 
HETATM   42  C   UNL     1      -6.892  14.788  68.024  1.00  0.00    -0.140 C  
HETATM   43  C   UNL     1      -6.586  13.338  68.408  1.00  0.00    -0.093 C  
HETATM   44  O   UNL     1      -5.995  15.235  66.995  1.00  0.00    -0.206 OA 
BRANCH  36  45
HETATM   45  C   UNL     1      -9.863  18.229  67.063  1.00  0.00    -0.326 A  
HETATM   46  S   UNL     1      -9.141  19.100  68.365  1.00  0.00    -0.371 SA 
HETATM   47  C   UNL     1     -10.366  20.467  66.577  1.00  0.00    -0.281 A  
HETATM   48  C   UNL     1     -10.463  19.102  66.169  1.00  0.00    -0.558 A  
HETATM   49  C   UNL     1      -9.682  20.607  67.763  1.00  0.00    -0.227 A  
ENDBRANCH  36  45
ENDBRANCH  30  31
ENDBRANCH  15  30
TORSDOF 6
ENDMDL
MODEL       62
REMARK 921   NORMALIZED FREE ENERGY PREDICTED BY IDOCK:   -4.06 KCAL/MOL
REMARK 922        TOTAL FREE ENERGY PREDICTED BY IDOCK:   -7.51 KCAL/MOL
REMARK 923 INTER-LIGAND FREE ENERGY PREDICTED BY IDOCK:  -10.87 KCAL/MOL
REMARK 924 INTRA-LIGAND FREE ENERGY PREDICTED BY IDOCK:    3.36 KCAL/MOL
REMARK 927      BINDING AFFINITY PREDICTED BY RF-SCORE:    0.00 PKD
ROOT
HETATM    1  C   UNL     1     -11.684  13.325  67.046  1.00  0.00    -0.439 C  
HETATM    2  C   UNL     1     -11.999  11.887  66.739  1.00  0.00     0.096 C  
HETATM    3  O   UNL     1     -12.009  11.246  68.033  1.00  0.00    -0.621 OA 
HETATM    4  C   UNL     1     -11.185  11.944  68.888  1.00  0.00    -0.254 C  
HETATM    5  C   UNL     1     -10.654  13.157  68.167  1.00  0.00    -0.257 C  
HETATM    6  O   UNL     1     -10.885  11.560  70.004  1.00  0.00     0.069 OA 
HETATM    7  C   UNL     1     -10.457  14.458  68.951  1.00  0.00    -0.246 C  
HETATM    8  C   UNL     1     -10.346  15.639  67.970  1.00  0.00    -0.246 A  
HETATM    9  C   UNL     1     -10.671  15.528  66.569  1.00  0.00    -0.304 A  
HETATM   10  C   UNL     1      -9.950  16.882  68.504  1.00  0.00    -0.275 A  
HETATM   11  C   UNL     1      -9.962  19.965  66.830  1.00  0.00    -0.444 C  
HETATM   12  C   UNL     1      -9.945  17.980  67.674  1.00  0.00    -0.329 A  
HETATM   13  C   UNL     1     -10.629  16.684  65.766  1.00  0.00    -0.278 A  
HETATM   14  C   UNL     1     -10.278  17.884  66.347  1.00  0.00    -0.372 A  
HETATM   15  C   UNL     1     -11.165  14.227  65.916  1.00  0.00    -0.319 C  
HETATM   16  O   UNL     1      -9.658  19.256  68.047  1.00  0.00    -0.311 OA 
HETATM   17  O   UNL     1     -10.252  19.090  65.717  1.00  0.00    -0.517 OA 
ENDROOT
BRANCH   7  18
HETATM   18  C   UNL     1     -11.505  14.658  70.062  1.00  0.00    -0.313 A  
HETATM   19  O   UNL     1     -13.627  14.723  73.665  1.00  0.00    -0.354 OA 
HETATM   20  C   UNL     1     -12.980  14.801  72.461  1.00  0.00    -0.392 A  
HETATM   21  C   UNL     1     -12.159  15.875  72.105  1.00  0.00    -0.506 A  
HETATM   22  C   UNL     1     -12.445  13.673  70.375  1.00  0.00    -0.364 A  
HETATM   23  H   UNL     1     -14.185  13.993  73.907  1.00  0.00     0.000 HD 
HETATM   24  C   UNL     1     -11.436  15.788  70.901  1.00  0.00    -0.438 A  
HETATM   25  C   UNL     1     -13.163  13.721  71.575  1.00  0.00    -0.341 A  
BRANCH  21  26
HETATM   26  O   UNL     1     -11.908  17.039  72.777  1.00  0.00    -0.199 OA 
HETATM   27  C   UNL     1     -11.830  17.054  74.193  1.00  0.00     0.132 C  
ENDBRANCH  21  26
BRANCH  25  28
HETATM   28  O   UNL     1     -14.001  12.715  71.990  1.00  0.00    -0.175 OA 
HETATM   29  C   UNL     1     -13.483  11.392  71.922  1.00  0.00    -0.176 C  
ENDBRANCH  25  28
ENDBRANCH   7  18
BRANCH  15  30
HETATM   30  O   UNL     1     -10.174  13.507  65.193  1.00  0.00    -0.330 OA 
BRANCH  30  31
HETATM   31  C   UNL     1     -10.042  12.071  65.306  1.00  0.00    -0.260 C  
HETATM   32  O   UNL     1      -8.992  11.633  66.200  1.00  0.00    -0.209 OA 
HETATM   33  C   UNL     1      -8.738  10.213  66.068  1.00  0.00    -0.140 C  
HETATM   34  C   UNL     1      -7.798   9.619  67.128  1.00  0.00    -0.091 C  
HETATM   35  O   UNL     1      -7.491   8.240  66.831  1.00  0.00    -0.085 OA 
HETATM   36  C   UNL     1      -6.859   8.126  65.554  1.00  0.00    -0.062 C  
HETATM   37  H   UNL     1     -10.922  11.351  62.220  1.00  0.00     0.000 HD 
HETATM   38  O   UNL     1      -7.732   8.584  64.532  1.00  0.00    -0.111 OA 
HETATM   39  C   UNL     1      -8.103   9.949  64.709  1.00  0.00    -0.151 C  
HETATM   40  H   UNL     1      -9.166  10.344  61.690  1.00  0.00     0.000 HD 
HETATM   41  O   UNL     1     -11.065  11.629  63.117  1.00  0.00    -0.286 OA 
HETATM   42  C   UNL     1      -9.145  10.244  63.644  1.00  0.00    -0.258 C  
HETATM   43  C   UNL     1      -9.806  11.613  63.827  1.00  0.00    -0.315 C  
HETATM   44  O   UNL     1      -8.515  10.159  62.356  1.00  0.00    -0.139 OA 
BRANCH  36  45
HETATM   45  C   UNL     1      -6.626   6.673  65.221  1.00  0.00    -0.050 A  
HETATM   46  S   UNL     1      -7.987   5.635  65.004  1.00  0.00    -0.121 SA 
HETATM   47  C   UNL     1      -5.666   4.551  64.949  1.00  0.00    -0.014 A  
HETATM   48  C   UNL     1      -5.447   5.948  65.142  1.00  0.00    -0.016 A  
HETATM   49  C   UNL     1      -7.005   4.241  64.870  1.00  0.00    -0.054 A  
ENDBRANCH  36  45
ENDBRANCH  30  31
ENDBRANCH  15  30
TORSDOF 6
ENDMDL
MODEL       63
REMARK 921   NORMALIZED FREE ENERGY PREDICTED BY IDOCK:   -4.01 KCAL/MOL
REMARK 922        TOTAL FREE ENERGY PREDICTED BY IDOCK:   -7.44 KCAL/MOL
REMARK 923 INTER-LIGAND FREE ENERGY PREDICTED BY IDOCK:   -8.45 KCAL/MOL
REMARK 924 INTRA-LIGAND FREE ENERGY PREDICTED BY IDOCK:    1.00 KCAL/MOL
REMARK 927      BINDING AFFINITY PREDICTED BY RF-SCORE:    0.00 PKD
ROOT
HETATM    1  C   UNL     1      -7.549  13.921  69.175  1.00  0.00     0.064 C  
HETATM    2  C   UNL     1      -6.434  13.695  70.157  1.00  0.00     0.040 C  
HETATM    3  O   UNL     1      -5.644  14.900  70.077  1.00  0.00    -0.107 OA 
HETATM    4  C   UNL     1      -5.797  15.457  68.825  1.00  0.00    -0.092 C  
HETATM    5  C   UNL     1      -6.796  14.636  68.049  1.00  0.00    -0.152 C  
HETATM    6  O   UNL     1      -5.143  16.400  68.419  1.00  0.00    -0.095 OA 
HETATM    7  C   UNL     1      -7.756  15.348  67.092  1.00  0.00    -0.246 C  
HETATM    8  C   UNL     1      -8.938  14.419  66.763  1.00  0.00    -0.256 A  
HETATM    9  C   UNL     1      -9.204  13.200  67.488  1.00  0.00    -0.206 A  
HETATM   10  C   UNL     1      -9.808  14.828  65.731  1.00  0.00    -0.373 A  
HETATM   11  C   UNL     1     -12.867  13.340  64.876  1.00  0.00    -0.253 C  
HETATM   12  C   UNL     1     -10.933  14.074  65.485  1.00  0.00    -0.309 A  
HETATM   13  C   UNL     1     -10.362  12.461  67.177  1.00  0.00    -0.232 A  
HETATM   14  C   UNL     1     -11.203  12.929  66.190  1.00  0.00    -0.292 A  
HETATM   15  C   UNL     1      -8.342  12.710  68.661  1.00  0.00     0.028 C  
HETATM   16  O   UNL     1     -11.903  14.368  64.579  1.00  0.00    -0.422 OA 
HETATM   17  O   UNL     1     -12.383  12.361  65.822  1.00  0.00    -0.644 OA 
ENDROOT
BRANCH   7  18
HETATM   18  C   UNL     1      -8.171  16.748  67.584  1.00  0.00    -0.191 A  
HETATM   19  O   UNL     1      -8.748  20.859  68.085  1.00  0.00     0.298 OA 
HETATM   20  C   UNL     1      -8.664  19.497  67.961  1.00  0.00    -0.324 A  
HETATM   21  C   UNL     1      -9.580  18.740  67.226  1.00  0.00    -0.303 A  
HETATM   22  C   UNL     1      -7.359  17.502  68.433  1.00  0.00    -0.230 A  
HETATM   23  H   UNL     1      -8.125  21.374  68.584  1.00  0.00     0.000 HD 
HETATM   24  C   UNL     1      -9.320  17.368  67.055  1.00  0.00    -0.265 A  
HETATM   25  C   UNL     1      -7.578  18.872  68.608  1.00  0.00    -0.331 A  
BRANCH  21  26
HETATM   26  O   UNL     1     -10.725  19.133  66.594  1.00  0.00    -0.417 OA 
HETATM   27  C   UNL     1     -10.669  19.788  65.337  1.00  0.00    -0.082 C  
ENDBRANCH  21  26
BRANCH  25  28
HETATM   28  O   UNL     1      -6.735  19.683  69.326  1.00  0.00    -0.329 OA 
HETATM   29  C   UNL     1      -5.820  19.031  70.199  1.00  0.00    -0.232 C  
ENDBRANCH  25  28
ENDBRANCH   7  18
BRANCH  15  30
HETATM   30  O   UNL     1      -7.416  11.680  68.335  1.00  0.00    -0.093 OA 
BRANCH  30  31
HETATM   31  C   UNL     1      -7.616  10.313  68.761  1.00  0.00    -0.093 C  
HETATM   32  O   UNL     1      -8.971   9.999  69.157  1.00  0.00    -0.147 OA 
HETATM   33  C   UNL     1      -9.050   8.712  69.816  1.00  0.00    -0.150 C  
HETATM   34  C   UNL     1     -10.475   8.198  70.073  1.00  0.00    -0.231 C  
HETATM   35  O   UNL     1     -10.453   6.988  70.859  1.00  0.00    -0.212 OA 
HETATM   36  C   UNL     1      -9.822   7.214  72.121  1.00  0.00    -0.153 C  
HETATM   37  H   UNL     1      -4.643   9.880  70.099  1.00  0.00     0.000 HD 
HETATM   38  O   UNL     1      -8.471   7.608  71.930  1.00  0.00    -0.104 OA 
HETATM   39  C   UNL     1      -8.358   8.807  71.170  1.00  0.00    -0.176 C  
HETATM   40  H   UNL     1      -5.304   9.395  72.024  1.00  0.00     0.000 HD 
HETATM   41  O   UNL     1      -5.264   9.980  69.388  1.00  0.00    -0.035 OA 
HETATM   42  C   UNL     1      -6.875   9.012  70.920  1.00  0.00    -0.088 C  
HETATM   43  C   UNL     1      -6.591  10.149  69.935  1.00  0.00    -0.100 C  
HETATM   44  O   UNL     1      -6.232   9.267  72.180  1.00  0.00    -0.253 OA 
BRANCH  36  45
HETATM   45  C   UNL     1      -9.728   5.920  72.892  1.00  0.00    -0.155 A  
HETATM   46  S   UNL     1     -10.958   4.729  72.679  1.00  0.00    -0.099 SA 
HETATM   47  C   UNL     1      -9.180   4.272  74.467  1.00  0.00    -0.115 A  
HETATM   48  C   UNL     1      -8.832   5.522  73.872  1.00  0.00    -0.120 A  
HETATM   49  C   UNL     1     -10.325   3.737  73.920  1.00  0.00    -0.171 A  
ENDBRANCH  36  45
ENDBRANCH  30  31
ENDBRANCH  15  30
TORSDOF 6
ENDMDL
MODEL       64
REMARK 921   NORMALIZED FREE ENERGY PREDICTED BY IDOCK:   -3.93 KCAL/MOL
REMARK 922        TOTAL FREE ENERGY PREDICTED BY IDOCK:   -7.34 KCAL/MOL
REMARK 923 INTER-LIGAND FREE ENERGY PREDICTED BY IDOCK:   -9.55 KCAL/MOL
REMARK 924 INTRA-LIGAND FREE ENERGY PREDICTED BY IDOCK:    2.22 KCAL/MOL
REMARK 927      BINDING AFFINITY PREDICTED BY RF-SCORE:    0.00 PKD
ROOT
HETATM    1  C   UNL     1      -8.985  11.921  67.685  1.00  0.00    -0.169 C  
HETATM    2  C   UNL     1      -9.412  10.498  67.458  1.00  0.00    -0.149 C  
HETATM    3  O   UNL     1     -10.835  10.590  67.233  1.00  0.00    -0.275 OA 
HETATM    4  C   UNL     1     -11.323  11.705  67.879  1.00  0.00    -0.299 C  
HETATM    5  C   UNL     1     -10.168  12.446  68.504  1.00  0.00    -0.213 C  
HETATM    6  O   UNL     1     -12.508  11.962  67.985  1.00  0.00    -0.148 OA 
HETATM    7  C   UNL     1     -10.200  13.977  68.532  1.00  0.00    -0.237 C  
HETATM    8  C   UNL     1      -8.781  14.516  68.791  1.00  0.00    -0.147 A  
HETATM    9  C   UNL     1      -7.602  13.688  68.720  1.00  0.00    -0.079 A  
HETATM   10  C   UNL     1      -8.658  15.895  69.061  1.00  0.00    -0.239 A  
HETATM   11  C   UNL     1      -5.666  17.713  69.281  1.00  0.00    -0.205 C  
HETATM   12  C   UNL     1      -7.395  16.427  69.190  1.00  0.00    -0.225 A  
HETATM   13  C   UNL     1      -6.338  14.288  68.880  1.00  0.00    -0.089 A  
HETATM   14  C   UNL     1      -6.270  15.648  69.098  1.00  0.00    -0.119 A  
HETATM   15  C   UNL     1      -7.640  12.192  68.376  1.00  0.00    -0.128 C  
HETATM   16  O   UNL     1      -7.103  17.741  69.380  1.00  0.00    -0.168 OA 
HETATM   17  O   UNL     1      -5.126  16.375  69.210  1.00  0.00    -0.116 OA 
ENDROOT
BRANCH   7  18
HETATM   18  C   UNL     1     -10.893  14.590  67.301  1.00  0.00    -0.297 A  
HETATM   19  O   UNL     1     -11.870  16.015  63.493  1.00  0.00    -1.076 OA 
HETATM   20  C   UNL     1     -11.659  15.518  64.752  1.00  0.00    -0.256 A  
HETATM   21  C   UNL     1     -11.963  14.203  65.113  1.00  0.00    -0.388 A  
HETATM   22  C   UNL     1     -10.739  15.936  66.962  1.00  0.00    -0.292 A  
HETATM   23  H   UNL     1     -11.663  16.909  63.247  1.00  0.00     0.000 HD 
HETATM   24  C   UNL     1     -11.579  13.761  66.392  1.00  0.00    -0.380 A  
HETATM   25  C   UNL     1     -11.091  16.402  65.691  1.00  0.00     0.055 A  
BRANCH  21  26
HETATM   26  O   UNL     1     -12.576  13.220  64.387  1.00  0.00    -0.609 OA 
HETATM   27  C   UNL     1     -11.883  12.551  63.347  1.00  0.00    -0.503 C  
ENDBRANCH  21  26
BRANCH  25  28
HETATM   28  O   UNL     1     -10.840  17.683  65.263  1.00  0.00    -0.600 OA 
HETATM   29  C   UNL     1     -10.288  18.574  66.224  1.00  0.00    -0.427 C  
ENDBRANCH  25  28
ENDBRANCH   7  18
BRANCH  15  30
HETATM   30  O   UNL     1      -7.533  11.317  69.493  1.00  0.00    -0.056 OA 
BRANCH  30  31
HETATM   31  C   UNL     1      -7.032   9.967  69.358  1.00  0.00    -0.069 C  
HETATM   32  O   UNL     1      -6.987   9.477  67.998  1.00  0.00    -0.077 OA 
HETATM   33  C   UNL     1      -6.735   8.051  67.954  1.00  0.00    -0.068 C  
HETATM   34  C   UNL     1      -6.451   7.483  66.554  1.00  0.00    -0.049 C  
HETATM   35  O   UNL     1      -6.358   6.044  66.591  1.00  0.00    -0.041 OA 
HETATM   36  C   UNL     1      -7.575   5.468  67.072  1.00  0.00    -0.092 C  
HETATM   37  H   UNL     1      -8.216   8.823  72.205  1.00  0.00     0.000 HD 
HETATM   38  O   UNL     1      -7.830   5.900  68.400  1.00  0.00    -0.102 OA 
HETATM   39  C   UNL     1      -7.954   7.316  68.496  1.00  0.00    -0.124 C  
HETATM   40  H   UNL     1      -9.370   7.280  71.393  1.00  0.00     0.000 HD 
HETATM   41  O   UNL     1      -7.631   9.329  71.653  1.00  0.00    -0.338 OA 
HETATM   42  C   UNL     1      -8.066   7.632  69.976  1.00  0.00    -0.120 C  
HETATM   43  C   UNL     1      -7.997   9.133  70.269  1.00  0.00    -0.133 C  
HETATM   44  O   UNL     1      -9.300   7.082  70.467  1.00  0.00    -0.159 OA 
BRANCH  36  45
HETATM   45  C   UNL     1      -7.429   3.971  67.187  1.00  0.00    -0.073 A  
HETATM   46  S   UNL     1      -8.845   3.006  67.390  1.00  0.00    -0.154 SA 
HETATM   47  C   UNL     1      -6.583   1.810  67.519  1.00  0.00    -0.028 A  
HETATM   48  C   UNL     1      -6.291   3.183  67.259  1.00  0.00    -0.036 A  
HETATM   49  C   UNL     1      -7.935   1.577  67.628  1.00  0.00    -0.059 A  
ENDBRANCH  36  45
ENDBRANCH  30  31
ENDBRANCH  15  30
TORSDOF 6
ENDMDL
MODEL       65
REMARK 921   NORMALIZED FREE ENERGY PREDICTED BY IDOCK:   -3.89 KCAL/MOL
REMARK 922        TOTAL FREE ENERGY PREDICTED BY IDOCK:   -7.28 KCAL/MOL
REMARK 923 INTER-LIGAND FREE ENERGY PREDICTED BY IDOCK:   -7.55 KCAL/MOL
REMARK 924 INTRA-LIGAND FREE ENERGY PREDICTED BY IDOCK:    0.27 KCAL/MOL
REMARK 927      BINDING AFFINITY PREDICTED BY RF-SCORE:    0.00 PKD
ROOT
HETATM    1  C   UNL     1     -11.329  14.783  68.654  1.00  0.00    -0.305 C  
HETATM    2  C   UNL     1     -11.643  15.247  70.049  1.00  0.00    -0.305 C  
HETATM    3  O   UNL     1     -10.565  16.152  70.369  1.00  0.00    -0.226 OA 
HETATM    4  C   UNL     1      -9.448  15.797  69.646  1.00  0.00    -0.204 C  
HETATM    5  C   UNL     1      -9.805  14.649  68.735  1.00  0.00    -0.227 C  
HETATM    6  O   UNL     1      -8.347  16.290  69.812  1.00  0.00     0.162 OA 
HETATM    7  C   UNL     1      -9.171  14.583  67.343  1.00  0.00    -0.202 C  
HETATM    8  C   UNL     1      -9.984  13.627  66.452  1.00  0.00    -0.299 A  
HETATM    9  C   UNL     1     -11.286  13.127  66.820  1.00  0.00    -0.330 A  
HETATM   10  C   UNL     1      -9.424  13.280  65.205  1.00  0.00     0.359 A  
HETATM   11  C   UNL     1     -11.020  11.519  62.625  1.00  0.00     0.807 C  
HETATM   12  C   UNL     1     -10.173  12.514  64.340  1.00  0.00    -0.320 A  
HETATM   13  C   UNL     1     -11.996  12.332  65.900  1.00  0.00    -0.358 A  
HETATM   14  C   UNL     1     -11.423  12.059  64.677  1.00  0.00    -0.308 A  
HETATM   15  C   UNL     1     -11.994  13.500  68.132  1.00  0.00    -0.341 C  
HETATM   16  O   UNL     1      -9.810  12.154  63.081  1.00  0.00    -0.398 OA 
HETATM   17  O   UNL     1     -12.008  11.360  63.667  1.00  0.00    -0.220 OA 
ENDROOT
BRANCH   7  18
HETATM   18  C   UNL     1      -8.928  15.972  66.722  1.00  0.00    -0.275 A  
HETATM   19  O   UNL     1      -8.328  20.053  66.035  1.00  0.00    -0.462 OA 
HETATM   20  C   UNL     1      -8.454  18.696  66.174  1.00  0.00    -0.141 A  
HETATM   21  C   UNL     1      -7.363  17.846  66.374  1.00  0.00    -0.265 A  
HETATM   22  C   UNL     1      -9.983  16.817  66.373  1.00  0.00    -0.317 A  
HETATM   23  H   UNL     1      -9.070  20.631  65.899  1.00  0.00     0.000 HD 
HETATM   24  C   UNL     1      -7.620  16.488  66.639  1.00  0.00    -0.310 A  
HETATM   25  C   UNL     1      -9.763  18.176  66.124  1.00  0.00    -0.210 A  
BRANCH  21  26
HETATM   26  O   UNL     1      -6.027  18.131  66.381  1.00  0.00    -0.148 OA 
HETATM   27  C   UNL     1      -5.218  17.835  65.254  1.00  0.00     0.074 C  
ENDBRANCH  21  26
BRANCH  25  28
HETATM   28  O   UNL     1     -10.778  19.075  65.904  1.00  0.00    -0.454 OA 
HETATM   29  C   UNL     1     -11.267  19.768  67.046  1.00  0.00     0.139 C  
ENDBRANCH  25  28
ENDBRANCH   7  18
BRANCH  15  30
HETATM   30  O   UNL     1     -11.918  12.514  69.155  1.00  0.00    -0.287 OA 
BRANCH  30  31
HETATM   31  C   UNL     1     -10.815  11.582  69.234  1.00  0.00    -0.167 C  
HETATM   32  O   UNL     1     -10.182  11.291  67.966  1.00  0.00    -0.175 OA 
HETATM   33  C   UNL     1      -9.274  10.167  68.070  1.00  0.00    -0.138 C  
HETATM   34  C   UNL     1      -8.395   9.924  66.834  1.00  0.00    -0.124 C  
HETATM   35  O   UNL     1      -7.635   8.706  66.973  1.00  0.00    -0.084 OA 
HETATM   36  C   UNL     1      -8.503   7.582  67.135  1.00  0.00    -0.121 C  
HETATM   37  H   UNL     1     -12.006   9.775  71.710  1.00  0.00     0.000 HD 
HETATM   38  O   UNL     1      -9.274   7.725  68.319  1.00  0.00    -0.140 OA 
HETATM   39  C   UNL     1     -10.084   8.897  68.299  1.00  0.00    -0.187 C  
HETATM   40  H   UNL     1     -12.015   7.944  70.700  1.00  0.00     0.000 HD 
HETATM   41  O   UNL     1     -11.615  10.543  71.311  1.00  0.00    -0.263 OA 
HETATM   42  C   UNL     1     -10.720   8.994  69.674  1.00  0.00    -0.219 C  
HETATM   43  C   UNL     1     -11.461  10.316  69.893  1.00  0.00    -0.273 C  
HETATM   44  O   UNL     1     -11.617   7.883  69.840  1.00  0.00     0.029 OA 
BRANCH  36  45
HETATM   45  C   UNL     1      -7.691   6.331  67.367  1.00  0.00    -0.097 A  
HETATM   46  S   UNL     1      -7.438   5.787  68.985  1.00  0.00    -0.086 SA 
HETATM   47  C   UNL     1      -6.219   4.523  67.118  1.00  0.00    -0.036 A  
HETATM   48  C   UNL     1      -6.989   5.538  66.474  1.00  0.00    -0.064 A  
HETATM   49  C   UNL     1      -6.361   4.554  68.488  1.00  0.00    -0.036 A  
ENDBRANCH  36  45
ENDBRANCH  30  31
ENDBRANCH  15  30
TORSDOF 6
ENDMDL
MODEL       66
REMARK 921   NORMALIZED FREE ENERGY PREDICTED BY IDOCK:   -3.70 KCAL/MOL
REMARK 922        TOTAL FREE ENERGY PREDICTED BY IDOCK:   -7.03 KCAL/MOL
REMARK 923 INTER-LIGAND FREE ENERGY PREDICTED BY IDOCK:   -6.61 KCAL/MOL
REMARK 924 INTRA-LIGAND FREE ENERGY PREDICTED BY IDOCK:   -0.41 KCAL/MOL
REMARK 927      BINDING AFFINITY PREDICTED BY RF-SCORE:    0.00 PKD
ROOT
HETATM    1  C   UNL     1      -6.667   9.486  68.029  1.00  0.00    -0.063 C  
HETATM    2  C   UNL     1      -5.487   9.307  68.943  1.00  0.00    -0.037 C  
HETATM    3  O   UNL     1      -6.035   8.634  70.097  1.00  0.00    -0.030 OA 
HETATM    4  C   UNL     1      -7.370   8.954  70.214  1.00  0.00    -0.067 C  
HETATM    5  C   UNL     1      -7.764   9.820  69.045  1.00  0.00    -0.085 C  
HETATM    6  O   UNL     1      -8.059   8.648  71.170  1.00  0.00    -0.118 OA 
HETATM    7  C   UNL     1      -9.161   9.655  68.439  1.00  0.00    -0.133 C  
HETATM    8  C   UNL     1      -9.191  10.284  67.034  1.00  0.00    -0.169 A  
HETATM    9  C   UNL     1      -7.999  10.689  66.331  1.00  0.00    -0.142 A  
HETATM   10  C   UNL     1     -10.452  10.413  66.416  1.00  0.00    -0.246 A  
HETATM   11  C   UNL     1     -11.050  11.352  63.089  1.00  0.00     0.015 C  
HETATM   12  C   UNL     1     -10.501  10.871  65.119  1.00  0.00    -0.246 A  
HETATM   13  C   UNL     1      -8.116  11.169  65.012  1.00  0.00     0.375 A  
HETATM   14  C   UNL     1      -9.367  11.233  64.437  1.00  0.00    -0.124 A  
HETATM   15  C   UNL     1      -6.583  10.531  66.906  1.00  0.00    -0.081 C  
HETATM   16  O   UNL     1     -11.623  10.986  64.360  1.00  0.00     0.177 OA 
HETATM   17  O   UNL     1      -9.632  11.615  63.158  1.00  0.00    -0.375 OA 
ENDROOT
BRANCH   7  18
HETATM   18  C   UNL     1      -9.675   8.204  68.492  1.00  0.00    -0.170 A  
HETATM   19  O   UNL     1     -10.282   4.148  69.313  1.00  0.00     0.075 OA 
HETATM   20  C   UNL     1     -10.195   5.487  69.034  1.00  0.00    -0.228 A  
HETATM   21  C   UNL     1     -10.855   6.465  69.783  1.00  0.00    -0.314 A  
HETATM   22  C   UNL     1      -9.149   7.205  67.670  1.00  0.00    -0.127 A  
HETATM   23  H   UNL     1      -9.832   3.483  68.804  1.00  0.00     0.000 HD 
HETATM   24  C   UNL     1     -10.588   7.815  69.493  1.00  0.00    -0.221 A  
HETATM   25  C   UNL     1      -9.379   5.853  67.945  1.00  0.00    -0.107 A  
BRANCH  21  26
HETATM   26  O   UNL     1     -11.738   6.322  70.816  1.00  0.00    -0.340 OA 
HETATM   27  C   UNL     1     -12.057   7.423  71.651  1.00  0.00    -0.317 C  
ENDBRANCH  21  26
BRANCH  25  28
HETATM   28  O   UNL     1      -8.782   4.831  67.248  1.00  0.00    -0.105 OA 
HETATM   29  C   UNL     1      -8.356   5.132  65.925  1.00  0.00    -0.118 C  
ENDBRANCH  25  28
ENDBRANCH   7  18
BRANCH  15  30
HETATM   30  O   UNL     1      -6.020  11.720  67.448  1.00  0.00    -0.075 OA 
BRANCH  30  31
HETATM   31  C   UNL     1      -6.847  12.819  67.895  1.00  0.00    -0.114 C  
HETATM   32  O   UNL     1      -7.835  13.257  66.933  1.00  0.00    -0.004 OA 
HETATM   33  C   UNL     1      -8.442  14.512  67.326  1.00  0.00    -0.215 C  
HETATM   34  C   UNL     1      -9.653  14.942  66.483  1.00  0.00    -0.276 C  
HETATM   35  O   UNL     1     -10.096  16.264  66.855  1.00  0.00    -0.263 OA 
HETATM   36  C   UNL     1      -9.052  17.222  66.663  1.00  0.00    -0.265 C  
HETATM   37  H   UNL     1      -4.560  14.313  69.726  1.00  0.00     0.000 HD 
HETATM   38  O   UNL     1      -7.942  16.910  67.493  1.00  0.00    -0.165 OA 
HETATM   39  C   UNL     1      -7.403  15.621  67.214  1.00  0.00    -0.220 C  
HETATM   40  H   UNL     1      -4.607  16.152  68.731  1.00  0.00     0.000 HD 
HETATM   41  O   UNL     1      -5.192  13.635  69.515  1.00  0.00    -0.083 OA 
HETATM   42  C   UNL     1      -6.341  15.370  68.269  1.00  0.00    -0.119 C  
HETATM   43  C   UNL     1      -5.805  13.936  68.242  1.00  0.00    -0.114 C  
HETATM   44  O   UNL     1      -5.272  16.309  68.071  1.00  0.00    -0.098 OA 
BRANCH  36  45
HETATM   45  C   UNL     1      -9.502  18.581  67.138  1.00  0.00    -0.289 A  
HETATM   46  S   UNL     1      -8.942  19.985  66.307  1.00  0.00    -0.243 SA 
HETATM   47  C   UNL     1     -10.333  20.355  68.427  1.00  0.00    -0.185 A  
HETATM   48  C   UNL     1     -10.255  18.941  68.244  1.00  0.00    -0.442 A  
HETATM   49  C   UNL     1      -9.650  21.043  67.449  1.00  0.00    -0.121 A  
ENDBRANCH  36  45
ENDBRANCH  30  31
ENDBRANCH  15  30
TORSDOF 6
ENDMDL
MODEL       67
REMARK 921   NORMALIZED FREE ENERGY PREDICTED BY IDOCK:   -3.53 KCAL/MOL
REMARK 922        TOTAL FREE ENERGY PREDICTED BY IDOCK:   -6.79 KCAL/MOL
REMARK 923 INTER-LIGAND FREE ENERGY PREDICTED BY IDOCK:   -7.56 KCAL/MOL
REMARK 924 INTRA-LIGAND FREE ENERGY PREDICTED BY IDOCK:    0.78 KCAL/MOL
REMARK 927      BINDING AFFINITY PREDICTED BY RF-SCORE:    0.00 PKD
ROOT
HETATM    1  C   UNL     1     -10.811   9.918  67.102  1.00  0.00    -0.227 C  
HETATM    2  C   UNL     1     -11.214  10.619  65.834  1.00  0.00     0.445 C  
HETATM    3  O   UNL     1     -10.091  10.418  64.950  1.00  0.00    -0.322 OA 
HETATM    4  C   UNL     1      -8.948  10.258  65.701  1.00  0.00    -0.172 C  
HETATM    5  C   UNL     1      -9.322  10.272  67.162  1.00  0.00    -0.175 C  
HETATM    6  O   UNL     1      -7.827  10.211  65.228  1.00  0.00    -0.133 OA 
HETATM    7  C   UNL     1      -8.565   9.358  68.129  1.00  0.00    -0.120 C  
HETATM    8  C   UNL     1      -9.374   9.201  69.429  1.00  0.00    -0.160 A  
HETATM    9  C   UNL     1     -10.747   9.624  69.554  1.00  0.00    -0.252 A  
HETATM   10  C   UNL     1      -8.731   8.568  70.513  1.00  0.00    -0.163 A  
HETATM   11  C   UNL     1     -10.229   7.561  73.521  1.00  0.00    -0.324 C  
HETATM   12  C   UNL     1      -9.462   8.315  71.652  1.00  0.00    -0.195 A  
HETATM   13  C   UNL     1     -11.437   9.355  70.752  1.00  0.00    -0.364 A  
HETATM   14  C   UNL     1     -10.776   8.693  71.765  1.00  0.00    -0.321 A  
HETATM   15  C   UNL     1     -11.541  10.269  68.407  1.00  0.00     0.030 C  
HETATM   16  O   UNL     1      -9.014   7.655  72.752  1.00  0.00    -0.136 OA 
HETATM   17  O   UNL     1     -11.324   8.311  72.950  1.00  0.00    -0.342 OA 
ENDROOT
BRANCH   7  18
HETATM   18  C   UNL     1      -8.132   8.025  67.489  1.00  0.00    -0.123 A  
HETATM   19  O   UNL     1      -6.427   4.301  66.646  1.00  0.00    -0.036 OA 
HETATM   20  C   UNL     1      -7.077   5.487  66.865  1.00  0.00    -0.070 A  
HETATM   21  C   UNL     1      -8.331   5.567  67.477  1.00  0.00    -0.100 A  
HETATM   22  C   UNL     1      -6.955   7.912  66.747  1.00  0.00    -0.073 A  
HETATM   23  H   UNL     1      -5.575   4.247  66.230  1.00  0.00     0.000 HD 
HETATM   24  C   UNL     1      -8.843   6.843  67.774  1.00  0.00    -0.119 A  
HETATM   25  C   UNL     1      -6.408   6.658  66.454  1.00  0.00    -0.042 A  
BRANCH  21  26
HETATM   26  O   UNL     1      -9.169   4.566  67.879  1.00  0.00    -0.118 OA 
HETATM   27  C   UNL     1      -8.760   3.631  68.864  1.00  0.00    -0.093 C  
ENDBRANCH  21  26
BRANCH  25  28
HETATM   28  O   UNL     1      -5.190   6.493  65.843  1.00  0.00    -0.016 OA 
HETATM   29  C   UNL     1      -5.142   6.757  64.446  1.00  0.00    -0.027 C  
ENDBRANCH  25  28
ENDBRANCH   7  18
BRANCH  15  30
HETATM   30  O   UNL     1     -11.659  11.685  68.482  1.00  0.00    -0.266 OA 
BRANCH  30  31
HETATM   31  C   UNL     1     -10.712  12.563  67.832  1.00  0.00    -0.217 C  
HETATM   32  O   UNL     1      -9.486  12.778  68.570  1.00  0.00    -0.187 OA 
HETATM   33  C   UNL     1      -8.705  13.858  68.003  1.00  0.00    -0.183 C  
HETATM   34  C   UNL     1      -7.291  14.013  68.584  1.00  0.00    -0.120 C  
HETATM   35  O   UNL     1      -6.648  15.196  68.066  1.00  0.00    -0.117 OA 
HETATM   36  C   UNL     1      -7.399  16.367  68.395  1.00  0.00    -0.168 C  
HETATM   37  H   UNL     1     -12.923  14.514  66.376  1.00  0.00     0.000 HD 
HETATM   38  O   UNL     1      -8.688  16.305  67.802  1.00  0.00    -0.177 OA 
HETATM   39  C   UNL     1      -9.434  15.174  68.245  1.00  0.00    -0.201 C  
HETATM   40  H   UNL     1     -12.283  16.307  67.244  1.00  0.00     0.000 HD 
HETATM   41  O   UNL     1     -12.427  13.714  66.503  1.00  0.00    -0.381 OA 
HETATM   42  C   UNL     1     -10.708  15.158  67.419  1.00  0.00    -0.286 C  
HETATM   43  C   UNL     1     -11.530  13.883  67.623  1.00  0.00    -0.324 C  
HETATM   44  O   UNL     1     -11.486  16.317  67.761  1.00  0.00    -0.162 OA 
BRANCH  36  45
HETATM   45  C   UNL     1      -6.761  17.584  67.772  1.00  0.00    -0.173 A  
HETATM   46  S   UNL     1      -6.080  18.790  68.801  1.00  0.00    -0.230 SA 
HETATM   47  C   UNL     1      -6.133  19.287  66.287  1.00  0.00    -0.182 A  
HETATM   48  C   UNL     1      -6.697  17.985  66.447  1.00  0.00    -0.261 A  
HETATM   49  C   UNL     1      -5.766  19.845  67.491  1.00  0.00    -0.176 A  
ENDBRANCH  36  45
ENDBRANCH  30  31
ENDBRANCH  15  30
TORSDOF 6
ENDMDL
MODEL       68
REMARK 921   NORMALIZED FREE ENERGY PREDICTED BY IDOCK:   -3.50 KCAL/MOL
REMARK 922        TOTAL FREE ENERGY PREDICTED BY IDOCK:   -6.75 KCAL/MOL
REMARK 923 INTER-LIGAND FREE ENERGY PREDICTED BY IDOCK:   -6.59 KCAL/MOL
REMARK 924 INTRA-LIGAND FREE ENERGY PREDICTED BY IDOCK:   -0.16 KCAL/MOL
REMARK 927      BINDING AFFINITY PREDICTED BY RF-SCORE:    0.00 PKD
ROOT
HETATM    1  C   UNL     1      -9.953  12.958  65.203  1.00  0.00    -0.175 C  
HETATM    2  C   UNL     1     -10.905  12.730  64.063  1.00  0.00    -0.424 C  
HETATM    3  O   UNL     1     -11.618  13.979  63.945  1.00  0.00    -0.251 OA 
HETATM    4  C   UNL     1     -11.635  14.607  65.171  1.00  0.00    -0.371 C  
HETATM    5  C   UNL     1     -10.832  13.784  66.147  1.00  0.00    -0.279 C  
HETATM    6  O   UNL     1     -12.284  15.609  65.411  1.00  0.00     0.510 OA 
HETATM    7  C   UNL     1      -9.997  14.504  67.210  1.00  0.00    -0.236 C  
HETATM    8  C   UNL     1      -8.947  13.535  67.782  1.00  0.00    -0.201 A  
HETATM    9  C   UNL     1      -8.646  12.259  67.180  1.00  0.00    -0.187 A  
HETATM   10  C   UNL     1      -8.232  13.962  68.920  1.00  0.00     0.051 A  
HETATM   11  C   UNL     1      -5.456  12.368  70.354  1.00  0.00    -0.150 C  
HETATM   12  C   UNL     1      -7.213  13.165  69.392  1.00  0.00     0.247 A  
HETATM   13  C   UNL     1      -7.604  11.480  67.720  1.00  0.00    -0.111 A  
HETATM   14  C   UNL     1      -6.907  11.964  68.806  1.00  0.00    -0.093 A  
HETATM   15  C   UNL     1      -9.335  11.741  65.908  1.00  0.00    -0.202 C  
HETATM   16  O   UNL     1      -6.387  13.464  70.429  1.00  0.00    -0.061 OA 
HETATM   17  O   UNL     1      -5.841  11.357  69.397  1.00  0.00    -0.053 OA 
ENDROOT
BRANCH   7  18
HETATM   18  C   UNL     1      -9.417  15.844  66.718  1.00  0.00    -0.254 A  
HETATM   19  O   UNL     1      -7.672  19.631  66.405  1.00  0.00    -0.266 OA 
HETATM   20  C   UNL     1      -8.195  18.365  66.409  1.00  0.00    -0.257 A  
HETATM   21  C   UNL     1      -7.406  17.215  66.320  1.00  0.00    -0.291 A  
HETATM   22  C   UNL     1     -10.193  17.003  66.653  1.00  0.00    -0.310 A  
HETATM   23  H   UNL     1      -8.209  20.413  66.466  1.00  0.00     0.000 HD 
HETATM   24  C   UNL     1      -8.036  15.966  66.471  1.00  0.00    -0.231 A  
HETATM   25  C   UNL     1      -9.596  18.261  66.526  1.00  0.00    -0.320 A  
BRANCH  21  26
HETATM   26  O   UNL     1      -6.058  17.096  66.130  1.00  0.00    -0.238 OA 
HETATM   27  C   UNL     1      -5.267  16.328  67.022  1.00  0.00     0.099 C  
ENDBRANCH  21  26
BRANCH  25  28
HETATM   28  O   UNL     1     -10.301  19.438  66.588  1.00  0.00    -0.385 OA 
HETATM   29  C   UNL     1     -10.699  19.870  67.883  1.00  0.00    -0.181 C  
ENDBRANCH  25  28
ENDBRANCH   7  18
BRANCH  15  30
HETATM   30  O   UNL     1     -10.366  10.787  66.132  1.00  0.00    -0.243 OA 
BRANCH  30  31
HETATM   31  C   UNL     1     -10.082   9.463  66.637  1.00  0.00    -0.262 C  
HETATM   32  O   UNL     1     -10.047   9.364  68.080  1.00  0.00    -0.172 OA 
HETATM   33  C   UNL     1      -9.502   8.094  68.515  1.00  0.00    -0.143 C  
HETATM   34  C   UNL     1      -9.630   7.813  70.020  1.00  0.00    -0.161 C  
HETATM   35  O   UNL     1      -8.934   6.600  70.378  1.00  0.00    -0.150 OA 
HETATM   36  C   UNL     1      -7.545   6.697  70.054  1.00  0.00    -0.100 C  
HETATM   37  H   UNL     1      -8.090   8.530  64.192  1.00  0.00     0.000 HD 
HETATM   38  O   UNL     1      -7.379   6.871  68.655  1.00  0.00    -0.088 OA 
HETATM   39  C   UNL     1      -8.018   8.051  68.176  1.00  0.00    -0.128 C  
HETATM   40  H   UNL     1      -6.415   8.121  65.378  1.00  0.00     0.000 HD 
HETATM   41  O   UNL     1      -8.924   8.742  64.594  1.00  0.00    -0.090 OA 
HETATM   42  C   UNL     1      -7.887   8.018  66.663  1.00  0.00    -0.098 C  
HETATM   43  C   UNL     1      -8.706   9.113  65.974  1.00  0.00    -0.153 C  
HETATM   44  O   UNL     1      -6.497   8.142  66.324  1.00  0.00    -0.046 OA 
BRANCH  36  45
HETATM   45  C   UNL     1      -6.852   5.391  70.353  1.00  0.00    -0.052 A  
HETATM   46  S   UNL     1      -5.873   5.269  71.768  1.00  0.00    -0.025 SA 
HETATM   47  C   UNL     1      -5.886   3.262  70.175  1.00  0.00    -0.018 A  
HETATM   48  C   UNL     1      -6.774   4.225  69.608  1.00  0.00    -0.037 A  
HETATM   49  C   UNL     1      -5.316   3.707  71.347  1.00  0.00    -0.004 A  
ENDBRANCH  36  45
ENDBRANCH  30  31
ENDBRANCH  15  30
TORSDOF 6
ENDMDL
MODEL       69
REMARK 921   NORMALIZED FREE ENERGY PREDICTED BY IDOCK:   -3.46 KCAL/MOL
REMARK 922        TOTAL FREE ENERGY PREDICTED BY IDOCK:   -6.70 KCAL/MOL
REMARK 923 INTER-LIGAND FREE ENERGY PREDICTED BY IDOCK:   -5.63 KCAL/MOL
REMARK 924 INTRA-LIGAND FREE ENERGY PREDICTED BY IDOCK:   -1.07 KCAL/MOL
REMARK 927      BINDING AFFINITY PREDICTED BY RF-SCORE:    0.00 PKD
ROOT
HETATM    1  C   UNL     1      -8.044  12.948  68.418  1.00  0.00    -0.130 C  
HETATM    2  C   UNL     1      -6.980  12.624  69.429  1.00  0.00     0.108 C  
HETATM    3  O   UNL     1      -6.345  13.894  69.690  1.00  0.00    -0.117 OA 
HETATM    4  C   UNL     1      -6.480  14.702  68.582  1.00  0.00    -0.085 C  
HETATM    5  C   UNL     1      -7.311  13.978  67.553  1.00  0.00    -0.187 C  
HETATM    6  O   UNL     1      -5.924  15.778  68.457  1.00  0.00    -0.098 OA 
HETATM    7  C   UNL     1      -8.284  14.784  66.688  1.00  0.00     0.092 C  
HETATM    8  C   UNL     1      -9.314  13.833  66.051  1.00  0.00    -0.042 A  
HETATM    9  C   UNL     1      -9.474  12.460  66.462  1.00  0.00    -0.242 A  
HETATM   10  C   UNL     1     -10.155  14.372  65.056  1.00  0.00    -0.322 A  
HETATM   11  C   UNL     1     -12.936  12.800  63.606  1.00  0.00     0.198 C  
HETATM   12  C   UNL     1     -11.156  13.578  64.543  1.00  0.00    -0.381 A  
HETATM   13  C   UNL     1     -10.505  11.692  65.887  1.00  0.00    -0.300 A  
HETATM   14  C   UNL     1     -11.328  12.280  64.951  1.00  0.00    -0.325 A  
HETATM   15  C   UNL     1      -8.640  11.809  67.577  1.00  0.00    -0.157 C  
HETATM   16  O   UNL     1     -12.091  13.966  63.635  1.00  0.00    -0.454 OA 
HETATM   17  O   UNL     1     -12.399  11.688  64.356  1.00  0.00    -0.089 OA 
ENDROOT
BRANCH   7  18
HETATM   18  C   UNL     1      -8.906  15.981  67.432  1.00  0.00    -0.197 A  
HETATM   19  O   UNL     1      -9.917  18.950  70.197  1.00  0.00     0.337 OA 
HETATM   20  C   UNL     1      -9.607  18.053  69.210  1.00  0.00     0.081 A  
HETATM   21  C   UNL     1      -8.629  18.294  68.241  1.00  0.00    -0.285 A  
HETATM   22  C   UNL     1      -9.979  15.825  68.313  1.00  0.00    -0.221 A  
HETATM   23  H   UNL     1     -10.581  18.786  70.856  1.00  0.00     0.000 HD 
HETATM   24  C   UNL     1      -8.298  17.249  67.359  1.00  0.00    -0.211 A  
HETATM   25  C   UNL     1     -10.318  16.836  69.217  1.00  0.00    -0.309 A  
BRANCH  21  26
HETATM   26  O   UNL     1      -7.886  19.418  68.014  1.00  0.00    -0.283 OA 
HETATM   27  C   UNL     1      -7.853  20.016  66.728  1.00  0.00    -0.309 C  
ENDBRANCH  21  26
BRANCH  25  28
HETATM   28  O   UNL     1     -11.276  16.685  70.189  1.00  0.00    -0.258 OA 
HETATM   29  C   UNL     1     -11.210  15.494  70.963  1.00  0.00    -0.373 C  
ENDBRANCH  25  28
ENDBRANCH   7  18
BRANCH  15  30
HETATM   30  O   UNL     1      -7.571  10.987  67.123  1.00  0.00    -0.105 OA 
BRANCH  30  31
HETATM   31  C   UNL     1      -7.789   9.624  66.694  1.00  0.00    -0.105 C  
HETATM   32  O   UNL     1      -7.126   8.625  67.505  1.00  0.00    -0.077 OA 
HETATM   33  C   UNL     1      -7.162   7.320  66.878  1.00  0.00    -0.088 C  
HETATM   34  C   UNL     1      -6.679   6.160  67.762  1.00  0.00    -0.061 C  
HETATM   35  O   UNL     1      -6.614   4.931  67.008  1.00  0.00    -0.047 OA 
HETATM   36  C   UNL     1      -5.714   5.059  65.905  1.00  0.00    -0.018 C  
HETATM   37  H   UNL     1      -7.978  10.253  63.472  1.00  0.00     0.000 HD 
HETATM   38  O   UNL     1      -6.172   6.066  65.014  1.00  0.00    -0.031 OA 
HETATM   39  C   UNL     1      -6.271   7.341  65.642  1.00  0.00    -0.038 C  
HETATM   40  H   UNL     1      -6.408   9.003  62.881  1.00  0.00     0.000 HD 
HETATM   41  O   UNL     1      -8.283  10.250  64.371  1.00  0.00    -0.163 OA 
HETATM   42  C   UNL     1      -6.913   8.265  64.622  1.00  0.00    -0.075 C  
HETATM   43  C   UNL     1      -7.285   9.629  65.211  1.00  0.00    -0.113 C  
HETATM   44  O   UNL     1      -6.006   8.425  63.519  1.00  0.00    -0.071 OA 
BRANCH  36  45
HETATM   45  C   UNL     1      -5.724   3.797  65.079  1.00  0.00    -0.021 A  
HETATM   46  S   UNL     1      -6.501   3.812  63.538  1.00  0.00    -0.030 SA 
HETATM   47  C   UNL     1      -5.613   1.561  64.382  1.00  0.00    -0.005 A  
HETATM   48  C   UNL     1      -5.280   2.520  65.385  1.00  0.00    -0.008 A  
HETATM   49  C   UNL     1      -6.292   2.127  63.326  1.00  0.00    -0.014 A  
ENDBRANCH  36  45
ENDBRANCH  30  31
ENDBRANCH  15  30
TORSDOF 6
ENDMDL
MODEL       70
REMARK 921   NORMALIZED FREE ENERGY PREDICTED BY IDOCK:   -3.19 KCAL/MOL
REMARK 922        TOTAL FREE ENERGY PREDICTED BY IDOCK:   -6.33 KCAL/MOL
REMARK 923 INTER-LIGAND FREE ENERGY PREDICTED BY IDOCK:   -7.64 KCAL/MOL
REMARK 924 INTRA-LIGAND FREE ENERGY PREDICTED BY IDOCK:    1.31 KCAL/MOL
REMARK 927      BINDING AFFINITY PREDICTED BY RF-SCORE:    0.00 PKD
ROOT
HETATM    1  C   UNL     1     -10.639  11.089  66.384  1.00  0.00    -0.308 C  
HETATM    2  C   UNL     1     -10.381  11.654  65.015  1.00  0.00    -0.281 C  
HETATM    3  O   UNL     1      -8.998  11.333  64.757  1.00  0.00    -0.093 OA 
HETATM    4  C   UNL     1      -8.327  11.233  65.956  1.00  0.00    -0.071 C  
HETATM    5  C   UNL     1      -9.315  11.416  67.080  1.00  0.00    -0.180 C  
HETATM    6  O   UNL     1      -7.119  11.112  66.049  1.00  0.00    -0.065 OA 
HETATM    7  C   UNL     1      -9.136  10.600  68.364  1.00  0.00    -0.156 C  
HETATM    8  C   UNL     1     -10.451  10.603  69.163  1.00  0.00    -0.245 A  
HETATM    9  C   UNL     1     -11.702  11.066  68.614  1.00  0.00    -0.367 A  
HETATM   10  C   UNL     1     -10.407  10.081  70.472  1.00  0.00    -0.215 A  
HETATM   11  C   UNL     1     -13.160   9.444  72.551  1.00  0.00    -0.299 C  
HETATM   12  C   UNL     1     -11.587   9.971  71.174  1.00  0.00    -0.378 A  
HETATM   13  C   UNL     1     -12.872  10.945  69.388  1.00  0.00     0.560 A  
HETATM   14  C   UNL     1     -12.782  10.386  70.645  1.00  0.00    -0.333 A  
HETATM   15  C   UNL     1     -11.850  11.597  67.180  1.00  0.00    -0.006 C  
HETATM   16  O   UNL     1     -11.726   9.427  72.412  1.00  0.00    -0.057 OA 
HETATM   17  O   UNL     1     -13.829  10.149  71.482  1.00  0.00    -0.111 OA 
ENDROOT
BRANCH   7  18
HETATM   18  C   UNL     1      -8.554   9.195  68.111  1.00  0.00    -0.129 A  
HETATM   19  O   UNL     1      -6.086   5.918  67.305  1.00  0.00    -0.017 OA 
HETATM   20  C   UNL     1      -6.953   6.925  67.638  1.00  0.00    -0.083 A  
HETATM   21  C   UNL     1      -7.168   7.339  68.956  1.00  0.00    -0.089 A  
HETATM   22  C   UNL     1      -8.439   8.667  66.823  1.00  0.00    -0.117 A  
HETATM   23  H   UNL     1      -5.939   5.637  66.409  1.00  0.00     0.000 HD 
HETATM   24  C   UNL     1      -7.976   8.470  69.171  1.00  0.00    -0.112 A  
HETATM   25  C   UNL     1      -7.626   7.556  66.573  1.00  0.00    -0.089 A  
BRANCH  21  26
HETATM   26  O   UNL     1      -6.681   6.821  70.122  1.00  0.00    -0.049 OA 
HETATM   27  C   UNL     1      -7.015   7.408  71.369  1.00  0.00    -0.055 C  
ENDBRANCH  21  26
BRANCH  25  28
HETATM   28  O   UNL     1      -7.374   7.077  65.311  1.00  0.00    -0.070 OA 
HETATM   29  C   UNL     1      -7.847   7.869  64.228  1.00  0.00    -0.136 C  
ENDBRANCH  25  28
ENDBRANCH   7  18
BRANCH  15  30
HETATM   30  O   UNL     1     -11.892  13.014  67.067  1.00  0.00    -0.367 OA 
BRANCH  30  31
HETATM   31  C   UNL     1     -10.686  13.810  67.015  1.00  0.00    -0.283 C  
HETATM   32  O   UNL     1     -10.045  14.014  68.296  1.00  0.00    -0.232 OA 
HETATM   33  C   UNL     1      -9.010  15.023  68.219  1.00  0.00    -0.174 C  
HETATM   34  C   UNL     1      -8.130  15.150  69.473  1.00  0.00    -0.167 C  
HETATM   35  O   UNL     1      -7.228  16.271  69.359  1.00  0.00    -0.225 OA 
HETATM   36  C   UNL     1      -7.955  17.491  69.195  1.00  0.00     0.014 C  
HETATM   37  H   UNL     1     -11.613  15.767  64.540  1.00  0.00     0.000 HD 
HETATM   38  O   UNL     1      -8.717  17.450  67.997  1.00  0.00    -0.229 OA 
HETATM   39  C   UNL     1      -9.660  16.382  67.991  1.00  0.00    -0.226 C  
HETATM   40  H   UNL     1     -11.423  17.578  65.570  1.00  0.00     0.000 HD 
HETATM   41  O   UNL     1     -11.322  14.955  64.937  1.00  0.00    -0.381 OA 
HETATM   42  C   UNL     1     -10.279  16.373  66.605  1.00  0.00    -0.294 C  
HETATM   43  C   UNL     1     -11.167  15.150  66.360  1.00  0.00    -0.277 C  
HETATM   44  O   UNL     1     -11.036  17.583  66.437  1.00  0.00    -0.018 OA 
BRANCH  36  45
HETATM   45  C   UNL     1      -6.998  18.640  68.989  1.00  0.00    -0.281 A  
HETATM   46  S   UNL     1      -7.043  19.509  67.500  1.00  0.00    -0.219 SA 
HETATM   47  C   UNL     1      -5.189  20.121  69.160  1.00  0.00    -0.232 A  
HETATM   48  C   UNL     1      -5.962  19.098  69.787  1.00  0.00    -0.281 A  
HETATM   49  C   UNL     1      -5.661  20.432  67.904  1.00  0.00    -0.216 A  
ENDBRANCH  36  45
ENDBRANCH  30  31
ENDBRANCH  15  30
TORSDOF 6
ENDMDL
MODEL       71
REMARK 921   NORMALIZED FREE ENERGY PREDICTED BY IDOCK:   -3.04 KCAL/MOL
REMARK 922        TOTAL FREE ENERGY PREDICTED BY IDOCK:   -6.12 KCAL/MOL
REMARK 923 INTER-LIGAND FREE ENERGY PREDICTED BY IDOCK:   -6.94 KCAL/MOL
REMARK 924 INTRA-LIGAND FREE ENERGY PREDICTED BY IDOCK:    0.82 KCAL/MOL
REMARK 927      BINDING AFFINITY PREDICTED BY RF-SCORE:    0.00 PKD
ROOT
HETATM    1  C   UNL     1     -10.371   7.630  72.218  1.00  0.00    -0.277 C  
HETATM    2  C   UNL     1     -11.369   7.340  73.303  1.00  0.00    -0.015 C  
HETATM    3  O   UNL     1     -11.330   5.904  73.443  1.00  0.00    -0.124 OA 
HETATM    4  C   UNL     1     -10.943   5.345  72.245  1.00  0.00    -0.216 C  
HETATM    5  C   UNL     1     -10.630   6.453  71.272  1.00  0.00    -0.275 C  
HETATM    6  O   UNL     1     -10.958   4.148  72.019  1.00  0.00     0.206 OA 
HETATM    7  C   UNL     1      -9.480   6.264  70.278  1.00  0.00    -0.173 C  
HETATM    8  C   UNL     1      -9.059   7.632  69.712  1.00  0.00    -0.147 A  
HETATM    9  C   UNL     1      -9.505   8.884  70.273  1.00  0.00    -0.212 A  
HETATM   10  C   UNL     1      -8.159   7.628  68.626  1.00  0.00    -0.127 A  
HETATM   11  C   UNL     1      -6.544  10.421  67.251  1.00  0.00    -0.068 C  
HETATM   12  C   UNL     1      -7.680   8.834  68.167  1.00  0.00    -0.101 A  
HETATM   13  C   UNL     1      -8.993  10.087  69.747  1.00  0.00    -0.209 A  
HETATM   14  C   UNL     1      -8.082  10.025  68.715  1.00  0.00    -0.106 A  
HETATM   15  C   UNL     1     -10.438   8.981  71.489  1.00  0.00    -0.339 C  
HETATM   16  O   UNL     1      -6.759   8.998  67.181  1.00  0.00    -0.064 OA 
HETATM   17  O   UNL     1      -7.457  11.093  68.147  1.00  0.00    -0.086 OA 
ENDROOT
BRANCH   7  18
HETATM   18  C   UNL     1      -8.317   5.432  70.852  1.00  0.00    -0.118 A  
HETATM   19  O   UNL     1      -5.928   2.715  72.948  1.00  0.00    -0.008 OA 
HETATM   20  C   UNL     1      -6.639   3.594  72.174  1.00  0.00    -0.015 A  
HETATM   21  C   UNL     1      -7.155   3.258  70.919  1.00  0.00    -0.033 A  
HETATM   22  C   UNL     1      -7.667   5.792  72.034  1.00  0.00    -0.102 A  
HETATM   23  H   UNL     1      -5.578   2.943  73.802  1.00  0.00     0.000 HD 
HETATM   24  C   UNL     1      -7.985   4.192  70.272  1.00  0.00    -0.051 A  
HETATM   25  C   UNL     1      -6.853   4.879  72.713  1.00  0.00    -0.071 A  
BRANCH  21  26
HETATM   26  O   UNL     1      -7.003   2.111  70.194  1.00  0.00    -0.033 OA 
HETATM   27  C   UNL     1      -7.376   2.065  68.826  1.00  0.00    -0.043 C  
ENDBRANCH  21  26
BRANCH  25  28
HETATM   28  O   UNL     1      -6.297   5.135  73.942  1.00  0.00    -0.061 OA 
HETATM   29  C   UNL     1      -6.539   6.426  74.489  1.00  0.00    -0.085 C  
ENDBRANCH  25  28
ENDBRANCH   7  18
BRANCH  15  30
HETATM   30  O   UNL     1     -11.800   9.250  71.180  1.00  0.00    -0.290 OA 
BRANCH  30  31
HETATM   31  C   UNL     1     -12.175  10.135  70.100  1.00  0.00    -0.116 C  
HETATM   32  O   UNL     1     -11.275  10.115  68.967  1.00  0.00    -0.223 OA 
HETATM   33  C   UNL     1     -11.552  11.200  68.047  1.00  0.00    -0.263 C  
HETATM   34  C   UNL     1     -10.795  11.130  66.712  1.00  0.00    -0.268 C  
HETATM   35  O   UNL     1     -11.022  12.320  65.928  1.00  0.00    -0.280 OA 
HETATM   36  C   UNL     1     -10.582  13.483  66.633  1.00  0.00    -0.280 C  
HETATM   37  H   UNL     1     -13.511  12.490  71.967  1.00  0.00     0.000 HD 
HETATM   38  O   UNL     1     -11.320  13.635  67.837  1.00  0.00    -0.267 OA 
HETATM   39  C   UNL     1     -11.169  12.518  68.709  1.00  0.00    -0.273 C  
HETATM   40  H   UNL     1     -12.277  14.050  71.322  1.00  0.00     0.000 HD 
HETATM   41  O   UNL     1     -13.470  11.638  71.548  1.00  0.00    -0.142 OA 
HETATM   42  C   UNL     1     -12.125  12.752  69.865  1.00  0.00    -0.259 C  
HETATM   43  C   UNL     1     -12.242  11.539  70.792  1.00  0.00    -0.363 C  
HETATM   44  O   UNL     1     -11.679  13.904  70.599  1.00  0.00    -0.246 OA 
BRANCH  36  45
HETATM   45  C   UNL     1     -10.906  14.724  65.838  1.00  0.00    -0.330 A  
HETATM   46  S   UNL     1     -12.179  14.663  64.675  1.00  0.00    -0.369 SA 
HETATM   47  C   UNL     1     -10.802  16.820  64.793  1.00  0.00     0.002 A  
HETATM   48  C   UNL     1     -10.272  15.955  65.798  1.00  0.00    -0.389 A  
HETATM   49  C   UNL     1     -11.837  16.236  64.098  1.00  0.00     0.368 A  
ENDBRANCH  36  45
ENDBRANCH  30  31
ENDBRANCH  15  30
TORSDOF 6
ENDMDL
MODEL       72
REMARK 921   NORMALIZED FREE ENERGY PREDICTED BY IDOCK:   -2.79 KCAL/MOL
REMARK 922        TOTAL FREE ENERGY PREDICTED BY IDOCK:   -5.79 KCAL/MOL
REMARK 923 INTER-LIGAND FREE ENERGY PREDICTED BY IDOCK:   -6.06 KCAL/MOL
REMARK 924 INTRA-LIGAND FREE ENERGY PREDICTED BY IDOCK:    0.26 KCAL/MOL
REMARK 927      BINDING AFFINITY PREDICTED BY RF-SCORE:    0.00 PKD
ROOT
HETATM    1  C   UNL     1      -6.620   9.892  66.390  1.00  0.00    -0.073 C  
HETATM    2  C   UNL     1      -5.258   9.701  66.997  1.00  0.00    -0.038 C  
HETATM    3  O   UNL     1      -5.349   8.428  67.672  1.00  0.00    -0.033 OA 
HETATM    4  C   UNL     1      -6.660   8.200  68.029  1.00  0.00    -0.057 C  
HETATM    5  C   UNL     1      -7.508   9.331  67.504  1.00  0.00    -0.088 C  
HETATM    6  O   UNL     1      -7.020   7.275  68.735  1.00  0.00    -0.073 OA 
HETATM    7  C   UNL     1      -8.921   9.024  66.998  1.00  0.00    -0.144 C  
HETATM    8  C   UNL     1      -9.419  10.190  66.125  1.00  0.00    -0.238 A  
HETATM    9  C   UNL     1      -8.553  11.242  65.652  1.00  0.00    -0.023 A  
HETATM   10  C   UNL     1     -10.778  10.175  65.750  1.00  0.00     0.115 A  
HETATM   11  C   UNL     1     -12.322  12.313  63.436  1.00  0.00    -0.517 C  
HETATM   12  C   UNL     1     -11.229  11.144  64.883  1.00  0.00     0.043 A  
HETATM   13  C   UNL     1      -9.078  12.217  64.781  1.00  0.00     0.589 A  
HETATM   14  C   UNL     1     -10.403  12.131  64.410  1.00  0.00    -0.319 A  
HETATM   15  C   UNL     1      -7.051  11.304  65.965  1.00  0.00     0.143 C  
HETATM   16  O   UNL     1     -12.486  11.229  64.371  1.00  0.00     0.353 OA 
HETATM   17  O   UNL     1     -11.034  12.959  63.533  1.00  0.00    -0.370 OA 
ENDROOT
BRANCH   7  18
HETATM   18  C   UNL     1      -9.036   7.641  66.329  1.00  0.00    -0.203 A  
HETATM   19  O   UNL     1      -8.475   3.697  65.058  1.00  0.00    -0.103 OA 
HETATM   20  C   UNL     1      -8.770   4.970  65.470  1.00  0.00    -0.143 A  
HETATM   21  C   UNL     1      -9.556   5.244  66.592  1.00  0.00    -0.152 A  
HETATM   22  C   UNL     1      -8.383   7.345  65.131  1.00  0.00    -0.085 A  
HETATM   23  H   UNL     1      -7.940   3.510  64.295  1.00  0.00     0.000 HD 
HETATM   24  C   UNL     1      -9.682   6.585  67.001  1.00  0.00    -0.188 A  
HETATM   25  C   UNL     1      -8.222   6.022  64.708  1.00  0.00    -0.123 A  
BRANCH  21  26
HETATM   26  O   UNL     1     -10.232   4.387  67.413  1.00  0.00    -0.084 OA 
HETATM   27  C   UNL     1      -9.860   4.245  68.774  1.00  0.00    -0.050 C  
ENDBRANCH  21  26
BRANCH  25  28
HETATM   28  O   UNL     1      -7.479   5.668  63.609  1.00  0.00    -0.054 OA 
HETATM   29  C   UNL     1      -8.173   5.602  62.369  1.00  0.00    -0.106 C  
ENDBRANCH  25  28
ENDBRANCH   7  18
BRANCH  15  30
HETATM   30  O   UNL     1      -6.691  12.209  67.003  1.00  0.00    -0.140 OA 
BRANCH  30  31
HETATM   31  C   UNL     1      -7.554  12.445  68.139  1.00  0.00    -0.129 C  
HETATM   32  O   UNL     1      -8.954  12.173  67.897  1.00  0.00    -0.169 OA 
HETATM   33  C   UNL     1      -9.788  12.675  68.970  1.00  0.00     0.297 C  
HETATM   34  C   UNL     1     -11.260  12.240  68.908  1.00  0.00    -0.273 C  
HETATM   35  O   UNL     1     -12.037  12.903  69.928  1.00  0.00    -0.309 OA 
HETATM   36  C   UNL     1     -11.980  14.323  69.766  1.00  0.00    -0.339 C  
HETATM   37  H   UNL     1      -5.859  14.965  69.401  1.00  0.00     0.000 HD 
HETATM   38  O   UNL     1     -10.643  14.778  69.903  1.00  0.00    -0.176 OA 
HETATM   39  C   UNL     1      -9.770  14.198  68.938  1.00  0.00    -0.080 C  
HETATM   40  H   UNL     1      -7.415  16.362  69.350  1.00  0.00     0.000 HD 
HETATM   41  O   UNL     1      -6.023  14.054  69.188  1.00  0.00    -0.084 OA 
HETATM   42  C   UNL     1      -8.369  14.654  69.305  1.00  0.00     0.015 C  
HETATM   43  C   UNL     1      -7.283  13.948  68.489  1.00  0.00    -0.107 C  
HETATM   44  O   UNL     1      -8.291  16.077  69.121  1.00  0.00    -0.231 OA 
BRANCH  36  45
HETATM   45  C   UNL     1     -12.724  15.002  70.889  1.00  0.00    -0.375 A  
HETATM   46  S   UNL     1     -11.826  15.666  72.204  1.00  0.00    -0.518 SA 
HETATM   47  C   UNL     1     -14.381  15.708  72.390  1.00  0.00    -0.420 A  
HETATM   48  C   UNL     1     -14.084  15.118  71.124  1.00  0.00    -0.463 A  
HETATM   49  C   UNL     1     -13.242  16.042  73.087  1.00  0.00    -0.537 A  
ENDBRANCH  36  45
ENDBRANCH  30  31
ENDBRANCH  15  30
TORSDOF 6
ENDMDL
MODEL       73
REMARK 921   NORMALIZED FREE ENERGY PREDICTED BY IDOCK:   -2.77 KCAL/MOL
REMARK 922        TOTAL FREE ENERGY PREDICTED BY IDOCK:   -5.77 KCAL/MOL
REMARK 923 INTER-LIGAND FREE ENERGY PREDICTED BY IDOCK:   -5.57 KCAL/MOL
REMARK 924 INTRA-LIGAND FREE ENERGY PREDICTED BY IDOCK:   -0.20 KCAL/MOL
REMARK 927      BINDING AFFINITY PREDICTED BY RF-SCORE:    0.00 PKD
ROOT
HETATM    1  C   UNL     1      -9.661  12.403  65.121  1.00  0.00     0.026 C  
HETATM    2  C   UNL     1     -10.525  12.385  63.892  1.00  0.00    -0.439 C  
HETATM    3  O   UNL     1     -11.264  13.623  63.963  1.00  0.00    -0.321 OA 
HETATM    4  C   UNL     1     -11.384  14.001  65.282  1.00  0.00    -0.321 C  
HETATM    5  C   UNL     1     -10.626  13.018  66.138  1.00  0.00    -0.289 C  
HETATM    6  O   UNL     1     -12.077  14.928  65.661  1.00  0.00    -0.175 OA 
HETATM    7  C   UNL     1      -9.888  13.532  67.378  1.00  0.00    -0.227 C  
HETATM    8  C   UNL     1      -8.852  12.486  67.830  1.00  0.00    -0.178 A  
HETATM    9  C   UNL     1      -8.473  11.356  67.018  1.00  0.00    -0.159 A  
HETATM   10  C   UNL     1      -8.230  12.697  69.078  1.00  0.00     0.382 A  
HETATM   11  C   UNL     1      -5.514  10.898  70.379  1.00  0.00    -0.090 C  
HETATM   12  C   UNL     1      -7.224  11.839  69.461  1.00  0.00     0.165 A  
HETATM   13  C   UNL     1      -7.449  10.503  67.473  1.00  0.00    -0.093 A  
HETATM   14  C   UNL     1      -6.842  10.779  68.680  1.00  0.00    -0.060 A  
HETATM   15  C   UNL     1      -9.057  11.083  65.624  1.00  0.00    -0.206 C  
HETATM   16  O   UNL     1      -6.480  11.945  70.594  1.00  0.00    -0.079 OA 
HETATM   17  O   UNL     1      -5.803  10.085  69.220  1.00  0.00    -0.038 OA 
ENDROOT
BRANCH   7  18
HETATM   18  C   UNL     1      -9.315  14.950  67.196  1.00  0.00    -0.227 A  
HETATM   19  O   UNL     1      -8.064  18.654  65.711  1.00  0.00    -0.479 OA 
HETATM   20  C   UNL     1      -8.498  17.493  66.295  1.00  0.00    -0.212 A  
HETATM   21  C   UNL     1      -9.777  17.346  66.839  1.00  0.00    -0.286 A  
HETATM   22  C   UNL     1      -7.998  15.165  66.784  1.00  0.00    -0.047 A  
HETATM   23  H   UNL     1      -7.195  18.754  65.341  1.00  0.00     0.000 HD 
HETATM   24  C   UNL     1     -10.163  16.071  67.290  1.00  0.00    -0.277 A  
HETATM   25  C   UNL     1      -7.589  16.416  66.310  1.00  0.00    -0.040 A  
BRANCH  21  26
HETATM   26  O   UNL     1     -10.771  18.272  66.990  1.00  0.00    -0.370 OA 
HETATM   27  C   UNL     1     -10.591  19.394  67.838  1.00  0.00    -0.385 C  
ENDBRANCH  21  26
BRANCH  25  28
HETATM   28  O   UNL     1      -6.346  16.648  65.773  1.00  0.00     0.499 OA 
HETATM   29  C   UNL     1      -5.382  17.235  66.639  1.00  0.00    -0.178 C  
ENDBRANCH  25  28
ENDBRANCH   7  18
BRANCH  15  30
HETATM   30  O   UNL     1     -10.074  10.088  65.584  1.00  0.00    -0.282 OA 
BRANCH  30  31
HETATM   31  C   UNL     1      -9.782   8.692  65.822  1.00  0.00     0.017 C  
HETATM   32  O   UNL     1      -9.775   8.309  67.217  1.00  0.00    -0.154 OA 
HETATM   33  C   UNL     1      -9.223   6.982  67.403  1.00  0.00    -0.126 C  
HETATM   34  C   UNL     1      -9.377   6.405  68.818  1.00  0.00    -0.125 C  
HETATM   35  O   UNL     1      -8.673   5.152  68.943  1.00  0.00    -0.090 OA 
HETATM   36  C   UNL     1      -7.279   5.324  68.677  1.00  0.00    -0.062 C  
HETATM   37  H   UNL     1      -7.729   8.282  63.286  1.00  0.00     0.000 HD 
HETATM   38  O   UNL     1      -7.087   5.774  67.344  1.00  0.00    -0.071 OA 
HETATM   39  C   UNL     1      -7.731   7.020  67.095  1.00  0.00    -0.108 C  
HETATM   40  H   UNL     1      -6.074   7.660  64.404  1.00  0.00     0.000 HD 
HETATM   41  O   UNL     1      -8.574   8.403  63.703  1.00  0.00    -0.043 OA 
HETATM   42  C   UNL     1      -7.570   7.290  65.610  1.00  0.00    -0.089 C  
HETATM   43  C   UNL     1      -8.389   8.493  65.133  1.00  0.00    -0.169 C  
HETATM   44  O   UNL     1      -6.175   7.491  65.333  1.00  0.00    -0.038 OA 
BRANCH  36  45
HETATM   45  C   UNL     1      -6.575   3.990  68.726  1.00  0.00    -0.045 A  
HETATM   46  S   UNL     1      -6.591   3.089  70.197  1.00  0.00    -0.033 SA 
HETATM   47  C   UNL     1      -5.174   2.166  68.272  1.00  0.00    -0.012 A  
HETATM   48  C   UNL     1      -5.788   3.356  67.778  1.00  0.00    -0.023 A  
HETATM   49  C   UNL     1      -5.516   1.910  69.581  1.00  0.00    -0.013 A  
ENDBRANCH  36  45
ENDBRANCH  30  31
ENDBRANCH  15  30
TORSDOF 6
ENDMDL
MODEL       74
REMARK 921   NORMALIZED FREE ENERGY PREDICTED BY IDOCK:   -2.77 KCAL/MOL
REMARK 922        TOTAL FREE ENERGY PREDICTED BY IDOCK:   -5.76 KCAL/MOL
REMARK 923 INTER-LIGAND FREE ENERGY PREDICTED BY IDOCK:   -8.16 KCAL/MOL
REMARK 924 INTRA-LIGAND FREE ENERGY PREDICTED BY IDOCK:    2.40 KCAL/MOL
REMARK 927      BINDING AFFINITY PREDICTED BY RF-SCORE:    0.00 PKD
ROOT
HETATM    1  C   UNL     1      -8.970  11.815  67.647  1.00  0.00    -0.169 C  
HETATM    2  C   UNL     1      -9.463  10.412  67.429  1.00  0.00    -0.149 C  
HETATM    3  O   UNL     1     -10.791  10.586  66.892  1.00  0.00    -0.250 OA 
HETATM    4  C   UNL     1     -11.305  11.784  67.339  1.00  0.00    -0.311 C  
HETATM    5  C   UNL     1     -10.249  12.491  68.149  1.00  0.00    -0.231 C  
HETATM    6  O   UNL     1     -12.458  12.134  67.165  1.00  0.00    -0.096 OA 
HETATM    7  C   UNL     1     -10.150  14.017  68.067  1.00  0.00    -0.239 C  
HETATM    8  C   UNL     1      -8.777  14.473  68.593  1.00  0.00    -0.172 A  
HETATM    9  C   UNL     1      -7.688  13.560  68.838  1.00  0.00     0.030 A  
HETATM   10  C   UNL     1      -8.593  15.857  68.789  1.00  0.00    -0.212 A  
HETATM   11  C   UNL     1      -5.567  17.468  69.536  1.00  0.00    -0.212 C  
HETATM   12  C   UNL     1      -7.344  16.307  69.156  1.00  0.00    -0.218 A  
HETATM   13  C   UNL     1      -6.439  14.079  69.230  1.00  0.00    -0.114 A  
HETATM   14  C   UNL     1      -6.299  15.444  69.365  1.00  0.00    -0.134 A  
HETATM   15  C   UNL     1      -7.784  12.046  68.596  1.00  0.00    -0.099 C  
HETATM   16  O   UNL     1      -6.984  17.608  69.316  1.00  0.00    -0.243 OA 
HETATM   17  O   UNL     1      -5.145  16.094  69.676  1.00  0.00    -0.111 OA 
ENDROOT
BRANCH   7  18
HETATM   18  C   UNL     1     -10.509  14.572  66.675  1.00  0.00    -0.274 A  
HETATM   19  O   UNL     1     -12.426  16.195  63.332  1.00  0.00    -0.342 OA 
HETATM   20  C   UNL     1     -11.704  15.717  64.394  1.00  0.00    -0.201 A  
HETATM   21  C   UNL     1     -11.045  16.550  65.303  1.00  0.00    -0.076 A  
HETATM   22  C   UNL     1     -11.045  13.759  65.674  1.00  0.00    -0.297 A  
HETATM   23  H   UNL     1     -12.874  15.629  62.714  1.00  0.00     0.000 HD 
HETATM   24  C   UNL     1     -10.449  15.958  66.431  1.00  0.00    -0.311 A  
HETATM   25  C   UNL     1     -11.664  14.317  64.551  1.00  0.00    -0.418 A  
BRANCH  21  26
HETATM   26  O   UNL     1     -10.899  17.908  65.292  1.00  0.00    -0.614 OA 
HETATM   27  C   UNL     1      -9.717  18.512  65.792  1.00  0.00     0.256 C  
ENDBRANCH  21  26
BRANCH  25  28
HETATM   28  O   UNL     1     -12.321  13.569  63.604  1.00  0.00    -0.687 OA 
HETATM   29  C   UNL     1     -11.902  12.217  63.464  1.00  0.00    -0.514 C  
ENDBRANCH  25  28
ENDBRANCH   7  18
BRANCH  15  30
HETATM   30  O   UNL     1      -7.995  11.264  69.766  1.00  0.00     0.332 OA 
BRANCH  30  31
HETATM   31  C   UNL     1      -7.699   9.849  69.799  1.00  0.00    -0.155 C  
HETATM   32  O   UNL     1      -7.127   9.326  68.578  1.00  0.00    -0.070 OA 
HETATM   33  C   UNL     1      -7.103   7.877  68.579  1.00  0.00    -0.076 C  
HETATM   34  C   UNL     1      -6.316   7.239  67.424  1.00  0.00    -0.054 C  
HETATM   35  O   UNL     1      -6.469   5.804  67.427  1.00  0.00    -0.040 OA 
HETATM   36  C   UNL     1      -7.845   5.441  67.288  1.00  0.00    -0.101 C  
HETATM   37  H   UNL     1     -10.187   8.975  71.765  1.00  0.00     0.000 HD 
HETATM   38  O   UNL     1      -8.596   5.939  68.386  1.00  0.00    -0.114 OA 
HETATM   39  C   UNL     1      -8.532   7.359  68.486  1.00  0.00    -0.125 C  
HETATM   40  H   UNL     1     -11.078   7.616  70.449  1.00  0.00     0.000 HD 
HETATM   41  O   UNL     1      -9.348   9.368  71.555  1.00  0.00    -0.271 OA 
HETATM   42  C   UNL     1      -9.243   7.723  69.777  1.00  0.00    -0.150 C  
HETATM   43  C   UNL     1      -9.083   9.201  70.145  1.00  0.00    -0.206 C  
HETATM   44  O   UNL     1     -10.634   7.387  69.641  1.00  0.00    -0.228 OA 
BRANCH  36  45
HETATM   45  C   UNL     1      -7.996   3.942  67.382  1.00  0.00    -0.091 A  
HETATM   46  S   UNL     1      -6.706   3.012  68.049  1.00  0.00    -0.045 SA 
HETATM   47  C   UNL     1      -8.695   1.726  67.071  1.00  0.00    -0.124 A  
HETATM   48  C   UNL     1      -9.003   3.112  66.917  1.00  0.00    -0.177 A  
HETATM   49  C   UNL     1      -7.467   1.530  67.662  1.00  0.00    -0.054 A  
ENDBRANCH  36  45
ENDBRANCH  30  31
ENDBRANCH  15  30
TORSDOF 6
ENDMDL
MODEL       75
REMARK 921   NORMALIZED FREE ENERGY PREDICTED BY IDOCK:   -2.75 KCAL/MOL
REMARK 922        TOTAL FREE ENERGY PREDICTED BY IDOCK:   -5.73 KCAL/MOL
REMARK 923 INTER-LIGAND FREE ENERGY PREDICTED BY IDOCK:   -6.22 KCAL/MOL
REMARK 924 INTRA-LIGAND FREE ENERGY PREDICTED BY IDOCK:    0.49 KCAL/MOL
REMARK 927      BINDING AFFINITY PREDICTED BY RF-SCORE:    0.00 PKD
ROOT
HETATM    1  C   UNL     1     -10.337   6.846  69.733  1.00  0.00    -0.224 C  
HETATM    2  C   UNL     1     -11.632   6.493  69.057  1.00  0.00     0.046 C  
HETATM    3  O   UNL     1     -11.257   6.246  67.685  1.00  0.00    -0.327 OA 
HETATM    4  C   UNL     1     -10.123   6.970  67.390  1.00  0.00    -0.195 C  
HETATM    5  C   UNL     1      -9.663   7.679  68.639  1.00  0.00    -0.157 C  
HETATM    6  O   UNL     1      -9.655   7.071  66.271  1.00  0.00    -0.137 OA 
HETATM    7  C   UNL     1      -8.161   7.833  68.893  1.00  0.00    -0.126 C  
HETATM    8  C   UNL     1      -7.921   8.166  70.376  1.00  0.00    -0.099 A  
HETATM    9  C   UNL     1      -8.948   8.054  71.382  1.00  0.00    -0.173 A  
HETATM   10  C   UNL     1      -6.615   8.552  70.744  1.00  0.00    -0.041 A  
HETATM   11  C   UNL     1      -5.418   8.987  74.013  1.00  0.00    -0.113 C  
HETATM   12  C   UNL     1      -6.343   8.752  72.079  1.00  0.00    -0.068 A  
HETATM   13  C   UNL     1      -8.613   8.290  72.729  1.00  0.00    -0.270 A  
HETATM   14  C   UNL     1      -7.311   8.620  73.041  1.00  0.00     0.103 A  
HETATM   15  C   UNL     1     -10.380   7.587  71.078  1.00  0.00    -0.199 C  
HETATM   16  O   UNL     1      -5.126   9.056  72.604  1.00  0.00    -0.053 OA 
HETATM   17  O   UNL     1      -6.824   8.817  74.296  1.00  0.00    -0.305 OA 
ENDROOT
BRANCH   7  18
HETATM   18  C   UNL     1      -7.334   6.642  68.372  1.00  0.00    -0.087 A  
HETATM   19  O   UNL     1      -5.943   3.243  66.372  1.00  0.00    -0.022 OA 
HETATM   20  C   UNL     1      -6.292   4.395  67.026  1.00  0.00    -0.040 A  
HETATM   21  C   UNL     1      -6.035   5.670  66.515  1.00  0.00    -0.018 A  
HETATM   22  C   UNL     1      -7.445   5.367  68.932  1.00  0.00    -0.075 A  
HETATM   23  H   UNL     1      -6.118   2.376  66.720  1.00  0.00     0.000 HD 
HETATM   24  C   UNL     1      -6.558   6.779  67.204  1.00  0.00    -0.047 A  
HETATM   25  C   UNL     1      -6.955   4.242  68.261  1.00  0.00    -0.052 A  
BRANCH  21  26
HETATM   26  O   UNL     1      -5.352   6.035  65.389  1.00  0.00    -0.013 OA 
HETATM   27  C   UNL     1      -5.588   7.292  64.776  1.00  0.00    -0.033 C  
ENDBRANCH  21  26
BRANCH  25  28
HETATM   28  O   UNL     1      -7.151   2.957  68.703  1.00  0.00    -0.047 OA 
HETATM   29  C   UNL     1      -6.512   2.603  69.924  1.00  0.00    -0.029 C  
ENDBRANCH  25  28
ENDBRANCH   7  18
BRANCH  15  30
HETATM   30  O   UNL     1     -11.342   8.630  70.979  1.00  0.00    -0.259 OA 
BRANCH  30  31
HETATM   31  C   UNL     1     -11.284   9.622  69.928  1.00  0.00    -0.207 C  
HETATM   32  O   UNL     1      -9.966  10.168  69.690  1.00  0.00    -0.223 OA 
HETATM   33  C   UNL     1     -10.019  11.329  68.826  1.00  0.00    -0.193 C  
HETATM   34  C   UNL     1      -8.654  11.843  68.341  1.00  0.00    -0.152 C  
HETATM   35  O   UNL     1      -8.798  13.079  67.610  1.00  0.00    -0.169 OA 
HETATM   36  C   UNL     1      -9.392  14.087  68.432  1.00  0.00    -0.210 C  
HETATM   37  H   UNL     1     -14.276  10.894  70.425  1.00  0.00     0.000 HD 
HETATM   38  O   UNL     1     -10.695  13.689  68.831  1.00  0.00    -0.245 OA 
HETATM   39  C   UNL     1     -10.687  12.475  69.576  1.00  0.00     0.303 C  
HETATM   40  H   UNL     1     -13.655  12.860  70.777  1.00  0.00     0.000 HD 
HETATM   41  O   UNL     1     -13.653  10.237  70.139  1.00  0.00     0.185 OA 
HETATM   42  C   UNL     1     -12.142  12.102  69.794  1.00  0.00    -0.237 C  
HETATM   43  C   UNL     1     -12.312  10.706  70.401  1.00  0.00    -0.343 C  
HETATM   44  O   UNL     1     -12.744  13.094  70.641  1.00  0.00    -0.235 OA 
BRANCH  36  45
HETATM   45  C   UNL     1      -9.616  15.344  67.627  1.00  0.00    -0.210 A  
HETATM   46  S   UNL     1      -9.378  16.875  68.386  1.00  0.00    -0.262 SA 
HETATM   47  C   UNL     1     -10.306  16.881  65.997  1.00  0.00    -0.335 A  
HETATM   48  C   UNL     1     -10.097  15.511  66.339  1.00  0.00    -0.301 A  
HETATM   49  C   UNL     1      -9.968  17.731  67.027  1.00  0.00    -0.322 A  
ENDBRANCH  36  45
ENDBRANCH  30  31
ENDBRANCH  15  30
TORSDOF 6
ENDMDL
MODEL       76
REMARK 921   NORMALIZED FREE ENERGY PREDICTED BY IDOCK:   -2.46 KCAL/MOL
REMARK 922        TOTAL FREE ENERGY PREDICTED BY IDOCK:   -5.34 KCAL/MOL
REMARK 923 INTER-LIGAND FREE ENERGY PREDICTED BY IDOCK:   -7.15 KCAL/MOL
REMARK 924 INTRA-LIGAND FREE ENERGY PREDICTED BY IDOCK:    1.81 KCAL/MOL
REMARK 927      BINDING AFFINITY PREDICTED BY RF-SCORE:    0.00 PKD
ROOT
HETATM    1  C   UNL     1      -8.659   9.801  70.402  1.00  0.00    -0.099 C  
HETATM    2  C   UNL     1      -8.312   8.887  71.544  1.00  0.00    -0.098 C  
HETATM    3  O   UNL     1      -6.883   9.026  71.684  1.00  0.00    -0.191 OA 
HETATM    4  C   UNL     1      -6.343   9.377  70.466  1.00  0.00    -0.072 C  
HETATM    5  C   UNL     1      -7.464   9.563  69.475  1.00  0.00    -0.092 C  
HETATM    6  O   UNL     1      -5.146   9.426  70.244  1.00  0.00    -0.027 OA 
HETATM    7  C   UNL     1      -7.342  10.664  68.417  1.00  0.00    -0.091 C  
HETATM    8  C   UNL     1      -8.731  10.964  67.826  1.00  0.00    -0.129 A  
HETATM    9  C   UNL     1      -9.956  10.473  68.409  1.00  0.00    -0.177 A  
HETATM   10  C   UNL     1      -8.778  11.799  66.690  1.00  0.00    -0.186 A  
HETATM   11  C   UNL     1     -11.661  13.152  65.220  1.00  0.00    -0.344 C  
HETATM   12  C   UNL     1     -10.010  12.173  66.202  1.00  0.00    -0.233 A  
HETATM   13  C   UNL     1     -11.185  10.876  67.853  1.00  0.00    -0.387 A  
HETATM   14  C   UNL     1     -11.177  11.729  66.770  1.00  0.00    -0.328 A  
HETATM   15  C   UNL     1      -9.999   9.607  69.677  1.00  0.00    -0.221 C  
HETATM   16  O   UNL     1     -10.227  13.024  65.165  1.00  0.00    -0.293 OA 
HETATM   17  O   UNL     1     -12.278  12.251  66.165  1.00  0.00    -0.647 OA 
ENDROOT
BRANCH   7  18
HETATM   18  C   UNL     1      -6.589  11.909  68.924  1.00  0.00    -0.087 A  
HETATM   19  O   UNL     1      -5.485  15.536  70.689  1.00  0.00    -0.151 OA 
HETATM   20  C   UNL     1      -5.743  14.309  70.137  1.00  0.00    -0.129 A  
HETATM   21  C   UNL     1      -5.628  13.113  70.850  1.00  0.00    -0.188 A  
HETATM   22  C   UNL     1      -6.552  13.097  68.191  1.00  0.00    -0.107 A  
HETATM   23  H   UNL     1      -5.563  16.349  70.204  1.00  0.00     0.000 HD 
HETATM   24  C   UNL     1      -6.049  11.925  70.225  1.00  0.00    -0.103 A  
HETATM   25  C   UNL     1      -6.159  14.298  68.790  1.00  0.00    -0.085 A  
BRANCH  21  26
HETATM   26  O   UNL     1      -5.179  12.897  72.123  1.00  0.00    -0.353 OA 
HETATM   27  C   UNL     1      -5.216  13.936  73.088  1.00  0.00    -0.211 C  
ENDBRANCH  21  26
BRANCH  25  28
HETATM   28  O   UNL     1      -6.228  15.513  68.154  1.00  0.00    -0.110 OA 
HETATM   29  C   UNL     1      -7.288  15.680  67.220  1.00  0.00    -0.220 C  
ENDBRANCH  25  28
ENDBRANCH   7  18
BRANCH  15  30
HETATM   30  O   UNL     1     -10.180   8.214  69.446  1.00  0.00    -0.201 OA 
BRANCH  30  31
HETATM   31  C   UNL     1      -9.234   7.442  68.673  1.00  0.00    -0.143 C  
HETATM   32  O   UNL     1      -9.319   7.642  67.243  1.00  0.00    -0.137 OA 
HETATM   33  C   UNL     1      -8.541   6.658  66.519  1.00  0.00    -0.124 C  
HETATM   34  C   UNL     1      -8.394   6.924  65.013  1.00  0.00    -0.049 C  
HETATM   35  O   UNL     1      -7.732   5.822  64.357  1.00  0.00    -0.086 OA 
HETATM   36  C   UNL     1      -8.472   4.611  64.530  1.00  0.00    -0.136 C  
HETATM   37  H   UNL     1      -9.160   4.817  70.653  1.00  0.00     0.000 HD 
HETATM   38  O   UNL     1      -8.556   4.281  65.908  1.00  0.00    -0.113 OA 
HETATM   39  C   UNL     1      -9.205   5.295  66.670  1.00  0.00    -0.130 C  
HETATM   40  H   UNL     1      -9.765   3.412  69.227  1.00  0.00     0.000 HD 
HETATM   41  O   UNL     1      -8.972   5.712  70.397  1.00  0.00    -0.136 OA 
HETATM   42  C   UNL     1      -9.081   4.877  68.124  1.00  0.00    -0.114 C  
HETATM   43  C   UNL     1      -9.545   5.965  69.095  1.00  0.00    -0.136 C  
HETATM   44  O   UNL     1      -9.843   3.674  68.317  1.00  0.00    -0.073 OA 
BRANCH  36  45
HETATM   45  C   UNL     1      -7.722   3.455  63.914  1.00  0.00    -0.079 A  
HETATM   46  S   UNL     1      -6.983   2.291  64.951  1.00  0.00    -0.049 SA 
HETATM   47  C   UNL     1      -6.553   2.062  62.435  1.00  0.00    -0.014 A  
HETATM   48  C   UNL     1      -7.418   3.187  62.589  1.00  0.00    -0.053 A  
HETATM   49  C   UNL     1      -6.226   1.488  63.643  1.00  0.00    -0.013 A  
ENDBRANCH  36  45
ENDBRANCH  30  31
ENDBRANCH  15  30
TORSDOF 6
ENDMDL
MODEL       77
REMARK 921   NORMALIZED FREE ENERGY PREDICTED BY IDOCK:   -2.43 KCAL/MOL
REMARK 922        TOTAL FREE ENERGY PREDICTED BY IDOCK:   -5.31 KCAL/MOL
REMARK 923 INTER-LIGAND FREE ENERGY PREDICTED BY IDOCK:   -6.83 KCAL/MOL
REMARK 924 INTRA-LIGAND FREE ENERGY PREDICTED BY IDOCK:    1.52 KCAL/MOL
REMARK 927      BINDING AFFINITY PREDICTED BY RF-SCORE:    0.00 PKD
ROOT
HETATM    1  C   UNL     1      -8.801   8.855  64.971  1.00  0.00    -0.183 C  
HETATM    2  C   UNL     1      -8.185   8.975  63.605  1.00  0.00    -0.177 C  
HETATM    3  O   UNL     1      -6.999   8.157  63.681  1.00  0.00    -0.074 OA 
HETATM    4  C   UNL     1      -6.566   8.111  64.988  1.00  0.00    -0.052 C  
HETATM    5  C   UNL     1      -7.546   8.865  65.849  1.00  0.00    -0.093 C  
HETATM    6  O   UNL     1      -5.510   7.613  65.335  1.00  0.00    -0.032 OA 
HETATM    7  C   UNL     1      -7.842   8.349  67.261  1.00  0.00    -0.098 C  
HETATM    8  C   UNL     1      -9.150   8.977  67.774  1.00  0.00    -0.143 A  
HETATM    9  C   UNL     1     -10.063   9.698  66.921  1.00  0.00    -0.290 A  
HETATM   10  C   UNL     1      -9.465   8.781  69.135  1.00  0.00    -0.157 A  
HETATM   11  C   UNL     1     -12.492   9.598  70.708  1.00  0.00    -0.169 C  
HETATM   12  C   UNL     1     -10.679   9.237  69.599  1.00  0.00    -0.230 A  
HETATM   13  C   UNL     1     -11.281  10.157  67.459  1.00  0.00    -0.123 A  
HETATM   14  C   UNL     1     -11.560   9.900  68.784  1.00  0.00     0.209 A  
HETATM   15  C   UNL     1      -9.826   9.908  65.417  1.00  0.00    -0.313 C  
HETATM   16  O   UNL     1     -11.161   9.068  70.858  1.00  0.00    -0.257 OA 
HETATM   17  O   UNL     1     -12.715  10.226  69.427  1.00  0.00     0.050 OA 
ENDROOT
BRANCH   7  18
HETATM   18  C   UNL     1      -7.796   6.813  67.364  1.00  0.00    -0.110 A  
HETATM   19  O   UNL     1      -6.656   2.817  67.835  1.00  0.00    -0.035 OA 
HETATM   20  C   UNL     1      -7.129   4.099  67.728  1.00  0.00    -0.060 A  
HETATM   21  C   UNL     1      -7.585   4.836  68.824  1.00  0.00    -0.069 A  
HETATM   22  C   UNL     1      -7.479   6.009  66.267  1.00  0.00    -0.086 A  
HETATM   23  H   UNL     1      -6.346   2.316  67.090  1.00  0.00     0.000 HD 
HETATM   24  C   UNL     1      -7.920   6.187  68.621  1.00  0.00    -0.101 A  
HETATM   25  C   UNL     1      -7.121   4.668  66.439  1.00  0.00    -0.075 A  
BRANCH  21  26
HETATM   26  O   UNL     1      -7.743   4.454  70.126  1.00  0.00    -0.049 OA 
HETATM   27  C   UNL     1      -9.020   4.087  70.622  1.00  0.00    -0.090 C  
ENDBRANCH  21  26
BRANCH  25  28
HETATM   28  O   UNL     1      -6.676   3.871  65.413  1.00  0.00    -0.049 OA 
HETATM   29  C   UNL     1      -7.670   3.354  64.537  1.00  0.00    -0.077 C  
ENDBRANCH  25  28
ENDBRANCH   7  18
BRANCH  15  30
HETATM   30  O   UNL     1      -9.326  11.192  65.063  1.00  0.00    -0.220 OA 
BRANCH  30  31
HETATM   31  C   UNL     1      -9.815  12.399  65.691  1.00  0.00    -0.222 C  
HETATM   32  O   UNL     1     -10.195  13.446  64.767  1.00  0.00    -0.360 OA 
HETATM   33  C   UNL     1     -10.419  14.704  65.449  1.00  0.00    -0.380 C  
HETATM   34  C   UNL     1     -11.037  15.813  64.583  1.00  0.00    -0.361 C  
HETATM   35  O   UNL     1     -11.087  17.062  65.304  1.00  0.00    -0.300 OA 
HETATM   36  C   UNL     1      -9.775  17.475  65.695  1.00  0.00     0.249 C  
HETATM   37  H   UNL     1      -7.922  12.240  68.375  1.00  0.00     0.000 HD 
HETATM   38  O   UNL     1      -9.200  16.516  66.570  1.00  0.00    -0.236 OA 
HETATM   39  C   UNL     1      -9.086  15.230  65.965  1.00  0.00    -0.209 C  
HETATM   40  H   UNL     1      -6.979  14.091  68.125  1.00  0.00     0.000 HD 
HETATM   41  O   UNL     1      -8.638  11.984  67.806  1.00  0.00    -0.143 OA 
HETATM   42  C   UNL     1      -8.608  14.291  67.058  1.00  0.00    -0.192 C  
HETATM   43  C   UNL     1      -8.633  12.821  66.628  1.00  0.00    -0.006 C  
HETATM   44  O   UNL     1      -7.278  14.679  67.441  1.00  0.00    -0.191 OA 
BRANCH  36  45
HETATM   45  C   UNL     1      -9.854  18.734  66.522  1.00  0.00    -0.368 A  
HETATM   46  S   UNL     1      -9.017  20.143  65.982  1.00  0.00    -0.005 SA 
HETATM   47  C   UNL     1     -10.156  20.262  68.275  1.00  0.00    -0.386 A  
HETATM   48  C   UNL     1     -10.435  18.960  67.760  1.00  0.00    -0.487 A  
HETATM   49  C   UNL     1      -9.381  21.006  67.413  1.00  0.00    -0.075 A  
ENDBRANCH  36  45
ENDBRANCH  30  31
ENDBRANCH  15  30
TORSDOF 6
ENDMDL
MODEL       78
REMARK 921   NORMALIZED FREE ENERGY PREDICTED BY IDOCK:   -2.43 KCAL/MOL
REMARK 922        TOTAL FREE ENERGY PREDICTED BY IDOCK:   -5.30 KCAL/MOL
REMARK 923 INTER-LIGAND FREE ENERGY PREDICTED BY IDOCK:   -6.35 KCAL/MOL
REMARK 924 INTRA-LIGAND FREE ENERGY PREDICTED BY IDOCK:    1.04 KCAL/MOL
REMARK 927      BINDING AFFINITY PREDICTED BY RF-SCORE:    0.00 PKD
ROOT
HETATM    1  C   UNL     1      -6.152   7.679  69.413  1.00  0.00    -0.031 C  
HETATM    2  C   UNL     1      -5.903   7.353  70.859  1.00  0.00    -0.035 C  
HETATM    3  O   UNL     1      -7.001   6.487  71.219  1.00  0.00    -0.071 OA 
HETATM    4  C   UNL     1      -8.082   6.773  70.415  1.00  0.00    -0.116 C  
HETATM    5  C   UNL     1      -7.676   7.825  69.413  1.00  0.00    -0.106 C  
HETATM    6  O   UNL     1      -9.193   6.302  70.579  1.00  0.00    -0.156 OA 
HETATM    7  C   UNL     1      -8.249   7.756  67.994  1.00  0.00    -0.123 C  
HETATM    8  C   UNL     1      -7.390   8.617  67.051  1.00  0.00    -0.080 A  
HETATM    9  C   UNL     1      -6.102   9.146  67.426  1.00  0.00    -0.054 A  
HETATM   10  C   UNL     1      -7.892   8.842  65.752  1.00  0.00    -0.099 A  
HETATM   11  C   UNL     1      -6.171  10.336  63.086  1.00  0.00    -0.140 C  
HETATM   12  C   UNL     1      -7.100   9.517  64.851  1.00  0.00    -0.107 A  
HETATM   13  C   UNL     1      -5.346   9.845  66.465  1.00  0.00    -0.044 A  
HETATM   14  C   UNL     1      -5.863   9.999  65.196  1.00  0.00    -0.101 A  
HETATM   15  C   UNL     1      -5.455   8.902  68.798  1.00  0.00    -0.040 C  
HETATM   16  O   UNL     1      -7.404   9.753  63.547  1.00  0.00    -0.114 OA 
HETATM   17  O   UNL     1      -5.228  10.593  64.150  1.00  0.00    -0.152 OA 
ENDROOT
BRANCH   7  18
HETATM   18  C   UNL     1      -8.475   6.314  67.502  1.00  0.00    -0.108 A  
HETATM   19  O   UNL     1      -9.730   2.358  66.991  1.00  0.00    -0.391 OA 
HETATM   20  C   UNL     1      -9.314   3.662  67.046  1.00  0.00    -0.198 A  
HETATM   21  C   UNL     1      -9.993   4.706  66.412  1.00  0.00    -0.245 A  
HETATM   22  C   UNL     1      -7.731   5.241  67.999  1.00  0.00    -0.084 A  
HETATM   23  H   UNL     1      -9.268   1.648  67.423  1.00  0.00     0.000 HD 
HETATM   24  C   UNL     1      -9.555   6.021  66.647  1.00  0.00    -0.179 A  
HETATM   25  C   UNL     1      -8.152   3.922  67.801  1.00  0.00    -0.089 A  
BRANCH  21  26
HETATM   26  O   UNL     1     -11.080   4.662  65.584  1.00  0.00    -0.182 OA 
HETATM   27  C   UNL     1     -10.985   4.073  64.297  1.00  0.00    -0.020 C  
ENDBRANCH  21  26
BRANCH  25  28
HETATM   28  O   UNL     1      -7.532   2.840  68.376  1.00  0.00    -0.048 OA 
HETATM   29  C   UNL     1      -6.576   3.124  69.389  1.00  0.00    -0.033 C  
ENDBRANCH  25  28
ENDBRANCH   7  18
BRANCH  15  30
HETATM   30  O   UNL     1      -5.568   9.984  69.715  1.00  0.00    -0.037 OA 
BRANCH  30  31
HETATM   31  C   UNL     1      -6.613  10.976  69.597  1.00  0.00    -0.132 C  
HETATM   32  O   UNL     1      -7.152  11.126  68.263  1.00  0.00    -0.068 OA 
HETATM   33  C   UNL     1      -7.993  12.301  68.156  1.00  0.00    -0.155 C  
HETATM   34  C   UNL     1      -8.782  12.420  66.843  1.00  0.00    -0.191 C  
HETATM   35  O   UNL     1      -9.472  13.685  66.769  1.00  0.00    -0.254 OA 
HETATM   36  C   UNL     1      -8.546  14.772  66.838  1.00  0.00    -0.224 C  
HETATM   37  H   UNL     1      -5.457  13.037  71.884  1.00  0.00     0.000 HD 
HETATM   38  O   UNL     1      -7.855  14.750  68.078  1.00  0.00    -0.115 OA 
HETATM   39  C   UNL     1      -7.120  13.544  68.268  1.00  0.00    -0.110 C  
HETATM   40  H   UNL     1      -5.275  14.710  70.642  1.00  0.00     0.000 HD 
HETATM   41  O   UNL     1      -5.872  12.244  71.566  1.00  0.00    -0.283 OA 
HETATM   42  C   UNL     1      -6.572  13.602  69.682  1.00  0.00    -0.040 C  
HETATM   43  C   UNL     1      -5.929  12.284  70.123  1.00  0.00    -0.148 C  
HETATM   44  O   UNL     1      -5.619  14.675  69.758  1.00  0.00    -0.094 OA 
BRANCH  36  45
HETATM   45  C   UNL     1      -9.289  16.085  66.848  1.00  0.00    -0.228 A  
HETATM   46  S   UNL     1      -9.404  16.970  68.324  1.00  0.00    -0.262 SA 
HETATM   47  C   UNL     1     -10.706  17.875  66.311  1.00  0.00    -0.120 A  
HETATM   48  C   UNL     1     -10.024  16.708  65.851  1.00  0.00    -0.320 A  
HETATM   49  C   UNL     1     -10.466  18.125  67.644  1.00  0.00    -0.416 A  
ENDBRANCH  36  45
ENDBRANCH  30  31
ENDBRANCH  15  30
TORSDOF 6
ENDMDL
MODEL       79
REMARK 921   NORMALIZED FREE ENERGY PREDICTED BY IDOCK:   -2.23 KCAL/MOL
REMARK 922        TOTAL FREE ENERGY PREDICTED BY IDOCK:   -5.03 KCAL/MOL
REMARK 923 INTER-LIGAND FREE ENERGY PREDICTED BY IDOCK:   -5.54 KCAL/MOL
REMARK 924 INTRA-LIGAND FREE ENERGY PREDICTED BY IDOCK:    0.51 KCAL/MOL
REMARK 927      BINDING AFFINITY PREDICTED BY RF-SCORE:    0.00 PKD
ROOT
HETATM    1  C   UNL     1      -8.582   6.955  66.623  1.00  0.00    -0.124 C  
HETATM    2  C   UNL     1      -7.913   6.141  65.551  1.00  0.00    -0.117 C  
HETATM    3  O   UNL     1      -6.801   5.516  66.227  1.00  0.00    -0.056 OA 
HETATM    4  C   UNL     1      -6.418   6.306  67.289  1.00  0.00    -0.049 C  
HETATM    5  C   UNL     1      -7.361   7.478  67.386  1.00  0.00    -0.099 C  
HETATM    6  O   UNL     1      -5.418   6.106  67.956  1.00  0.00    -0.004 OA 
HETATM    7  C   UNL     1      -7.746   8.006  68.772  1.00  0.00    -0.108 C  
HETATM    8  C   UNL     1      -9.014   8.870  68.659  1.00  0.00    -0.137 A  
HETATM    9  C   UNL     1      -9.835   8.908  67.473  1.00  0.00    -0.237 A  
HETATM   10  C   UNL     1      -9.390   9.611  69.799  1.00  0.00    -0.238 A  
HETATM   11  C   UNL     1     -12.390  11.374  70.239  1.00  0.00    -0.297 C  
HETATM   12  C   UNL     1     -10.576  10.308  69.765  1.00  0.00    -0.271 A  
HETATM   13  C   UNL     1     -11.028   9.656  67.494  1.00  0.00    -0.166 A  
HETATM   14  C   UNL     1     -11.372  10.325  68.649  1.00  0.00    -0.166 A  
HETATM   15  C   UNL     1      -9.532   8.089  66.209  1.00  0.00    -0.172 C  
HETATM   16  O   UNL     1     -11.113  11.010  70.798  1.00  0.00     0.173 OA 
HETATM   17  O   UNL     1     -12.517  11.036  68.841  1.00  0.00    -0.460 OA 
ENDROOT
BRANCH   7  18
HETATM   18  C   UNL     1      -7.829   6.898  69.839  1.00  0.00    -0.115 A  
HETATM   19  O   UNL     1      -8.838   4.483  73.101  1.00  0.00    -0.110 OA 
HETATM   20  C   UNL     1      -8.482   5.180  71.976  1.00  0.00    -0.126 A  
HETATM   21  C   UNL     1      -9.069   4.959  70.727  1.00  0.00    -0.137 A  
HETATM   22  C   UNL     1      -7.154   6.996  71.057  1.00  0.00    -0.070 A  
HETATM   23  H   UNL     1      -8.439   4.633  73.950  1.00  0.00     0.000 HD 
HETATM   24  C   UNL     1      -8.725   5.823  69.671  1.00  0.00    -0.122 A  
HETATM   25  C   UNL     1      -7.488   6.166  72.132  1.00  0.00    -0.095 A  
BRANCH  21  26
HETATM   26  O   UNL     1      -9.984   4.018  70.348  1.00  0.00    -0.182 OA 
HETATM   27  C   UNL     1      -9.635   2.644  70.312  1.00  0.00    -0.044 C  
ENDBRANCH  21  26
BRANCH  25  28
HETATM   28  O   UNL     1      -6.947   6.306  73.387  1.00  0.00    -0.078 OA 
HETATM   29  C   UNL     1      -6.328   7.554  73.673  1.00  0.00    -0.069 C  
ENDBRANCH  25  28
ENDBRANCH   7  18
BRANCH  15  30
HETATM   30  O   UNL     1      -8.916   8.820  65.155  1.00  0.00    -0.184 OA 
BRANCH  30  31
HETATM   31  C   UNL     1      -8.130  10.007  65.410  1.00  0.00    -0.143 C  
HETATM   32  O   UNL     1      -7.315   9.943  66.603  1.00  0.00    -0.096 OA 
HETATM   33  C   UNL     1      -6.765  11.239  66.944  1.00  0.00    -0.135 C  
HETATM   34  C   UNL     1      -5.714  11.227  68.064  1.00  0.00    -0.042 C  
HETATM   35  O   UNL     1      -5.334  12.570  68.430  1.00  0.00    -0.052 OA 
HETATM   36  C   UNL     1      -6.469  13.311  68.886  1.00  0.00    -0.100 C  
HETATM   37  H   UNL     1     -10.273  12.171  64.169  1.00  0.00     0.000 HD 
HETATM   38  O   UNL     1      -7.432  13.422  67.849  1.00  0.00    -0.116 OA 
HETATM   39  C   UNL     1      -7.896  12.151  67.403  1.00  0.00    -0.168 C  
HETATM   40  H   UNL     1     -10.505  13.315  65.906  1.00  0.00     0.000 HD 
HETATM   41  O   UNL     1      -9.621  11.481  64.131  1.00  0.00    -0.221 OA 
HETATM   42  C   UNL     1      -8.788  12.423  66.205  1.00  0.00     0.116 C  
HETATM   43  C   UNL     1      -9.206  11.144  65.473  1.00  0.00    -0.216 C  
HETATM   44  O   UNL     1      -9.947  13.144  66.655  1.00  0.00    -0.256 OA 
BRANCH  36  45
HETATM   45  C   UNL     1      -6.072  14.737  69.181  1.00  0.00    -0.102 A  
HETATM   46  S   UNL     1      -6.119  15.298  70.812  1.00  0.00     0.226 SA 
HETATM   47  C   UNL     1      -5.577  17.021  68.994  1.00  0.00    -0.150 A  
HETATM   48  C   UNL     1      -5.744  15.773  68.321  1.00  0.00    -0.116 A  
HETATM   49  C   UNL     1      -5.766  16.907  70.353  1.00  0.00    -0.114 A  
ENDBRANCH  36  45
ENDBRANCH  30  31
ENDBRANCH  15  30
TORSDOF 6
ENDMDL
MODEL       80
REMARK 921   NORMALIZED FREE ENERGY PREDICTED BY IDOCK:   -2.03 KCAL/MOL
REMARK 922        TOTAL FREE ENERGY PREDICTED BY IDOCK:   -4.76 KCAL/MOL
REMARK 923 INTER-LIGAND FREE ENERGY PREDICTED BY IDOCK:   -5.27 KCAL/MOL
REMARK 924 INTRA-LIGAND FREE ENERGY PREDICTED BY IDOCK:    0.52 KCAL/MOL
REMARK 927      BINDING AFFINITY PREDICTED BY RF-SCORE:    0.00 PKD
ROOT
HETATM    1  C   UNL     1     -10.413   9.112  67.985  1.00  0.00    -0.276 C  
HETATM    2  C   UNL     1     -11.313   9.785  66.986  1.00  0.00     0.772 C  
HETATM    3  O   UNL     1     -10.645   9.589  65.722  1.00  0.00     0.080 OA 
HETATM    4  C   UNL     1      -9.291   9.461  65.943  1.00  0.00    -0.230 C  
HETATM    5  C   UNL     1      -9.037   9.493  67.428  1.00  0.00    -0.144 C  
HETATM    6  O   UNL     1      -8.460   9.427  65.053  1.00  0.00    -0.139 OA 
HETATM    7  C   UNL     1      -7.930   8.609  68.010  1.00  0.00    -0.107 C  
HETATM    8  C   UNL     1      -8.135   8.459  69.528  1.00  0.00    -0.113 A  
HETATM    9  C   UNL     1      -9.347   8.860  70.200  1.00  0.00    -0.197 A  
HETATM   10  C   UNL     1      -7.091   7.855  70.260  1.00  0.00    -0.049 A  
HETATM   11  C   UNL     1      -7.208   6.873  73.625  1.00  0.00    -0.077 C  
HETATM   12  C   UNL     1      -7.288   7.609  71.600  1.00  0.00    -0.068 A  
HETATM   13  C   UNL     1      -9.481   8.598  71.577  1.00  0.00    -0.320 A  
HETATM   14  C   UNL     1      -8.449   7.966  72.236  1.00  0.00    -0.140 A  
HETATM   15  C   UNL     1     -10.553   9.471  69.471  1.00  0.00    -0.221 C  
HETATM   16  O   UNL     1      -6.415   6.975  72.427  1.00  0.00    -0.052 OA 
HETATM   17  O   UNL     1      -8.457   7.593  73.546  1.00  0.00    -0.146 OA 
ENDROOT
BRANCH   7  18
HETATM   18  C   UNL     1      -7.766   7.273  67.259  1.00  0.00    -0.109 A  
HETATM   19  O   UNL     1      -7.797   4.173  64.453  1.00  0.00    -0.083 OA 
HETATM   20  C   UNL     1      -7.687   5.149  65.409  1.00  0.00    -0.087 A  
HETATM   21  C   UNL     1      -6.594   6.015  65.491  1.00  0.00    -0.044 A  
HETATM   22  C   UNL     1      -8.771   6.304  67.252  1.00  0.00    -0.105 A  
HETATM   23  H   UNL     1      -8.540   3.584  64.397  1.00  0.00     0.000 HD 
HETATM   24  C   UNL     1      -6.650   7.066  66.426  1.00  0.00    -0.052 A  
HETATM   25  C   UNL     1      -8.756   5.260  66.321  1.00  0.00    -0.122 A  
BRANCH  21  26
HETATM   26  O   UNL     1      -5.438   6.031  64.763  1.00  0.00    -0.016 OA 
HETATM   27  C   UNL     1      -5.325   5.271  63.571  1.00  0.00    -0.013 C  
ENDBRANCH  21  26
BRANCH  25  28
HETATM   28  O   UNL     1      -9.782   4.358  66.186  1.00  0.00    -0.176 OA 
HETATM   29  C   UNL     1     -11.007   4.866  65.670  1.00  0.00     0.068 C  
ENDBRANCH  25  28
ENDBRANCH   7  18
BRANCH  15  30
HETATM   30  O   UNL     1     -10.663  10.886  69.577  1.00  0.00    -0.234 OA 
BRANCH  30  31
HETATM   31  C   UNL     1      -9.972  11.773  68.668  1.00  0.00    -0.172 C  
HETATM   32  O   UNL     1      -8.666  12.199  69.122  1.00  0.00     0.300 OA 
HETATM   33  C   UNL     1      -8.145  13.279  68.309  1.00  0.00    -0.156 C  
HETATM   34  C   UNL     1      -6.678  13.647  68.577  1.00  0.00    -0.095 C  
HETATM   35  O   UNL     1      -6.295  14.820  67.829  1.00  0.00    -0.149 OA 
HETATM   36  C   UNL     1      -7.112  15.938  68.186  1.00  0.00    -0.118 C  
HETATM   37  H   UNL     1     -12.641  13.297  67.500  1.00  0.00     0.000 HD 
HETATM   38  O   UNL     1      -8.471  15.673  67.871  1.00  0.00    -0.148 OA 
HETATM   39  C   UNL     1      -8.974  14.532  68.562  1.00  0.00    -0.188 C  
HETATM   40  H   UNL     1     -12.078  15.237  68.044  1.00  0.00     0.000 HD 
HETATM   41  O   UNL     1     -12.035  12.574  67.602  1.00  0.00    -0.414 OA 
HETATM   42  C   UNL     1     -10.368  14.286  68.012  1.00  0.00    -0.229 C  
HETATM   43  C   UNL     1     -10.972  12.966  68.499  1.00  0.00    -0.259 C  
HETATM   44  O   UNL     1     -11.206  15.391  68.387  1.00  0.00    -0.283 OA 
BRANCH  36  45
HETATM   45  C   UNL     1      -6.757  17.131  67.332  1.00  0.00    -0.148 A  
HETATM   46  S   UNL     1      -6.685  18.691  68.064  1.00  0.00    -0.223 SA 
HETATM   47  C   UNL     1      -6.389  18.575  65.522  1.00  0.00    -0.320 A  
HETATM   48  C   UNL     1      -6.557  17.228  65.964  1.00  0.00    -0.087 A  
HETATM   49  C   UNL     1      -6.451  19.475  66.562  1.00  0.00    -0.183 A  
ENDBRANCH  36  45
ENDBRANCH  30  31
ENDBRANCH  15  30
TORSDOF 6
ENDMDL
MODEL       81
REMARK 921   NORMALIZED FREE ENERGY PREDICTED BY IDOCK:   -1.93 KCAL/MOL
REMARK 922        TOTAL FREE ENERGY PREDICTED BY IDOCK:   -4.62 KCAL/MOL
REMARK 923 INTER-LIGAND FREE ENERGY PREDICTED BY IDOCK:   -6.50 KCAL/MOL
REMARK 924 INTRA-LIGAND FREE ENERGY PREDICTED BY IDOCK:    1.87 KCAL/MOL
REMARK 927      BINDING AFFINITY PREDICTED BY RF-SCORE:    0.00 PKD
ROOT
HETATM    1  C   UNL     1      -7.256   8.713  69.955  1.00  0.00    -0.051 C  
HETATM    2  C   UNL     1      -5.830   8.810  69.489  1.00  0.00    -0.033 C  
HETATM    3  O   UNL     1      -5.150   7.766  70.217  1.00  0.00    -0.023 OA 
HETATM    4  C   UNL     1      -5.817   7.533  71.400  1.00  0.00    -0.035 C  
HETATM    5  C   UNL     1      -7.048   8.402  71.441  1.00  0.00    -0.074 C  
HETATM    6  O   UNL     1      -5.397   6.808  72.284  1.00  0.00    -0.035 OA 
HETATM    7  C   UNL     1      -8.323   7.850  72.085  1.00  0.00    -0.168 C  
HETATM    8  C   UNL     1      -9.533   8.687  71.632  1.00  0.00    -0.339 A  
HETATM    9  C   UNL     1      -9.467   9.641  70.551  1.00  0.00    -0.243 A  
HETATM   10  C   UNL     1     -10.757   8.456  72.292  1.00  0.00    -0.417 A  
HETATM   11  C   UNL     1     -13.890   9.744  71.379  1.00  0.00    -0.077 C  
HETATM   12  C   UNL     1     -11.880   9.110  71.839  1.00  0.00    -0.369 A  
HETATM   13  C   UNL     1     -10.647  10.294  70.146  1.00  0.00    -0.303 A  
HETATM   14  C   UNL     1     -11.826   9.998  70.795  1.00  0.00    -0.346 A  
HETATM   15  C   UNL     1      -8.190   9.913  69.742  1.00  0.00    -0.180 C  
HETATM   16  O   UNL     1     -13.142   8.945  72.317  1.00  0.00    -0.386 OA 
HETATM   17  O   UNL     1     -13.051  10.499  70.478  1.00  0.00    -0.322 OA 
ENDROOT
BRANCH   7  18
HETATM   18  C   UNL     1      -8.495   6.332  71.881  1.00  0.00    -0.124 A  
HETATM   19  O   UNL     1      -8.290   2.163  72.132  1.00  0.00    -0.053 OA 
HETATM   20  C   UNL     1      -8.466   3.517  72.019  1.00  0.00    -0.082 A  
HETATM   21  C   UNL     1      -9.447   4.219  72.724  1.00  0.00    -0.125 A  
HETATM   22  C   UNL     1      -7.625   5.594  71.077  1.00  0.00    -0.095 A  
HETATM   23  H   UNL     1      -7.623   1.686  71.653  1.00  0.00     0.000 HD 
HETATM   24  C   UNL     1      -9.449   5.623  72.637  1.00  0.00    -0.157 A  
HETATM   25  C   UNL     1      -7.584   4.198  71.156  1.00  0.00    -0.055 A  
BRANCH  21  26
HETATM   26  O   UNL     1     -10.435   3.750  73.543  1.00  0.00    -0.148 OA 
HETATM   27  C   UNL     1     -11.134   4.628  74.410  1.00  0.00     0.457 C  
ENDBRANCH  21  26
BRANCH  25  28
HETATM   28  O   UNL     1      -6.661   3.433  70.485  1.00  0.00    -0.031 OA 
HETATM   29  C   UNL     1      -5.701   2.753  71.285  1.00  0.00    -0.013 C  
ENDBRANCH  25  28
ENDBRANCH   7  18
BRANCH  15  30
HETATM   30  O   UNL     1      -7.486  11.093  70.112  1.00  0.00     0.178 OA 
BRANCH  30  31
HETATM   31  C   UNL     1      -7.441  12.254  69.251  1.00  0.00     0.252 C  
HETATM   32  O   UNL     1      -7.311  13.515  69.949  1.00  0.00     0.453 OA 
HETATM   33  C   UNL     1      -7.537  14.639  69.064  1.00  0.00    -0.136 C  
HETATM   34  C   UNL     1      -7.206  16.015  69.662  1.00  0.00    -0.070 C  
HETATM   35  O   UNL     1      -7.598  17.075  68.765  1.00  0.00    -0.225 OA 
HETATM   36  C   UNL     1      -9.002  17.025  68.503  1.00  0.00    -0.263 C  
HETATM   37  H   UNL     1      -9.431  11.084  66.909  1.00  0.00     0.000 HD 
HETATM   38  O   UNL     1      -9.339  15.801  67.868  1.00  0.00    -0.198 OA 
HETATM   39  C   UNL     1      -9.007  14.667  68.666  1.00  0.00    -0.184 C  
HETATM   40  H   UNL     1     -10.860  12.609  67.013  1.00  0.00     0.000 HD 
HETATM   41  O   UNL     1      -8.623  11.148  67.405  1.00  0.00    -0.134 OA 
HETATM   42  C   UNL     1      -9.278  13.449  67.801  1.00  0.00    -0.211 C  
HETATM   43  C   UNL     1      -8.774  12.149  68.435  1.00  0.00    -0.141 C  
HETATM   44  O   UNL     1     -10.691  13.371  67.553  1.00  0.00    -0.250 OA 
BRANCH  36  45
HETATM   45  C   UNL     1      -9.380  18.084  67.497  1.00  0.00    -0.257 A  
HETATM   46  S   UNL     1      -8.226  19.302  67.093  1.00  0.00    -0.276 SA 
HETATM   47  C   UNL     1     -10.574  19.532  66.093  1.00  0.00    -0.585 A  
HETATM   48  C   UNL     1     -10.588  18.332  66.865  1.00  0.00    -0.356 A  
HETATM   49  C   UNL     1      -9.353  20.167  66.140  1.00  0.00    -0.265 A  
ENDBRANCH  36  45
ENDBRANCH  30  31
ENDBRANCH  15  30
TORSDOF 6
ENDMDL
MODEL       82
REMARK 921   NORMALIZED FREE ENERGY PREDICTED BY IDOCK:   -1.85 KCAL/MOL
REMARK 922        TOTAL FREE ENERGY PREDICTED BY IDOCK:   -4.52 KCAL/MOL
REMARK 923 INTER-LIGAND FREE ENERGY PREDICTED BY IDOCK:   -3.15 KCAL/MOL
REMARK 924 INTRA-LIGAND FREE ENERGY PREDICTED BY IDOCK:   -1.37 KCAL/MOL
REMARK 927      BINDING AFFINITY PREDICTED BY RF-SCORE:    0.00 PKD
ROOT
HETATM    1  C   UNL     1     -10.391   9.033  67.890  1.00  0.00    -0.290 C  
HETATM    2  C   UNL     1     -11.555   8.677  67.008  1.00  0.00     2.742 C  
HETATM    3  O   UNL     1     -11.519   7.235  66.943  1.00  0.00     0.229 OA 
HETATM    4  C   UNL     1     -10.223   6.807  67.135  1.00  0.00    -0.225 C  
HETATM    5  C   UNL     1      -9.355   8.006  67.422  1.00  0.00    -0.173 C  
HETATM    6  O   UNL     1      -9.863   5.653  66.994  1.00  0.00    -0.131 OA 
HETATM    7  C   UNL     1      -8.207   7.866  68.425  1.00  0.00    -0.124 C  
HETATM    8  C   UNL     1      -7.755   9.263  68.890  1.00  0.00    -0.079 A  
HETATM    9  C   UNL     1      -8.511  10.461  68.621  1.00  0.00    -0.129 A  
HETATM   10  C   UNL     1      -6.570   9.334  69.650  1.00  0.00    -0.043 A  
HETATM   11  C   UNL     1      -5.336  12.162  71.318  1.00  0.00    -0.047 C  
HETATM   12  C   UNL     1      -6.198  10.553  70.170  1.00  0.00    -0.117 A  
HETATM   13  C   UNL     1      -8.069  11.683  69.165  1.00  0.00     0.186 A  
HETATM   14  C   UNL     1      -6.928  11.691  69.938  1.00  0.00     0.259 A  
HETATM   15  C   UNL     1      -9.841  10.467  67.851  1.00  0.00    -0.154 C  
HETATM   16  O   UNL     1      -5.127  10.778  70.978  1.00  0.00    -0.084 OA 
HETATM   17  O   UNL     1      -6.414  12.776  70.578  1.00  0.00     0.044 OA 
ENDROOT
BRANCH   7  18
HETATM   18  C   UNL     1      -8.524   6.891  69.575  1.00  0.00    -0.133 A  
HETATM   19  O   UNL     1      -8.745   4.873  73.231  1.00  0.00    -0.106 OA 
HETATM   20  C   UNL     1      -8.781   5.506  72.017  1.00  0.00    -0.131 A  
HETATM   21  C   UNL     1      -9.705   6.507  71.705  1.00  0.00    -0.158 A  
HETATM   22  C   UNL     1      -7.711   5.790  69.852  1.00  0.00    -0.087 A  
HETATM   23  H   UNL     1      -8.116   4.194  73.443  1.00  0.00     0.000 HD 
HETATM   24  C   UNL     1      -9.564   7.182  70.479  1.00  0.00    -0.169 A  
HETATM   25  C   UNL     1      -7.812   5.111  71.071  1.00  0.00    -0.097 A  
BRANCH  21  26
HETATM   26  O   UNL     1     -10.756   6.980  72.439  1.00  0.00    -0.215 OA 
HETATM   27  C   UNL     1     -10.553   7.492  73.746  1.00  0.00    -0.008 C  
ENDBRANCH  21  26
BRANCH  25  28
HETATM   28  O   UNL     1      -6.953   4.108  71.447  1.00  0.00    -0.033 OA 
HETATM   29  C   UNL     1      -6.436   3.293  70.402  1.00  0.00    -0.032 C  
ENDBRANCH  25  28
ENDBRANCH   7  18
BRANCH  15  30
HETATM   30  O   UNL     1      -9.743  10.866  66.489  1.00  0.00    -0.189 OA 
BRANCH  30  31
HETATM   31  C   UNL     1      -9.745  12.259  66.102  1.00  0.00    -0.245 C  
HETATM   32  O   UNL     1      -8.641  13.031  66.631  1.00  0.00    -0.108 OA 
HETATM   33  C   UNL     1      -8.841  14.452  66.433  1.00  0.00     0.002 C  
HETATM   34  C   UNL     1      -7.626  15.332  66.763  1.00  0.00     0.138 C  
HETATM   35  O   UNL     1      -7.964  16.732  66.675  1.00  0.00    -0.211 OA 
HETATM   36  C   UNL     1      -9.017  17.058  67.586  1.00  0.00    -0.221 C  
HETATM   37  H   UNL     1     -13.010  12.636  66.001  1.00  0.00     0.000 HD 
HETATM   38  O   UNL     1     -10.190  16.328  67.260  1.00  0.00    -0.267 OA 
HETATM   39  C   UNL     1      -9.986  14.919  67.322  1.00  0.00    -0.230 C  
HETATM   40  H   UNL     1     -13.126  14.184  67.403  1.00  0.00     0.000 HD 
HETATM   41  O   UNL     1     -12.166  12.325  65.696  1.00  0.00    -0.605 OA 
HETATM   42  C   UNL     1     -11.265  14.284  66.804  1.00  0.00    -0.332 C  
HETATM   43  C   UNL     1     -11.137  12.771  66.606  1.00  0.00    -0.276 C  
HETATM   44  O   UNL     1     -12.326  14.582  67.726  1.00  0.00    -0.204 OA 
BRANCH  36  45
HETATM   45  C   UNL     1      -9.418  18.503  67.418  1.00  0.00    -0.283 A  
HETATM   46  S   UNL     1      -8.198  19.675  67.077  1.00  0.00    -0.302 SA 
HETATM   47  C   UNL     1     -10.575  20.541  67.483  1.00  0.00     0.107 A  
HETATM   48  C   UNL     1     -10.647  19.119  67.590  1.00  0.00    -0.546 A  
HETATM   49  C   UNL     1      -9.297  20.978  67.219  1.00  0.00    -0.069 A  
ENDBRANCH  36  45
ENDBRANCH  30  31
ENDBRANCH  15  30
TORSDOF 6
ENDMDL
MODEL       83
REMARK 921   NORMALIZED FREE ENERGY PREDICTED BY IDOCK:   -1.43 KCAL/MOL
REMARK 922        TOTAL FREE ENERGY PREDICTED BY IDOCK:   -3.95 KCAL/MOL
REMARK 923 INTER-LIGAND FREE ENERGY PREDICTED BY IDOCK:   -3.37 KCAL/MOL
REMARK 924 INTRA-LIGAND FREE ENERGY PREDICTED BY IDOCK:   -0.59 KCAL/MOL
REMARK 927      BINDING AFFINITY PREDICTED BY RF-SCORE:    0.00 PKD
ROOT
HETATM    1  C   UNL     1     -10.392   9.033  67.890  1.00  0.00    -0.290 C  
HETATM    2  C   UNL     1     -11.554   8.676  67.007  1.00  0.00     2.742 C  
HETATM    3  O   UNL     1     -11.517   7.235  66.943  1.00  0.00     0.229 OA 
HETATM    4  C   UNL     1     -10.221   6.808  67.136  1.00  0.00    -0.225 C  
HETATM    5  C   UNL     1      -9.355   8.008  67.423  1.00  0.00    -0.173 C  
HETATM    6  O   UNL     1      -9.860   5.654  66.995  1.00  0.00    -0.131 OA 
HETATM    7  C   UNL     1      -8.207   7.869  68.427  1.00  0.00    -0.124 C  
HETATM    8  C   UNL     1      -7.757   9.265  68.892  1.00  0.00    -0.079 A  
HETATM    9  C   UNL     1      -8.514  10.463  68.622  1.00  0.00    -0.129 A  
HETATM   10  C   UNL     1      -6.572   9.338  69.653  1.00  0.00    -0.043 A  
HETATM   11  C   UNL     1      -5.342  12.167  71.322  1.00  0.00    -0.047 C  
HETATM   12  C   UNL     1      -6.202  10.557  70.173  1.00  0.00    -0.117 A  
HETATM   13  C   UNL     1      -8.073  11.685  69.166  1.00  0.00     0.186 A  
HETATM   14  C   UNL     1      -6.933  11.694  69.941  1.00  0.00     0.259 A  
HETATM   15  C   UNL     1      -9.843  10.468  67.851  1.00  0.00    -0.160 C  
HETATM   16  O   UNL     1      -5.132  10.783  70.982  1.00  0.00    -0.084 OA 
HETATM   17  O   UNL     1      -6.420  12.780  70.581  1.00  0.00     0.084 OA 
ENDROOT
BRANCH   7  18
HETATM   18  C   UNL     1      -8.524   6.893  69.577  1.00  0.00    -0.133 A  
HETATM   19  O   UNL     1     -10.344   4.270  72.278  1.00  0.00    -0.183 OA 
HETATM   20  C   UNL     1      -9.654   5.068  71.404  1.00  0.00    -0.164 A  
HETATM   21  C   UNL     1      -9.030   4.576  70.253  1.00  0.00    -0.090 A  
HETATM   22  C   UNL     1      -9.022   7.337  70.803  1.00  0.00    -0.152 A  
HETATM   23  H   UNL     1     -10.768   4.604  73.059  1.00  0.00     0.000 HD 
HETATM   24  C   UNL     1      -8.467   5.503  69.357  1.00  0.00    -0.105 A  
HETATM   25  C   UNL     1      -9.609   6.443  71.706  1.00  0.00    -0.152 A  
BRANCH  21  26
HETATM   26  O   UNL     1      -8.894   3.287  69.820  1.00  0.00    -0.075 OA 
HETATM   27  C   UNL     1      -8.404   3.011  68.518  1.00  0.00    -0.065 C  
ENDBRANCH  21  26
BRANCH  25  28
HETATM   28  O   UNL     1     -10.229   6.843  72.865  1.00  0.00    -0.180 OA 
HETATM   29  C   UNL     1     -10.450   8.240  73.014  1.00  0.00    -0.029 C  
ENDBRANCH  25  28
ENDBRANCH   7  18
BRANCH  15  30
HETATM   30  O   UNL     1      -9.744  10.867  66.489  1.00  0.00    -0.189 OA 
BRANCH  30  31
HETATM   31  C   UNL     1      -9.746  12.260  66.102  1.00  0.00    -0.245 C  
HETATM   32  O   UNL     1      -8.644  13.033  66.632  1.00  0.00    -0.108 OA 
HETATM   33  C   UNL     1      -8.844  14.454  66.434  1.00  0.00     0.002 C  
HETATM   34  C   UNL     1      -7.630  15.335  66.765  1.00  0.00     0.138 C  
HETATM   35  O   UNL     1      -7.970  16.734  66.676  1.00  0.00    -0.211 OA 
HETATM   36  C   UNL     1      -9.023  17.060  67.587  1.00  0.00    -0.221 C  
HETATM   37  H   UNL     1     -13.012  12.634  65.999  1.00  0.00     0.000 HD 
HETATM   38  O   UNL     1     -10.196  16.329  67.260  1.00  0.00    -0.267 OA 
HETATM   39  C   UNL     1      -9.991  14.920  67.322  1.00  0.00    -0.230 C  
HETATM   40  H   UNL     1     -13.130  14.183  67.401  1.00  0.00     0.000 HD 
HETATM   41  O   UNL     1     -12.168  12.324  65.695  1.00  0.00    -0.605 OA 
HETATM   42  C   UNL     1     -11.268  14.284  66.804  1.00  0.00    -0.332 C  
HETATM   43  C   UNL     1     -11.139  12.771  66.606  1.00  0.00    -0.276 C  
HETATM   44  O   UNL     1     -12.331  14.581  67.725  1.00  0.00    -0.204 OA 
BRANCH  36  45
HETATM   45  C   UNL     1      -9.425  18.504  67.418  1.00  0.00    -0.283 A  
HETATM   46  S   UNL     1     -10.653  18.903  66.275  1.00  0.00    -0.327 SA 
HETATM   47  C   UNL     1      -9.462  20.849  67.442  1.00  0.00    -0.371 A  
HETATM   48  C   UNL     1      -8.893  19.655  67.979  1.00  0.00    -0.371 A  
HETATM   49  C   UNL     1     -10.424  20.584  66.493  1.00  0.00     0.165 A  
ENDBRANCH  36  45
ENDBRANCH  30  31
ENDBRANCH  15  30
TORSDOF 6
ENDMDL
MODEL       84
REMARK 921   NORMALIZED FREE ENERGY PREDICTED BY IDOCK:   -1.20 KCAL/MOL
REMARK 922        TOTAL FREE ENERGY PREDICTED BY IDOCK:   -3.64 KCAL/MOL
REMARK 923 INTER-LIGAND FREE ENERGY PREDICTED BY IDOCK:   -4.71 KCAL/MOL
REMARK 924 INTRA-LIGAND FREE ENERGY PREDICTED BY IDOCK:    1.07 KCAL/MOL
REMARK 927      BINDING AFFINITY PREDICTED BY RF-SCORE:    0.00 PKD
ROOT
HETATM    1  C   UNL     1     -11.179  14.148  66.287  1.00  0.00    -0.329 C  
HETATM    2  C   UNL     1     -12.226  13.485  65.436  1.00  0.00    -0.447 C  
HETATM    3  O   UNL     1     -13.026  12.742  66.380  1.00  0.00     0.310 OA 
HETATM    4  C   UNL     1     -12.251  12.417  67.471  1.00  0.00     0.258 C  
HETATM    5  C   UNL     1     -10.887  13.034  67.297  1.00  0.00    -0.270 C  
HETATM    6  O   UNL     1     -12.615  11.672  68.363  1.00  0.00    -0.043 OA 
HETATM    7  C   UNL     1     -10.154  13.570  68.530  1.00  0.00    -0.215 C  
HETATM    8  C   UNL     1      -9.031  14.525  68.087  1.00  0.00    -0.182 A  
HETATM    9  C   UNL     1      -8.915  15.028  66.740  1.00  0.00    -0.293 A  
HETATM   10  C   UNL     1      -8.118  14.945  69.076  1.00  0.00    -0.165 A  
HETATM   11  C   UNL     1      -5.666  17.429  68.725  1.00  0.00    -0.160 C  
HETATM   12  C   UNL     1      -7.168  15.882  68.736  1.00  0.00    -0.148 A  
HETATM   13  C   UNL     1      -7.910  15.971  66.449  1.00  0.00    -0.127 A  
HETATM   14  C   UNL     1      -7.071  16.382  67.463  1.00  0.00    -0.143 A  
HETATM   15  C   UNL     1      -9.898  14.668  65.616  1.00  0.00    -0.321 C  
HETATM   16  O   UNL     1      -6.264  16.440  69.584  1.00  0.00    -0.193 OA 
HETATM   17  O   UNL     1      -6.097  17.326  67.350  1.00  0.00    -0.125 OA 
ENDROOT
BRANCH   7  18
HETATM   18  C   UNL     1     -11.104  14.162  69.589  1.00  0.00    -0.188 A  
HETATM   19  O   UNL     1     -12.878  15.573  73.103  1.00  0.00    -0.398 OA 
HETATM   20  C   UNL     1     -12.353  15.192  71.896  1.00  0.00    -0.352 A  
HETATM   21  C   UNL     1     -11.642  16.062  71.065  1.00  0.00    -0.431 A  
HETATM   22  C   UNL     1     -11.942  13.354  70.360  1.00  0.00    -0.358 A  
HETATM   23  H   UNL     1     -13.361  14.982  73.668  1.00  0.00     0.000 HD 
HETATM   24  C   UNL     1     -11.032  15.530  69.915  1.00  0.00    -0.315 A  
HETATM   25  C   UNL     1     -12.547  13.847  71.521  1.00  0.00    -0.334 A  
BRANCH  21  26
HETATM   26  O   UNL     1     -11.407  17.401  71.204  1.00  0.00     0.873 OA 
HETATM   27  C   UNL     1     -10.430  18.050  70.407  1.00  0.00     1.653 C  
ENDBRANCH  21  26
BRANCH  25  28
HETATM   28  O   UNL     1     -13.273  13.062  72.383  1.00  0.00    -0.480 OA 
HETATM   29  C   UNL     1     -13.373  11.683  72.050  1.00  0.00    -0.300 C  
ENDBRANCH  25  28
ENDBRANCH   7  18
BRANCH  15  30
HETATM   30  O   UNL     1      -9.436  13.673  64.711  1.00  0.00     0.311 OA 
BRANCH  30  31
HETATM   31  C   UNL     1      -9.599  12.262  64.983  1.00  0.00     0.038 C  
HETATM   32  O   UNL     1      -8.686  11.731  65.972  1.00  0.00    -0.126 OA 
HETATM   33  C   UNL     1      -8.720  10.283  66.004  1.00  0.00    -0.150 C  
HETATM   34  C   UNL     1      -7.950   9.641  67.169  1.00  0.00    -0.106 C  
HETATM   35  O   UNL     1      -7.919   8.204  67.035  1.00  0.00    -0.102 OA 
HETATM   36  C   UNL     1      -7.284   7.822  65.812  1.00  0.00    -0.068 C  
HETATM   37  H   UNL     1     -10.514  11.381  61.949  1.00  0.00     0.000 HD 
HETATM   38  O   UNL     1      -8.016   8.324  64.704  1.00  0.00    -0.130 OA 
HETATM   39  C   UNL     1      -8.111   9.746  64.716  1.00  0.00    -0.146 C  
HETATM   40  H   UNL     1      -8.982   9.995  61.621  1.00  0.00     0.000 HD 
HETATM   41  O   UNL     1     -10.624  11.782  62.803  1.00  0.00    -0.060 OA 
HETATM   42  C   UNL     1      -9.039  10.117  63.573  1.00  0.00    -0.275 C  
HETATM   43  C   UNL     1      -9.416  11.601  63.574  1.00  0.00    -0.172 C  
HETATM   44  O   UNL     1      -8.401   9.762  62.335  1.00  0.00    -0.126 OA 
BRANCH  36  45
HETATM   45  C   UNL     1      -7.339   6.323  65.648  1.00  0.00    -0.080 A  
HETATM   46  S   UNL     1      -5.880   5.413  65.789  1.00  0.00    -0.018 SA 
HETATM   47  C   UNL     1      -7.992   4.141  65.093  1.00  0.00    -0.093 A  
HETATM   48  C   UNL     1      -8.392   5.497  65.290  1.00  0.00    -0.144 A  
HETATM   49  C   UNL     1      -6.646   3.958  65.319  1.00  0.00    -0.044 A  
ENDBRANCH  36  45
ENDBRANCH  30  31
ENDBRANCH  15  30
TORSDOF 6
ENDMDL
MODEL       85
REMARK 921   NORMALIZED FREE ENERGY PREDICTED BY IDOCK:   -1.06 KCAL/MOL
REMARK 922        TOTAL FREE ENERGY PREDICTED BY IDOCK:   -3.45 KCAL/MOL
REMARK 923 INTER-LIGAND FREE ENERGY PREDICTED BY IDOCK:   -6.55 KCAL/MOL
REMARK 924 INTRA-LIGAND FREE ENERGY PREDICTED BY IDOCK:    3.10 KCAL/MOL
REMARK 927      BINDING AFFINITY PREDICTED BY RF-SCORE:    0.00 PKD
ROOT
HETATM    1  C   UNL     1      -6.291   8.240  68.556  1.00  0.00    -0.054 C  
HETATM    2  C   UNL     1      -5.322   7.976  69.674  1.00  0.00    -0.023 C  
HETATM    3  O   UNL     1      -5.970   6.961  70.470  1.00  0.00    -0.026 OA 
HETATM    4  C   UNL     1      -7.335   7.070  70.314  1.00  0.00    -0.084 C  
HETATM    5  C   UNL     1      -7.622   8.155  69.308  1.00  0.00    -0.095 C  
HETATM    6  O   UNL     1      -8.144   6.440  70.971  1.00  0.00    -0.117 OA 
HETATM    7  C   UNL     1      -8.802   7.981  68.347  1.00  0.00    -0.134 C  
HETATM    8  C   UNL     1      -8.646   8.947  67.159  1.00  0.00    -0.112 A  
HETATM    9  C   UNL     1      -7.426   9.669  66.890  1.00  0.00    -0.091 A  
HETATM   10  C   UNL     1      -9.746   9.075  66.287  1.00  0.00    -0.345 A  
HETATM   11  C   UNL     1      -9.781  10.770  63.216  1.00  0.00    -0.355 C  
HETATM   12  C   UNL     1      -9.600   9.847  65.157  1.00  0.00    -0.300 A  
HETATM   13  C   UNL     1      -7.344  10.459  65.727  1.00  0.00    -0.147 A  
HETATM   14  C   UNL     1      -8.433  10.514  64.884  1.00  0.00    -0.158 A  
HETATM   15  C   UNL     1      -6.162   9.544  67.755  1.00  0.00    -0.053 C  
HETATM   16  O   UNL     1     -10.535  10.016  64.184  1.00  0.00     0.399 OA 
HETATM   17  O   UNL     1      -8.483  11.182  63.699  1.00  0.00     0.093 OA 
ENDROOT
BRANCH   7  18
HETATM   18  C   UNL     1      -9.040   6.514  67.941  1.00  0.00    -0.113 A  
HETATM   19  O   UNL     1      -9.131   2.813  65.996  1.00  0.00    -0.143 OA 
HETATM   20  C   UNL     1      -9.097   3.969  66.731  1.00  0.00    -0.143 A  
HETATM   21  C   UNL     1      -8.082   4.261  67.646  1.00  0.00    -0.095 A  
HETATM   22  C   UNL     1     -10.118   6.137  67.139  1.00  0.00    -0.210 A  
HETATM   23  H   UNL     1      -9.821   2.615  65.374  1.00  0.00     0.000 HD 
HETATM   24  C   UNL     1      -8.074   5.534  68.244  1.00  0.00    -0.096 A  
HETATM   25  C   UNL     1     -10.145   4.886  66.512  1.00  0.00    -0.255 A  
BRANCH  21  26
HETATM   26  O   UNL     1      -7.030   3.490  68.055  1.00  0.00    -0.049 OA 
HETATM   27  C   UNL     1      -7.198   2.099  68.279  1.00  0.00    -0.047 C  
ENDBRANCH  21  26
BRANCH  25  28
HETATM   28  O   UNL     1     -11.114   4.516  65.612  1.00  0.00    -0.121 OA 
HETATM   29  C   UNL     1     -10.669   4.190  64.301  1.00  0.00    -0.109 C  
ENDBRANCH  25  28
ENDBRANCH   7  18
BRANCH  15  30
HETATM   30  O   UNL     1      -5.958  10.610  68.674  1.00  0.00    -0.041 OA 
BRANCH  30  31
HETATM   31  C   UNL     1      -6.896  11.704  68.792  1.00  0.00    -0.090 C  
HETATM   32  O   UNL     1      -7.480  12.133  67.540  1.00  0.00    -0.126 OA 
HETATM   33  C   UNL     1      -8.195  13.385  67.686  1.00  0.00    -0.177 C  
HETATM   34  C   UNL     1      -9.029  13.804  66.466  1.00  0.00    -0.057 C  
HETATM   35  O   UNL     1      -9.583  15.124  66.649  1.00  0.00    -0.228 OA 
HETATM   36  C   UNL     1      -8.545  16.088  66.836  1.00  0.00    -0.231 C  
HETATM   37  H   UNL     1      -5.417  13.219  71.309  1.00  0.00     0.000 HD 
HETATM   38  O   UNL     1      -7.801  15.786  68.007  1.00  0.00    -0.128 OA 
HETATM   39  C   UNL     1      -7.190  14.500  67.945  1.00  0.00    -0.158 C  
HETATM   40  H   UNL     1      -5.118  15.056  70.353  1.00  0.00     0.000 HD 
HETATM   41  O   UNL     1      -5.929  12.537  70.891  1.00  0.00    -0.293 OA 
HETATM   42  C   UNL     1      -6.570  14.260  69.310  1.00  0.00    -0.120 C  
HETATM   43  C   UNL     1      -6.051  12.829  69.481  1.00  0.00    -0.118 C  
HETATM   44  O   UNL     1      -5.506  15.206  69.499  1.00  0.00    -0.093 OA 
BRANCH  36  45
HETATM   45  C   UNL     1      -9.143  17.445  67.113  1.00  0.00    -0.237 A  
HETATM   46  S   UNL     1      -8.104  18.822  67.161  1.00  0.00    -0.254 SA 
HETATM   47  C   UNL     1     -10.563  19.186  67.784  1.00  0.00    -0.498 A  
HETATM   48  C   UNL     1     -10.438  17.803  67.450  1.00  0.00    -0.367 A  
HETATM   49  C   UNL     1      -9.365  19.855  67.681  1.00  0.00    -0.354 A  
ENDBRANCH  36  45
ENDBRANCH  30  31
ENDBRANCH  15  30
TORSDOF 6
ENDMDL
MODEL       86
REMARK 921   NORMALIZED FREE ENERGY PREDICTED BY IDOCK:   -0.66 KCAL/MOL
REMARK 922        TOTAL FREE ENERGY PREDICTED BY IDOCK:   -2.91 KCAL/MOL
REMARK 923 INTER-LIGAND FREE ENERGY PREDICTED BY IDOCK:   -2.48 KCAL/MOL
REMARK 924 INTRA-LIGAND FREE ENERGY PREDICTED BY IDOCK:   -0.43 KCAL/MOL
REMARK 927      BINDING AFFINITY PREDICTED BY RF-SCORE:    0.00 PKD
ROOT
HETATM    1  C   UNL     1      -6.706  15.362  67.707  1.00  0.00    -0.187 C  
HETATM    2  C   UNL     1      -5.296  15.747  67.356  1.00  0.00     0.039 C  
HETATM    3  O   UNL     1      -5.435  17.019  66.688  1.00  0.00    -0.211 OA 
HETATM    4  C   UNL     1      -6.681  17.087  66.103  1.00  0.00     0.019 C  
HETATM    5  C   UNL     1      -7.451  15.840  66.456  1.00  0.00     0.185 C  
HETATM    6  O   UNL     1      -7.029  17.981  65.353  1.00  0.00    -0.481 OA 
HETATM    7  C   UNL     1      -8.958  15.946  66.704  1.00  0.00    -0.301 C  
HETATM    8  C   UNL     1      -9.444  14.697  67.462  1.00  0.00    -0.198 A  
HETATM    9  C   UNL     1      -8.544  13.751  68.073  1.00  0.00    -0.177 A  
HETATM   10  C   UNL     1     -10.838  14.524  67.587  1.00  0.00    -0.275 A  
HETATM   11  C   UNL     1     -12.469  12.131  69.566  1.00  0.00     0.202 C  
HETATM   12  C   UNL     1     -11.303  13.477  68.350  1.00  0.00    -0.292 A  
HETATM   13  C   UNL     1      -9.080  12.688  68.827  1.00  0.00     0.163 A  
HETATM   14  C   UNL     1     -10.449  12.590  68.955  1.00  0.00    -0.080 A  
HETATM   15  C   UNL     1      -7.015  13.893  68.035  1.00  0.00    -0.141 C  
HETATM   16  O   UNL     1     -12.607  13.214  68.627  1.00  0.00     0.226 OA 
HETATM   17  O   UNL     1     -11.110  11.660  69.697  1.00  0.00    -0.208 OA 
ENDROOT
BRANCH   7  18
HETATM   18  C   UNL     1      -9.372  17.280  67.353  1.00  0.00    -0.236 A  
HETATM   19  O   UNL     1      -9.699  21.273  68.550  1.00  0.00     0.757 OA 
HETATM   20  C   UNL     1      -9.705  19.958  68.165  1.00  0.00    -0.383 A  
HETATM   21  C   UNL     1     -10.428  19.490  67.065  1.00  0.00    -0.472 A  
HETATM   22  C   UNL     1      -8.782  17.740  68.532  1.00  0.00    -0.284 A  
HETATM   23  H   UNL     1      -9.207  21.592  69.298  1.00  0.00     0.000 HD 
HETATM   24  C   UNL     1     -10.254  18.148  66.680  1.00  0.00    -0.388 A  
HETATM   25  C   UNL     1      -8.919  19.074  68.930  1.00  0.00    -0.263 A  
BRANCH  21  26
HETATM   26  O   UNL     1     -11.297  20.155  66.247  1.00  0.00     0.310 OA 
HETATM   27  C   UNL     1     -11.528  19.707  64.921  1.00  0.00     2.165 C  
ENDBRANCH  21  26
BRANCH  25  28
HETATM   28  O   UNL     1      -8.254  19.609  70.007  1.00  0.00     0.449 OA 
HETATM   29  C   UNL     1      -6.908  20.009  69.784  1.00  0.00    -0.183 C  
ENDBRANCH  25  28
ENDBRANCH   7  18
BRANCH  15  30
HETATM   30  O   UNL     1      -6.360  13.077  67.070  1.00  0.00    -0.194 OA 
BRANCH  30  31
HETATM   31  C   UNL     1      -6.307  11.638  67.201  1.00  0.00    -0.139 C  
HETATM   32  O   UNL     1      -7.305  10.927  66.432  1.00  0.00    -0.135 OA 
HETATM   33  C   UNL     1      -7.371   9.529  66.807  1.00  0.00    -0.090 C  
HETATM   34  C   UNL     1      -8.243   8.652  65.896  1.00  0.00    -0.123 C  
HETATM   35  O   UNL     1      -8.364   7.316  66.429  1.00  0.00    -0.114 OA 
HETATM   36  C   UNL     1      -8.956   7.341  67.730  1.00  0.00    -0.126 C  
HETATM   37  H   UNL     1      -5.293  11.566  70.329  1.00  0.00     0.000 HD 
HETATM   38  O   UNL     1      -8.134   8.072  68.629  1.00  0.00    -0.121 OA 
HETATM   39  C   UNL     1      -7.945   9.422  68.214  1.00  0.00    -0.094 C  
HETATM   40  H   UNL     1      -6.895  10.452  71.084  1.00  0.00     0.000 HD 
HETATM   41  O   UNL     1      -5.202  11.704  69.394  1.00  0.00    -0.051 OA 
HETATM   42  C   UNL     1      -6.934  10.021  69.175  1.00  0.00    -0.059 C  
HETATM   43  C   UNL     1      -6.459  11.411  68.744  1.00  0.00    -0.056 C  
HETATM   44  O   UNL     1      -7.527  10.077  70.483  1.00  0.00    -0.269 OA 
BRANCH  36  45
HETATM   45  C   UNL     1      -8.994   5.948  68.308  1.00  0.00    -0.112 A  
HETATM   46  S   UNL     1     -10.386   5.449  69.197  1.00  0.00    -0.205 SA 
HETATM   47  C   UNL     1      -8.401   3.831  69.122  1.00  0.00    -0.087 A  
HETATM   48  C   UNL     1      -8.020   4.963  68.340  1.00  0.00    -0.085 A  
HETATM   49  C   UNL     1      -9.661   3.970  69.659  1.00  0.00    -0.175 A  
ENDBRANCH  36  45
ENDBRANCH  30  31
ENDBRANCH  15  30
TORSDOF 6
ENDMDL
MODEL       87
REMARK 921   NORMALIZED FREE ENERGY PREDICTED BY IDOCK:   -0.47 KCAL/MOL
REMARK 922        TOTAL FREE ENERGY PREDICTED BY IDOCK:   -2.65 KCAL/MOL
REMARK 923 INTER-LIGAND FREE ENERGY PREDICTED BY IDOCK:   -4.91 KCAL/MOL
REMARK 924 INTRA-LIGAND FREE ENERGY PREDICTED BY IDOCK:    2.25 KCAL/MOL
REMARK 927      BINDING AFFINITY PREDICTED BY RF-SCORE:    0.00 PKD
ROOT
HETATM    1  C   UNL     1     -11.279  14.794  67.245  1.00  0.00    -0.351 C  
HETATM    2  C   UNL     1     -12.411  14.291  66.394  1.00  0.00    -0.256 C  
HETATM    3  O   UNL     1     -13.141  13.404  67.269  1.00  0.00     0.969 OA 
HETATM    4  C   UNL     1     -12.280  12.895  68.216  1.00  0.00     0.043 C  
HETATM    5  C   UNL     1     -10.924  13.524  68.025  1.00  0.00    -0.271 C  
HETATM    6  O   UNL     1     -12.580  12.013  69.000  1.00  0.00     0.111 OA 
HETATM    7  C   UNL     1     -10.073  13.840  69.259  1.00  0.00     0.229 C  
HETATM    8  C   UNL     1      -8.973  14.848  68.881  1.00  0.00    -0.184 A  
HETATM    9  C   UNL     1      -8.965  15.570  67.633  1.00  0.00    -0.187 A  
HETATM   10  C   UNL     1      -7.967  15.089  69.840  1.00  0.00     0.149 A  
HETATM   11  C   UNL     1      -5.503  17.581  69.689  1.00  0.00    -0.207 C  
HETATM   12  C   UNL     1      -7.031  16.063  69.577  1.00  0.00    -0.191 A  
HETATM   13  C   UNL     1      -7.969  16.542  67.413  1.00  0.00    -0.175 A  
HETATM   14  C   UNL     1      -7.036  16.770  68.401  1.00  0.00    -0.170 A  
HETATM   15  C   UNL     1     -10.052  15.411  66.558  1.00  0.00    -0.271 C  
HETATM   16  O   UNL     1      -6.044  16.465  70.421  1.00  0.00    -0.091 OA 
HETATM   17  O   UNL     1      -6.055  17.713  68.361  1.00  0.00    -0.168 OA 
ENDROOT
BRANCH   7  18
HETATM   18  C   UNL     1     -10.913  14.250  70.483  1.00  0.00     0.331 A  
HETATM   19  O   UNL     1     -13.845  15.728  73.073  1.00  0.00    -0.605 OA 
HETATM   20  C   UNL     1     -12.867  15.161  72.299  1.00  0.00    -0.343 A  
HETATM   21  C   UNL     1     -12.915  13.834  71.862  1.00  0.00    -0.350 A  
HETATM   22  C   UNL     1     -10.811  15.521  71.054  1.00  0.00    -0.203 A  
HETATM   23  H   UNL     1     -13.813  16.629  73.370  1.00  0.00     0.000 HD 
HETATM   24  C   UNL     1     -11.927  13.397  70.961  1.00  0.00    -0.025 A  
HETATM   25  C   UNL     1     -11.789  15.992  71.936  1.00  0.00    -0.534 A  
BRANCH  21  26
HETATM   26  O   UNL     1     -13.819  12.852  72.155  1.00  0.00    -0.442 OA 
HETATM   27  C   UNL     1     -13.542  11.497  71.842  1.00  0.00     0.003 C  
ENDBRANCH  21  26
BRANCH  25  28
HETATM   28  O   UNL     1     -11.806  17.277  72.423  1.00  0.00     0.446 OA 
HETATM   29  C   UNL     1     -11.712  17.419  73.835  1.00  0.00     0.475 C  
ENDBRANCH  25  28
ENDBRANCH   7  18
BRANCH  15  30
HETATM   30  O   UNL     1      -9.693  14.579  65.461  1.00  0.00    -0.308 OA 
BRANCH  30  31
HETATM   31  C   UNL     1      -9.793  13.139  65.534  1.00  0.00    -0.138 C  
HETATM   32  O   UNL     1      -8.690  12.493  66.211  1.00  0.00    -0.031 OA 
HETATM   33  C   UNL     1      -8.713  11.057  66.020  1.00  0.00    -0.188 C  
HETATM   34  C   UNL     1      -7.713  10.269  66.879  1.00  0.00    -0.105 C  
HETATM   35  O   UNL     1      -7.709   8.873  66.516  1.00  0.00    -0.097 OA 
HETATM   36  C   UNL     1      -7.350   8.707  65.142  1.00  0.00    -0.088 C  
HETATM   37  H   UNL     1     -11.332  12.707  62.660  1.00  0.00     0.000 HD 
HETATM   38  O   UNL     1      -8.301   9.349  64.306  1.00  0.00    -0.151 OA 
HETATM   39  C   UNL     1      -8.393  10.747  64.563  1.00  0.00     0.038 C  
HETATM   40  H   UNL     1      -9.904  11.443  61.800  1.00  0.00     0.000 HD 
HETATM   41  O   UNL     1     -11.258  12.967  63.570  1.00  0.00    -0.424 OA 
HETATM   42  C   UNL     1      -9.544  11.259  63.715  1.00  0.00    -0.259 C  
HETATM   43  C   UNL     1      -9.913  12.711  64.032  1.00  0.00    -0.145 C  
HETATM   44  O   UNL     1      -9.184  11.123  62.331  1.00  0.00    -0.309 OA 
BRANCH  36  45
HETATM   45  C   UNL     1      -7.436   7.251  64.757  1.00  0.00    -0.093 A  
HETATM   46  S   UNL     1      -7.569   6.834  63.088  1.00  0.00    -0.093 SA 
HETATM   47  C   UNL     1      -7.747   4.927  64.790  1.00  0.00    -0.079 A  
HETATM   48  C   UNL     1      -7.528   6.117  65.548  1.00  0.00    -0.082 A  
HETATM   49  C   UNL     1      -7.804   5.176  63.437  1.00  0.00    -0.084 A  
ENDBRANCH  36  45
ENDBRANCH  30  31
ENDBRANCH  15  30
TORSDOF 6
ENDMDL
MODEL       88
REMARK 921   NORMALIZED FREE ENERGY PREDICTED BY IDOCK:   -0.07 KCAL/MOL
REMARK 922        TOTAL FREE ENERGY PREDICTED BY IDOCK:   -2.12 KCAL/MOL
REMARK 923 INTER-LIGAND FREE ENERGY PREDICTED BY IDOCK:   -5.51 KCAL/MOL
REMARK 924 INTRA-LIGAND FREE ENERGY PREDICTED BY IDOCK:    3.39 KCAL/MOL
REMARK 927      BINDING AFFINITY PREDICTED BY RF-SCORE:    0.00 PKD
ROOT
HETATM    1  C   UNL     1      -7.448   8.807  68.255  1.00  0.00    -0.092 C  
HETATM    2  C   UNL     1      -7.514  10.265  68.614  1.00  0.00    -0.086 C  
HETATM    3  O   UNL     1      -8.151  10.279  69.909  1.00  0.00    -0.157 OA 
HETATM    4  C   UNL     1      -8.957   9.168  70.028  1.00  0.00    -0.187 C  
HETATM    5  C   UNL     1      -8.798   8.321  68.791  1.00  0.00    -0.137 C  
HETATM    6  O   UNL     1      -9.727   8.984  70.954  1.00  0.00    -0.217 OA 
HETATM    7  C   UNL     1      -8.835   6.796  68.928  1.00  0.00    -0.128 C  
HETATM    8  C   UNL     1      -8.226   6.151  67.670  1.00  0.00    -0.113 A  
HETATM    9  C   UNL     1      -7.490   6.902  66.681  1.00  0.00    -0.082 A  
HETATM   10  C   UNL     1      -8.370   4.756  67.529  1.00  0.00    -0.104 A  
HETATM   11  C   UNL     1      -6.818   2.735  65.119  1.00  0.00    -0.044 C  
HETATM   12  C   UNL     1      -7.745   4.135  66.471  1.00  0.00    -0.090 A  
HETATM   13  C   UNL     1      -6.889   6.213  65.610  1.00  0.00    -0.053 A  
HETATM   14  C   UNL     1      -7.023   4.842  65.544  1.00  0.00    -0.062 A  
HETATM   15  C   UNL     1      -7.236   8.413  66.785  1.00  0.00    -0.078 C  
HETATM   16  O   UNL     1      -7.728   2.797  66.234  1.00  0.00    -0.075 OA 
HETATM   17  O   UNL     1      -6.452   4.036  64.608  1.00  0.00    -0.039 OA 
ENDROOT
BRANCH   7  18
HETATM   18  C   UNL     1      -8.227   6.293  70.252  1.00  0.00    -0.125 A  
HETATM   19  O   UNL     1      -7.244   5.620  74.260  1.00  0.00    -0.084 OA 
HETATM   20  C   UNL     1      -7.547   5.730  72.929  1.00  0.00    -0.096 A  
HETATM   21  C   UNL     1      -8.538   4.965  72.307  1.00  0.00    -0.124 A  
HETATM   22  C   UNL     1      -7.145   6.935  70.856  1.00  0.00    -0.068 A  
HETATM   23  H   UNL     1      -6.571   6.140  74.683  1.00  0.00     0.000 HD 
HETATM   24  C   UNL     1      -8.858   5.257  70.968  1.00  0.00    -0.148 A  
HETATM   25  C   UNL     1      -6.815   6.683  72.192  1.00  0.00    -0.067 A  
BRANCH  21  26
HETATM   26  O   UNL     1      -9.301   3.952  72.813  1.00  0.00    -0.109 OA 
HETATM   27  C   UNL     1      -9.699   3.957  74.174  1.00  0.00    -0.109 C  
ENDBRANCH  21  26
BRANCH  25  28
HETATM   28  O   UNL     1      -5.846   7.379  72.872  1.00  0.00    -0.044 OA 
HETATM   29  C   UNL     1      -5.471   8.638  72.326  1.00  0.00    -0.052 C  
ENDBRANCH  25  28
ENDBRANCH   7  18
BRANCH  15  30
HETATM   30  O   UNL     1      -8.089   9.221  65.983  1.00  0.00    -0.108 OA 
BRANCH  30  31
HETATM   31  C   UNL     1      -7.896  10.649  65.865  1.00  0.00    -0.150 C  
HETATM   32  O   UNL     1      -7.048  11.227  66.885  1.00  0.00    -0.123 OA 
HETATM   33  C   UNL     1      -7.109  12.674  66.871  1.00  0.00     0.247 C  
HETATM   34  C   UNL     1      -6.079  13.377  67.769  1.00  0.00    -0.149 C  
HETATM   35  O   UNL     1      -6.310  14.801  67.802  1.00  0.00    -0.149 OA 
HETATM   36  C   UNL     1      -7.617  15.092  68.304  1.00  0.00    -0.111 C  
HETATM   37  H   UNL     1     -10.866  11.347  64.638  1.00  0.00     0.000 HD 
HETATM   38  O   UNL     1      -8.605  14.532  67.452  1.00  0.00    -0.176 OA 
HETATM   39  C   UNL     1      -8.488  13.116  67.344  1.00  0.00    -0.201 C  
HETATM   40  H   UNL     1     -11.449  12.682  66.140  1.00  0.00     0.000 HD 
HETATM   41  O   UNL     1      -9.981  11.005  64.616  1.00  0.00    -0.252 OA 
HETATM   42  C   UNL     1      -9.497  12.688  66.293  1.00  0.00    -0.207 C  
HETATM   43  C   UNL     1      -9.357  11.214  65.902  1.00  0.00    -0.212 C  
HETATM   44  O   UNL     1     -10.817  12.950  66.797  1.00  0.00    -0.262 OA 
BRANCH  36  45
HETATM   45  C   UNL     1      -7.874  16.578  68.249  1.00  0.00    -0.175 A  
HETATM   46  S   UNL     1      -7.236  17.488  66.929  1.00  0.00    -0.217 SA 
HETATM   47  C   UNL     1      -8.393  18.795  68.805  1.00  0.00    -0.322 A  
HETATM   48  C   UNL     1      -8.486  17.417  69.165  1.00  0.00     0.064 A  
HETATM   49  C   UNL     1      -7.724  18.977  67.615  1.00  0.00    -0.239 A  
ENDBRANCH  36  45
ENDBRANCH  30  31
ENDBRANCH  15  30
TORSDOF 6
ENDMDL
MODEL       89
REMARK 921   NORMALIZED FREE ENERGY PREDICTED BY IDOCK:   -0.02 KCAL/MOL
REMARK 922        TOTAL FREE ENERGY PREDICTED BY IDOCK:   -2.04 KCAL/MOL
REMARK 923 INTER-LIGAND FREE ENERGY PREDICTED BY IDOCK:   -5.49 KCAL/MOL
REMARK 924 INTRA-LIGAND FREE ENERGY PREDICTED BY IDOCK:    3.45 KCAL/MOL
REMARK 927      BINDING AFFINITY PREDICTED BY RF-SCORE:    0.00 PKD
ROOT
HETATM    1  C   UNL     1      -8.516   7.718  67.853  1.00  0.00    -0.122 C  
HETATM    2  C   UNL     1      -8.354   9.103  68.415  1.00  0.00    -0.120 C  
HETATM    3  O   UNL     1      -9.020   9.044  69.694  1.00  0.00    -0.142 OA 
HETATM    4  C   UNL     1      -9.999   8.076  69.649  1.00  0.00    -0.188 C  
HETATM    5  C   UNL     1      -9.943   7.393  68.305  1.00  0.00    -0.182 C  
HETATM    6  O   UNL     1     -10.816   7.896  70.533  1.00  0.00    -0.233 OA 
HETATM    7  C   UNL     1     -10.231   5.891  68.225  1.00  0.00    -0.226 C  
HETATM    8  C   UNL     1      -9.697   5.335  66.893  1.00  0.00    -0.170 A  
HETATM    9  C   UNL     1      -8.819   6.082  66.026  1.00  0.00    -0.159 A  
HETATM   10  C   UNL     1     -10.063   4.015  66.556  1.00  0.00     0.017 A  
HETATM   11  C   UNL     1      -8.787   2.118  63.896  1.00  0.00    -0.092 C  
HETATM   12  C   UNL     1      -9.515   3.452  65.426  1.00  0.00    -0.136 A  
HETATM   13  C   UNL     1      -8.306   5.457  64.873  1.00  0.00    -0.142 A  
HETATM   14  C   UNL     1      -8.659   4.151  64.613  1.00  0.00    -0.120 A  
HETATM   15  C   UNL     1      -8.325   7.502  66.344  1.00  0.00    -0.126 C  
HETATM   16  O   UNL     1      -9.708   2.175  65.002  1.00  0.00     0.012 OA 
HETATM   17  O   UNL     1      -8.199   3.398  63.577  1.00  0.00    -0.087 OA 
ENDROOT
BRANCH   7  18
HETATM   18  C   UNL     1      -9.755   5.117  69.469  1.00  0.00    -0.262 A  
HETATM   19  O   UNL     1      -7.555   3.492  72.633  1.00  0.00    -0.057 OA 
HETATM   20  C   UNL     1      -8.365   4.024  71.665  1.00  0.00    -0.090 A  
HETATM   21  C   UNL     1      -9.087   5.208  71.842  1.00  0.00    -0.137 A  
HETATM   22  C   UNL     1      -9.147   3.864  69.369  1.00  0.00    -0.196 A  
HETATM   23  H   UNL     1      -7.064   2.688  72.512  1.00  0.00     0.000 HD 
HETATM   24  C   UNL     1      -9.780   5.733  70.735  1.00  0.00    -0.220 A  
HETATM   25  C   UNL     1      -8.433   3.323  70.444  1.00  0.00    -0.056 A  
BRANCH  21  26
HETATM   26  O   UNL     1      -9.217   5.990  72.954  1.00  0.00    -0.136 OA 
HETATM   27  C   UNL     1      -8.430   7.160  73.111  1.00  0.00    -0.121 C  
ENDBRANCH  21  26
BRANCH  25  28
HETATM   28  O   UNL     1      -7.710   2.159  70.357  1.00  0.00    -0.042 OA 
HETATM   29  C   UNL     1      -7.701   1.513  69.090  1.00  0.00    -0.042 C  
ENDBRANCH  25  28
ENDBRANCH   7  18
BRANCH  15  30
HETATM   30  O   UNL     1      -9.010   8.543  65.658  1.00  0.00    -0.187 OA 
BRANCH  30  31
HETATM   31  C   UNL     1      -8.536   9.908  65.678  1.00  0.00    -0.145 C  
HETATM   32  O   UNL     1      -8.865  10.641  66.881  1.00  0.00    -0.137 OA 
HETATM   33  C   UNL     1      -8.601  12.058  66.731  1.00  0.00    -0.177 C  
HETATM   34  C   UNL     1      -8.711  12.881  68.024  1.00  0.00    -0.191 C  
HETATM   35  O   UNL     1      -8.575  14.291  67.750  1.00  0.00    -0.158 OA 
HETATM   36  C   UNL     1      -9.593  14.733  66.848  1.00  0.00    -0.241 C  
HETATM   37  H   UNL     1      -8.839  10.475  62.452  1.00  0.00     0.000 HD 
HETATM   38  O   UNL     1      -9.472  14.057  65.605  1.00  0.00    -0.118 OA 
HETATM   39  C   UNL     1      -9.599  12.645  65.741  1.00  0.00    -0.110 C  
HETATM   40  H   UNL     1     -10.138  12.107  62.607  1.00  0.00     0.000 HD 
HETATM   41  O   UNL     1      -8.447  10.097  63.230  1.00  0.00    -0.159 OA 
HETATM   42  C   UNL     1      -9.296  12.059  64.374  1.00  0.00     0.275 C  
HETATM   43  C   UNL     1      -9.183  10.532  64.394  1.00  0.00    -0.245 C  
HETATM   44  O   UNL     1     -10.327  12.474  63.463  1.00  0.00    -0.407 OA 
BRANCH  36  45
HETATM   45  C   UNL     1      -9.384  16.187  66.505  1.00  0.00    -0.268 A  
HETATM   46  S   UNL     1     -10.651  17.049  65.712  1.00  0.00    -0.106 SA 
HETATM   47  C   UNL     1      -8.426  18.277  66.044  1.00  0.00    -0.035 A  
HETATM   48  C   UNL     1      -8.259  16.986  66.631  1.00  0.00    -0.295 A  
HETATM   49  C   UNL     1      -9.679  18.440  65.495  1.00  0.00     0.785 A  
ENDBRANCH  36  45
ENDBRANCH  30  31
ENDBRANCH  15  30
TORSDOF 6
ENDMDL
MODEL       90
REMARK 921   NORMALIZED FREE ENERGY PREDICTED BY IDOCK:    0.06 KCAL/MOL
REMARK 922        TOTAL FREE ENERGY PREDICTED BY IDOCK:   -1.95 KCAL/MOL
REMARK 923 INTER-LIGAND FREE ENERGY PREDICTED BY IDOCK:   -4.16 KCAL/MOL
REMARK 924 INTRA-LIGAND FREE ENERGY PREDICTED BY IDOCK:    2.21 KCAL/MOL
REMARK 927      BINDING AFFINITY PREDICTED BY RF-SCORE:    0.00 PKD
ROOT
HETATM    1  C   UNL     1     -10.153   5.641  68.378  1.00  0.00    -0.224 C  
HETATM    2  C   UNL     1     -11.343   5.812  67.475  1.00  0.00     0.737 C  
HETATM    3  O   UNL     1     -10.771   6.224  66.215  1.00  0.00    -0.030 OA 
HETATM    4  C   UNL     1      -9.576   6.867  66.451  1.00  0.00    -0.095 C  
HETATM    5  C   UNL     1      -9.285   6.820  67.929  1.00  0.00    -0.112 C  
HETATM    6  O   UNL     1      -8.938   7.448  65.591  1.00  0.00    -0.089 OA 
HETATM    7  C   UNL     1      -7.834   6.660  68.393  1.00  0.00    -0.107 C  
HETATM    8  C   UNL     1      -7.811   6.198  69.861  1.00  0.00    -0.109 A  
HETATM    9  C   UNL     1      -8.985   5.726  70.554  1.00  0.00    -0.152 A  
HETATM   10  C   UNL     1      -6.563   6.205  70.517  1.00  0.00    -0.048 A  
HETATM   11  C   UNL     1      -5.865   4.853  73.678  1.00  0.00    -0.018 C  
HETATM   12  C   UNL     1      -6.491   5.697  71.794  1.00  0.00    -0.049 A  
HETATM   13  C   UNL     1      -8.851   5.236  71.867  1.00  0.00    -0.142 A  
HETATM   14  C   UNL     1      -7.600   5.223  72.446  1.00  0.00    -0.097 A  
HETATM   15  C   UNL     1     -10.371   5.631  69.898  1.00  0.00    -0.277 C  
HETATM   16  O   UNL     1      -5.357   5.567  72.534  1.00  0.00    -0.016 OA 
HETATM   17  O   UNL     1      -7.304   4.727  73.679  1.00  0.00    -0.079 OA 
ENDROOT
BRANCH   7  18
HETATM   18  C   UNL     1      -6.988   5.790  67.444  1.00  0.00    -0.065 A  
HETATM   19  O   UNL     1      -5.571   3.425  64.300  1.00  0.00    -0.009 OA 
HETATM   20  C   UNL     1      -5.931   4.243  65.338  1.00  0.00    -0.023 A  
HETATM   21  C   UNL     1      -5.766   5.631  65.308  1.00  0.00    -0.017 A  
HETATM   22  C   UNL     1      -7.003   4.395  67.514  1.00  0.00    -0.063 A  
HETATM   23  H   UNL     1      -5.683   2.482  64.320  1.00  0.00     0.000 HD 
HETATM   24  C   UNL     1      -6.295   6.384  66.372  1.00  0.00    -0.042 A  
HETATM   25  C   UNL     1      -6.505   3.618  66.463  1.00  0.00    -0.037 A  
BRANCH  21  26
HETATM   26  O   UNL     1      -5.174   6.417  64.360  1.00  0.00    -0.020 OA 
HETATM   27  C   UNL     1      -5.673   7.715  64.084  1.00  0.00    -0.044 C  
ENDBRANCH  21  26
BRANCH  25  28
HETATM   28  O   UNL     1      -6.614   2.249  66.423  1.00  0.00    -0.033 OA 
HETATM   29  C   UNL     1      -7.794   1.691  66.987  1.00  0.00    -0.065 C  
ENDBRANCH  25  28
ENDBRANCH   7  18
BRANCH  15  30
HETATM   30  O   UNL     1     -11.262   6.692  70.225  1.00  0.00    -0.297 OA 
BRANCH  30  31
HETATM   31  C   UNL     1     -10.828   8.070  70.253  1.00  0.00    -0.241 C  
HETATM   32  O   UNL     1     -10.246   8.542  69.015  1.00  0.00    -0.199 OA 
HETATM   33  C   UNL     1      -9.597   9.826  69.186  1.00  0.00    -0.188 C  
HETATM   34  C   UNL     1      -9.145  10.505  67.884  1.00  0.00    -0.136 C  
HETATM   35  O   UNL     1      -8.385  11.700  68.163  1.00  0.00    -0.139 OA 
HETATM   36  C   UNL     1      -7.223  11.392  68.936  1.00  0.00    -0.113 C  
HETATM   37  H   UNL     1      -9.933   8.136  73.417  1.00  0.00     0.000 HD 
HETATM   38  O   UNL     1      -7.600  10.841  70.189  1.00  0.00    -0.012 OA 
HETATM   39  C   UNL     1      -8.355   9.640  70.048  1.00  0.00    -0.182 C  
HETATM   40  H   UNL     1      -7.940   8.686  73.100  1.00  0.00     0.000 HD 
HETATM   41  O   UNL     1     -10.547   8.115  72.692  1.00  0.00    -0.316 OA 
HETATM   42  C   UNL     1      -8.812   9.261  71.445  1.00  0.00     0.100 C  
HETATM   43  C   UNL     1      -9.814   8.104  71.447  1.00  0.00    -0.174 C  
HETATM   44  O   UNL     1      -7.654   8.924  72.226  1.00  0.00    -0.344 OA 
BRANCH  36  45
HETATM   45  C   UNL     1      -6.488  12.661  69.293  1.00  0.00    -0.106 A  
HETATM   46  S   UNL     1      -5.490  12.682  70.700  1.00  0.00    -0.176 SA 
HETATM   47  C   UNL     1      -5.803  14.898  69.452  1.00  0.00    -0.102 A  
HETATM   48  C   UNL     1      -6.541  13.921  68.718  1.00  0.00    -0.098 A  
HETATM   49  C   UNL     1      -5.192  14.360  70.563  1.00  0.00    -0.109 A  
ENDBRANCH  36  45
ENDBRANCH  30  31
ENDBRANCH  15  30
TORSDOF 6
ENDMDL
MODEL       91
REMARK 921   NORMALIZED FREE ENERGY PREDICTED BY IDOCK:    1.82 KCAL/MOL
REMARK 922        TOTAL FREE ENERGY PREDICTED BY IDOCK:    0.44 KCAL/MOL
REMARK 923 INTER-LIGAND FREE ENERGY PREDICTED BY IDOCK:   -2.49 KCAL/MOL
REMARK 924 INTRA-LIGAND FREE ENERGY PREDICTED BY IDOCK:    2.94 KCAL/MOL
REMARK 927      BINDING AFFINITY PREDICTED BY RF-SCORE:    0.00 PKD
ROOT
HETATM    1  C   UNL     1      -9.197  13.000  65.288  1.00  0.00     0.642 C  
HETATM    2  C   UNL     1     -10.003  12.694  64.057  1.00  0.00    -0.145 C  
HETATM    3  O   UNL     1     -10.870  13.839  63.911  1.00  0.00    -0.050 OA 
HETATM    4  C   UNL     1     -11.085  14.403  65.149  1.00  0.00    -0.362 C  
HETATM    5  C   UNL     1     -10.264  13.657  66.170  1.00  0.00    -0.306 C  
HETATM    6  O   UNL     1     -11.886  15.296  65.357  1.00  0.00    -0.109 OA 
HETATM    7  C   UNL     1      -9.636  14.436  67.329  1.00  0.00    -0.227 C  
HETATM    8  C   UNL     1      -8.516  13.595  67.968  1.00  0.00    -0.174 A  
HETATM    9  C   UNL     1      -7.986  12.400  67.357  1.00  0.00    -0.178 A  
HETATM   10  C   UNL     1      -7.972  14.066  69.181  1.00  0.00     0.146 A  
HETATM   11  C   UNL     1      -5.139  12.804  70.819  1.00  0.00    -0.127 C  
HETATM   12  C   UNL     1      -6.898  13.395  69.721  1.00  0.00     0.204 A  
HETATM   13  C   UNL     1      -6.898  11.747  67.968  1.00  0.00    -0.074 A  
HETATM   14  C   UNL     1      -6.375  12.274  69.130  1.00  0.00    -0.095 A  
HETATM   15  C   UNL     1      -8.480  11.850  66.011  1.00  0.00     0.198 C  
HETATM   16  O   UNL     1      -6.218  13.758  70.841  1.00  0.00    -0.113 OA 
HETATM   17  O   UNL     1      -5.292  11.793  69.799  1.00  0.00    -0.065 OA 
ENDROOT
BRANCH   7  18
HETATM   18  C   UNL     1      -9.208  15.863  66.936  1.00  0.00    -0.247 A  
HETATM   19  O   UNL     1      -7.852  19.283  64.948  1.00  0.00     0.558 OA 
HETATM   20  C   UNL     1      -8.368  18.229  65.656  1.00  0.00     0.595 A  
HETATM   21  C   UNL     1      -9.728  17.911  65.664  1.00  0.00     0.390 A  
HETATM   22  C   UNL     1      -7.881  16.288  67.035  1.00  0.00    -0.253 A  
HETATM   23  H   UNL     1      -6.927  19.499  64.942  1.00  0.00     0.000 HD 
HETATM   24  C   UNL     1     -10.129  16.729  66.314  1.00  0.00    -0.338 A  
HETATM   25  C   UNL     1      -7.448  17.446  66.382  1.00  0.00    -0.305 A  
BRANCH  21  26
HETATM   26  O   UNL     1     -10.781  18.571  65.096  1.00  0.00    -0.524 OA 
HETATM   27  C   UNL     1     -11.327  19.726  65.713  1.00  0.00     0.611 C  
ENDBRANCH  21  26
BRANCH  25  28
HETATM   28  O   UNL     1      -6.132  17.837  66.338  1.00  0.00    -0.165 OA 
HETATM   29  C   UNL     1      -5.521  18.144  67.585  1.00  0.00    -0.146 C  
ENDBRANCH  25  28
ENDBRANCH   7  18
BRANCH  15  30
HETATM   30  O   UNL     1      -9.384  10.755  66.106  1.00  0.00    -0.172 OA 
BRANCH  30  31
HETATM   31  C   UNL     1      -9.171   9.671  67.038  1.00  0.00    -0.142 C  
HETATM   32  O   UNL     1      -9.594   9.951  68.393  1.00  0.00    -0.145 OA 
HETATM   33  C   UNL     1      -9.117   8.945  69.320  1.00  0.00    -0.145 C  
HETATM   34  C   UNL     1      -9.699   9.039  70.739  1.00  0.00    -0.246 C  
HETATM   35  O   UNL     1      -9.060   8.093  71.622  1.00  0.00    -0.139 OA 
HETATM   36  C   UNL     1      -7.653   8.338  71.695  1.00  0.00    -0.096 C  
HETATM   37  H   UNL     1      -6.429   8.495  65.654  1.00  0.00     0.000 HD 
HETATM   38  O   UNL     1      -7.060   8.174  70.415  1.00  0.00    -0.040 OA 
HETATM   39  C   UNL     1      -7.604   9.068  69.448  1.00  0.00    -0.078 C  
HETATM   40  H   UNL     1      -5.198   8.691  67.333  1.00  0.00     0.000 HD 
HETATM   41  O   UNL     1      -7.363   8.659  65.719  1.00  0.00    -0.079 OA 
HETATM   42  C   UNL     1      -6.992   8.672  68.116  1.00  0.00    -0.074 C  
HETATM   43  C   UNL     1      -7.631   9.400  66.930  1.00  0.00    -0.091 C  
HETATM   44  O   UNL     1      -5.581   8.939  68.167  1.00  0.00    -0.038 OA 
BRANCH  36  45
HETATM   45  C   UNL     1      -6.989   7.288  72.551  1.00  0.00    -0.067 A  
HETATM   46  S   UNL     1      -7.445   5.636  72.351  1.00  0.00    -0.098 SA 
HETATM   47  C   UNL     1      -5.818   6.181  74.254  1.00  0.00    -0.062 A  
HETATM   48  C   UNL     1      -6.092   7.420  73.599  1.00  0.00    -0.060 A  
HETATM   49  C   UNL     1      -6.500   5.130  73.684  1.00  0.00    -0.063 A  
ENDBRANCH  36  45
ENDBRANCH  30  31
ENDBRANCH  15  30
TORSDOF 6
ENDMDL
MODEL       92
REMARK 921   NORMALIZED FREE ENERGY PREDICTED BY IDOCK:    2.45 KCAL/MOL
REMARK 922        TOTAL FREE ENERGY PREDICTED BY IDOCK:    1.28 KCAL/MOL
REMARK 923 INTER-LIGAND FREE ENERGY PREDICTED BY IDOCK:   -6.67 KCAL/MOL
REMARK 924 INTRA-LIGAND FREE ENERGY PREDICTED BY IDOCK:    7.96 KCAL/MOL
REMARK 927      BINDING AFFINITY PREDICTED BY RF-SCORE:    0.00 PKD
ROOT
HETATM    1  C   UNL     1      -7.974  11.729  67.104  1.00  0.00    -0.166 C  
HETATM    2  C   UNL     1      -7.470  10.318  66.978  1.00  0.00    -0.093 C  
HETATM    3  O   UNL     1      -8.654   9.546  66.688  1.00  0.00    -0.131 OA 
HETATM    4  C   UNL     1      -9.752  10.187  67.219  1.00  0.00    -0.167 C  
HETATM    5  C   UNL     1      -9.304  11.491  67.827  1.00  0.00    -0.168 C  
HETATM    6  O   UNL     1     -10.869   9.702  67.254  1.00  0.00    -0.254 OA 
HETATM    7  C   UNL     1     -10.225  12.711  67.727  1.00  0.00    -0.222 C  
HETATM    8  C   UNL     1      -9.415  13.991  67.999  1.00  0.00    -0.206 A  
HETATM    9  C   UNL     1      -7.974  14.013  68.045  1.00  0.00    -0.152 A  
HETATM   10  C   UNL     1     -10.143  15.189  68.158  1.00  0.00    -0.222 A  
HETATM   11  C   UNL     1      -8.805  18.426  68.350  1.00  0.00    -0.320 C  
HETATM   12  C   UNL     1      -9.444  16.367  68.295  1.00  0.00    -0.217 A  
HETATM   13  C   UNL     1      -7.316  15.248  68.207  1.00  0.00    -0.113 A  
HETATM   14  C   UNL     1      -8.073  16.395  68.313  1.00  0.00    -0.171 A  
HETATM   15  C   UNL     1      -7.102  12.767  67.825  1.00  0.00    -0.132 C  
HETATM   16  O   UNL     1      -9.991  17.608  68.387  1.00  0.00    -0.314 OA 
HETATM   17  O   UNL     1      -7.582  17.661  68.412  1.00  0.00    -0.239 OA 
ENDROOT
BRANCH   7  18
HETATM   18  C   UNL     1     -11.042  12.745  66.422  1.00  0.00    -0.320 A  
HETATM   19  O   UNL     1     -12.435  13.379  62.530  1.00  0.00    -0.519 OA 
HETATM   20  C   UNL     1     -12.031  13.071  63.802  1.00  0.00    -0.518 A  
HETATM   21  C   UNL     1     -11.303  11.919  64.113  1.00  0.00    -0.380 A  
HETATM   22  C   UNL     1     -11.896  13.807  66.115  1.00  0.00    -0.424 A  
HETATM   23  H   UNL     1     -12.930  14.162  62.319  1.00  0.00     0.000 HD 
HETATM   24  C   UNL     1     -10.824  11.772  65.427  1.00  0.00    -0.347 A  
HETATM   25  C   UNL     1     -12.371  13.993  64.812  1.00  0.00    -0.413 A  
BRANCH  21  26
HETATM   26  O   UNL     1     -10.939  10.876  63.309  1.00  0.00    -0.032 OA 
HETATM   27  C   UNL     1      -9.673  10.254  63.461  1.00  0.00    -0.193 C  
ENDBRANCH  21  26
BRANCH  25  28
HETATM   28  O   UNL     1     -13.105  15.089  64.429  1.00  0.00    -0.224 OA 
HETATM   29  C   UNL     1     -12.394  16.315  64.309  1.00  0.00     0.999 C  
ENDBRANCH  25  28
ENDBRANCH   7  18
BRANCH  15  30
HETATM   30  O   UNL     1      -6.597  12.172  69.014  1.00  0.00    -0.087 OA 
BRANCH  30  31
HETATM   31  C   UNL     1      -5.920  10.894  68.997  1.00  0.00    -0.041 C  
HETATM   32  O   UNL     1      -6.058  10.157  67.760  1.00  0.00    -0.055 OA 
HETATM   33  C   UNL     1      -5.591   8.793  67.898  1.00  0.00    -0.035 C  
HETATM   34  C   UNL     1      -5.494   8.002  66.584  1.00  0.00    -0.029 C  
HETATM   35  O   UNL     1      -5.163   6.621  66.836  1.00  0.00    -0.011 OA 
HETATM   36  C   UNL     1      -6.155   6.004  67.660  1.00  0.00    -0.018 C  
HETATM   37  H   UNL     1      -6.332  10.190  72.183  1.00  0.00     0.000 HD 
HETATM   38  O   UNL     1      -6.216   6.651  68.922  1.00  0.00    -0.025 OA 
HETATM   39  C   UNL     1      -6.548   8.032  68.807  1.00  0.00    -0.049 C  
HETATM   40  H   UNL     1      -7.355   8.387  71.909  1.00  0.00     0.000 HD 
HETATM   41  O   UNL     1      -5.954  10.647  71.441  1.00  0.00    -0.340 OA 
HETATM   42  C   UNL     1      -6.423   8.615  70.204  1.00  0.00    -0.038 C  
HETATM   43  C   UNL     1      -6.543  10.141  70.222  1.00  0.00    -0.137 C  
HETATM   44  O   UNL     1      -7.433   8.022  71.036  1.00  0.00    -0.066 OA 
BRANCH  36  45
HETATM   45  C   UNL     1      -5.749   4.587  67.986  1.00  0.00    -0.021 A  
HETATM   46  S   UNL     1      -5.670   3.426  66.713  1.00  0.00    -0.023 SA 
HETATM   47  C   UNL     1      -5.293   2.576  69.101  1.00  0.00    -0.013 A  
HETATM   48  C   UNL     1      -5.502   3.984  69.209  1.00  0.00    -0.012 A  
HETATM   49  C   UNL     1      -5.371   2.138  67.798  1.00  0.00    -0.017 A  
ENDBRANCH  36  45
ENDBRANCH  30  31
ENDBRANCH  15  30
TORSDOF 6
ENDMDL
MODEL       93
REMARK 921   NORMALIZED FREE ENERGY PREDICTED BY IDOCK:    3.01 KCAL/MOL
REMARK 922        TOTAL FREE ENERGY PREDICTED BY IDOCK:    2.05 KCAL/MOL
REMARK 923 INTER-LIGAND FREE ENERGY PREDICTED BY IDOCK:   -2.14 KCAL/MOL
REMARK 924 INTRA-LIGAND FREE ENERGY PREDICTED BY IDOCK:    4.19 KCAL/MOL
REMARK 927      BINDING AFFINITY PREDICTED BY RF-SCORE:    0.00 PKD
ROOT
HETATM    1  C   UNL     1     -10.994   5.998  68.991  1.00  0.00    -0.409 C  
HETATM    2  C   UNL     1     -12.232   6.569  68.358  1.00  0.00     3.184 C  
HETATM    3  O   UNL     1     -11.774   7.085  67.091  1.00  0.00     0.448 OA 
HETATM    4  C   UNL     1     -10.441   7.420  67.196  1.00  0.00    -0.333 C  
HETATM    5  C   UNL     1      -9.954   7.041  68.571  1.00  0.00    -0.158 C  
HETATM    6  O   UNL     1      -9.821   8.010  66.330  1.00  0.00    -0.195 OA 
HETATM    7  C   UNL     1      -8.526   6.510  68.731  1.00  0.00    -0.122 C  
HETATM    8  C   UNL     1      -8.394   5.788  70.084  1.00  0.00    -0.117 A  
HETATM    9  C   UNL     1      -9.530   5.440  70.902  1.00  0.00    -0.214 A  
HETATM   10  C   UNL     1      -7.095   5.422  70.491  1.00  0.00    -0.061 A  
HETATM   11  C   UNL     1      -6.268   3.393  73.231  1.00  0.00    -0.015 C  
HETATM   12  C   UNL     1      -6.954   4.681  71.643  1.00  0.00    -0.047 A  
HETATM   13  C   UNL     1      -9.320   4.698  72.080  1.00  0.00    -0.175 A  
HETATM   14  C   UNL     1      -8.034   4.326  72.410  1.00  0.00    -0.088 A  
HETATM   15  C   UNL     1     -10.982   5.750  70.507  1.00  0.00    -0.249 C  
HETATM   16  O   UNL     1      -5.784   4.191  72.133  1.00  0.00    -0.010 OA 
HETATM   17  O   UNL     1      -7.681   3.560  73.478  1.00  0.00    -0.064 OA 
ENDROOT
BRANCH   7  18
HETATM   18  C   UNL     1      -8.052   5.679  67.523  1.00  0.00    -0.102 A  
HETATM   19  O   UNL     1      -5.995   3.155  64.899  1.00  0.00    -0.017 OA 
HETATM   20  C   UNL     1      -6.764   3.947  65.710  1.00  0.00    -0.045 A  
HETATM   21  C   UNL     1      -7.790   3.443  66.515  1.00  0.00    -0.081 A  
HETATM   22  C   UNL     1      -7.129   6.178  66.602  1.00  0.00    -0.072 A  
HETATM   23  H   UNL     1      -5.297   3.497  64.352  1.00  0.00     0.000 HD 
HETATM   24  C   UNL     1      -8.425   4.325  67.408  1.00  0.00    -0.099 A  
HETATM   25  C   UNL     1      -6.464   5.324  65.715  1.00  0.00    -0.036 A  
BRANCH  21  26
HETATM   26  O   UNL     1      -8.284   2.172  66.603  1.00  0.00    -0.080 OA 
HETATM   27  C   UNL     1      -8.512   1.571  67.867  1.00  0.00    -0.069 C  
ENDBRANCH  21  26
BRANCH  25  28
HETATM   28  O   UNL     1      -5.456   5.741  64.882  1.00  0.00    -0.015 OA 
HETATM   29  C   UNL     1      -5.689   6.944  64.160  1.00  0.00    -0.032 C  
ENDBRANCH  25  28
ENDBRANCH   7  18
BRANCH  15  30
HETATM   30  O   UNL     1     -11.548   6.887  71.147  1.00  0.00    -0.283 OA 
BRANCH  30  31
HETATM   31  C   UNL     1     -10.915   8.186  71.091  1.00  0.00    -0.237 C  
HETATM   32  O   UNL     1     -10.801   8.743  69.760  1.00  0.00    -0.235 OA 
HETATM   33  C   UNL     1      -9.934   9.902  69.739  1.00  0.00    -0.243 C  
HETATM   34  C   UNL     1      -9.928  10.687  68.418  1.00  0.00    -0.163 C  
HETATM   35  O   UNL     1      -8.932  11.731  68.444  1.00  0.00    -0.178 OA 
HETATM   36  C   UNL     1      -7.627  11.183  68.646  1.00  0.00    -0.127 C  
HETATM   37  H   UNL     1      -8.842   7.721  73.602  1.00  0.00     0.000 HD 
HETATM   38  O   UNL     1      -7.564  10.521  69.901  1.00  0.00    -0.146 OA 
HETATM   39  C   UNL     1      -8.501   9.452  69.998  1.00  0.00    -0.190 C  
HETATM   40  H   UNL     1      -7.076   8.058  72.533  1.00  0.00     0.000 HD 
HETATM   41  O   UNL     1      -9.687   7.872  73.195  1.00  0.00    -0.256 OA 
HETATM   42  C   UNL     1      -8.423   8.950  71.429  1.00  0.00    -0.153 C  
HETATM   43  C   UNL     1      -9.521   7.936  71.761  1.00  0.00    -0.158 C  
HETATM   44  O   UNL     1      -7.125   8.372  71.638  1.00  0.00    -0.074 OA 
BRANCH  36  45
HETATM   45  C   UNL     1      -6.611  12.293  68.758  1.00  0.00    -0.084 A  
HETATM   46  S   UNL     1      -6.157  12.856  70.324  1.00  0.00     0.006 SA 
HETATM   47  C   UNL     1      -5.211  14.118  68.304  1.00  0.00    -0.112 A  
HETATM   48  C   UNL     1      -6.005  13.057  67.773  1.00  0.00    -0.145 A  
HETATM   49  C   UNL     1      -5.217  14.132  69.681  1.00  0.00    -0.091 A  
ENDBRANCH  36  45
ENDBRANCH  30  31
ENDBRANCH  15  30
TORSDOF 6
ENDMDL
MODEL       94
REMARK 921   NORMALIZED FREE ENERGY PREDICTED BY IDOCK:    3.63 KCAL/MOL
REMARK 922        TOTAL FREE ENERGY PREDICTED BY IDOCK:    2.89 KCAL/MOL
REMARK 923 INTER-LIGAND FREE ENERGY PREDICTED BY IDOCK:    1.67 KCAL/MOL
REMARK 924 INTRA-LIGAND FREE ENERGY PREDICTED BY IDOCK:    1.22 KCAL/MOL
REMARK 927      BINDING AFFINITY PREDICTED BY RF-SCORE:    0.00 PKD
ROOT
HETATM    1  C   UNL     1      -9.129   9.248  63.931  1.00  0.00     0.009 C  
HETATM    2  C   UNL     1      -8.733   9.523  62.507  1.00  0.00    -0.227 C  
HETATM    3  O   UNL     1      -7.505   8.784  62.335  1.00  0.00    -0.101 OA 
HETATM    4  C   UNL     1      -6.879   8.660  63.556  1.00  0.00    -0.088 C  
HETATM    5  C   UNL     1      -7.760   9.271  64.616  1.00  0.00    -0.116 C  
HETATM    6  O   UNL     1      -5.757   8.209  63.700  1.00  0.00    -0.063 OA 
HETATM    7  C   UNL     1      -7.811   8.621  66.002  1.00  0.00    -0.102 C  
HETATM    8  C   UNL     1      -9.061   9.113  66.755  1.00  0.00    -0.176 A  
HETATM    9  C   UNL     1     -10.130   9.838  66.112  1.00  0.00    -0.315 A  
HETATM   10  C   UNL     1      -9.157   8.784  68.123  1.00  0.00    -0.142 A  
HETATM   11  C   UNL     1     -11.954   9.258  70.186  1.00  0.00     0.203 C  
HETATM   12  C   UNL     1     -10.310   9.116  68.797  1.00  0.00    -0.214 A  
HETATM   13  C   UNL     1     -11.277  10.166  66.860  1.00  0.00     0.190 A  
HETATM   14  C   UNL     1     -11.339   9.782  68.183  1.00  0.00     0.129 A  
HETATM   15  C   UNL     1     -10.133  10.188  64.616  1.00  0.00    -0.140 C  
HETATM   16  O   UNL     1     -10.588   8.810  70.092  1.00  0.00    -0.211 OA 
HETATM   17  O   UNL     1     -12.401   9.973  69.013  1.00  0.00     0.319 OA 
ENDROOT
BRANCH   7  18
HETATM   18  C   UNL     1      -7.665   7.088  65.956  1.00  0.00    -0.099 A  
HETATM   19  O   UNL     1      -6.407   3.157  65.282  1.00  0.00    -0.029 OA 
HETATM   20  C   UNL     1      -6.858   4.411  65.604  1.00  0.00    -0.057 A  
HETATM   21  C   UNL     1      -6.454   5.093  66.754  1.00  0.00    -0.041 A  
HETATM   22  C   UNL     1      -8.169   6.331  64.897  1.00  0.00    -0.119 A  
HETATM   23  H   UNL     1      -6.682   2.693  64.500  1.00  0.00     0.000 HD 
HETATM   24  C   UNL     1      -6.873   6.427  66.915  1.00  0.00    -0.066 A  
HETATM   25  C   UNL     1      -7.755   5.010  64.697  1.00  0.00    -0.081 A  
BRANCH  21  26
HETATM   26  O   UNL     1      -5.661   4.672  67.784  1.00  0.00    -0.015 OA 
HETATM   27  C   UNL     1      -5.936   3.454  68.456  1.00  0.00    -0.024 C  
ENDBRANCH  21  26
BRANCH  25  28
HETATM   28  O   UNL     1      -8.118   4.265  63.601  1.00  0.00    -0.086 OA 
HETATM   29  C   UNL     1      -9.510   4.032  63.428  1.00  0.00    -0.150 C  
ENDBRANCH  25  28
ENDBRANCH   7  18
BRANCH  15  30
HETATM   30  O   UNL     1      -9.764  11.528  64.313  1.00  0.00    -0.234 OA 
BRANCH  30  31
HETATM   31  C   UNL     1      -9.884  12.590  65.287  1.00  0.00    -0.139 C  
HETATM   32  O   UNL     1      -9.510  12.215  66.634  1.00  0.00    -0.211 OA 
HETATM   33  C   UNL     1      -9.900  13.226  67.596  1.00  0.00    -0.230 C  
HETATM   34  C   UNL     1      -9.352  13.019  69.016  1.00  0.00     0.464 C  
HETATM   35  O   UNL     1      -9.909  13.987  69.930  1.00  0.00     0.715 OA 
HETATM   36  C   UNL     1     -11.333  13.877  69.978  1.00  0.00    -0.063 C  
HETATM   37  H   UNL     1     -12.478  14.081  63.923  1.00  0.00     0.000 HD 
HETATM   38  O   UNL     1     -11.889  14.149  68.700  1.00  0.00    -0.320 OA 
HETATM   39  C   UNL     1     -11.420  13.246  67.702  1.00  0.00    -0.321 C  
HETATM   40  H   UNL     1     -13.747  13.938  65.580  1.00  0.00     0.000 HD 
HETATM   41  O   UNL     1     -11.567  13.824  63.991  1.00  0.00    -0.361 OA 
HETATM   42  C   UNL     1     -11.972  13.752  66.381  1.00  0.00    -0.438 C  
HETATM   43  C   UNL     1     -11.389  13.012  65.173  1.00  0.00    -0.291 C  
HETATM   44  O   UNL     1     -13.402  13.622  66.406  1.00  0.00     0.433 OA 
BRANCH  36  45
HETATM   45  C   UNL     1     -11.905  14.952  70.869  1.00  0.00    -0.321 A  
HETATM   46  S   UNL     1     -13.284  15.839  70.331  1.00  0.00     0.764 SA 
HETATM   47  C   UNL     1     -12.193  16.585  72.527  1.00  0.00    -0.281 A  
HETATM   48  C   UNL     1     -11.444  15.457  72.075  1.00  0.00    -0.521 A  
HETATM   49  C   UNL     1     -13.216  16.909  71.664  1.00  0.00     4.839 A  
ENDBRANCH  36  45
ENDBRANCH  30  31
ENDBRANCH  15  30
TORSDOF 6
ENDMDL
MODEL       95
REMARK 921   NORMALIZED FREE ENERGY PREDICTED BY IDOCK:    3.67 KCAL/MOL
REMARK 922        TOTAL FREE ENERGY PREDICTED BY IDOCK:    2.93 KCAL/MOL
REMARK 923 INTER-LIGAND FREE ENERGY PREDICTED BY IDOCK:    0.89 KCAL/MOL
REMARK 924 INTRA-LIGAND FREE ENERGY PREDICTED BY IDOCK:    2.04 KCAL/MOL
REMARK 927      BINDING AFFINITY PREDICTED BY RF-SCORE:    0.00 PKD
ROOT
HETATM    1  C   UNL     1      -9.923   9.609  69.868  1.00  0.00    -0.273 C  
HETATM    2  C   UNL     1     -10.585   9.351  71.192  1.00  0.00    -0.333 C  
HETATM    3  O   UNL     1      -9.550   9.618  72.161  1.00  0.00     0.608 OA 
HETATM    4  C   UNL     1      -8.320   9.395  71.581  1.00  0.00     0.663 C  
HETATM    5  C   UNL     1      -8.528   9.036  70.132  1.00  0.00    -0.165 C  
HETATM    6  O   UNL     1      -7.269   9.402  72.196  1.00  0.00    -0.182 OA 
HETATM    7  C   UNL     1      -7.512   9.525  69.095  1.00  0.00    -0.074 C  
HETATM    8  C   UNL     1      -8.130   9.438  67.688  1.00  0.00    -0.106 A  
HETATM    9  C   UNL     1      -9.535   9.205  67.461  1.00  0.00    -0.169 A  
HETATM   10  C   UNL     1      -7.266   9.646  66.593  1.00  0.00    -0.086 A  
HETATM   11  C   UNL     1      -8.211   9.998  63.233  1.00  0.00    -0.162 C  
HETATM   12  C   UNL     1      -7.807   9.681  65.328  1.00  0.00    -0.115 A  
HETATM   13  C   UNL     1     -10.027   9.234  66.142  1.00  0.00    -0.348 A  
HETATM   14  C   UNL     1      -9.147   9.486  65.111  1.00  0.00    -0.228 A  
HETATM   15  C   UNL     1     -10.556   9.025  68.596  1.00  0.00    -0.160 C  
HETATM   16  O   UNL     1      -7.126   9.940  64.180  1.00  0.00    -0.120 OA 
HETATM   17  O   UNL     1      -9.481   9.605  63.797  1.00  0.00    -0.148 OA 
ENDROOT
BRANCH   7  18
HETATM   18  C   UNL     1      -6.915  10.903  69.438  1.00  0.00    -0.125 A  
HETATM   19  O   UNL     1      -6.171  14.738  70.930  1.00  0.00    -0.097 OA 
HETATM   20  C   UNL     1      -6.303  13.463  70.447  1.00  0.00     0.094 A  
HETATM   21  C   UNL     1      -5.840  12.337  71.132  1.00  0.00     0.344 A  
HETATM   22  C   UNL     1      -7.233  12.048  68.703  1.00  0.00    -0.110 A  
HETATM   23  H   UNL     1      -6.486  15.504  70.464  1.00  0.00     0.000 HD 
HETATM   24  C   UNL     1      -6.149  11.068  70.609  1.00  0.00    -0.034 A  
HETATM   25  C   UNL     1      -6.957  13.323  69.206  1.00  0.00     0.018 A  
BRANCH  21  26
HETATM   26  O   UNL     1      -5.126  12.257  72.295  1.00  0.00    -0.355 OA 
HETATM   27  C   UNL     1      -5.194  13.297  73.257  1.00  0.00     0.117 C  
ENDBRANCH  21  26
BRANCH  25  28
HETATM   28  O   UNL     1      -7.364  14.480  68.588  1.00  0.00    -0.113 OA 
HETATM   29  C   UNL     1      -8.755  14.593  68.309  1.00  0.00    -0.173 C  
ENDBRANCH  25  28
ENDBRANCH   7  18
BRANCH  15  30
HETATM   30  O   UNL     1     -10.924   7.677  68.862  1.00  0.00    -0.075 OA 
BRANCH  30  31
HETATM   31  C   UNL     1     -10.141   6.563  68.376  1.00  0.00    -0.160 C  
HETATM   32  O   UNL     1      -8.721   6.824  68.279  1.00  0.00    -0.123 OA 
HETATM   33  C   UNL     1      -8.036   5.779  67.545  1.00  0.00    -0.102 C  
HETATM   34  C   UNL     1      -6.502   5.857  67.581  1.00  0.00    -0.047 C  
HETATM   35  O   UNL     1      -5.916   4.868  66.709  1.00  0.00    -0.025 OA 
HETATM   36  C   UNL     1      -6.344   5.064  65.359  1.00  0.00    -0.035 C  
HETATM   37  H   UNL     1     -12.424   5.333  66.353  1.00  0.00     0.000 HD 
HETATM   38  O   UNL     1      -7.753   4.913  65.266  1.00  0.00    -0.084 OA 
HETATM   39  C   UNL     1      -8.453   5.849  66.082  1.00  0.00    -0.132 C  
HETATM   40  H   UNL     1     -11.289   5.446  64.599  1.00  0.00     0.000 HD 
HETATM   41  O   UNL     1     -12.029   5.526  67.195  1.00  0.00     2.529 OA 
HETATM   42  C   UNL     1      -9.920   5.467  65.998  1.00  0.00    -0.084 C  
HETATM   43  C   UNL     1     -10.793   6.245  66.987  1.00  0.00    -0.383 C  
HETATM   44  O   UNL     1     -10.371   5.685  64.651  1.00  0.00     1.483 OA 
BRANCH  36  45
HETATM   45  C   UNL     1      -5.793   3.971  64.477  1.00  0.00    -0.014 A  
HETATM   46  S   UNL     1      -5.532   4.299  62.804  1.00  0.00    -0.009 SA 
HETATM   47  C   UNL     1      -5.154   1.893  63.600  1.00  0.00    -0.004 A  
HETATM   48  C   UNL     1      -5.526   2.641  64.758  1.00  0.00    -0.009 A  
HETATM   49  C   UNL     1      -5.130   2.672  62.464  1.00  0.00    -0.004 A  
ENDBRANCH  36  45
ENDBRANCH  30  31
ENDBRANCH  15  30
TORSDOF 6
ENDMDL
MODEL       96
REMARK 921   NORMALIZED FREE ENERGY PREDICTED BY IDOCK:    3.79 KCAL/MOL
REMARK 922        TOTAL FREE ENERGY PREDICTED BY IDOCK:    3.09 KCAL/MOL
REMARK 923 INTER-LIGAND FREE ENERGY PREDICTED BY IDOCK:   -2.94 KCAL/MOL
REMARK 924 INTRA-LIGAND FREE ENERGY PREDICTED BY IDOCK:    6.03 KCAL/MOL
REMARK 927      BINDING AFFINITY PREDICTED BY RF-SCORE:    0.00 PKD
ROOT
HETATM    1  C   UNL     1      -7.975  13.344  67.352  1.00  0.00    -0.170 C  
HETATM    2  C   UNL     1      -7.469  14.246  66.261  1.00  0.00     2.631 C  
HETATM    3  O   UNL     1      -8.620  15.039  65.900  1.00  0.00     0.234 OA 
HETATM    4  C   UNL     1      -9.765  14.325  66.177  1.00  0.00    -0.303 C  
HETATM    5  C   UNL     1      -9.377  13.022  66.828  1.00  0.00    -0.244 C  
HETATM    6  O   UNL     1     -10.882  14.682  65.848  1.00  0.00    -0.296 OA 
HETATM    7  C   UNL     1     -10.273  12.449  67.929  1.00  0.00    -0.213 C  
HETATM    8  C   UNL     1      -9.490  11.397  68.735  1.00  0.00    -0.128 A  
HETATM    9  C   UNL     1      -8.062  11.226  68.622  1.00  0.00    -0.145 A  
HETATM   10  C   UNL     1     -10.222  10.614  69.652  1.00  0.00    -0.156 A  
HETATM   11  C   UNL     1      -8.891   8.410  72.033  1.00  0.00    -0.211 C  
HETATM   12  C   UNL     1      -9.534   9.741  70.463  1.00  0.00    -0.077 A  
HETATM   13  C   UNL     1      -7.417  10.302  69.467  1.00  0.00    -0.142 A  
HETATM   14  C   UNL     1      -8.173   9.594  70.376  1.00  0.00    -0.160 A  
HETATM   15  C   UNL     1      -7.180  12.074  67.692  1.00  0.00    -0.117 C  
HETATM   16  O   UNL     1     -10.079   8.970  71.442  1.00  0.00    -0.279 OA 
HETATM   17  O   UNL     1      -7.687   8.716  71.296  1.00  0.00    -0.097 OA 
ENDROOT
BRANCH   7  18
HETATM   18  C   UNL     1     -10.941  13.536  68.792  1.00  0.00    -0.291 A  
HETATM   19  O   UNL     1     -11.914  16.339  71.739  1.00  0.00    -0.572 OA 
HETATM   20  C   UNL     1     -11.643  15.491  70.699  1.00  0.00    -0.349 A  
HETATM   21  C   UNL     1     -10.915  15.877  69.570  1.00  0.00    -0.311 A  
HETATM   22  C   UNL     1     -11.792  13.217  69.853  1.00  0.00    -0.378 A  
HETATM   23  H   UNL     1     -12.409  16.077  72.506  1.00  0.00     0.000 HD 
HETATM   24  C   UNL     1     -10.580  14.888  68.627  1.00  0.00    -0.251 A  
HETATM   25  C   UNL     1     -12.126  14.172  70.819  1.00  0.00    -0.349 A  
BRANCH  21  26
HETATM   26  O   UNL     1     -10.427  17.106  69.227  1.00  0.00    -0.337 OA 
HETATM   27  C   UNL     1      -9.050  17.407  69.384  1.00  0.00     0.348 C  
ENDBRANCH  21  26
BRANCH  25  28
HETATM   28  O   UNL     1     -12.849  13.878  71.948  1.00  0.00    -0.331 OA 
HETATM   29  C   UNL     1     -13.413  12.573  72.017  1.00  0.00    -0.387 C  
ENDBRANCH  25  28
ENDBRANCH   7  18
BRANCH  15  30
HETATM   30  O   UNL     1      -6.813  11.441  66.472  1.00  0.00    -0.130 OA 
BRANCH  30  31
HETATM   31  C   UNL     1      -6.829  10.002  66.326  1.00  0.00    -0.099 C  
HETATM   32  O   UNL     1      -5.942   9.493  65.302  1.00  0.00    -0.061 OA 
HETATM   33  C   UNL     1      -6.196   8.094  65.025  1.00  0.00    -0.048 C  
HETATM   34  C   UNL     1      -5.163   7.413  64.115  1.00  0.00    -0.029 C  
HETATM   35  O   UNL     1      -5.576   6.071  63.780  1.00  0.00    -0.017 OA 
HETATM   36  C   UNL     1      -6.834   6.082  63.102  1.00  0.00    -0.044 C  
HETATM   37  H   UNL     1      -9.998   9.564  67.088  1.00  0.00     0.000 HD 
HETATM   38  O   UNL     1      -7.840   6.625  63.945  1.00  0.00    -0.114 OA 
HETATM   39  C   UNL     1      -7.551   7.964  64.340  1.00  0.00    -0.116 C  
HETATM   40  H   UNL     1     -10.556   8.628  65.302  1.00  0.00     0.000 HD 
HETATM   41  O   UNL     1      -9.085   9.756  67.265  1.00  0.00    -0.134 OA 
HETATM   42  C   UNL     1      -8.620   8.347  65.347  1.00  0.00    -0.167 C  
HETATM   43  C   UNL     1      -8.335   9.687  66.032  1.00  0.00    -0.120 C  
HETATM   44  O   UNL     1      -9.887   8.388  64.672  1.00  0.00     1.531 OA 
BRANCH  36  45
HETATM   45  C   UNL     1      -7.292   4.668  62.839  1.00  0.00    -0.048 A  
HETATM   46  S   UNL     1      -8.955   4.271  63.072  1.00  0.00    -0.124 SA 
HETATM   47  C   UNL     1      -7.359   2.350  62.498  1.00  0.00    -0.037 A  
HETATM   48  C   UNL     1      -6.564   3.535  62.513  1.00  0.00    -0.022 A  
HETATM   49  C   UNL     1      -8.679   2.605  62.799  1.00  0.00    -0.081 A  
ENDBRANCH  36  45
ENDBRANCH  30  31
ENDBRANCH  15  30
TORSDOF 6
ENDMDL
MODEL       97
REMARK 921   NORMALIZED FREE ENERGY PREDICTED BY IDOCK:    3.79 KCAL/MOL
REMARK 922        TOTAL FREE ENERGY PREDICTED BY IDOCK:    3.10 KCAL/MOL
REMARK 923 INTER-LIGAND FREE ENERGY PREDICTED BY IDOCK:    2.07 KCAL/MOL
REMARK 924 INTRA-LIGAND FREE ENERGY PREDICTED BY IDOCK:    1.03 KCAL/MOL
REMARK 927      BINDING AFFINITY PREDICTED BY RF-SCORE:    0.00 PKD
ROOT
HETATM    1  C   UNL     1      -9.781  13.747  68.808  1.00  0.00    -0.069 C  
HETATM    2  C   UNL     1      -9.400  13.921  70.251  1.00  0.00     2.815 C  
HETATM    3  O   UNL     1      -8.537  15.078  70.251  1.00  0.00     0.398 OA 
HETATM    4  C   UNL     1      -7.926  15.184  69.021  1.00  0.00    -0.188 C  
HETATM    5  C   UNL     1      -8.457  14.097  68.121  1.00  0.00    -0.173 C  
HETATM    6  O   UNL     1      -7.038  15.979  68.771  1.00  0.00    -0.130 OA 
HETATM    7  C   UNL     1      -8.657  14.400  66.633  1.00  0.00    -0.053 C  
HETATM    8  C   UNL     1      -9.593  13.346  66.015  1.00  0.00    -0.174 A  
HETATM    9  C   UNL     1     -10.363  12.418  66.808  1.00  0.00    -0.239 A  
HETATM   10  C   UNL     1      -9.718  13.343  64.610  1.00  0.00     0.223 A  
HETATM   11  C   UNL     1     -12.020  11.480  62.729  1.00  0.00     0.821 C  
HETATM   12  C   UNL     1     -10.629  12.486  64.035  1.00  0.00    -0.421 A  
HETATM   13  C   UNL     1     -11.264  11.551  66.159  1.00  0.00    -0.265 A  
HETATM   14  C   UNL     1     -11.381  11.620  64.787  1.00  0.00    -0.201 A  
HETATM   15  C   UNL     1     -10.330  12.390  68.343  1.00  0.00    -0.229 C  
HETATM   16  O   UNL     1     -10.919  12.410  62.709  1.00  0.00     0.229 OA 
HETATM   17  O   UNL     1     -12.248  10.894  64.030  1.00  0.00     1.138 OA 
ENDROOT
BRANCH   7  18
HETATM   18  C   UNL     1      -9.081  15.856  66.364  1.00  0.00    -0.355 A  
HETATM   19  O   UNL     1     -11.023  19.559  66.269  1.00  0.00    -0.353 OA 
HETATM   20  C   UNL     1     -10.289  18.402  66.293  1.00  0.00    -0.415 A  
HETATM   21  C   UNL     1      -9.289  18.153  67.237  1.00  0.00    -0.252 A  
HETATM   22  C   UNL     1      -9.975  16.187  65.343  1.00  0.00    -0.141 A  
HETATM   23  H   UNL     1     -11.703  19.727  65.627  1.00  0.00     0.000 HD 
HETATM   24  C   UNL     1      -8.693  16.879  67.252  1.00  0.00    -0.207 A  
HETATM   25  C   UNL     1     -10.600  17.438  65.313  1.00  0.00     0.072 A  
BRANCH  21  26
HETATM   26  O   UNL     1      -8.788  18.970  68.211  1.00  0.00    -0.309 OA 
HETATM   27  C   UNL     1      -9.583  19.335  69.328  1.00  0.00    -0.197 C  
ENDBRANCH  21  26
BRANCH  25  28
HETATM   28  O   UNL     1     -11.581  17.767  64.409  1.00  0.00     0.233 OA 
HETATM   29  C   UNL     1     -12.291  16.683  63.824  1.00  0.00     3.319 C  
ENDBRANCH  25  28
ENDBRANCH   7  18
BRANCH  15  30
HETATM   30  O   UNL     1      -9.519  11.367  68.907  1.00  0.00    -0.155 OA 
BRANCH  30  31
HETATM   31  C   UNL     1     -10.081  10.118  69.372  1.00  0.00    -0.231 C  
HETATM   32  O   UNL     1     -10.210  10.016  70.809  1.00  0.00    -0.172 OA 
HETATM   33  C   UNL     1     -10.524   8.662  71.220  1.00  0.00    -0.242 C  
HETATM   34  C   UNL     1     -10.895   8.503  72.703  1.00  0.00    -0.131 C  
HETATM   35  O   UNL     1     -11.048   7.110  73.049  1.00  0.00    -0.302 OA 
HETATM   36  C   UNL     1      -9.834   6.392  72.809  1.00  0.00    -0.169 C  
HETATM   37  H   UNL     1      -8.815   8.214  67.008  1.00  0.00     0.000 HD 
HETATM   38  O   UNL     1      -9.500   6.441  71.430  1.00  0.00    -0.156 OA 
HETATM   39  C   UNL     1      -9.312   7.775  70.965  1.00  0.00    -0.152 C  
HETATM   40  H   UNL     1      -7.765   6.917  68.269  1.00  0.00     0.000 HD 
HETATM   41  O   UNL     1      -9.403   8.867  67.370  1.00  0.00    -0.133 OA 
HETATM   42  C   UNL     1      -9.118   7.675  69.463  1.00  0.00    -0.146 C  
HETATM   43  C   UNL     1      -9.111   9.043  68.774  1.00  0.00    -0.137 C  
HETATM   44  O   UNL     1      -7.887   6.979  69.209  1.00  0.00    -0.109 OA 
BRANCH  36  45
HETATM   45  C   UNL     1     -10.037   4.924  73.093  1.00  0.00    -0.161 A  
HETATM   46  S   UNL     1      -8.895   4.099  74.087  1.00  0.00    -0.094 SA 
HETATM   47  C   UNL     1     -10.734   2.688  72.996  1.00  0.00    -0.231 A  
HETATM   48  C   UNL     1     -10.978   4.036  72.596  1.00  0.00     0.000 A  
HETATM   49  C   UNL     1      -9.622   2.578  73.801  1.00  0.00    -0.086 A  
ENDBRANCH  36  45
ENDBRANCH  30  31
ENDBRANCH  15  30
TORSDOF 6
ENDMDL
MODEL       98
REMARK 921   NORMALIZED FREE ENERGY PREDICTED BY IDOCK:    5.53 KCAL/MOL
REMARK 922        TOTAL FREE ENERGY PREDICTED BY IDOCK:    5.45 KCAL/MOL
REMARK 923 INTER-LIGAND FREE ENERGY PREDICTED BY IDOCK:    1.57 KCAL/MOL
REMARK 924 INTRA-LIGAND FREE ENERGY PREDICTED BY IDOCK:    3.87 KCAL/MOL
REMARK 927      BINDING AFFINITY PREDICTED BY RF-SCORE:    0.00 PKD
ROOT
HETATM    1  C   UNL     1     -10.434  13.654  68.374  1.00  0.00    -0.251 C  
HETATM    2  C   UNL     1     -10.180  12.741  67.207  1.00  0.00    -0.232 C  
HETATM    3  O   UNL     1      -9.890  13.638  66.115  1.00  0.00    -0.293 OA 
HETATM    4  C   UNL     1     -10.518  14.843  66.342  1.00  0.00    -0.299 C  
HETATM    5  C   UNL     1     -11.200  14.788  67.686  1.00  0.00    -0.332 C  
HETATM    6  O   UNL     1     -10.571  15.745  65.525  1.00  0.00    -0.360 OA 
HETATM    7  C   UNL     1     -11.234  16.051  68.551  1.00  0.00    -0.374 C  
HETATM    8  C   UNL     1     -11.561  15.669  70.006  1.00  0.00    -0.360 A  
HETATM    9  C   UNL     1     -11.541  14.308  70.484  1.00  0.00    -0.239 A  
HETATM   10  C   UNL     1     -11.844  16.724  70.898  1.00  0.00     0.847 A  
HETATM   11  C   UNL     1     -12.212  16.465  74.377  1.00  0.00    -0.375 C  
HETATM   12  C   UNL     1     -12.034  16.424  72.228  1.00  0.00    -0.439 A  
HETATM   13  C   UNL     1     -11.763  14.063  71.853  1.00  0.00     0.721 A  
HETATM   14  C   UNL     1     -11.990  15.134  72.691  1.00  0.00    -0.382 A  
HETATM   15  C   UNL     1     -11.188  13.106  69.595  1.00  0.00    -0.019 C  
HETATM   16  O   UNL     1     -12.244  17.326  73.223  1.00  0.00     0.328 OA 
HETATM   17  O   UNL     1     -12.159  15.061  74.039  1.00  0.00    -0.545 OA 
ENDROOT
BRANCH   7  18
HETATM   18  C   UNL     1      -9.975  16.925  68.395  1.00  0.00    -0.275 A  
HETATM   19  O   UNL     1      -7.257  20.025  67.699  1.00  0.00    -0.261 OA 
HETATM   20  C   UNL     1      -8.079  18.974  68.010  1.00  0.00    -0.295 A  
HETATM   21  C   UNL     1      -8.607  18.773  69.288  1.00  0.00     0.170 A  
HETATM   22  C   UNL     1      -9.319  17.059  67.171  1.00  0.00    -0.241 A  
HETATM   23  H   UNL     1      -6.898  20.162  66.830  1.00  0.00     0.000 HD 
HETATM   24  C   UNL     1      -9.547  17.740  69.461  1.00  0.00     0.374 A  
HETATM   25  C   UNL     1      -8.395  18.089  66.960  1.00  0.00    -0.236 A  
BRANCH  21  26
HETATM   26  O   UNL     1      -8.373  19.460  70.445  1.00  0.00     1.169 OA 
HETATM   27  C   UNL     1      -8.997  20.712  70.682  1.00  0.00     2.241 C  
ENDBRANCH  21  26
BRANCH  25  28
HETATM   28  O   UNL     1      -7.820  18.345  65.739  1.00  0.00    -0.510 OA 
HETATM   29  C   UNL     1      -6.460  17.958  65.587  1.00  0.00    -0.174 C  
ENDBRANCH  25  28
ENDBRANCH   7  18
BRANCH  15  30
HETATM   30  O   UNL     1     -12.305  12.358  69.127  1.00  0.00    -0.086 OA 
BRANCH  30  31
HETATM   31  C   UNL     1     -12.201  10.950  68.814  1.00  0.00     0.106 C  
HETATM   32  O   UNL     1     -11.302  10.209  69.671  1.00  0.00    -0.246 OA 
HETATM   33  C   UNL     1     -11.039   8.883  69.149  1.00  0.00     0.137 C  
HETATM   34  C   UNL     1     -10.275   7.949  70.099  1.00  0.00    -0.202 C  
HETATM   35  O   UNL     1      -9.935   6.710  69.441  1.00  0.00    -0.153 OA 
HETATM   36  C   UNL     1      -9.117   6.953  68.294  1.00  0.00    -0.125 C  
HETATM   37  H   UNL     1     -12.606  11.241  65.563  1.00  0.00     0.000 HD 
HETATM   38  O   UNL     1      -9.822   7.743  67.348  1.00  0.00    -0.151 OA 
HETATM   39  C   UNL     1     -10.207   9.008  67.879  1.00  0.00    -0.221 C  
HETATM   40  H   UNL     1     -10.797  10.350  65.006  1.00  0.00     0.000 HD 
HETATM   41  O   UNL     1     -12.882  11.242  66.472  1.00  0.00     3.148 OA 
HETATM   42  C   UNL     1     -11.073   9.665  66.819  1.00  0.00     0.365 C  
HETATM   43  C   UNL     1     -11.746  10.948  67.315  1.00  0.00     0.379 C  
HETATM   44  O   UNL     1     -10.255   9.939  65.669  1.00  0.00    -0.269 OA 
BRANCH  36  45
HETATM   45  C   UNL     1      -8.845   5.657  67.570  1.00  0.00    -0.105 A  
HETATM   46  S   UNL     1     -10.170   4.625  67.178  1.00  0.00    -0.020 SA 
HETATM   47  C   UNL     1      -7.814   3.751  66.676  1.00  0.00    -0.088 A  
HETATM   48  C   UNL     1      -7.645   5.060  67.220  1.00  0.00    -0.091 A  
HETATM   49  C   UNL     1      -9.139   3.384  66.609  1.00  0.00    -0.164 A  
ENDBRANCH  36  45
ENDBRANCH  30  31
ENDBRANCH  15  30
TORSDOF 6
ENDMDL
MODEL       99
REMARK 921   NORMALIZED FREE ENERGY PREDICTED BY IDOCK:    5.96 KCAL/MOL
REMARK 922        TOTAL FREE ENERGY PREDICTED BY IDOCK:    6.03 KCAL/MOL
REMARK 923 INTER-LIGAND FREE ENERGY PREDICTED BY IDOCK:   -1.04 KCAL/MOL
REMARK 924 INTRA-LIGAND FREE ENERGY PREDICTED BY IDOCK:    7.07 KCAL/MOL
REMARK 927      BINDING AFFINITY PREDICTED BY RF-SCORE:    0.00 PKD
ROOT
HETATM    1  C   UNL     1      -9.562   8.122  67.530  1.00  0.00    -0.196 C  
HETATM    2  C   UNL     1     -10.051   9.391  68.168  1.00  0.00    -0.181 C  
HETATM    3  O   UNL     1      -8.856  10.181  68.342  1.00  0.00    -0.118 OA 
HETATM    4  C   UNL     1      -7.772   9.339  68.461  1.00  0.00    -0.085 C  
HETATM    5  C   UNL     1      -8.242   7.918  68.280  1.00  0.00    -0.124 C  
HETATM    6  O   UNL     1      -6.652   9.713  68.757  1.00  0.00    -0.047 OA 
HETATM    7  C   UNL     1      -7.330   6.923  67.556  1.00  0.00    -0.096 C  
HETATM    8  C   UNL     1      -8.155   5.706  67.100  1.00  0.00    -0.102 A  
HETATM    9  C   UNL     1      -9.598   5.686  67.116  1.00  0.00    -0.137 A  
HETATM   10  C   UNL     1      -7.441   4.595  66.605  1.00  0.00    -0.086 A  
HETATM   11  C   UNL     1      -8.811   1.771  65.039  1.00  0.00    -0.117 C  
HETATM   12  C   UNL     1      -8.153   3.535  66.090  1.00  0.00    -0.093 A  
HETATM   13  C   UNL     1     -10.269   4.564  66.592  1.00  0.00    -0.200 A  
HETATM   14  C   UNL     1      -9.524   3.523  66.080  1.00  0.00    -0.137 A  
HETATM   15  C   UNL     1     -10.454   6.872  67.583  1.00  0.00    -0.228 C  
HETATM   16  O   UNL     1      -7.619   2.426  65.514  1.00  0.00    -0.070 OA 
HETATM   17  O   UNL     1     -10.028   2.406  65.488  1.00  0.00     0.380 OA 
ENDROOT
BRANCH   7  18
HETATM   18  C   UNL     1      -6.493   7.573  66.438  1.00  0.00    -0.049 A  
HETATM   19  O   UNL     1      -5.154   9.429  62.938  1.00  0.00    -0.066 OA 
HETATM   20  C   UNL     1      -5.511   8.877  64.140  1.00  0.00    -0.056 A  
HETATM   21  C   UNL     1      -5.856   9.643  65.257  1.00  0.00    -0.067 A  
HETATM   22  C   UNL     1      -6.001   6.833  65.360  1.00  0.00    -0.035 A  
HETATM   23  H   UNL     1      -4.920   8.909  62.179  1.00  0.00     0.000 HD 
HETATM   24  C   UNL     1      -6.338   8.972  66.397  1.00  0.00    -0.065 A  
HETATM   25  C   UNL     1      -5.536   7.469  64.205  1.00  0.00    -0.033 A  
BRANCH  21  26
HETATM   26  O   UNL     1      -5.828  10.998  65.427  1.00  0.00    -0.080 OA 
HETATM   27  C   UNL     1      -5.240  11.570  66.584  1.00  0.00    -0.118 C  
ENDBRANCH  21  26
BRANCH  25  28
HETATM   28  O   UNL     1      -5.164   6.791  63.070  1.00  0.00    -0.029 OA 
HETATM   29  C   UNL     1      -5.486   5.406  63.028  1.00  0.00    -0.014 C  
ENDBRANCH  25  28
ENDBRANCH   7  18
BRANCH  15  30
HETATM   30  O   UNL     1     -10.972   6.754  68.903  1.00  0.00    -0.242 OA 
BRANCH  30  31
HETATM   31  C   UNL     1     -11.742   7.813  69.516  1.00  0.00     0.697 C  
HETATM   32  O   UNL     1     -11.715   9.069  68.798  1.00  0.00     0.777 OA 
HETATM   33  C   UNL     1     -12.275  10.147  69.588  1.00  0.00     0.152 C  
HETATM   34  C   UNL     1     -12.490  11.466  68.829  1.00  0.00     0.466 C  
HETATM   35  O   UNL     1     -12.911  12.514  69.727  1.00  0.00     0.378 OA 
HETATM   36  C   UNL     1     -11.930  12.735  70.744  1.00  0.00     0.008 C  
HETATM   37  H   UNL     1     -11.239   6.907  72.638  1.00  0.00     0.000 HD 
HETATM   38  O   UNL     1     -11.764  11.562  71.527  1.00  0.00     0.651 OA 
HETATM   39  C   UNL     1     -11.337  10.447  70.750  1.00  0.00    -0.284 C  
HETATM   40  H   UNL     1     -10.365   8.697  73.278  1.00  0.00     0.000 HD 
HETATM   41  O   UNL     1     -11.615   6.840  71.768  1.00  0.00    -0.267 OA 
HETATM   42  C   UNL     1     -11.355   9.249  71.683  1.00  0.00    -0.397 C  
HETATM   43  C   UNL     1     -11.122   7.925  70.951  1.00  0.00    -0.255 C  
HETATM   44  O   UNL     1     -10.354   9.446  72.695  1.00  0.00     0.904 OA 
BRANCH  36  45
HETATM   45  C   UNL     1     -12.425  13.771  71.723  1.00  0.00    -0.158 A  
HETATM   46  S   UNL     1     -14.124  13.972  71.940  1.00  0.00    -0.408 SA 
HETATM   47  C   UNL     1     -12.584  15.618  73.159  1.00  0.00    -0.588 A  
HETATM   48  C   UNL     1     -11.727  14.715  72.460  1.00  0.00    -0.001 A  
HETATM   49  C   UNL     1     -13.916  15.335  72.952  1.00  0.00    -0.228 A  
ENDBRANCH  36  45
ENDBRANCH  30  31
ENDBRANCH  15  30
TORSDOF 6
ENDMDL
MODEL      100
REMARK 921   NORMALIZED FREE ENERGY PREDICTED BY IDOCK:    9.57 KCAL/MOL
REMARK 922        TOTAL FREE ENERGY PREDICTED BY IDOCK:   10.90 KCAL/MOL
REMARK 923 INTER-LIGAND FREE ENERGY PREDICTED BY IDOCK:   -0.93 KCAL/MOL
REMARK 924 INTRA-LIGAND FREE ENERGY PREDICTED BY IDOCK:   11.84 KCAL/MOL
REMARK 927      BINDING AFFINITY PREDICTED BY RF-SCORE:    0.00 PKD
ROOT
HETATM    1  C   UNL     1     -10.666   7.600  68.219  1.00  0.00    -0.107 C  
HETATM    2  C   UNL     1     -11.895   8.341  67.773  1.00  0.00     3.090 C  
HETATM    3  O   UNL     1     -11.421   9.210  66.723  1.00  0.00     1.058 OA 
HETATM    4  C   UNL     1     -10.089   9.491  66.938  1.00  0.00    -0.230 C  
HETATM    5  C   UNL     1      -9.618   8.715  68.142  1.00  0.00    -0.162 C  
HETATM    6  O   UNL     1      -9.457  10.310  66.295  1.00  0.00    -0.165 OA 
HETATM    7  C   UNL     1      -8.194   8.152  68.150  1.00  0.00    -0.129 C  
HETATM    8  C   UNL     1      -8.079   7.057  69.226  1.00  0.00    -0.120 A  
HETATM    9  C   UNL     1      -9.225   6.487  69.890  1.00  0.00    -0.149 A  
HETATM   10  C   UNL     1      -6.786   6.579  69.519  1.00  0.00    -0.053 A  
HETATM   11  C   UNL     1      -5.995   3.818  71.534  1.00  0.00    -0.013 C  
HETATM   12  C   UNL     1      -6.660   5.526  70.397  1.00  0.00    -0.043 A  
HETATM   13  C   UNL     1      -9.031   5.424  70.794  1.00  0.00    -0.156 A  
HETATM   14  C   UNL     1      -7.749   4.964  71.012  1.00  0.00    -0.082 A  
HETATM   15  C   UNL     1     -10.672   6.908  69.591  1.00  0.00    -0.245 C  
HETATM   16  O   UNL     1      -5.497   4.906  70.731  1.00  0.00    -0.007 OA 
HETATM   17  O   UNL     1      -7.411   3.911  71.805  1.00  0.00    -0.051 OA 
ENDROOT
BRANCH   7  18
HETATM   18  C   UNL     1      -7.707   7.719  66.754  1.00  0.00    -0.099 A  
HETATM   19  O   UNL     1      -7.343   6.854  62.679  1.00  0.00    -0.060 OA 
HETATM   20  C   UNL     1      -7.352   7.165  64.013  1.00  0.00    -0.081 A  
HETATM   21  C   UNL     1      -6.960   8.412  64.508  1.00  0.00    -0.073 A  
HETATM   22  C   UNL     1      -7.949   6.438  66.254  1.00  0.00    -0.111 A  
HETATM   23  H   UNL     1      -7.609   6.007  62.343  1.00  0.00     0.000 HD 
HETATM   24  C   UNL     1      -7.139   8.667  65.880  1.00  0.00    -0.076 A  
HETATM   25  C   UNL     1      -7.801   6.158  64.892  1.00  0.00    -0.108 A  
BRANCH  21  26
HETATM   26  O   UNL     1      -6.433   9.484  63.846  1.00  0.00    -0.092 OA 
HETATM   27  C   UNL     1      -5.612   9.298  62.705  1.00  0.00    -0.085 C  
ENDBRANCH  21  26
BRANCH  25  28
HETATM   28  O   UNL     1      -8.149   4.955  64.328  1.00  0.00    -0.101 OA 
HETATM   29  C   UNL     1      -9.303   4.317  64.861  1.00  0.00    -0.165 C  
ENDBRANCH  25  28
ENDBRANCH   7  18
BRANCH  15  30
HETATM   30  O   UNL     1     -11.243   7.805  70.536  1.00  0.00    -0.265 OA 
BRANCH  30  31
HETATM   31  C   UNL     1     -10.907   9.211  70.550  1.00  0.00    -0.255 C  
HETATM   32  O   UNL     1     -11.332   9.943  69.377  1.00  0.00    -0.193 OA 
HETATM   33  C   UNL     1     -10.741  11.265  69.330  1.00  0.00    -0.141 C  
HETATM   34  C   UNL     1     -11.304  12.191  68.241  1.00  0.00    -0.289 C  
HETATM   35  O   UNL     1     -10.558  13.425  68.179  1.00  0.00    -0.232 OA 
HETATM   36  C   UNL     1      -9.182  13.172  67.887  1.00  0.00    -0.207 C  
HETATM   37  H   UNL     1      -8.088   8.923  72.219  1.00  0.00     0.000 HD 
HETATM   38  O   UNL     1      -8.599  12.390  68.918  1.00  0.00     0.085 OA 
HETATM   39  C   UNL     1      -9.246  11.130  69.074  1.00  0.00    -0.031 C  
HETATM   40  H   UNL     1      -6.853   9.793  70.772  1.00  0.00     0.000 HD 
HETATM   41  O   UNL     1      -9.032   8.926  72.110  1.00  0.00    -0.381 OA 
HETATM   42  C   UNL     1      -8.621  10.482  70.297  1.00  0.00     0.949 C  
HETATM   43  C   UNL     1      -9.351   9.207  70.730  1.00  0.00    -0.264 C  
HETATM   44  O   UNL     1      -7.243  10.198  70.007  1.00  0.00    -0.136 OA 
BRANCH  36  45
HETATM   45  C   UNL     1      -8.402  14.464  67.913  1.00  0.00    -0.162 A  
HETATM   46  S   UNL     1      -8.127  15.245  69.426  1.00  0.00    -0.193 SA 
HETATM   47  C   UNL     1      -7.359  16.477  67.315  1.00  0.00    -0.199 A  
HETATM   48  C   UNL     1      -7.914  15.238  66.872  1.00  0.00    -0.194 A  
HETATM   49  C   UNL     1      -7.423  16.615  68.683  1.00  0.00    -0.211 A  
ENDBRANCH  36  45
ENDBRANCH  30  31
ENDBRANCH  15  30
TORSDOF 6
ENDMDL
MODEL      101
REMARK 921   NORMALIZED FREE ENERGY PREDICTED BY IDOCK:    9.57 KCAL/MOL
REMARK 922        TOTAL FREE ENERGY PREDICTED BY IDOCK:   10.90 KCAL/MOL
REMARK 923 INTER-LIGAND FREE ENERGY PREDICTED BY IDOCK:    6.84 KCAL/MOL
REMARK 924 INTRA-LIGAND FREE ENERGY PREDICTED BY IDOCK:    4.06 KCAL/MOL
REMARK 927      BINDING AFFINITY PREDICTED BY RF-SCORE:    0.00 PKD
ROOT
HETATM    1  C   UNL     1      -9.157  16.143  67.568  1.00  0.00    -0.207 C  
HETATM    2  C   UNL     1      -7.956  16.584  66.779  1.00  0.00    -0.255 C  
HETATM    3  O   UNL     1      -7.942  15.700  65.638  1.00  0.00     1.303 OA 
HETATM    4  C   UNL     1      -8.551  14.512  65.980  1.00  0.00     0.798 C  
HETATM    5  C   UNL     1      -9.073  14.624  67.390  1.00  0.00    -0.203 C  
HETATM    6  O   UNL     1      -8.563  13.526  65.266  1.00  0.00     1.888 OA 
HETATM    7  C   UNL     1     -10.396  13.941  67.747  1.00  0.00    -0.240 C  
HETATM    8  C   UNL     1     -10.946  14.536  69.056  1.00  0.00    -0.272 A  
HETATM    9  C   UNL     1     -10.418  15.738  69.654  1.00  0.00    -0.289 A  
HETATM   10  C   UNL     1     -12.045  13.880  69.647  1.00  0.00    -0.404 A  
HETATM   11  C   UNL     1     -13.952  15.041  72.353  1.00  0.00    -0.492 C  
HETATM   12  C   UNL     1     -12.627  14.448  70.758  1.00  0.00    -0.357 A  
HETATM   13  C   UNL     1     -11.045  16.260  70.802  1.00  0.00    -0.217 A  
HETATM   14  C   UNL     1     -12.144  15.604  71.314  1.00  0.00    -0.411 A  
HETATM   15  C   UNL     1      -9.261  16.546  69.047  1.00  0.00    -0.237 C  
HETATM   16  O   UNL     1     -13.731  13.982  71.401  1.00  0.00    -0.311 OA 
HETATM   17  O   UNL     1     -12.889  16.019  72.376  1.00  0.00    -0.448 OA 
ENDROOT
BRANCH   7  18
HETATM   18  C   UNL     1     -11.406  13.933  66.584  1.00  0.00    -0.342 A  
HETATM   19  O   UNL     1     -13.277  13.919  62.844  1.00  0.00     0.682 OA 
HETATM   20  C   UNL     1     -12.749  13.859  64.107  1.00  0.00     0.098 A  
HETATM   21  C   UNL     1     -12.456  12.656  64.754  1.00  0.00    -0.484 A  
HETATM   22  C   UNL     1     -11.845  15.114  65.982  1.00  0.00     0.089 A  
HETATM   23  H   UNL     1     -13.476  14.737  62.404  1.00  0.00     0.000 HD 
HETATM   24  C   UNL     1     -11.791  12.714  65.993  1.00  0.00    -0.492 A  
HETATM   25  C   UNL     1     -12.489  15.091  64.740  1.00  0.00    -0.070 A  
BRANCH  21  26
HETATM   26  O   UNL     1     -12.694  11.371  64.354  1.00  0.00     0.212 OA 
HETATM   27  C   UNL     1     -12.497  10.987  63.003  1.00  0.00     1.780 C  
ENDBRANCH  21  26
BRANCH  25  28
HETATM   28  O   UNL     1     -12.824  16.228  64.046  1.00  0.00    -0.075 OA 
HETATM   29  C   UNL     1     -11.887  17.297  64.091  1.00  0.00     3.240 C  
ENDBRANCH  25  28
ENDBRANCH   7  18
BRANCH  15  30
HETATM   30  O   UNL     1      -7.993  16.328  69.656  1.00  0.00    -0.042 OA 
BRANCH  30  31
HETATM   31  C   UNL     1      -7.254  15.101  69.457  1.00  0.00    -0.204 C  
HETATM   32  O   UNL     1      -8.052  13.987  68.993  1.00  0.00    -0.051 OA 
HETATM   33  C   UNL     1      -7.321  12.739  69.069  1.00  0.00     0.056 C  
HETATM   34  C   UNL     1      -8.007  11.541  68.394  1.00  0.00    -0.143 C  
HETATM   35  O   UNL     1      -7.278  10.321  68.646  1.00  0.00    -0.076 OA 
HETATM   36  C   UNL     1      -7.195  10.060  70.049  1.00  0.00    -0.156 C  
HETATM   37  H   UNL     1      -5.081  15.554  71.884  1.00  0.00     0.000 HD 
HETATM   38  O   UNL     1      -6.488  11.105  70.701  1.00  0.00    -0.309 OA 
HETATM   39  C   UNL     1      -7.119  12.372  70.533  1.00  0.00     2.307 C  
HETATM   40  H   UNL     1      -5.519  13.803  72.940  1.00  0.00     0.000 HD 
HETATM   41  O   UNL     1      -5.473  15.714  71.033  1.00  0.00    -0.108 OA 
HETATM   42  C   UNL     1      -6.178  13.396  71.143  1.00  0.00     0.539 C  
HETATM   43  C   UNL     1      -6.609  14.838  70.861  1.00  0.00     0.337 C  
HETATM   44  O   UNL     1      -6.107  13.162  72.559  1.00  0.00     0.562 OA 
BRANCH  36  45
HETATM   45  C   UNL     1      -6.356   8.831  70.298  1.00  0.00    -0.038 A  
HETATM   46  S   UNL     1      -5.839   7.885  68.952  1.00  0.00    -0.035 SA 
HETATM   47  C   UNL     1      -5.306   6.984  71.291  1.00  0.00    -0.027 A  
HETATM   48  C   UNL     1      -5.976   8.229  71.488  1.00  0.00    -0.038 A  
HETATM   49  C   UNL     1      -5.176   6.669  69.956  1.00  0.00    -0.014 A  
ENDBRANCH  36  45
ENDBRANCH  30  31
ENDBRANCH  15  30
TORSDOF 6
ENDMDL
MODEL      102
REMARK 921   NORMALIZED FREE ENERGY PREDICTED BY IDOCK:    9.64 KCAL/MOL
REMARK 922        TOTAL FREE ENERGY PREDICTED BY IDOCK:   11.00 KCAL/MOL
REMARK 923 INTER-LIGAND FREE ENERGY PREDICTED BY IDOCK:   12.14 KCAL/MOL
REMARK 924 INTRA-LIGAND FREE ENERGY PREDICTED BY IDOCK:   -1.14 KCAL/MOL
REMARK 927      BINDING AFFINITY PREDICTED BY RF-SCORE:    0.00 PKD
ROOT
HETATM    1  C   UNL     1     -10.885   8.734  67.650  1.00  0.00    -0.092 C  
HETATM    2  C   UNL     1     -11.955   8.715  66.594  1.00  0.00     6.253 C  
HETATM    3  O   UNL     1     -11.232   8.491  65.365  1.00  0.00     4.557 OA 
HETATM    4  C   UNL     1      -9.949   8.976  65.502  1.00  0.00     0.278 C  
HETATM    5  C   UNL     1      -9.770   9.480  66.911  1.00  0.00    -0.237 C  
HETATM    6  O   UNL     1      -9.153   9.054  64.584  1.00  0.00    -0.137 OA 
HETATM    7  C   UNL     1      -8.414   9.290  67.599  1.00  0.00    -0.116 C  
HETATM    8  C   UNL     1      -8.580   9.458  69.120  1.00  0.00    -0.140 A  
HETATM    9  C   UNL     1      -9.868   9.496  69.769  1.00  0.00    -0.236 A  
HETATM   10  C   UNL     1      -7.401   9.529  69.890  1.00  0.00    -0.103 A  
HETATM   11  C   UNL     1      -7.197   9.465  73.391  1.00  0.00     1.292 C  
HETATM   12  C   UNL     1      -7.516   9.571  71.261  1.00  0.00     0.286 A  
HETATM   13  C   UNL     1      -9.921   9.559  71.175  1.00  0.00    -0.219 A  
HETATM   14  C   UNL     1      -8.738   9.581  71.883  1.00  0.00     1.333 A  
HETATM   15  C   UNL     1     -11.199   9.369  69.013  1.00  0.00     0.115 C  
HETATM   16  O   UNL     1      -6.483   9.570  72.145  1.00  0.00    -0.292 OA 
HETATM   17  O   UNL     1      -8.629   9.579  73.240  1.00  0.00     1.668 OA 
ENDROOT
BRANCH   7  18
HETATM   18  C   UNL     1      -7.701   7.990  67.181  1.00  0.00    -0.101 A  
HETATM   19  O   UNL     1      -6.483   4.467  65.287  1.00  0.00    -0.034 OA 
HETATM   20  C   UNL     1      -6.773   5.640  65.932  1.00  0.00    -0.056 A  
HETATM   21  C   UNL     1      -6.205   6.866  65.575  1.00  0.00    -0.039 A  
HETATM   22  C   UNL     1      -8.139   6.737  67.617  1.00  0.00    -0.116 A  
HETATM   23  H   UNL     1      -6.869   3.633  65.530  1.00  0.00     0.000 HD 
HETATM   24  C   UNL     1      -6.677   8.027  66.215  1.00  0.00    -0.054 A  
HETATM   25  C   UNL     1      -7.705   5.566  66.987  1.00  0.00    -0.100 A  
BRANCH  21  26
HETATM   26  O   UNL     1      -5.242   7.142  64.645  1.00  0.00    -0.027 OA 
HETATM   27  C   UNL     1      -5.597   7.604  63.352  1.00  0.00    -0.045 C  
ENDBRANCH  21  26
BRANCH  25  28
HETATM   28  O   UNL     1      -8.202   4.322  67.288  1.00  0.00    -0.099 OA 
HETATM   29  C   UNL     1      -7.375   3.488  68.090  1.00  0.00    -0.051 C  
ENDBRANCH  25  28
ENDBRANCH   7  18
BRANCH  15  30
HETATM   30  O   UNL     1     -11.878  10.598  68.783  1.00  0.00    -0.327 OA 
BRANCH  30  31
HETATM   31  C   UNL     1     -11.166  11.807  68.435  1.00  0.00    -0.251 C  
HETATM   32  O   UNL     1     -10.830  12.652  69.561  1.00  0.00     0.008 OA 
HETATM   33  C   UNL     1     -10.363  13.954  69.130  1.00  0.00    -0.008 C  
HETATM   34  C   UNL     1      -9.777  14.836  70.243  1.00  0.00     0.718 C  
HETATM   35  O   UNL     1      -9.476  16.158  69.748  1.00  0.00    -0.122 OA 
HETATM   36  C   UNL     1     -10.655  16.792  69.245  1.00  0.00    -0.336 C  
HETATM   37  H   UNL     1     -12.606  12.284  65.517  1.00  0.00     0.000 HD 
HETATM   38  O   UNL     1     -11.181  16.052  68.153  1.00  0.00    -0.343 OA 
HETATM   39  C   UNL     1     -11.530  14.720  68.519  1.00  0.00    -0.308 C  
HETATM   40  H   UNL     1     -13.371  14.188  65.925  1.00  0.00     0.000 HD 
HETATM   41  O   UNL     1     -12.023  11.858  66.134  1.00  0.00    -0.537 OA 
HETATM   42  C   UNL     1     -11.924  14.017  67.232  1.00  0.00    -0.413 C  
HETATM   43  C   UNL     1     -12.128  12.511  67.418  1.00  0.00    -0.051 C  
HETATM   44  O   UNL     1     -13.124  14.628  66.730  1.00  0.00     0.896 OA 
BRANCH  36  45
HETATM   45  C   UNL     1     -10.307  18.135  68.652  1.00  0.00    -0.298 A  
HETATM   46  S   UNL     1      -8.854  18.293  67.734  1.00  0.00    -0.267 SA 
HETATM   47  C   UNL     1     -10.192  20.431  68.189  1.00  0.00    -0.297 A  
HETATM   48  C   UNL     1     -10.927  19.366  68.793  1.00  0.00     0.922 A  
HETATM   49  C   UNL     1      -9.035  19.988  67.589  1.00  0.00    -0.331 A  
ENDBRANCH  36  45
ENDBRANCH  30  31
ENDBRANCH  15  30
TORSDOF 6
ENDMDL
MODEL      103
REMARK 921   NORMALIZED FREE ENERGY PREDICTED BY IDOCK:    9.91 KCAL/MOL
REMARK 922        TOTAL FREE ENERGY PREDICTED BY IDOCK:   11.37 KCAL/MOL
REMARK 923 INTER-LIGAND FREE ENERGY PREDICTED BY IDOCK:    8.53 KCAL/MOL
REMARK 924 INTRA-LIGAND FREE ENERGY PREDICTED BY IDOCK:    2.83 KCAL/MOL
REMARK 927      BINDING AFFINITY PREDICTED BY RF-SCORE:    0.00 PKD
ROOT
HETATM    1  C   UNL     1      -6.504  13.170  67.261  1.00  0.00     0.065 C  
HETATM    2  C   UNL     1      -5.247  13.730  67.865  1.00  0.00    -0.074 C  
HETATM    3  O   UNL     1      -5.139  13.058  69.138  1.00  0.00    -0.069 OA 
HETATM    4  C   UNL     1      -6.399  12.700  69.567  1.00  0.00    -0.111 C  
HETATM    5  C   UNL     1      -7.398  13.075  68.502  1.00  0.00    -0.115 C  
HETATM    6  O   UNL     1      -6.635  12.245  70.672  1.00  0.00     0.202 OA 
HETATM    7  C   UNL     1      -8.602  12.160  68.261  1.00  0.00    -0.175 C  
HETATM    8  C   UNL     1      -9.219  12.473  66.886  1.00  0.00    -0.211 A  
HETATM    9  C   UNL     1      -8.563  13.297  65.900  1.00  0.00     1.115 A  
HETATM   10  C   UNL     1     -10.462  11.876  66.589  1.00  0.00    -0.250 A  
HETATM   11  C   UNL     1     -12.087  11.888  63.481  1.00  0.00    -0.470 C  
HETATM   12  C   UNL     1     -10.988  12.050  65.329  1.00  0.00    -0.308 A  
HETATM   13  C   UNL     1      -9.161  13.453  64.635  1.00  0.00     1.567 A  
HETATM   14  C   UNL     1     -10.354  12.811  64.381  1.00  0.00    -0.364 A  
HETATM   15  C   UNL     1      -7.185  13.939  66.118  1.00  0.00     3.868 C  
HETATM   16  O   UNL     1     -12.134  11.487  64.863  1.00  0.00    -0.021 OA 
HETATM   17  O   UNL     1     -11.019  12.817  63.193  1.00  0.00    -0.206 OA 
ENDROOT
BRANCH   7  18
HETATM   18  C   UNL     1      -8.282  10.669  68.484  1.00  0.00    -0.128 A  
HETATM   19  O   UNL     1      -8.299   6.488  68.547  1.00  0.00    -0.120 OA 
HETATM   20  C   UNL     1      -8.181   7.852  68.521  1.00  0.00    -0.127 A  
HETATM   21  C   UNL     1      -7.516   8.540  67.502  1.00  0.00    -0.093 A  
HETATM   22  C   UNL     1      -8.808   9.957  69.564  1.00  0.00    -0.208 A  
HETATM   23  H   UNL     1      -8.752   6.020  69.239  1.00  0.00     0.000 HD 
HETATM   24  C   UNL     1      -7.572   9.946  67.505  1.00  0.00    -0.091 A  
HETATM   25  C   UNL     1      -8.786   8.558  69.580  1.00  0.00    -0.137 A  
BRANCH  21  26
HETATM   26  O   UNL     1      -6.809   8.053  66.440  1.00  0.00    -0.060 OA 
HETATM   27  C   UNL     1      -6.149   8.933  65.545  1.00  0.00    -0.055 C  
ENDBRANCH  21  26
BRANCH  25  28
HETATM   28  O   UNL     1      -9.403   7.808  70.551  1.00  0.00    -0.162 OA 
HETATM   29  C   UNL     1      -9.570   8.429  71.820  1.00  0.00    -0.234 C  
ENDBRANCH  25  28
ENDBRANCH   7  18
BRANCH  15  30
HETATM   30  O   UNL     1      -7.214  15.318  66.469  1.00  0.00     0.179 OA 
BRANCH  30  31
HETATM   31  C   UNL     1      -8.128  15.831  67.465  1.00  0.00    -0.159 C  
HETATM   32  O   UNL     1      -7.908  15.321  68.801  1.00  0.00    -0.133 OA 
HETATM   33  C   UNL     1      -9.002  15.659  69.688  1.00  0.00    -0.136 C  
HETATM   34  C   UNL     1      -8.756  15.352  71.173  1.00  0.00     3.290 C  
HETATM   35  O   UNL     1      -9.948  15.585  71.952  1.00  0.00     1.766 OA 
HETATM   36  C   UNL     1     -11.022  14.761  71.495  1.00  0.00     0.483 C  
HETATM   37  H   UNL     1     -10.739  16.126  65.489  1.00  0.00     0.000 HD 
HETATM   38  O   UNL     1     -11.342  15.075  70.147  1.00  0.00    -0.245 OA 
HETATM   39  C   UNL     1     -10.239  14.874  69.268  1.00  0.00    -0.214 C  
HETATM   40  H   UNL     1     -12.019  14.881  66.579  1.00  0.00     0.000 HD 
HETATM   41  O   UNL     1      -9.886  16.360  65.834  1.00  0.00    -0.333 OA 
HETATM   42  C   UNL     1     -10.680  15.394  67.911  1.00  0.00    -0.286 C  
HETATM   43  C   UNL     1      -9.535  15.445  66.895  1.00  0.00    -0.230 C  
HETATM   44  O   UNL     1     -11.743  14.556  67.428  1.00  0.00    -0.372 OA 
BRANCH  36  45
HETATM   45  C   UNL     1     -12.282  15.080  72.261  1.00  0.00    -0.357 A  
HETATM   46  S   UNL     1     -12.271  16.397  73.376  1.00  0.00    -0.378 SA 
HETATM   47  C   UNL     1     -14.389  14.957  73.283  1.00  0.00     2.000 A  
HETATM   48  C   UNL     1     -13.496  14.414  72.310  1.00  0.00    -0.527 A  
HETATM   49  C   UNL     1     -13.842  16.033  73.946  1.00  0.00     1.158 A  
ENDBRANCH  36  45
ENDBRANCH  30  31
ENDBRANCH  15  30
TORSDOF 6
ENDMDL
MODEL      104
REMARK 921   NORMALIZED FREE ENERGY PREDICTED BY IDOCK:   11.37 KCAL/MOL
REMARK 922        TOTAL FREE ENERGY PREDICTED BY IDOCK:   13.34 KCAL/MOL
REMARK 923 INTER-LIGAND FREE ENERGY PREDICTED BY IDOCK:   10.81 KCAL/MOL
REMARK 924 INTRA-LIGAND FREE ENERGY PREDICTED BY IDOCK:    2.53 KCAL/MOL
REMARK 927      BINDING AFFINITY PREDICTED BY RF-SCORE:    0.00 PKD
ROOT
HETATM    1  C   UNL     1      -6.409  12.726  67.436  1.00  0.00    -0.139 C  
HETATM    2  C   UNL     1      -5.174  13.303  68.070  1.00  0.00    -0.106 C  
HETATM    3  O   UNL     1      -5.133  12.694  69.378  1.00  0.00    -0.072 OA 
HETATM    4  C   UNL     1      -6.415  12.368  69.765  1.00  0.00    -0.025 C  
HETATM    5  C   UNL     1      -7.359  12.699  68.637  1.00  0.00    -0.101 C  
HETATM    6  O   UNL     1      -6.706  11.970  70.878  1.00  0.00     0.725 OA 
HETATM    7  C   UNL     1      -8.561  11.784  68.385  1.00  0.00    -0.156 C  
HETATM    8  C   UNL     1      -9.111  12.035  66.969  1.00  0.00    -0.191 A  
HETATM    9  C   UNL     1      -8.401  12.804  65.976  1.00  0.00     0.969 A  
HETATM   10  C   UNL     1     -10.345  11.435  66.645  1.00  0.00    -0.272 A  
HETATM   11  C   UNL     1     -11.826  11.309  63.467  1.00  0.00     0.352 C  
HETATM   12  C   UNL     1     -10.811  11.551  65.355  1.00  0.00    -0.259 A  
HETATM   13  C   UNL     1      -8.939  12.903  64.678  1.00  0.00     1.746 A  
HETATM   14  C   UNL     1     -10.126  12.260  64.401  1.00  0.00    -0.270 A  
HETATM   15  C   UNL     1      -7.027  13.444  66.227  1.00  0.00     3.248 C  
HETATM   16  O   UNL     1     -11.941  10.976  64.864  1.00  0.00     0.543 OA 
HETATM   17  O   UNL     1     -10.735  12.213  63.184  1.00  0.00    -0.375 OA 
ENDROOT
BRANCH   7  18
HETATM   18  C   UNL     1      -8.269  10.304  68.695  1.00  0.00    -0.116 A  
HETATM   19  O   UNL     1      -6.741   6.696  70.157  1.00  0.00    -0.049 OA 
HETATM   20  C   UNL     1      -7.343   7.828  69.676  1.00  0.00    -0.088 A  
HETATM   21  C   UNL     1      -8.413   8.455  70.321  1.00  0.00    -0.126 A  
HETATM   22  C   UNL     1      -7.304   9.580  67.991  1.00  0.00    -0.082 A  
HETATM   23  H   UNL     1      -6.014   6.270  69.719  1.00  0.00     0.000 HD 
HETATM   24  C   UNL     1      -8.865   9.686  69.812  1.00  0.00    -0.224 A  
HETATM   25  C   UNL     1      -6.819   8.363  68.482  1.00  0.00    -0.064 A  
BRANCH  21  26
HETATM   26  O   UNL     1      -9.108   8.067  71.432  1.00  0.00    -0.131 OA 
HETATM   27  C   UNL     1      -8.460   7.957  72.689  1.00  0.00    -0.150 C  
ENDBRANCH  21  26
BRANCH  25  28
HETATM   28  O   UNL     1      -5.781   7.677  67.900  1.00  0.00    -0.033 OA 
HETATM   29  C   UNL     1      -5.882   7.447  66.500  1.00  0.00    -0.035 C  
ENDBRANCH  25  28
ENDBRANCH   7  18
BRANCH  15  30
HETATM   30  O   UNL     1      -7.058  14.838  66.508  1.00  0.00     0.630 OA 
BRANCH  30  31
HETATM   31  C   UNL     1      -7.981  15.402  67.466  1.00  0.00    -0.170 C  
HETATM   32  O   UNL     1      -7.895  14.830  68.792  1.00  0.00    -0.132 OA 
HETATM   33  C   UNL     1      -9.008  15.240  69.624  1.00  0.00    -0.115 C  
HETATM   34  C   UNL     1      -8.886  14.862  71.108  1.00  0.00     3.290 C  
HETATM   35  O   UNL     1     -10.098  15.181  71.823  1.00  0.00     1.136 OA 
HETATM   36  C   UNL     1     -11.213  14.477  71.269  1.00  0.00     0.340 C  
HETATM   37  H   UNL     1     -10.424  16.007  65.349  1.00  0.00     0.000 HD 
HETATM   38  O   UNL     1     -11.416  14.864  69.919  1.00  0.00    -0.256 OA 
HETATM   39  C   UNL     1     -10.282  14.589  69.100  1.00  0.00    -0.164 C  
HETATM   40  H   UNL     1     -11.879  14.853  66.311  1.00  0.00     0.000 HD 
HETATM   41  O   UNL     1      -9.576  16.148  65.754  1.00  0.00    -0.374 OA 
HETATM   42  C   UNL     1     -10.586  15.192  67.740  1.00  0.00    -0.264 C  
HETATM   43  C   UNL     1      -9.379  15.169  66.798  1.00  0.00    -0.247 C  
HETATM   44  O   UNL     1     -11.689  14.476  67.161  1.00  0.00    -0.377 OA 
BRANCH  36  45
HETATM   45  C   UNL     1     -12.484  14.888  71.971  1.00  0.00    -0.334 A  
HETATM   46  S   UNL     1     -12.868  16.566  72.089  1.00  0.00     1.323 SA 
HETATM   47  C   UNL     1     -14.404  14.922  73.316  1.00  0.00     2.000 A  
HETATM   48  C   UNL     1     -13.414  14.128  72.662  1.00  0.00    -0.634 A  
HETATM   49  C   UNL     1     -14.217  16.269  73.098  1.00  0.00     0.645 A  
ENDBRANCH  36  45
ENDBRANCH  30  31
ENDBRANCH  15  30
TORSDOF 6
ENDMDL
MODEL      105
REMARK 921   NORMALIZED FREE ENERGY PREDICTED BY IDOCK:   12.23 KCAL/MOL
REMARK 922        TOTAL FREE ENERGY PREDICTED BY IDOCK:   14.50 KCAL/MOL
REMARK 923 INTER-LIGAND FREE ENERGY PREDICTED BY IDOCK:    1.21 KCAL/MOL
REMARK 924 INTRA-LIGAND FREE ENERGY PREDICTED BY IDOCK:   13.29 KCAL/MOL
REMARK 927      BINDING AFFINITY PREDICTED BY RF-SCORE:    0.00 PKD
ROOT
HETATM    1  C   UNL     1     -10.501  10.341  70.941  1.00  0.00     0.391 C  
HETATM    2  C   UNL     1     -10.609   9.592  72.240  1.00  0.00     1.147 C  
HETATM    3  O   UNL     1      -9.250   9.208  72.539  1.00  0.00    -0.113 OA 
HETATM    4  C   UNL     1      -8.543   9.101  71.361  1.00  0.00     0.008 C  
HETATM    5  C   UNL     1      -9.439   9.506  70.219  1.00  0.00    -0.307 C  
HETATM    6  O   UNL     1      -7.411   8.656  71.289  1.00  0.00    -0.085 OA 
HETATM    7  C   UNL     1      -8.833  10.266  69.036  1.00  0.00    -0.170 C  
HETATM    8  C   UNL     1      -9.955  10.951  68.234  1.00  0.00    -0.187 A  
HETATM    9  C   UNL     1     -11.307  11.070  68.722  1.00  0.00    -0.349 A  
HETATM   10  C   UNL     1      -9.602  11.517  66.992  1.00  0.00    -0.199 A  
HETATM   11  C   UNL     1     -11.631  13.555  64.984  1.00  0.00    -0.327 C  
HETATM   12  C   UNL     1     -10.557  12.228  66.301  1.00  0.00    -0.251 A  
HETATM   13  C   UNL     1     -12.245  11.794  67.961  1.00  0.00     0.276 A  
HETATM   14  C   UNL     1     -11.837  12.366  66.774  1.00  0.00    -0.315 A  
HETATM   15  C   UNL     1     -11.763  10.533  70.087  1.00  0.00    -0.326 C  
HETATM   16  O   UNL     1     -10.361  12.892  65.131  1.00  0.00    -0.294 OA 
HETATM   17  O   UNL     1     -12.608  13.142  65.964  1.00  0.00    -0.418 OA 
ENDROOT
BRANCH   7  18
HETATM   18  C   UNL     1      -7.685  11.209  69.447  1.00  0.00     0.026 A  
HETATM   19  O   UNL     1      -5.294  14.147  71.217  1.00  0.00    -0.139 OA 
HETATM   20  C   UNL     1      -5.984  13.120  70.630  1.00  0.00    -0.070 A  
HETATM   21  C   UNL     1      -6.014  11.824  71.152  1.00  0.00     0.542 A  
HETATM   22  C   UNL     1      -7.520  12.467  68.863  1.00  0.00     0.001 A  
HETATM   23  H   UNL     1      -5.274  15.028  70.862  1.00  0.00     0.000 HD 
HETATM   24  C   UNL     1      -6.864  10.883  70.544  1.00  0.00     0.460 A  
HETATM   25  C   UNL     1      -6.699  13.431  69.455  1.00  0.00     0.003 A  
BRANCH  21  26
HETATM   26  O   UNL     1      -5.344  11.301  72.222  1.00  0.00    -0.307 OA 
HETATM   27  C   UNL     1      -5.238   9.897  72.393  1.00  0.00     0.011 C  
ENDBRANCH  21  26
BRANCH  25  28
HETATM   28  O   UNL     1      -6.602  14.722  68.996  1.00  0.00    -0.090 OA 
HETATM   29  C   UNL     1      -7.466  15.676  69.603  1.00  0.00    -0.134 C  
ENDBRANCH  25  28
ENDBRANCH   7  18
BRANCH  15  30
HETATM   30  O   UNL     1     -12.459   9.293  70.042  1.00  0.00     0.445 OA 
BRANCH  30  31
HETATM   31  C   UNL     1     -11.822   8.079  69.583  1.00  0.00     0.844 C  
HETATM   32  O   UNL     1     -10.998   7.422  70.574  1.00  0.00    -0.243 OA 
HETATM   33  C   UNL     1     -10.188   6.376  69.984  1.00  0.00    -0.180 C  
HETATM   34  C   UNL     1      -9.447   5.481  70.990  1.00  0.00    -0.163 C  
HETATM   35  O   UNL     1      -8.558   4.569  70.311  1.00  0.00    -0.076 OA 
HETATM   36  C   UNL     1      -7.586   5.283  69.545  1.00  0.00    -0.069 C  
HETATM   37  H   UNL     1     -11.406   9.010  66.457  1.00  0.00     0.000 HD 
HETATM   38  O   UNL     1      -8.227   6.058  68.542  1.00  0.00    -0.109 OA 
HETATM   39  C   UNL     1      -9.131   7.013  69.091  1.00  0.00    -0.136 C  
HETATM   40  H   UNL     1      -9.327   8.789  66.406  1.00  0.00     0.000 HD 
HETATM   41  O   UNL     1     -11.902   8.724  67.215  1.00  0.00     2.318 OA 
HETATM   42  C   UNL     1      -9.843   7.648  67.909  1.00  0.00    -0.157 C  
HETATM   43  C   UNL     1     -11.004   8.552  68.333  1.00  0.00     0.202 C  
HETATM   44  O   UNL     1      -8.881   8.392  67.144  1.00  0.00    -0.127 OA 
BRANCH  36  45
HETATM   45  C   UNL     1      -6.722   4.316  68.773  1.00  0.00    -0.046 A  
HETATM   46  S   UNL     1      -6.339   2.790  69.481  1.00  0.00    -0.029 SA 
HETATM   47  C   UNL     1      -5.216   3.363  67.250  1.00  0.00    -0.008 A  
HETATM   48  C   UNL     1      -6.061   4.470  67.566  1.00  0.00    -0.031 A  
HETATM   49  C   UNL     1      -5.263   2.382  68.216  1.00  0.00    -0.012 A  
ENDBRANCH  36  45
ENDBRANCH  30  31
ENDBRANCH  15  30
TORSDOF 6
ENDMDL
MODEL      106
REMARK 921   NORMALIZED FREE ENERGY PREDICTED BY IDOCK:   12.87 KCAL/MOL
REMARK 922        TOTAL FREE ENERGY PREDICTED BY IDOCK:   15.36 KCAL/MOL
REMARK 923 INTER-LIGAND FREE ENERGY PREDICTED BY IDOCK:   15.30 KCAL/MOL
REMARK 924 INTRA-LIGAND FREE ENERGY PREDICTED BY IDOCK:    0.06 KCAL/MOL
REMARK 927      BINDING AFFINITY PREDICTED BY RF-SCORE:    0.00 PKD
ROOT
HETATM    1  C   UNL     1      -8.009  10.976  66.338  1.00  0.00    -0.161 C  
HETATM    2  C   UNL     1      -6.595  10.472  66.422  1.00  0.00    -0.106 C  
HETATM    3  O   UNL     1      -6.608   9.575  67.552  1.00  0.00    -0.062 OA 
HETATM    4  C   UNL     1      -7.600   9.964  68.426  1.00  0.00    -0.083 C  
HETATM    5  C   UNL     1      -8.345  11.129  67.825  1.00  0.00    -0.123 C  
HETATM    6  O   UNL     1      -7.755   9.482  69.533  1.00  0.00    -0.083 OA 
HETATM    7  C   UNL     1      -9.855  11.240  68.053  1.00  0.00    -0.186 C  
HETATM    8  C   UNL     1     -10.462  12.206  67.020  1.00  0.00    -0.244 A  
HETATM    9  C   UNL     1      -9.737  12.678  65.866  1.00  0.00    -0.212 A  
HETATM   10  C   UNL     1     -11.804  12.592  67.214  1.00  0.00    -0.395 A  
HETATM   11  C   UNL     1     -13.797  14.396  64.959  1.00  0.00     2.384 C  
HETATM   12  C   UNL     1     -12.408  13.369  66.251  1.00  0.00    -0.349 A  
HETATM   13  C   UNL     1     -10.404  13.486  64.925  1.00  0.00    -0.395 A  
HETATM   14  C   UNL     1     -11.730  13.798  65.139  1.00  0.00    -0.343 A  
HETATM   15  C   UNL     1      -8.293  12.262  65.547  1.00  0.00     1.268 C  
HETATM   16  O   UNL     1     -13.708  13.766  66.252  1.00  0.00     1.165 OA 
HETATM   17  O   UNL     1     -12.521  14.514  64.294  1.00  0.00    -0.657 OA 
ENDROOT
BRANCH   7  18
HETATM   18  C   UNL     1     -10.557   9.870  68.125  1.00  0.00    -0.270 A  
HETATM   19  O   UNL     1     -11.597   5.883  68.840  1.00  0.00     0.013 OA 
HETATM   20  C   UNL     1     -11.366   7.215  68.617  1.00  0.00     0.285 A  
HETATM   21  C   UNL     1     -11.742   8.215  69.518  1.00  0.00     0.819 A  
HETATM   22  C   UNL     1     -10.328   8.873  67.174  1.00  0.00    -0.351 A  
HETATM   23  H   UNL     1     -11.341   5.204  68.228  1.00  0.00     0.000 HD 
HETATM   24  C   UNL     1     -11.334   9.535  69.251  1.00  0.00     0.058 A  
HETATM   25  C   UNL     1     -10.701   7.548  67.419  1.00  0.00    -0.261 A  
BRANCH  21  26
HETATM   26  O   UNL     1     -12.449   8.117  70.683  1.00  0.00     0.027 OA 
HETATM   27  C   UNL     1     -13.645   8.856  70.868  1.00  0.00     0.214 C  
ENDBRANCH  21  26
BRANCH  25  28
HETATM   28  O   UNL     1     -10.384   6.509  66.578  1.00  0.00    -0.156 OA 
HETATM   29  C   UNL     1      -9.007   6.166  66.488  1.00  0.00    -0.139 C  
ENDBRANCH  25  28
ENDBRANCH   7  18
BRANCH  15  30
HETATM   30  O   UNL     1      -7.302  13.223  65.894  1.00  0.00     2.566 OA 
BRANCH  30  31
HETATM   31  C   UNL     1      -7.471  14.120  67.015  1.00  0.00     0.317 C  
HETATM   32  O   UNL     1      -8.838  14.525  67.260  1.00  0.00    -0.186 OA 
HETATM   33  C   UNL     1      -8.909  15.615  68.212  1.00  0.00    -0.180 C  
HETATM   34  C   UNL     1     -10.324  15.963  68.699  1.00  0.00    -0.229 C  
HETATM   35  O   UNL     1     -10.308  17.146  69.525  1.00  0.00    -0.250 OA 
HETATM   36  C   UNL     1      -9.794  18.265  68.799  1.00  0.00    -0.357 C  
HETATM   37  H   UNL     1      -4.600  15.693  66.695  1.00  0.00     0.000 HD 
HETATM   38  O   UNL     1      -8.453  18.019  68.404  1.00  0.00    -0.285 OA 
HETATM   39  C   UNL     1      -8.336  16.871  67.568  1.00  0.00    -0.189 C  
HETATM   40  H   UNL     1      -5.394  17.616  66.478  1.00  0.00     0.000 HD 
HETATM   41  O   UNL     1      -5.166  14.961  66.914  1.00  0.00     0.341 OA 
HETATM   42  C   UNL     1      -6.848  16.649  67.361  1.00  0.00    -0.165 C  
HETATM   43  C   UNL     1      -6.539  15.326  66.654  1.00  0.00     1.464 C  
HETATM   44  O   UNL     1      -6.324  17.755  66.608  1.00  0.00    -0.158 OA 
BRANCH  36  45
HETATM   45  C   UNL     1      -9.703  19.470  69.702  1.00  0.00     0.110 A  
HETATM   46  S   UNL     1      -8.315  19.656  70.710  1.00  0.00     2.577 SA 
HETATM   47  C   UNL     1     -10.212  21.354  71.002  1.00  0.00     4.205 A  
HETATM   48  C   UNL     1     -10.626  20.471  69.959  1.00  0.00     0.923 A  
HETATM   49  C   UNL     1      -8.977  21.016  71.508  1.00  0.00     3.139 A  
ENDBRANCH  36  45
ENDBRANCH  30  31
ENDBRANCH  15  30
TORSDOF 6
ENDMDL
MODEL      107
REMARK 921   NORMALIZED FREE ENERGY PREDICTED BY IDOCK:   14.06 KCAL/MOL
REMARK 922        TOTAL FREE ENERGY PREDICTED BY IDOCK:   16.97 KCAL/MOL
REMARK 923 INTER-LIGAND FREE ENERGY PREDICTED BY IDOCK:   17.93 KCAL/MOL
REMARK 924 INTRA-LIGAND FREE ENERGY PREDICTED BY IDOCK:   -0.96 KCAL/MOL
REMARK 927      BINDING AFFINITY PREDICTED BY RF-SCORE:    0.00 PKD
ROOT
HETATM    1  C   UNL     1     -11.014  12.680  68.858  1.00  0.00    -0.273 C  
HETATM    2  C   UNL     1     -10.538  13.531  67.714  1.00  0.00    -0.246 C  
HETATM    3  O   UNL     1     -11.036  14.849  68.026  1.00  0.00    -0.262 OA 
HETATM    4  C   UNL     1     -12.169  14.732  68.800  1.00  0.00    -0.100 C  
HETATM    5  C   UNL     1     -12.406  13.272  69.093  1.00  0.00    -0.016 C  
HETATM    6  O   UNL     1     -12.886  15.670  69.099  1.00  0.00     0.304 OA 
HETATM    7  C   UNL     1     -12.965  12.873  70.462  1.00  0.00     0.172 C  
HETATM    8  C   UNL     1     -12.712  11.374  70.703  1.00  0.00    -0.282 A  
HETATM    9  C   UNL     1     -11.833  10.583  69.877  1.00  0.00    -0.358 A  
HETATM   10  C   UNL     1     -13.347  10.787  71.818  1.00  0.00    -0.429 A  
HETATM   11  C   UNL     1     -12.778   7.563  73.078  1.00  0.00     1.091 C  
HETATM   12  C   UNL     1     -13.056   9.477  72.123  1.00  0.00    -0.436 A  
HETATM   13  C   UNL     1     -11.590   9.241  70.230  1.00  0.00    -0.151 A  
HETATM   14  C   UNL     1     -12.201   8.729  71.355  1.00  0.00    -0.309 A  
HETATM   15  C   UNL     1     -11.058  11.154  68.680  1.00  0.00    -0.239 C  
HETATM   16  O   UNL     1     -13.526   8.789  73.197  1.00  0.00    -0.208 OA 
HETATM   17  O   UNL     1     -12.017   7.476  71.854  1.00  0.00    -0.283 OA 
ENDROOT
BRANCH   7  18
HETATM   18  C   UNL     1     -12.480  13.787  71.603  1.00  0.00    -0.309 A  
HETATM   19  O   UNL     1     -11.094  16.972  73.931  1.00  0.00     1.479 OA 
HETATM   20  C   UNL     1     -11.609  15.896  73.258  1.00  0.00     0.005 A  
HETATM   21  C   UNL     1     -12.981  15.678  73.104  1.00  0.00    -0.535 A  
HETATM   22  C   UNL     1     -11.123  13.941  71.897  1.00  0.00     2.936 A  
HETATM   23  H   UNL     1     -10.162  17.120  74.035  1.00  0.00     0.000 HD 
HETATM   24  C   UNL     1     -13.395  14.616  72.280  1.00  0.00    -0.485 A  
HETATM   25  C   UNL     1     -10.678  15.000  72.696  1.00  0.00     1.737 A  
BRANCH  21  26
HETATM   26  O   UNL     1     -14.036  16.373  73.623  1.00  0.00    -0.193 OA 
HETATM   27  C   UNL     1     -13.827  17.585  74.330  1.00  0.00     4.300 C  
ENDBRANCH  21  26
BRANCH  25  28
HETATM   28  O   UNL     1      -9.349  15.273  72.909  1.00  0.00     5.801 OA 
HETATM   29  C   UNL     1      -8.416  14.479  72.187  1.00  0.00     6.935 C  
ENDBRANCH  25  28
ENDBRANCH   7  18
BRANCH  15  30
HETATM   30  O   UNL     1     -11.629  10.873  67.408  1.00  0.00    -0.509 OA 
BRANCH  30  31
HETATM   31  C   UNL     1     -11.191   9.752  66.607  1.00  0.00     0.677 C  
HETATM   32  O   UNL     1     -11.003   8.523  67.347  1.00  0.00    -0.109 OA 
HETATM   33  C   UNL     1     -10.319   7.522  66.554  1.00  0.00    -0.043 C  
HETATM   34  C   UNL     1     -10.271   6.118  67.177  1.00  0.00    -0.199 C  
HETATM   35  O   UNL     1      -9.449   5.232  66.389  1.00  0.00    -0.140 OA 
HETATM   36  C   UNL     1      -8.112   5.729  66.297  1.00  0.00    -0.107 C  
HETATM   37  H   UNL     1      -9.386  11.477  64.468  1.00  0.00     0.000 HD 
HETATM   38  O   UNL     1      -8.101   6.990  65.646  1.00  0.00    -0.115 OA 
HETATM   39  C   UNL     1      -8.877   7.964  66.339  1.00  0.00    -0.158 C  
HETATM   40  H   UNL     1      -7.574  10.494  64.820  1.00  0.00     0.000 HD 
HETATM   41  O   UNL     1     -10.189  11.162  64.864  1.00  0.00    -0.265 OA 
HETATM   42  C   UNL     1      -8.896   9.197  65.453  1.00  0.00    -0.196 C  
HETATM   43  C   UNL     1      -9.865  10.272  65.954  1.00  0.00    -0.237 C  
HETATM   44  O   UNL     1      -7.561   9.722  65.374  1.00  0.00    -0.110 OA 
BRANCH  36  45
HETATM   45  C   UNL     1      -7.290   4.838  65.398  1.00  0.00    -0.072 A  
HETATM   46  S   UNL     1      -6.324   5.558  64.164  1.00  0.00    -0.022 SA 
HETATM   47  C   UNL     1      -6.438   2.999  64.219  1.00  0.00    -0.031 A  
HETATM   48  C   UNL     1      -7.233   3.456  65.313  1.00  0.00    -0.067 A  
HETATM   49  C   UNL     1      -5.895   4.041  63.501  1.00  0.00    -0.014 A  
ENDBRANCH  36  45
ENDBRANCH  30  31
ENDBRANCH  15  30
TORSDOF 6
ENDMDL
MODEL      108
REMARK 921   NORMALIZED FREE ENERGY PREDICTED BY IDOCK:   14.15 KCAL/MOL
REMARK 922        TOTAL FREE ENERGY PREDICTED BY IDOCK:   17.09 KCAL/MOL
REMARK 923 INTER-LIGAND FREE ENERGY PREDICTED BY IDOCK:    1.80 KCAL/MOL
REMARK 924 INTRA-LIGAND FREE ENERGY PREDICTED BY IDOCK:   15.29 KCAL/MOL
REMARK 927      BINDING AFFINITY PREDICTED BY RF-SCORE:    0.00 PKD
ROOT
HETATM    1  C   UNL     1     -11.315   9.849  67.715  1.00  0.00     0.104 C  
HETATM    2  C   UNL     1     -12.231  10.804  67.004  1.00  0.00     2.670 C  
HETATM    3  O   UNL     1     -11.424  11.334  65.931  1.00  0.00    -0.127 OA 
HETATM    4  C   UNL     1     -10.097  11.285  66.300  1.00  0.00    -0.230 C  
HETATM    5  C   UNL     1      -9.993  10.621  67.649  1.00  0.00    -0.197 C  
HETATM    6  O   UNL     1      -9.196  11.792  65.656  1.00  0.00    -0.198 OA 
HETATM    7  C   UNL     1      -8.794   9.712  67.937  1.00  0.00    -0.119 C  
HETATM    8  C   UNL     1      -9.106   8.818  69.150  1.00  0.00    -0.141 A  
HETATM    9  C   UNL     1     -10.430   8.686  69.708  1.00  0.00    -0.220 A  
HETATM   10  C   UNL     1      -8.038   8.070  69.688  1.00  0.00    -0.119 A  
HETATM   11  C   UNL     1      -8.274   5.568  72.135  1.00  0.00    -0.112 C  
HETATM   12  C   UNL     1      -8.307   7.180  70.703  1.00  0.00    -0.126 A  
HETATM   13  C   UNL     1     -10.639   7.773  70.760  1.00  0.00    -0.220 A  
HETATM   14  C   UNL     1      -9.569   7.033  71.219  1.00  0.00    -0.164 A  
HETATM   15  C   UNL     1     -11.659   9.418  69.149  1.00  0.00     0.468 C  
HETATM   16  O   UNL     1      -7.409   6.339  71.280  1.00  0.00    -0.077 OA 
HETATM   17  O   UNL     1      -9.627   6.073  72.182  1.00  0.00    -0.153 OA 
ENDROOT
BRANCH   7  18
HETATM   18  C   UNL     1      -8.306   8.944  66.694  1.00  0.00    -0.111 A  
HETATM   19  O   UNL     1      -7.868   7.226  62.907  1.00  0.00    -0.124 OA 
HETATM   20  C   UNL     1      -7.899   7.801  64.150  1.00  0.00    -0.133 A  
HETATM   21  C   UNL     1      -7.356   9.060  64.421  1.00  0.00    -0.099 A  
HETATM   22  C   UNL     1      -8.705   7.630  66.437  1.00  0.00    -0.166 A  
HETATM   23  H   UNL     1      -8.237   6.371  62.722  1.00  0.00     0.000 HD 
HETATM   24  C   UNL     1      -7.565   9.610  65.699  1.00  0.00    -0.107 A  
HETATM   25  C   UNL     1      -8.532   7.062  65.170  1.00  0.00    -0.014 A  
BRANCH  21  26
HETATM   26  O   UNL     1      -6.647   9.896  63.607  1.00  0.00    -0.115 OA 
HETATM   27  C   UNL     1      -7.314  10.759  62.700  1.00  0.00     0.010 C  
ENDBRANCH  21  26
BRANCH  25  28
HETATM   28  O   UNL     1      -9.021   5.826  64.827  1.00  0.00     0.031 OA 
HETATM   29  C   UNL     1     -10.134   5.356  65.577  1.00  0.00     0.277 C  
ENDBRANCH  25  28
ENDBRANCH   7  18
BRANCH  15  30
HETATM   30  O   UNL     1     -12.050  10.576  69.878  1.00  0.00    -0.283 OA 
BRANCH  30  31
HETATM   31  C   UNL     1     -11.179  11.723  70.009  1.00  0.00     0.079 C  
HETATM   32  O   UNL     1     -11.435  12.784  69.060  1.00  0.00    -0.271 OA 
HETATM   33  C   UNL     1     -10.377  13.773  69.067  1.00  0.00    -0.066 C  
HETATM   34  C   UNL     1     -10.668  15.044  68.254  1.00  0.00    -0.253 C  
HETATM   35  O   UNL     1      -9.507  15.899  68.202  1.00  0.00    -0.201 OA 
HETATM   36  C   UNL     1      -8.405  15.221  67.595  1.00  0.00    -0.164 C  
HETATM   37  H   UNL     1      -8.508  10.076  70.992  1.00  0.00     0.000 HD 
HETATM   38  O   UNL     1      -8.045  14.084  68.366  1.00  0.00    -0.138 OA 
HETATM   39  C   UNL     1      -9.115  13.150  68.485  1.00  0.00    -0.053 C  
HETATM   40  H   UNL     1      -7.246  10.704  69.446  1.00  0.00     0.000 HD 
HETATM   41  O   UNL     1      -9.376  10.449  71.086  1.00  0.00     1.330 OA 
HETATM   42  C   UNL     1      -8.636  12.081  69.451  1.00  0.00     1.007 C  
HETATM   43  C   UNL     1      -9.747  11.106  69.854  1.00  0.00     0.968 C  
HETATM   44  O   UNL     1      -7.544  11.373  68.842  1.00  0.00    -0.124 OA 
BRANCH  36  45
HETATM   45  C   UNL     1      -7.176  16.097  67.628  1.00  0.00    -0.146 A  
HETATM   46  S   UNL     1      -6.842  17.015  69.050  1.00  0.00    -0.233 SA 
HETATM   47  C   UNL     1      -5.319  17.395  67.024  1.00  0.00    -0.176 A  
HETATM   48  C   UNL     1      -6.259  16.394  66.632  1.00  0.00     0.187 A  
HETATM   49  C   UNL     1      -5.531  17.830  68.313  1.00  0.00    -0.154 A  
ENDBRANCH  36  45
ENDBRANCH  30  31
ENDBRANCH  15  30
TORSDOF 6
ENDMDL
MODEL      109
REMARK 921   NORMALIZED FREE ENERGY PREDICTED BY IDOCK:   14.89 KCAL/MOL
REMARK 922        TOTAL FREE ENERGY PREDICTED BY IDOCK:   18.10 KCAL/MOL
REMARK 923 INTER-LIGAND FREE ENERGY PREDICTED BY IDOCK:   16.38 KCAL/MOL
REMARK 924 INTRA-LIGAND FREE ENERGY PREDICTED BY IDOCK:    1.72 KCAL/MOL
REMARK 927      BINDING AFFINITY PREDICTED BY RF-SCORE:    0.00 PKD
ROOT
HETATM    1  C   UNL     1     -10.052   6.691  67.581  1.00  0.00    -0.192 C  
HETATM    2  C   UNL     1     -10.578   6.047  66.329  1.00  0.00     0.045 C  
HETATM    3  O   UNL     1     -10.010   4.721  66.351  1.00  0.00    -0.192 OA 
HETATM    4  C   UNL     1      -8.828   4.748  67.058  1.00  0.00    -0.107 C  
HETATM    5  C   UNL     1      -8.625   6.137  67.608  1.00  0.00    -0.106 C  
HETATM    6  O   UNL     1      -8.056   3.808  67.125  1.00  0.00    -0.090 OA 
HETATM    7  C   UNL     1      -7.982   6.300  68.988  1.00  0.00    -0.110 C  
HETATM    8  C   UNL     1      -8.273   7.712  69.527  1.00  0.00    -0.129 A  
HETATM    9  C   UNL     1      -9.240   8.598  68.926  1.00  0.00    -0.145 A  
HETATM   10  C   UNL     1      -7.580   8.111  70.689  1.00  0.00    -0.073 A  
HETATM   11  C   UNL     1      -8.176  11.008  72.576  1.00  0.00    13.447 C  
HETATM   12  C   UNL     1      -7.897   9.325  71.257  1.00  0.00     0.085 A  
HETATM   13  C   UNL     1      -9.506   9.836  69.543  1.00  0.00    -0.226 A  
HETATM   14  C   UNL     1      -8.834  10.158  70.703  1.00  0.00     0.909 A  
HETATM   15  C   UNL     1     -10.078   8.223  67.695  1.00  0.00    -0.209 C  
HETATM   16  O   UNL     1      -7.376   9.822  72.410  1.00  0.00     0.830 OA 
HETATM   17  O   UNL     1      -9.028  11.284  71.442  1.00  0.00     6.812 OA 
ENDROOT
BRANCH   7  18
HETATM   18  C   UNL     1      -8.348   5.165  69.963  1.00  0.00    -0.089 A  
HETATM   19  O   UNL     1      -8.557   2.490  73.171  1.00  0.00    -0.069 OA 
HETATM   20  C   UNL     1      -8.601   3.358  72.112  1.00  0.00    -0.086 A  
HETATM   21  C   UNL     1      -9.371   4.524  72.114  1.00  0.00    -0.133 A  
HETATM   22  C   UNL     1      -7.708   3.925  69.924  1.00  0.00    -0.051 A  
HETATM   23  H   UNL     1      -8.033   1.698  73.170  1.00  0.00     0.000 HD 
HETATM   24  C   UNL     1      -9.236   5.410  71.029  1.00  0.00    -0.179 A  
HETATM   25  C   UNL     1      -7.805   3.031  70.996  1.00  0.00    -0.047 A  
BRANCH  21  26
HETATM   26  O   UNL     1     -10.255   4.982  73.049  1.00  0.00    -0.163 OA 
HETATM   27  C   UNL     1     -11.651   4.803  72.874  1.00  0.00    -0.090 C  
ENDBRANCH  21  26
BRANCH  25  28
HETATM   28  O   UNL     1      -7.093   1.859  71.065  1.00  0.00    -0.032 OA 
HETATM   29  C   UNL     1      -6.011   1.721  70.153  1.00  0.00    -0.022 C  
ENDBRANCH  25  28
ENDBRANCH   7  18
BRANCH  15  30
HETATM   30  O   UNL     1      -9.613   8.767  66.465  1.00  0.00    -0.195 OA 
BRANCH  30  31
HETATM   31  C   UNL     1      -8.875  10.009  66.412  1.00  0.00    -0.143 C  
HETATM   32  O   UNL     1      -8.111  10.305  67.604  1.00  0.00    -0.106 OA 
HETATM   33  C   UNL     1      -7.616  11.667  67.595  1.00  0.00    -0.128 C  
HETATM   34  C   UNL     1      -6.614  12.002  68.710  1.00  0.00    -0.082 C  
HETATM   35  O   UNL     1      -6.293  13.409  68.708  1.00  0.00    -0.082 OA 
HETATM   36  C   UNL     1      -7.468  14.198  68.908  1.00  0.00    -0.112 C  
HETATM   37  H   UNL     1     -11.028  11.665  64.557  1.00  0.00     0.000 HD 
HETATM   38  O   UNL     1      -8.388  13.983  67.848  1.00  0.00    -0.144 OA 
HETATM   39  C   UNL     1      -8.794  12.621  67.751  1.00  0.00    -0.179 C  
HETATM   40  H   UNL     1     -11.370  13.226  65.907  1.00  0.00     0.000 HD 
HETATM   41  O   UNL     1     -10.354  11.018  64.730  1.00  0.00    -0.294 OA 
HETATM   42  C   UNL     1      -9.641  12.521  66.495  1.00  0.00    -0.242 C  
HETATM   43  C   UNL     1      -9.987  11.075  66.127  1.00  0.00    -0.231 C  
HETATM   44  O   UNL     1     -10.840  13.289  66.693  1.00  0.00    -0.278 OA 
BRANCH  36  45
HETATM   45  C   UNL     1      -7.128  15.665  68.815  1.00  0.00    -0.127 A  
HETATM   46  S   UNL     1      -5.627  16.218  69.463  1.00  0.00    -0.152 SA 
HETATM   47  C   UNL     1      -7.251  17.995  68.584  1.00  0.00    -0.276 A  
HETATM   48  C   UNL     1      -7.883  16.735  68.362  1.00  0.00    -0.214 A  
HETATM   49  C   UNL     1      -6.022  17.860  69.190  1.00  0.00    -0.224 A  
ENDBRANCH  36  45
ENDBRANCH  30  31
ENDBRANCH  15  30
TORSDOF 6
ENDMDL
MODEL      110
REMARK 921   NORMALIZED FREE ENERGY PREDICTED BY IDOCK:   15.10 KCAL/MOL
REMARK 922        TOTAL FREE ENERGY PREDICTED BY IDOCK:   18.37 KCAL/MOL
REMARK 923 INTER-LIGAND FREE ENERGY PREDICTED BY IDOCK:   15.30 KCAL/MOL
REMARK 924 INTRA-LIGAND FREE ENERGY PREDICTED BY IDOCK:    3.07 KCAL/MOL
REMARK 927      BINDING AFFINITY PREDICTED BY RF-SCORE:    0.00 PKD
ROOT
HETATM    1  C   UNL     1      -7.880  10.973  66.308  1.00  0.00    -0.141 C  
HETATM    2  C   UNL     1      -6.429  10.605  66.439  1.00  0.00    -0.117 C  
HETATM    3  O   UNL     1      -6.410   9.619  67.492  1.00  0.00    -0.062 OA 
HETATM    4  C   UNL     1      -7.482   9.834  68.331  1.00  0.00    -0.083 C  
HETATM    5  C   UNL     1      -8.309  10.966  67.778  1.00  0.00    -0.117 C  
HETATM    6  O   UNL     1      -7.645   9.247  69.385  1.00  0.00    -0.074 OA 
HETATM    7  C   UNL     1      -9.833  10.909  67.921  1.00  0.00    -0.189 C  
HETATM    8  C   UNL     1     -10.480  11.894  66.932  1.00  0.00    -0.253 A  
HETATM    9  C   UNL     1      -9.747  12.530  65.865  1.00  0.00    -0.226 A  
HETATM   10  C   UNL     1     -11.863  12.129  67.073  1.00  0.00    -0.288 A  
HETATM   11  C   UNL     1     -13.908  13.911  64.848  1.00  0.00     2.507 C  
HETATM   12  C   UNL     1     -12.492  12.921  66.138  1.00  0.00    -0.019 A  
HETATM   13  C   UNL     1     -10.443  13.346  64.951  1.00  0.00    -0.404 A  
HETATM   14  C   UNL     1     -11.803  13.507  65.107  1.00  0.00    -0.343 A  
HETATM   15  C   UNL     1      -8.253  12.287  65.604  1.00  0.00     1.253 C  
HETATM   16  O   UNL     1     -13.824  13.187  66.091  1.00  0.00     1.795 OA 
HETATM   17  O   UNL     1     -12.617  14.211  64.274  1.00  0.00    -0.676 OA 
ENDROOT
BRANCH   7  18
HETATM   18  C   UNL     1     -10.393   9.476  67.842  1.00  0.00    -0.276 A  
HETATM   19  O   UNL     1     -11.004   5.346  68.081  1.00  0.00    -0.005 OA 
HETATM   20  C   UNL     1     -10.915   6.711  68.020  1.00  0.00    -0.249 A  
HETATM   21  C   UNL     1     -11.346   7.549  69.052  1.00  0.00     0.415 A  
HETATM   22  C   UNL     1     -10.110   8.632  66.766  1.00  0.00    -0.366 A  
HETATM   23  H   UNL     1     -10.710   4.776  67.380  1.00  0.00     0.000 HD 
HETATM   24  C   UNL     1     -11.082   8.927  68.942  1.00  0.00     0.159 A  
HETATM   25  C   UNL     1     -10.340   7.255  66.854  1.00  0.00    -0.288 A  
BRANCH  21  26
HETATM   26  O   UNL     1     -11.987   7.237  70.218  1.00  0.00    -0.146 OA 
HETATM   27  C   UNL     1     -11.649   7.895  71.428  1.00  0.00    -0.272 C  
ENDBRANCH  21  26
BRANCH  25  28
HETATM   28  O   UNL     1      -9.961   6.365  65.878  1.00  0.00     0.170 OA 
HETATM   29  C   UNL     1     -10.282   4.999  66.108  1.00  0.00    -0.255 C  
ENDBRANCH  25  28
ENDBRANCH   7  18
BRANCH  15  30
HETATM   30  O   UNL     1      -7.386  13.307  66.085  1.00  0.00     1.679 OA 
BRANCH  30  31
HETATM   31  C   UNL     1      -7.659  14.022  67.312  1.00  0.00    -0.070 C  
HETATM   32  O   UNL     1      -8.401  13.265  68.296  1.00  0.00    -0.152 OA 
HETATM   33  C   UNL     1      -8.867  14.108  69.378  1.00  0.00     0.518 C  
HETATM   34  C   UNL     1      -9.472  13.358  70.574  1.00  0.00     5.086 C  
HETATM   35  O   UNL     1     -10.037  14.281  71.529  1.00  0.00     2.956 OA 
HETATM   36  C   UNL     1     -11.066  15.069  70.925  1.00  0.00    -0.183 C  
HETATM   37  H   UNL     1      -7.953  17.010  65.970  1.00  0.00     0.000 HD 
HETATM   38  O   UNL     1     -10.530  15.847  69.866  1.00  0.00    -0.290 OA 
HETATM   39  C   UNL     1      -9.946  15.043  68.845  1.00  0.00    -0.236 C  
HETATM   40  H   UNL     1      -9.901  17.390  66.633  1.00  0.00     0.000 HD 
HETATM   41  O   UNL     1      -7.486  16.237  66.266  1.00  0.00    -0.136 OA 
HETATM   42  C   UNL     1      -9.286  16.007  67.874  1.00  0.00    -0.208 C  
HETATM   43  C   UNL     1      -8.429  15.295  66.823  1.00  0.00    -0.255 C  
HETATM   44  O   UNL     1     -10.313  16.787  67.240  1.00  0.00    -0.294 OA 
BRANCH  36  45
HETATM   45  C   UNL     1     -11.584  16.086  71.912  1.00  0.00    -0.431 A  
HETATM   46  S   UNL     1     -10.796  17.617  72.026  1.00  0.00     3.528 SA 
HETATM   47  C   UNL     1     -12.663  17.131  73.713  1.00  0.00     0.849 A  
HETATM   48  C   UNL     1     -12.580  15.982  72.869  1.00  0.00    -0.577 A  
HETATM   49  C   UNL     1     -11.738  18.093  73.371  1.00  0.00     2.067 A  
ENDBRANCH  36  45
ENDBRANCH  30  31
ENDBRANCH  15  30
TORSDOF 6
ENDMDL
MODEL      111
REMARK 921   NORMALIZED FREE ENERGY PREDICTED BY IDOCK:   16.48 KCAL/MOL
REMARK 922        TOTAL FREE ENERGY PREDICTED BY IDOCK:   20.24 KCAL/MOL
REMARK 923 INTER-LIGAND FREE ENERGY PREDICTED BY IDOCK:   17.66 KCAL/MOL
REMARK 924 INTRA-LIGAND FREE ENERGY PREDICTED BY IDOCK:    2.58 KCAL/MOL
REMARK 927      BINDING AFFINITY PREDICTED BY RF-SCORE:    0.00 PKD
ROOT
HETATM    1  C   UNL     1     -10.810  15.898  67.600  1.00  0.00    -0.312 C  
HETATM    2  C   UNL     1     -11.997  15.085  67.167  1.00  0.00    -0.008 C  
HETATM    3  O   UNL     1     -12.418  14.410  68.372  1.00  0.00    -0.088 OA 
HETATM    4  C   UNL     1     -11.333  14.256  69.206  1.00  0.00    -0.283 C  
HETATM    5  C   UNL     1     -10.139  14.926  68.574  1.00  0.00    -0.232 C  
HETATM    6  O   UNL     1     -11.353  13.598  70.230  1.00  0.00    -0.057 OA 
HETATM    7  C   UNL     1      -9.127  15.639  69.476  1.00  0.00    -0.240 C  
HETATM    8  C   UNL     1      -8.271  16.599  68.630  1.00  0.00    -0.245 A  
HETATM    9  C   UNL     1      -8.599  16.951  67.270  1.00  0.00    -0.212 A  
HETATM   10  C   UNL     1      -7.149  17.180  69.256  1.00  0.00    -0.162 A  
HETATM   11  C   UNL     1      -5.136  19.743  67.959  1.00  0.00    -0.170 C  
HETATM   12  C   UNL     1      -6.427  18.124  68.562  1.00  0.00    -0.214 A  
HETATM   13  C   UNL     1      -7.810  17.910  66.605  1.00  0.00    -0.272 A  
HETATM   14  C   UNL     1      -6.751  18.481  67.278  1.00  0.00    -0.200 A  
HETATM   15  C   UNL     1      -9.832  16.411  66.531  1.00  0.00    -0.274 C  
HETATM   16  O   UNL     1      -5.367  18.826  69.045  1.00  0.00    -0.192 OA 
HETATM   17  O   UNL     1      -5.939  19.459  66.792  1.00  0.00    -0.167 OA 
ENDROOT
BRANCH   7  18
HETATM   18  C   UNL     1      -9.774  16.293  70.711  1.00  0.00     2.041 A  
HETATM   19  O   UNL     1     -12.336  18.199  73.411  1.00  0.00     2.315 OA 
HETATM   20  C   UNL     1     -11.458  17.514  72.614  1.00  0.00     1.662 A  
HETATM   21  C   UNL     1     -11.448  16.120  72.515  1.00  0.00    -0.038 A  
HETATM   22  C   UNL     1      -9.703  17.669  70.940  1.00  0.00     4.144 A  
HETATM   23  H   UNL     1     -12.344  19.147  73.478  1.00  0.00     0.000 HD 
HETATM   24  C   UNL     1     -10.595  15.529  71.564  1.00  0.00     0.494 A  
HETATM   25  C   UNL     1     -10.552  18.289  71.863  1.00  0.00     3.547 A  
BRANCH  21  26
HETATM   26  O   UNL     1     -12.180  15.192  73.200  1.00  0.00    -0.382 OA 
HETATM   27  C   UNL     1     -13.337  14.612  72.620  1.00  0.00    -0.482 C  
ENDBRANCH  21  26
BRANCH  25  28
HETATM   28  O   UNL     1     -10.613  19.650  72.031  1.00  0.00     2.671 OA 
HETATM   29  C   UNL     1     -10.531  20.126  73.369  1.00  0.00     5.702 C  
ENDBRANCH  25  28
ENDBRANCH   7  18
BRANCH  15  30
HETATM   30  O   UNL     1      -9.569  15.346  65.625  1.00  0.00    -0.335 OA 
BRANCH  30  31
HETATM   31  C   UNL     1      -9.448  13.977  66.073  1.00  0.00    -0.136 C  
HETATM   32  O   UNL     1      -8.108  13.585  66.453  1.00  0.00     0.533 OA 
HETATM   33  C   UNL     1      -8.003  12.152  66.635  1.00  0.00     0.058 C  
HETATM   34  C   UNL     1      -6.681  11.669  67.251  1.00  0.00    -0.124 C  
HETATM   35  O   UNL     1      -6.611  10.228  67.258  1.00  0.00    -0.067 OA 
HETATM   36  C   UNL     1      -6.705   9.709  65.929  1.00  0.00    -0.084 C  
HETATM   37  H   UNL     1     -11.774  12.717  64.119  1.00  0.00     0.000 HD 
HETATM   38  O   UNL     1      -7.954  10.059  65.353  1.00  0.00    -0.129 OA 
HETATM   39  C   UNL     1      -8.141  11.470  65.280  1.00  0.00     0.702 C  
HETATM   40  H   UNL     1     -10.554  11.325  63.145  1.00  0.00     0.000 HD 
HETATM   41  O   UNL     1     -11.441  13.217  64.854  1.00  0.00    -0.304 OA 
HETATM   42  C   UNL     1      -9.563  11.684  64.794  1.00  0.00    -0.134 C  
HETATM   43  C   UNL     1      -9.998  13.151  64.860  1.00  0.00    -0.130 C  
HETATM   44  O   UNL     1      -9.664  11.191  63.448  1.00  0.00    -0.280 OA 
BRANCH  36  45
HETATM   45  C   UNL     1      -6.719   8.200  65.962  1.00  0.00    -0.053 A  
HETATM   46  S   UNL     1      -6.586   7.396  67.482  1.00  0.00    -0.063 SA 
HETATM   47  C   UNL     1      -6.581   5.934  65.378  1.00  0.00    -0.043 A  
HETATM   48  C   UNL     1      -6.726   7.280  64.926  1.00  0.00    -0.047 A  
HETATM   49  C   UNL     1      -6.480   5.855  66.749  1.00  0.00    -0.050 A  
ENDBRANCH  36  45
ENDBRANCH  30  31
ENDBRANCH  15  30
TORSDOF 6
ENDMDL
MODEL      112
REMARK 921   NORMALIZED FREE ENERGY PREDICTED BY IDOCK:   17.45 KCAL/MOL
REMARK 922        TOTAL FREE ENERGY PREDICTED BY IDOCK:   21.56 KCAL/MOL
REMARK 923 INTER-LIGAND FREE ENERGY PREDICTED BY IDOCK:   16.39 KCAL/MOL
REMARK 924 INTRA-LIGAND FREE ENERGY PREDICTED BY IDOCK:    5.16 KCAL/MOL
REMARK 927      BINDING AFFINITY PREDICTED BY RF-SCORE:    0.00 PKD
ROOT
HETATM    1  C   UNL     1      -7.332  15.009  68.165  1.00  0.00    -0.119 C  
HETATM    2  C   UNL     1      -6.120  15.769  67.706  1.00  0.00    -0.150 C  
HETATM    3  O   UNL     1      -6.635  17.069  67.348  1.00  0.00    -0.132 OA 
HETATM    4  C   UNL     1      -7.955  16.944  66.975  1.00  0.00    -0.196 C  
HETATM    5  C   UNL     1      -8.377  15.509  67.163  1.00  0.00    -0.243 C  
HETATM    6  O   UNL     1      -8.611  17.848  66.488  1.00  0.00    -0.251 OA 
HETATM    7  C   UNL     1      -9.803  15.213  67.640  1.00  0.00    -0.219 C  
HETATM    8  C   UNL     1      -9.876  13.773  68.179  1.00  0.00    -0.239 A  
HETATM    9  C   UNL     1      -8.705  12.973  68.442  1.00  0.00    -0.115 A  
HETATM   10  C   UNL     1     -11.158  13.258  68.462  1.00  0.00    -0.294 A  
HETATM   11  C   UNL     1     -11.874  10.242  70.104  1.00  0.00    -0.263 C  
HETATM   12  C   UNL     1     -11.251  12.015  69.045  1.00  0.00    -0.258 A  
HETATM   13  C   UNL     1      -8.866  11.699  69.022  1.00  0.00     0.195 A  
HETATM   14  C   UNL     1     -10.138  11.262  69.321  1.00  0.00     0.009 A  
HETATM   15  C   UNL     1      -7.271  13.475  68.216  1.00  0.00    -0.111 C  
HETATM   16  O   UNL     1     -12.401  11.409  69.444  1.00  0.00    -0.254 OA 
HETATM   17  O   UNL     1     -10.447  10.087  69.936  1.00  0.00    -0.240 OA 
ENDROOT
BRANCH   7  18
HETATM   18  C   UNL     1     -10.350  16.278  68.609  1.00  0.00    -0.263 A  
HETATM   19  O   UNL     1     -10.863  19.551  71.160  1.00  0.00     1.063 OA 
HETATM   20  C   UNL     1     -10.802  18.493  70.292  1.00  0.00     2.423 A  
HETATM   21  C   UNL     1     -11.091  18.609  68.929  1.00  0.00     1.487 A  
HETATM   22  C   UNL     1     -10.214  16.154  69.993  1.00  0.00    -0.060 A  
HETATM   23  H   UNL     1     -10.667  19.473  72.086  1.00  0.00     0.000 HD 
HETATM   24  C   UNL     1     -10.864  17.490  68.107  1.00  0.00    -0.246 A  
HETATM   25  C   UNL     1     -10.411  17.253  70.836  1.00  0.00     2.139 A  
BRANCH  21  26
HETATM   26  O   UNL     1     -11.551  19.685  68.225  1.00  0.00     1.152 OA 
HETATM   27  C   UNL     1     -11.641  19.638  66.810  1.00  0.00     1.015 C  
ENDBRANCH  21  26
BRANCH  25  28
HETATM   28  O   UNL     1     -10.165  17.219  72.186  1.00  0.00     4.457 OA 
HETATM   29  C   UNL     1      -9.862  18.463  72.806  1.00  0.00     7.417 C  
ENDBRANCH  25  28
ENDBRANCH   7  18
BRANCH  15  30
HETATM   30  O   UNL     1      -6.656  13.016  67.018  1.00  0.00    -0.133 OA 
BRANCH  30  31
HETATM   31  C   UNL     1      -6.166  11.662  66.884  1.00  0.00    -0.149 C  
HETATM   32  O   UNL     1      -6.473  11.034  65.617  1.00  0.00    -0.036 OA 
HETATM   33  C   UNL     1      -6.193   9.613  65.645  1.00  0.00    -0.068 C  
HETATM   34  C   UNL     1      -6.280   8.906  64.283  1.00  0.00    -0.071 C  
HETATM   35  O   UNL     1      -6.131   7.479  64.434  1.00  0.00    -0.037 OA 
HETATM   36  C   UNL     1      -7.152   6.948  65.281  1.00  0.00    -0.067 C  
HETATM   37  H   UNL     1      -6.496  10.810  70.043  1.00  0.00     0.000 HD 
HETATM   38  O   UNL     1      -7.053   7.513  66.580  1.00  0.00    -0.074 OA 
HETATM   39  C   UNL     1      -7.195   8.931  66.567  1.00  0.00    -0.085 C  
HETATM   40  H   UNL     1      -7.774   9.184  69.730  1.00  0.00     0.000 HD 
HETATM   41  O   UNL     1      -6.100  11.260  69.306  1.00  0.00    -0.052 OA 
HETATM   42  C   UNL     1      -6.914   9.397  67.985  1.00  0.00    -0.079 C  
HETATM   43  C   UNL     1      -6.819  10.921  68.099  1.00  0.00    -0.067 C  
HETATM   44  O   UNL     1      -7.950   8.892  68.843  1.00  0.00    -0.101 OA 
BRANCH  36  45
HETATM   45  C   UNL     1      -6.930   5.472  65.498  1.00  0.00    -0.065 A  
HETATM   46  S   UNL     1      -8.299   4.429  65.619  1.00  0.00    -0.115 SA 
HETATM   47  C   UNL     1      -5.994   3.391  66.037  1.00  0.00    -0.023 A  
HETATM   48  C   UNL     1      -5.760   4.764  65.725  1.00  0.00    -0.018 A  
HETATM   49  C   UNL     1      -7.334   3.077  66.027  1.00  0.00    -0.071 A  
ENDBRANCH  36  45
ENDBRANCH  30  31
ENDBRANCH  15  30
TORSDOF 6
ENDMDL
MODEL      113
REMARK 921   NORMALIZED FREE ENERGY PREDICTED BY IDOCK:   24.69 KCAL/MOL
REMARK 922        TOTAL FREE ENERGY PREDICTED BY IDOCK:   31.32 KCAL/MOL
REMARK 923 INTER-LIGAND FREE ENERGY PREDICTED BY IDOCK:   18.41 KCAL/MOL
REMARK 924 INTRA-LIGAND FREE ENERGY PREDICTED BY IDOCK:   12.91 KCAL/MOL
REMARK 927      BINDING AFFINITY PREDICTED BY RF-SCORE:    0.00 PKD
ROOT
HETATM    1  C   UNL     1      -8.255  15.821  68.146  1.00  0.00    -0.141 C  
HETATM    2  C   UNL     1      -6.906  16.136  67.563  1.00  0.00    -0.165 C  
HETATM    3  O   UNL     1      -6.968  15.599  66.225  1.00  0.00     0.477 OA 
HETATM    4  C   UNL     1      -7.866  14.554  66.199  1.00  0.00     2.089 C  
HETATM    5  C   UNL     1      -8.500  14.427  67.561  1.00  0.00    -0.202 C  
HETATM    6  O   UNL     1      -8.023  13.818  65.242  1.00  0.00     4.119 OA 
HETATM    7  C   UNL     1      -9.975  14.027  67.657  1.00  0.00    -0.237 C  
HETATM    8  C   UNL     1     -10.515  14.385  69.053  1.00  0.00    -0.227 A  
HETATM    9  C   UNL     1      -9.797  15.222  69.982  1.00  0.00    -0.072 A  
HETATM   10  C   UNL     1     -11.794  13.895  69.391  1.00  0.00    -0.384 A  
HETATM   11  C   UNL     1     -13.672  14.761  72.225  1.00  0.00    -0.454 C  
HETATM   12  C   UNL     1     -12.350  14.286  70.589  1.00  0.00    -0.361 A  
HETATM   13  C   UNL     1     -10.411  15.572  71.200  1.00  0.00     0.611 A  
HETATM   14  C   UNL     1     -11.680  15.103  71.463  1.00  0.00    -0.390 A  
HETATM   15  C   UNL     1      -8.426  15.844  69.673  1.00  0.00     0.052 C  
HETATM   16  O   UNL     1     -13.594  13.961  71.029  1.00  0.00    -0.180 OA 
HETATM   17  O   UNL     1     -12.423  15.404  72.563  1.00  0.00    -0.323 OA 
ENDROOT
BRANCH   7  18
HETATM   18  C   UNL     1     -10.825  14.569  66.493  1.00  0.00    -0.314 A  
HETATM   19  O   UNL     1     -12.264  15.854  62.782  1.00  0.00     2.001 OA 
HETATM   20  C   UNL     1     -11.897  15.396  64.020  1.00  0.00     0.040 A  
HETATM   21  C   UNL     1     -12.075  14.070  64.426  1.00  0.00    -0.458 A  
HETATM   22  C   UNL     1     -10.797  15.916  66.124  1.00  0.00    -0.208 A  
HETATM   23  H   UNL     1     -12.144  16.755  62.507  1.00  0.00     0.000 HD 
HETATM   24  C   UNL     1     -11.538  13.679  65.666  1.00  0.00    -0.342 A  
HETATM   25  C   UNL     1     -11.302  16.333  64.888  1.00  0.00    -0.159 A  
BRANCH  21  26
HETATM   26  O   UNL     1     -12.687  13.035  63.777  1.00  0.00    -0.686 OA 
HETATM   27  C   UNL     1     -13.466  12.092  64.494  1.00  0.00     1.232 C  
ENDBRANCH  21  26
BRANCH  25  28
HETATM   28  O   UNL     1     -11.182  17.619  64.422  1.00  0.00    -0.702 OA 
HETATM   29  C   UNL     1     -11.267  18.655  65.394  1.00  0.00     1.050 C  
ENDBRANCH  25  28
ENDBRANCH   7  18
BRANCH  15  30
HETATM   30  O   UNL     1      -7.317  15.169  70.254  1.00  0.00     0.018 OA 
BRANCH  30  31
HETATM   31  C   UNL     1      -7.245  13.726  70.305  1.00  0.00     0.944 C  
HETATM   32  O   UNL     1      -6.368  13.133  69.320  1.00  0.00    -0.096 OA 
HETATM   33  C   UNL     1      -6.542  11.696  69.247  1.00  0.00    -0.111 C  
HETATM   34  C   UNL     1      -5.502  10.957  68.390  1.00  0.00    -0.043 C  
HETATM   35  O   UNL     1      -5.841   9.560  68.260  1.00  0.00    -0.041 OA 
HETATM   36  C   UNL     1      -7.123   9.404  67.647  1.00  0.00    -0.082 C  
HETATM   37  H   UNL     1     -10.349  13.214  71.266  1.00  0.00     0.000 HD 
HETATM   38  O   UNL     1      -8.128   9.999  68.453  1.00  0.00    -0.098 OA 
HETATM   39  C   UNL     1      -7.910  11.394  68.650  1.00  0.00    -0.139 C  
HETATM   40  H   UNL     1     -10.913  12.009  69.652  1.00  0.00     0.000 HD 
HETATM   41  O   UNL     1      -9.443  13.481  71.373  1.00  0.00     7.656 OA 
HETATM   42  C   UNL     1      -8.963  11.850  69.644  1.00  0.00     1.643 C  
HETATM   43  C   UNL     1      -8.739  13.286  70.127  1.00  0.00     3.689 C  
HETATM   44  O   UNL     1     -10.255  11.723  69.029  1.00  0.00    -0.145 OA 
BRANCH  36  45
HETATM   45  C   UNL     1      -7.499   7.943  67.599  1.00  0.00    -0.097 A  
HETATM   46  S   UNL     1      -6.313   6.791  67.108  1.00  0.00    -0.043 SA 
HETATM   47  C   UNL     1      -8.692   5.927  67.509  1.00  0.00    -0.104 A  
HETATM   48  C   UNL     1      -8.722   7.325  67.798  1.00  0.00    -0.126 A  
HETATM   49  C   UNL     1      -7.443   5.507  67.109  1.00  0.00    -0.084 A  
ENDBRANCH  36  45
ENDBRANCH  30  31
ENDBRANCH  15  30
TORSDOF 6
ENDMDL
MODEL      114
REMARK 921   NORMALIZED FREE ENERGY PREDICTED BY IDOCK:   29.35 KCAL/MOL
REMARK 922        TOTAL FREE ENERGY PREDICTED BY IDOCK:   37.63 KCAL/MOL
REMARK 923 INTER-LIGAND FREE ENERGY PREDICTED BY IDOCK:   38.90 KCAL/MOL
REMARK 924 INTRA-LIGAND FREE ENERGY PREDICTED BY IDOCK:   -1.27 KCAL/MOL
REMARK 927      BINDING AFFINITY PREDICTED BY RF-SCORE:    0.00 PKD
ROOT
HETATM    1  C   UNL     1      -9.450  10.527  70.968  1.00  0.00     2.786 C  
HETATM    2  C   UNL     1      -9.388  11.623  71.994  1.00  0.00    16.755 C  
HETATM    3  O   UNL     1      -9.177  10.927  73.241  1.00  0.00    12.901 OA 
HETATM    4  C   UNL     1      -9.705   9.658  73.143  1.00  0.00     5.169 C  
HETATM    5  C   UNL     1     -10.226   9.457  71.743  1.00  0.00     0.027 C  
HETATM    6  O   UNL     1      -9.801   8.890  74.083  1.00  0.00     2.941 OA 
HETATM    7  C   UNL     1     -10.087   8.077  71.092  1.00  0.00    -0.221 C  
HETATM    8  C   UNL     1     -10.262   8.207  69.569  1.00  0.00    -0.213 A  
HETATM    9  C   UNL     1     -10.264   9.477  68.884  1.00  0.00    -0.213 A  
HETATM   10  C   UNL     1     -10.377   7.011  68.832  1.00  0.00    -0.198 A  
HETATM   11  C   UNL     1     -10.349   6.708  65.337  1.00  0.00     2.369 C  
HETATM   12  C   UNL     1     -10.427   7.089  67.458  1.00  0.00    -0.250 A  
HETATM   13  C   UNL     1     -10.336   9.493  67.478  1.00  0.00    -0.306 A  
HETATM   14  C   UNL     1     -10.403   8.293  66.802  1.00  0.00    -0.290 A  
HETATM   15  C   UNL     1     -10.086  10.824  69.602  1.00  0.00    -0.011 C  
HETATM   16  O   UNL     1     -10.467   6.032  66.604  1.00  0.00    -0.232 OA 
HETATM   17  O   UNL     1     -10.416   8.147  65.449  1.00  0.00     2.016 OA 
ENDROOT
BRANCH   7  18
HETATM   18  C   UNL     1      -8.807   7.334  71.519  1.00  0.00    -0.125 A  
HETATM   19  O   UNL     1      -5.594   5.680  73.624  1.00  0.00    -0.027 OA 
HETATM   20  C   UNL     1      -6.645   6.130  72.868  1.00  0.00    -0.065 A  
HETATM   21  C   UNL     1      -7.823   5.399  72.689  1.00  0.00    -0.102 A  
HETATM   22  C   UNL     1      -7.569   7.976  71.587  1.00  0.00    -0.089 A  
HETATM   23  H   UNL     1      -4.794   6.177  73.746  1.00  0.00     0.000 HD 
HETATM   24  C   UNL     1      -8.888   6.015  72.007  1.00  0.00    -0.137 A  
HETATM   25  C   UNL     1      -6.497   7.400  72.276  1.00  0.00    -0.050 A  
BRANCH  21  26
HETATM   26  O   UNL     1      -8.137   4.137  73.109  1.00  0.00    -0.088 OA 
HETATM   27  C   UNL     1      -7.539   3.003  72.501  1.00  0.00    -0.057 C  
ENDBRANCH  21  26
BRANCH  25  28
HETATM   28  O   UNL     1      -5.302   8.045  72.483  1.00  0.00    -0.036 OA 
HETATM   29  C   UNL     1      -5.362   9.273  73.198  1.00  0.00    -0.085 C  
ENDBRANCH  25  28
ENDBRANCH   7  18
BRANCH  15  30
HETATM   30  O   UNL     1     -11.291  11.549  69.822  1.00  0.00    -0.266 OA 
BRANCH  30  31
HETATM   31  C   UNL     1     -11.526  12.837  69.210  1.00  0.00    -0.289 C  
HETATM   32  O   UNL     1     -10.694  13.118  68.061  1.00  0.00    -0.223 OA 
HETATM   33  C   UNL     1     -10.787  14.507  67.661  1.00  0.00    -0.273 C  
HETATM   34  C   UNL     1     -10.113  14.847  66.323  1.00  0.00    -0.283 C  
HETATM   35  O   UNL     1     -10.132  16.270  66.083  1.00  0.00    -0.304 OA 
HETATM   36  C   UNL     1      -9.444  16.969  67.123  1.00  0.00    -0.242 C  
HETATM   37  H   UNL     1     -12.298  14.447  71.972  1.00  0.00     0.000 HD 
HETATM   38  O   UNL     1     -10.089  16.752  68.369  1.00  0.00    -0.257 OA 
HETATM   39  C   UNL     1     -10.127  15.373  68.727  1.00  0.00    -0.213 C  
HETATM   40  H   UNL     1     -10.807  15.908  71.834  1.00  0.00     0.000 HD 
HETATM   41  O   UNL     1     -12.442  13.837  71.258  1.00  0.00    -0.349 OA 
HETATM   42  C   UNL     1     -10.972  15.286  69.985  1.00  0.00    -0.288 C  
HETATM   43  C   UNL     1     -11.289  13.843  70.388  1.00  0.00     0.120 C  
HETATM   44  O   UNL     1     -10.279  15.963  71.046  1.00  0.00     0.498 OA 
BRANCH  36  45
HETATM   45  C   UNL     1      -9.549  18.458  66.902  1.00  0.00    -0.303 A  
HETATM   46  S   UNL     1      -8.102  19.394  66.815  1.00  0.00    -0.300 SA 
HETATM   47  C   UNL     1     -10.326  20.666  66.775  1.00  0.00     0.042 A  
HETATM   48  C   UNL     1     -10.663  19.280  66.846  1.00  0.00    -0.543 A  
HETATM   49  C   UNL     1      -8.965  20.870  66.764  1.00  0.00     0.205 A  
ENDBRANCH  36  45
ENDBRANCH  30  31
ENDBRANCH  15  30
TORSDOF 6
ENDMDL
MODEL      115
REMARK 921   NORMALIZED FREE ENERGY PREDICTED BY IDOCK:   30.76 KCAL/MOL
REMARK 922        TOTAL FREE ENERGY PREDICTED BY IDOCK:   39.52 KCAL/MOL
REMARK 923 INTER-LIGAND FREE ENERGY PREDICTED BY IDOCK:    9.90 KCAL/MOL
REMARK 924 INTRA-LIGAND FREE ENERGY PREDICTED BY IDOCK:   29.62 KCAL/MOL
REMARK 927      BINDING AFFINITY PREDICTED BY RF-SCORE:    0.00 PKD
ROOT
HETATM    1  C   UNL     1     -11.016   9.158  69.034  1.00  0.00    -0.035 C  
HETATM    2  C   UNL     1     -12.257   9.632  68.330  1.00  0.00     3.072 C  
HETATM    3  O   UNL     1     -11.768  10.177  67.086  1.00  0.00     0.270 OA 
HETATM    4  C   UNL     1     -10.473  10.611  67.261  1.00  0.00    -0.246 C  
HETATM    5  C   UNL     1     -10.036  10.275  68.664  1.00  0.00    -0.183 C  
HETATM    6  O   UNL     1      -9.851  11.244  66.427  1.00  0.00    -0.201 OA 
HETATM    7  C   UNL     1      -8.583   9.854  68.907  1.00  0.00    -0.135 C  
HETATM    8  C   UNL     1      -8.473   9.148  70.270  1.00  0.00    -0.208 A  
HETATM    9  C   UNL     1      -9.623   8.719  71.027  1.00  0.00    -0.290 A  
HETATM   10  C   UNL     1      -7.174   8.883  70.752  1.00  0.00    -0.083 A  
HETATM   11  C   UNL     1      -6.351   6.932  73.549  1.00  0.00    -0.063 C  
HETATM   12  C   UNL     1      -7.043   8.159  71.916  1.00  0.00    -0.081 A  
HETATM   13  C   UNL     1      -9.424   7.999  72.221  1.00  0.00    -0.272 A  
HETATM   14  C   UNL     1      -8.134   7.727  72.625  1.00  0.00    -0.121 A  
HETATM   15  C   UNL     1     -11.070   8.917  70.550  1.00  0.00    -0.251 C  
HETATM   16  O   UNL     1      -5.869   7.760  72.474  1.00  0.00    -0.039 OA 
HETATM   17  O   UNL     1      -7.785   6.993  73.717  1.00  0.00    -0.102 OA 
ENDROOT
BRANCH   7  18
HETATM   18  C   UNL     1      -7.981   9.057  67.734  1.00  0.00    -0.101 A  
HETATM   19  O   UNL     1      -6.869   7.597  63.976  1.00  0.00    -0.052 OA 
HETATM   20  C   UNL     1      -7.131   8.044  65.244  1.00  0.00    -0.063 A  
HETATM   21  C   UNL     1      -6.335   8.988  65.899  1.00  0.00    -0.056 A  
HETATM   22  C   UNL     1      -8.673   8.009  67.123  1.00  0.00    -0.134 A  
HETATM   23  H   UNL     1      -7.411   6.956  63.531  1.00  0.00     0.000 HD 
HETATM   24  C   UNL     1      -6.773   9.476  67.144  1.00  0.00    -0.072 A  
HETATM   25  C   UNL     1      -8.276   7.517  65.875  1.00  0.00    -0.134 A  
BRANCH  21  26
HETATM   26  O   UNL     1      -5.160   9.562  65.502  1.00  0.00    -0.031 OA 
HETATM   27  C   UNL     1      -5.138  10.888  65.000  1.00  0.00    -0.094 C  
ENDBRANCH  21  26
BRANCH  25  28
HETATM   28  O   UNL     1      -8.994   6.580  65.173  1.00  0.00     0.100 OA 
HETATM   29  C   UNL     1      -8.343   5.341  64.922  1.00  0.00    -0.144 C  
ENDBRANCH  25  28
ENDBRANCH   7  18
BRANCH  15  30
HETATM   30  O   UNL     1     -11.755  10.010  71.149  1.00  0.00    -0.345 OA 
BRANCH  30  31
HETATM   31  C   UNL     1     -11.253  11.363  71.061  1.00  0.00     1.528 C  
HETATM   32  O   UNL     1     -12.194  12.382  71.472  1.00  0.00     0.030 OA 
HETATM   33  C   UNL     1     -11.735  13.708  71.113  1.00  0.00     0.474 C  
HETATM   34  C   UNL     1     -12.559  14.864  71.702  1.00  0.00    -0.329 C  
HETATM   35  O   UNL     1     -12.117  16.133  71.175  1.00  0.00    -0.399 OA 
HETATM   36  C   UNL     1     -12.250  16.165  69.752  1.00  0.00     0.156 C  
HETATM   37  H   UNL     1      -9.329  10.897  68.434  1.00  0.00     0.000 HD 
HETATM   38  O   UNL     1     -11.433  15.165  69.161  1.00  0.00    -0.270 OA 
HETATM   39  C   UNL     1     -11.780  13.854  69.598  1.00  0.00    -0.311 C  
HETATM   40  H   UNL     1     -10.221  12.343  67.213  1.00  0.00     0.000 HD 
HETATM   41  O   UNL     1      -9.581  10.817  69.347  1.00  0.00    -0.151 OA 
HETATM   42  C   UNL     1     -10.734  12.923  69.010  1.00  0.00    -0.092 C  
HETATM   43  C   UNL     1     -10.839  11.496  69.555  1.00  0.00    -0.064 C  
HETATM   44  O   UNL     1     -10.875  12.925  67.580  1.00  0.00    -0.225 OA 
BRANCH  36  45
HETATM   45  C   UNL     1     -11.702  17.463  69.211  1.00  0.00     2.043 A  
HETATM   46  S   UNL     1     -10.157  18.007  69.749  1.00  0.00     0.832 SA 
HETATM   47  C   UNL     1     -11.488  19.579  68.224  1.00  0.00     1.470 A  
HETATM   48  C   UNL     1     -12.286  18.406  68.380  1.00  0.00     5.463 A  
HETATM   49  C   UNL     1     -10.307  19.500  68.928  1.00  0.00    -0.161 A  
ENDBRANCH  36  45
ENDBRANCH  30  31
ENDBRANCH  15  30
TORSDOF 6
ENDMDL
MODEL      116
REMARK 921   NORMALIZED FREE ENERGY PREDICTED BY IDOCK:   33.42 KCAL/MOL
REMARK 922        TOTAL FREE ENERGY PREDICTED BY IDOCK:   43.12 KCAL/MOL
REMARK 923 INTER-LIGAND FREE ENERGY PREDICTED BY IDOCK:   40.82 KCAL/MOL
REMARK 924 INTRA-LIGAND FREE ENERGY PREDICTED BY IDOCK:    2.31 KCAL/MOL
REMARK 927      BINDING AFFINITY PREDICTED BY RF-SCORE:    0.00 PKD
ROOT
HETATM    1  C   UNL     1      -8.928  13.521  71.187  1.00  0.00     9.014 C  
HETATM    2  C   UNL     1      -8.614  13.332  72.644  1.00  0.00    16.587 C  
HETATM    3  O   UNL     1      -7.360  14.023  72.826  1.00  0.00     3.198 OA 
HETATM    4  C   UNL     1      -6.672  14.030  71.632  1.00  0.00     1.804 C  
HETATM    5  C   UNL     1      -7.531  13.385  70.575  1.00  0.00     2.568 C  
HETATM    6  O   UNL     1      -5.523  14.417  71.514  1.00  0.00    -0.161 OA 
HETATM    7  C   UNL     1      -7.485  13.934  69.146  1.00  0.00     0.027 C  
HETATM    8  C   UNL     1      -8.720  13.448  68.367  1.00  0.00    -0.134 A  
HETATM    9  C   UNL     1      -9.853  12.822  69.004  1.00  0.00     0.285 A  
HETATM   10  C   UNL     1      -8.735  13.681  66.977  1.00  0.00    -0.204 A  
HETATM   11  C   UNL     1     -11.452  13.188  64.813  1.00  0.00    -0.323 C  
HETATM   12  C   UNL     1      -9.871  13.354  66.270  1.00  0.00    -0.290 A  
HETATM   13  C   UNL     1     -10.979  12.493  68.224  1.00  0.00    -0.270 A  
HETATM   14  C   UNL     1     -10.960  12.783  66.876  1.00  0.00    -0.260 A  
HETATM   15  C   UNL     1      -9.945  12.582  70.519  1.00  0.00     5.011 C  
HETATM   16  O   UNL     1     -10.072  13.579  64.944  1.00  0.00    -0.327 OA 
HETATM   17  O   UNL     1     -11.989  12.582  66.009  1.00  0.00    -0.481 OA 
ENDROOT
BRANCH   7  18
HETATM   18  C   UNL     1      -7.264  15.458  69.091  1.00  0.00    -0.171 A  
HETATM   19  O   UNL     1      -5.658  19.317  68.982  1.00  0.00    -0.196 OA 
HETATM   20  C   UNL     1      -6.267  18.091  68.950  1.00  0.00    -0.215 A  
HETATM   21  C   UNL     1      -6.537  17.404  67.763  1.00  0.00    -0.154 A  
HETATM   22  C   UNL     1      -7.123  16.224  70.250  1.00  0.00     0.974 A  
HETATM   23  H   UNL     1      -5.473  19.783  69.789  1.00  0.00     0.000 HD 
HETATM   24  C   UNL     1      -7.041  16.094  67.854  1.00  0.00    -0.147 A  
HETATM   25  C   UNL     1      -6.604  17.522  70.195  1.00  0.00     0.536 A  
BRANCH  21  26
HETATM   26  O   UNL     1      -6.360  17.802  66.468  1.00  0.00    -0.164 OA 
HETATM   27  C   UNL     1      -6.703  19.117  66.062  1.00  0.00    -0.232 C  
ENDBRANCH  21  26
BRANCH  25  28
HETATM   28  O   UNL     1      -6.324  18.268  71.313  1.00  0.00     1.157 OA 
HETATM   29  C   UNL     1      -5.142  17.922  72.025  1.00  0.00     0.780 C  
ENDBRANCH  25  28
ENDBRANCH   7  18
BRANCH  15  30
HETATM   30  O   UNL     1      -9.657  11.252  70.934  1.00  0.00     3.489 OA 
BRANCH  30  31
HETATM   31  C   UNL     1      -8.671  10.439  70.257  1.00  0.00     0.712 C  
HETATM   32  O   UNL     1      -8.526  10.722  68.845  1.00  0.00    -0.144 OA 
HETATM   33  C   UNL     1      -7.730   9.712  68.178  1.00  0.00    -0.086 C  
HETATM   34  C   UNL     1      -7.339  10.044  66.730  1.00  0.00    -0.095 C  
HETATM   35  O   UNL     1      -6.677   8.923  66.105  1.00  0.00    -0.068 OA 
HETATM   36  C   UNL     1      -7.529   7.776  66.090  1.00  0.00    -0.079 C  
HETATM   37  H   UNL     1      -9.106   7.717  72.050  1.00  0.00     0.000 HD 
HETATM   38  O   UNL     1      -7.845   7.382  67.417  1.00  0.00    -0.108 OA 
HETATM   39  C   UNL     1      -8.516   8.408  68.142  1.00  0.00    -0.132 C  
HETATM   40  H   UNL     1      -9.603   6.449  70.462  1.00  0.00     0.000 HD 
HETATM   41  O   UNL     1      -8.810   8.604  71.883  1.00  0.00    -0.199 OA 
HETATM   42  C   UNL     1      -8.645   7.904  69.568  1.00  0.00    -0.137 C  
HETATM   43  C   UNL     1      -9.160   8.976  70.532  1.00  0.00    -0.221 C  
HETATM   44  O   UNL     1      -9.522   6.765  69.570  1.00  0.00    -0.149 OA 
BRANCH  36  45
HETATM   45  C   UNL     1      -6.792   6.592  65.514  1.00  0.00    -0.048 A  
HETATM   46  S   UNL     1      -7.055   5.030  66.198  1.00  0.00    -0.073 SA 
HETATM   47  C   UNL     1      -5.254   5.228  64.387  1.00  0.00    -0.010 A  
HETATM   48  C   UNL     1      -5.810   6.534  64.538  1.00  0.00    -0.030 A  
HETATM   49  C   UNL     1      -5.832   4.315  65.240  1.00  0.00    -0.022 A  
ENDBRANCH  36  45
ENDBRANCH  30  31
ENDBRANCH  15  30
TORSDOF 6
ENDMDL
MODEL      117
REMARK 921   NORMALIZED FREE ENERGY PREDICTED BY IDOCK:   41.30 KCAL/MOL
REMARK 922        TOTAL FREE ENERGY PREDICTED BY IDOCK:   53.76 KCAL/MOL
REMARK 923 INTER-LIGAND FREE ENERGY PREDICTED BY IDOCK:   39.99 KCAL/MOL
REMARK 924 INTRA-LIGAND FREE ENERGY PREDICTED BY IDOCK:   13.77 KCAL/MOL
REMARK 927      BINDING AFFINITY PREDICTED BY RF-SCORE:    0.00 PKD
ROOT
HETATM    1  C   UNL     1     -10.907  15.237  67.683  1.00  0.00    -0.295 C  
HETATM    2  C   UNL     1     -12.004  14.287  68.076  1.00  0.00    -0.318 C  
HETATM    3  O   UNL     1     -12.109  14.445  69.506  1.00  0.00    -0.313 OA 
HETATM    4  C   UNL     1     -10.892  14.851  70.007  1.00  0.00    -0.176 C  
HETATM    5  C   UNL     1      -9.939  15.054  68.856  1.00  0.00    -0.236 C  
HETATM    6  O   UNL     1     -10.639  14.928  71.196  1.00  0.00     0.109 OA 
HETATM    7  C   UNL     1      -8.921  16.196  68.931  1.00  0.00    -0.247 C  
HETATM    8  C   UNL     1      -8.379  16.495  67.521  1.00  0.00    -0.179 A  
HETATM    9  C   UNL     1      -8.976  15.961  66.321  1.00  0.00    -0.381 A  
HETATM   10  C   UNL     1      -7.277  17.370  67.430  1.00  0.00    -0.188 A  
HETATM   11  C   UNL     1      -5.938  18.729  64.486  1.00  0.00    -0.111 C  
HETATM   12  C   UNL     1      -6.838  17.742  66.179  1.00  0.00    -0.294 A  
HETATM   13  C   UNL     1      -8.469  16.364  65.071  1.00  0.00     3.641 A  
HETATM   14  C   UNL     1      -7.419  17.257  65.036  1.00  0.00     3.292 A  
HETATM   15  C   UNL     1     -10.211  15.048  66.326  1.00  0.00    -0.294 C  
HETATM   16  O   UNL     1      -5.839  18.627  65.920  1.00  0.00    -0.154 OA 
HETATM   17  O   UNL     1      -6.865  17.783  63.910  1.00  0.00     4.391 OA 
ENDROOT
BRANCH   7  18
HETATM   18  C   UNL     1      -9.454  17.433  69.678  1.00  0.00     0.599 A  
HETATM   19  O   UNL     1     -10.353  21.305  70.977  1.00  0.00     1.870 OA 
HETATM   20  C   UNL     1     -10.163  20.007  70.584  1.00  0.00     1.454 A  
HETATM   21  C   UNL     1     -10.999  19.356  69.672  1.00  0.00     2.072 A  
HETATM   22  C   UNL     1      -8.724  18.051  70.696  1.00  0.00     4.829 A  
HETATM   23  H   UNL     1      -9.784  21.748  71.596  1.00  0.00     0.000 HD 
HETATM   24  C   UNL     1     -10.632  18.069  69.237  1.00  0.00     0.336 A  
HETATM   25  C   UNL     1      -9.051  19.338  71.135  1.00  0.00     3.721 A  
BRANCH  21  26
HETATM   26  O   UNL     1     -12.153  19.791  69.085  1.00  0.00     4.662 OA 
HETATM   27  C   UNL     1     -12.406  21.178  68.929  1.00  0.00     5.738 C  
ENDBRANCH  21  26
BRANCH  25  28
HETATM   28  O   UNL     1      -8.291  20.040  72.037  1.00  0.00     1.836 OA 
HETATM   29  C   UNL     1      -7.446  21.051  71.502  1.00  0.00     3.428 C  
ENDBRANCH  25  28
ENDBRANCH   7  18
BRANCH  15  30
HETATM   30  O   UNL     1      -9.933  13.662  66.161  1.00  0.00    -0.293 OA 
BRANCH  30  31
HETATM   31  C   UNL     1      -9.876  12.758  67.288  1.00  0.00    -0.207 C  
HETATM   32  O   UNL     1      -8.929  11.674  67.141  1.00  0.00    -0.164 OA 
HETATM   33  C   UNL     1      -9.107  10.668  68.168  1.00  0.00    -0.148 C  
HETATM   34  C   UNL     1      -8.009   9.594  68.224  1.00  0.00    -0.096 C  
HETATM   35  O   UNL     1      -8.346   8.561  69.174  1.00  0.00    -0.117 OA 
HETATM   36  C   UNL     1      -9.578   7.928  68.818  1.00  0.00    -0.152 C  
HETATM   37  H   UNL     1     -13.048  12.978  68.128  1.00  0.00     0.000 HD 
HETATM   38  O   UNL     1     -10.638   8.871  68.840  1.00  0.00    -0.217 OA 
HETATM   39  C   UNL     1     -10.427   9.946  67.928  1.00  0.00    -0.236 C  
HETATM   40  H   UNL     1     -13.494  10.942  67.950  1.00  0.00     0.000 HD 
HETATM   41  O   UNL     1     -12.152  13.282  68.048  1.00  0.00    -0.332 OA 
HETATM   42  C   UNL     1     -11.550  10.937  68.175  1.00  0.00    -0.241 C  
HETATM   43  C   UNL     1     -11.354  12.255  67.420  1.00  0.00    -0.325 C  
HETATM   44  O   UNL     1     -12.791  10.321  67.796  1.00  0.00     3.880 OA 
BRANCH  36  45
HETATM   45  C   UNL     1      -9.959   6.913  69.868  1.00  0.00    -0.176 A  
HETATM   46  S   UNL     1     -11.425   6.023  69.677  1.00  0.00     0.179 SA 
HETATM   47  C   UNL     1     -10.125   5.687  71.860  1.00  0.00    -0.235 A  
HETATM   48  C   UNL     1      -9.362   6.609  71.081  1.00  0.00    -0.164 A  
HETATM   49  C   UNL     1     -11.280   5.297  71.219  1.00  0.00     0.242 A  
ENDBRANCH  36  45
ENDBRANCH  30  31
ENDBRANCH  15  30
TORSDOF 6
ENDMDL
MODEL      118
REMARK 921   NORMALIZED FREE ENERGY PREDICTED BY IDOCK:   42.30 KCAL/MOL
REMARK 922        TOTAL FREE ENERGY PREDICTED BY IDOCK:   55.11 KCAL/MOL
REMARK 923 INTER-LIGAND FREE ENERGY PREDICTED BY IDOCK:   38.25 KCAL/MOL
REMARK 924 INTRA-LIGAND FREE ENERGY PREDICTED BY IDOCK:   16.86 KCAL/MOL
REMARK 927      BINDING AFFINITY PREDICTED BY RF-SCORE:    0.00 PKD
ROOT
HETATM    1  C   UNL     1     -11.468  10.536  70.680  1.00  0.00    -0.418 C  
HETATM    2  C   UNL     1     -11.434   9.515  71.782  1.00  0.00    -0.279 C  
HETATM    3  O   UNL     1     -10.040   9.153  71.883  1.00  0.00    -0.322 OA 
HETATM    4  C   UNL     1      -9.434   9.347  70.661  1.00  0.00    -0.262 C  
HETATM    5  C   UNL     1     -10.441   9.942  69.710  1.00  0.00    -0.292 C  
HETATM    6  O   UNL     1      -8.297   8.995  70.405  1.00  0.00    -0.127 OA 
HETATM    7  C   UNL     1      -9.970  10.977  68.685  1.00  0.00    -0.205 C  
HETATM    8  C   UNL     1     -11.183  11.756  68.144  1.00  0.00    -0.320 A  
HETATM    9  C   UNL     1     -12.491  11.688  68.748  1.00  0.00     0.460 A  
HETATM   10  C   UNL     1     -10.962  12.601  67.037  1.00  0.00    -0.300 A  
HETATM   11  C   UNL     1     -13.235  14.912  65.696  1.00  0.00     0.938 C  
HETATM   12  C   UNL     1     -12.000  13.391  66.598  1.00  0.00    -0.399 A  
HETATM   13  C   UNL     1     -13.519  12.507  68.241  1.00  0.00     6.181 A  
HETATM   14  C   UNL     1     -13.238  13.348  67.186  1.00  0.00     3.236 A  
HETATM   15  C   UNL     1     -12.806  10.839  69.989  1.00  0.00    -0.012 C  
HETATM   16  O   UNL     1     -11.932  14.306  65.595  1.00  0.00    -0.367 OA 
HETATM   17  O   UNL     1     -14.106  14.238  66.631  1.00  0.00     4.460 OA 
ENDROOT
BRANCH   7  18
HETATM   18  C   UNL     1      -8.829  11.871  69.208  1.00  0.00     0.683 A  
HETATM   19  O   UNL     1      -5.137  13.631  70.079  1.00  0.00    -0.088 OA 
HETATM   20  C   UNL     1      -6.391  13.158  69.795  1.00  0.00    -0.065 A  
HETATM   21  C   UNL     1      -7.138  13.591  68.696  1.00  0.00    -0.106 A  
HETATM   22  C   UNL     1      -8.131  11.565  70.378  1.00  0.00     3.316 A  
HETATM   23  H   UNL     1      -4.629  13.336  70.826  1.00  0.00     0.000 HD 
HETATM   24  C   UNL     1      -8.355  12.940  68.423  1.00  0.00    -0.116 A  
HETATM   25  C   UNL     1      -6.908  12.179  70.667  1.00  0.00     1.885 A  
BRANCH  21  26
HETATM   26  O   UNL     1      -6.857  14.569  67.783  1.00  0.00    -0.148 OA 
HETATM   27  C   UNL     1      -7.885  15.121  66.976  1.00  0.00    -0.162 C  
ENDBRANCH  21  26
BRANCH  25  28
HETATM   28  O   UNL     1      -6.121  11.822  71.734  1.00  0.00     0.579 OA 
HETATM   29  C   UNL     1      -5.423  10.588  71.621  1.00  0.00     0.109 C  
ENDBRANCH  25  28
ENDBRANCH   7  18
BRANCH  15  30
HETATM   30  O   UNL     1     -13.455   9.602  69.720  1.00  0.00     1.025 OA 
BRANCH  30  31
HETATM   31  C   UNL     1     -12.981   8.701  68.693  1.00  0.00     8.405 C  
HETATM   32  O   UNL     1     -12.297   7.527  69.192  1.00  0.00     1.771 OA 
HETATM   33  C   UNL     1     -11.623   6.811  68.129  1.00  0.00     0.583 C  
HETATM   34  C   UNL     1     -11.058   5.438  68.526  1.00  0.00     0.558 C  
HETATM   35  O   UNL     1     -10.283   4.869  67.449  1.00  0.00    -0.172 OA 
HETATM   36  C   UNL     1      -9.190   5.723  67.104  1.00  0.00    -0.115 C  
HETATM   37  H   UNL     1     -12.316  10.996  66.434  1.00  0.00     0.000 HD 
HETATM   38  O   UNL     1      -9.674   6.978  66.647  1.00  0.00    -0.179 OA 
HETATM   39  C   UNL     1     -10.453   7.650  67.632  1.00  0.00    -0.244 C  
HETATM   40  H   UNL     1     -10.289  10.535  66.200  1.00  0.00     0.000 HD 
HETATM   41  O   UNL     1     -12.876  10.444  66.966  1.00  0.00     5.564 OA 
HETATM   42  C   UNL     1     -11.021   8.883  66.953  1.00  0.00     0.300 C  
HETATM   43  C   UNL     1     -12.056   9.611  67.815  1.00  0.00     3.550 C  
HETATM   44  O   UNL     1      -9.933   9.763  66.625  1.00  0.00    -0.202 OA 
BRANCH  36  45
HETATM   45  C   UNL     1      -8.444   5.157  65.921  1.00  0.00    -0.121 A  
HETATM   46  S   UNL     1      -7.375   6.183  65.038  1.00  0.00    -0.078 SA 
HETATM   47  C   UNL     1      -7.763   3.823  64.117  1.00  0.00    -0.083 A  
HETATM   48  C   UNL     1      -8.533   3.913  65.316  1.00  0.00    -0.112 A  
HETATM   49  C   UNL     1      -7.093   4.994  63.841  1.00  0.00    -0.049 A  
ENDBRANCH  36  45
ENDBRANCH  30  31
ENDBRANCH  15  30
TORSDOF 6
ENDMDL
MODEL      119
REMARK 921   NORMALIZED FREE ENERGY PREDICTED BY IDOCK:   45.62 KCAL/MOL
REMARK 922        TOTAL FREE ENERGY PREDICTED BY IDOCK:   59.61 KCAL/MOL
REMARK 923 INTER-LIGAND FREE ENERGY PREDICTED BY IDOCK:   58.66 KCAL/MOL
REMARK 924 INTRA-LIGAND FREE ENERGY PREDICTED BY IDOCK:    0.95 KCAL/MOL
REMARK 927      BINDING AFFINITY PREDICTED BY RF-SCORE:    0.00 PKD
ROOT
HETATM    1  C   UNL     1      -9.294  10.172  69.481  1.00  0.00    -0.230 C  
HETATM    2  C   UNL     1      -9.860   9.271  70.543  1.00  0.00    -0.253 C  
HETATM    3  O   UNL     1     -11.227   9.058  70.131  1.00  0.00    -0.239 OA 
HETATM    4  C   UNL     1     -11.648  10.140  69.389  1.00  0.00    -0.087 C  
HETATM    5  C   UNL     1     -10.491  11.092  69.222  1.00  0.00    -0.183 C  
HETATM    6  O   UNL     1     -12.799  10.307  69.027  1.00  0.00     0.473 OA 
HETATM    7  C   UNL     1     -10.342  11.852  67.901  1.00  0.00    -0.212 C  
HETATM    8  C   UNL     1      -8.908  12.398  67.780  1.00  0.00    -0.176 A  
HETATM    9  C   UNL     1      -7.836  11.987  68.653  1.00  0.00    -0.091 A  
HETATM   10  C   UNL     1      -8.652  13.302  66.729  1.00  0.00    -0.041 A  
HETATM   11  C   UNL     1      -5.508  14.496  65.730  1.00  0.00     8.717 C  
HETATM   12  C   UNL     1      -7.357  13.725  66.529  1.00  0.00     1.852 A  
HETATM   13  C   UNL     1      -6.535  12.468  68.409  1.00  0.00    -0.066 A  
HETATM   14  C   UNL     1      -6.330  13.316  67.341  1.00  0.00    -0.014 A  
HETATM   15  C   UNL     1      -8.013  10.964  69.785  1.00  0.00     0.321 C  
HETATM   16  O   UNL     1      -6.933  14.535  65.523  1.00  0.00     6.527 OA 
HETATM   17  O   UNL     1      -5.127  13.812  66.944  1.00  0.00     0.284 OA 
ENDROOT
BRANCH   7  18
HETATM   18  C   UNL     1     -10.814  11.040  66.680  1.00  0.00    -0.284 A  
HETATM   19  O   UNL     1     -11.384   9.420  62.867  1.00  0.00     5.579 OA 
HETATM   20  C   UNL     1     -11.219   9.848  64.158  1.00  0.00     4.602 A  
HETATM   21  C   UNL     1     -10.304   9.269  65.041  1.00  0.00     1.587 A  
HETATM   22  C   UNL     1     -11.823  11.502  65.833  1.00  0.00     0.381 A  
HETATM   23  H   UNL     1     -12.005   9.814  62.266  1.00  0.00     0.000 HD 
HETATM   24  C   UNL     1     -10.121   9.875  66.298  1.00  0.00    -0.311 A  
HETATM   25  C   UNL     1     -12.016  10.935  64.568  1.00  0.00     1.749 A  
BRANCH  21  26
HETATM   26  O   UNL     1      -9.500   8.177  64.871  1.00  0.00     0.691 OA 
HETATM   27  C   UNL     1      -8.094   8.325  64.758  1.00  0.00    -0.151 C  
ENDBRANCH  21  26
BRANCH  25  28
HETATM   28  O   UNL     1     -12.904  11.435  63.647  1.00  0.00    -0.039 OA 
HETATM   29  C   UNL     1     -13.121  12.840  63.675  1.00  0.00     0.458 C  
ENDBRANCH  25  28
ENDBRANCH   7  18
BRANCH  15  30
HETATM   30  O   UNL     1      -8.138  11.525  71.087  1.00  0.00     5.246 OA 
BRANCH  30  31
HETATM   31  C   UNL     1      -8.359  12.940  71.287  1.00  0.00    11.539 C  
HETATM   32  O   UNL     1      -9.523  13.469  70.610  1.00  0.00     4.182 OA 
HETATM   33  C   UNL     1      -9.539  14.918  70.630  1.00  0.00     1.296 C  
HETATM   34  C   UNL     1     -10.842  15.561  70.131  1.00  0.00    -0.331 C  
HETATM   35  O   UNL     1     -10.710  16.996  70.051  1.00  0.00    -0.149 OA 
HETATM   36  C   UNL     1      -9.657  17.359  69.155  1.00  0.00    -0.069 C  
HETATM   37  H   UNL     1      -5.192  13.805  71.489  1.00  0.00     0.000 HD 
HETATM   38  O   UNL     1      -8.416  16.857  69.627  1.00  0.00     0.315 OA 
HETATM   39  C   UNL     1      -8.415  15.436  69.742  1.00  0.00     0.000 C  
HETATM   40  H   UNL     1      -5.205  15.170  69.904  1.00  0.00     0.000 HD 
HETATM   41  O   UNL     1      -6.002  13.413  71.793  1.00  0.00    -0.288 OA 
HETATM   42  C   UNL     1      -7.097  15.066  70.397  1.00  0.00     0.296 C  
HETATM   43  C   UNL     1      -7.023  13.587  70.785  1.00  0.00     1.660 C  
HETATM   44  O   UNL     1      -6.030  15.402  69.494  1.00  0.00    -0.114 OA 
BRANCH  36  45
HETATM   45  C   UNL     1      -9.476  18.857  69.150  1.00  0.00    -0.151 A  
HETATM   46  S   UNL     1      -8.009  19.520  68.529  1.00  0.00    -0.326 SA 
HETATM   47  C   UNL     1      -9.674  21.151  69.594  1.00  0.00     2.017 A  
HETATM   48  C   UNL     1     -10.279  19.860  69.669  1.00  0.00     0.062 A  
HETATM   49  C   UNL     1      -8.429  21.108  69.007  1.00  0.00     2.629 A  
ENDBRANCH  36  45
ENDBRANCH  30  31
ENDBRANCH  15  30
TORSDOF 6
ENDMDL
MODEL      120
REMARK 921   NORMALIZED FREE ENERGY PREDICTED BY IDOCK:   48.07 KCAL/MOL
REMARK 922        TOTAL FREE ENERGY PREDICTED BY IDOCK:   62.91 KCAL/MOL
REMARK 923 INTER-LIGAND FREE ENERGY PREDICTED BY IDOCK:   60.20 KCAL/MOL
REMARK 924 INTRA-LIGAND FREE ENERGY PREDICTED BY IDOCK:    2.70 KCAL/MOL
REMARK 927      BINDING AFFINITY PREDICTED BY RF-SCORE:    0.00 PKD
ROOT
HETATM    1  C   UNL     1     -10.962  13.025  66.959  1.00  0.00    -0.289 C  
HETATM    2  C   UNL     1     -11.057  13.750  65.646  1.00  0.00    -0.295 C  
HETATM    3  O   UNL     1     -11.842  14.923  65.948  1.00  0.00    -0.256 OA 
HETATM    4  C   UNL     1     -12.666  14.651  67.018  1.00  0.00     0.871 C  
HETATM    5  C   UNL     1     -12.370  13.259  67.515  1.00  0.00    -0.038 C  
HETATM    6  O   UNL     1     -13.541  15.403  67.408  1.00  0.00     4.244 OA 
HETATM    7  C   UNL     1     -12.436  12.980  69.019  1.00  0.00     0.310 C  
HETATM    8  C   UNL     1     -11.688  11.671  69.333  1.00  0.00    -0.405 A  
HETATM    9  C   UNL     1     -10.835  11.007  68.379  1.00  0.00    -0.264 A  
HETATM   10  C   UNL     1     -11.828  11.149  70.636  1.00  0.00    -0.403 A  
HETATM   11  C   UNL     1     -10.020   8.476  72.011  1.00  0.00    -0.313 C  
HETATM   12  C   UNL     1     -11.088  10.041  70.980  1.00  0.00    -0.271 A  
HETATM   13  C   UNL     1     -10.118   9.865  68.785  1.00  0.00    -0.186 A  
HETATM   14  C   UNL     1     -10.256   9.421  70.083  1.00  0.00    -0.231 A  
HETATM   15  C   UNL     1     -10.581  11.537  66.960  1.00  0.00    -0.242 C  
HETATM   16  O   UNL     1     -11.055   9.459  72.208  1.00  0.00     0.005 OA 
HETATM   17  O   UNL     1      -9.585   8.374  70.637  1.00  0.00    -0.164 OA 
ENDROOT
BRANCH   7  18
HETATM   18  C   UNL     1     -11.993  14.181  69.877  1.00  0.00    -0.398 A  
HETATM   19  O   UNL     1     -11.599  17.145  72.800  1.00  0.00    -0.149 OA 
HETATM   20  C   UNL     1     -11.615  16.174  71.834  1.00  0.00    -0.402 A  
HETATM   21  C   UNL     1     -10.923  14.966  71.956  1.00  0.00     0.632 A  
HETATM   22  C   UNL     1     -12.550  15.451  69.710  1.00  0.00    -0.138 A  
HETATM   23  H   UNL     1     -12.069  17.966  72.717  1.00  0.00     0.000 HD 
HETATM   24  C   UNL     1     -11.120  13.986  70.965  1.00  0.00     1.088 A  
HETATM   25  C   UNL     1     -12.391  16.439  70.687  1.00  0.00     0.795 A  
BRANCH  21  26
HETATM   26  O   UNL     1     -10.069  14.547  72.936  1.00  0.00     3.796 OA 
HETATM   27  C   UNL     1      -8.748  15.059  73.012  1.00  0.00     9.277 C  
ENDBRANCH  21  26
BRANCH  25  28
HETATM   28  O   UNL     1     -13.024  17.657  70.635  1.00  0.00     9.100 OA 
HETATM   29  C   UNL     1     -12.712  18.576  71.674  1.00  0.00    16.172 C  
ENDBRANCH  25  28
ENDBRANCH   7  18
BRANCH  15  30
HETATM   30  O   UNL     1     -11.327  10.889  65.936  1.00  0.00     0.078 OA 
BRANCH  30  31
HETATM   31  C   UNL     1     -10.800   9.753  65.213  1.00  0.00     1.544 C  
HETATM   32  O   UNL     1     -11.490   8.507  65.466  1.00  0.00     5.232 OA 
HETATM   33  C   UNL     1     -10.761   7.375  64.930  1.00  0.00     7.198 C  
HETATM   34  C   UNL     1     -11.520   6.040  64.958  1.00  0.00     4.880 C  
HETATM   35  O   UNL     1     -10.667   4.953  64.542  1.00  0.00     0.450 OA 
HETATM   36  C   UNL     1      -9.531   4.842  65.403  1.00  0.00    -0.151 C  
HETATM   37  H   UNL     1      -7.654  10.712  65.215  1.00  0.00     0.000 HD 
HETATM   38  O   UNL     1      -8.751   6.027  65.340  1.00  0.00    -0.148 OA 
HETATM   39  C   UNL     1      -9.486   7.181  65.740  1.00  0.00     0.318 C  
HETATM   40  H   UNL     1      -6.881   9.029  66.188  1.00  0.00     0.000 HD 
HETATM   41  O   UNL     1      -8.565  10.737  64.947  1.00  0.00    -0.168 OA 
HETATM   42  C   UNL     1      -8.580   8.370  65.475  1.00  0.00    -0.176 C  
HETATM   43  C   UNL     1      -9.297   9.712  65.655  1.00  0.00    -0.237 C  
HETATM   44  O   UNL     1      -7.447   8.285  66.354  1.00  0.00    -0.078 OA 
BRANCH  36  45
HETATM   45  C   UNL     1      -8.607   3.759  64.903  1.00  0.00    -0.113 A  
HETATM   46  S   UNL     1      -8.834   3.135  63.311  1.00  0.00    -0.092 SA 
HETATM   47  C   UNL     1      -7.060   2.002  64.772  1.00  0.00    -0.052 A  
HETATM   48  C   UNL     1      -7.604   3.063  65.558  1.00  0.00    -0.074 A  
HETATM   49  C   UNL     1      -7.650   1.921  63.530  1.00  0.00    -0.055 A  
ENDBRANCH  36  45
ENDBRANCH  30  31
ENDBRANCH  15  30
TORSDOF 6
ENDMDL
MODEL      121
REMARK 921   NORMALIZED FREE ENERGY PREDICTED BY IDOCK:   54.72 KCAL/MOL
REMARK 922        TOTAL FREE ENERGY PREDICTED BY IDOCK:   71.89 KCAL/MOL
REMARK 923 INTER-LIGAND FREE ENERGY PREDICTED BY IDOCK:   70.43 KCAL/MOL
REMARK 924 INTRA-LIGAND FREE ENERGY PREDICTED BY IDOCK:    1.45 KCAL/MOL
REMARK 927      BINDING AFFINITY PREDICTED BY RF-SCORE:    0.00 PKD
ROOT
HETATM    1  C   UNL     1      -9.152  13.379  71.582  1.00  0.00    13.304 C  
HETATM    2  C   UNL     1      -8.401  13.499  72.878  1.00  0.00    13.329 C  
HETATM    3  O   UNL     1      -7.335  14.426  72.582  1.00  0.00     2.502 OA 
HETATM    4  C   UNL     1      -7.036  14.356  71.238  1.00  0.00     1.773 C  
HETATM    5  C   UNL     1      -7.995  13.397  70.579  1.00  0.00     3.909 C  
HETATM    6  O   UNL     1      -6.086  14.919  70.725  1.00  0.00    -0.120 OA 
HETATM    7  C   UNL     1      -8.483  13.697  69.159  1.00  0.00     0.442 C  
HETATM    8  C   UNL     1      -9.748  12.871  68.864  1.00  0.00     0.181 A  
HETATM    9  C   UNL     1     -10.481  12.167  69.888  1.00  0.00     1.104 A  
HETATM   10  C   UNL     1     -10.212  12.860  67.533  1.00  0.00    -0.213 A  
HETATM   11  C   UNL     1     -13.252  11.526  66.399  1.00  0.00     7.217 C  
HETATM   12  C   UNL     1     -11.399  12.219  67.257  1.00  0.00    -0.328 A  
HETATM   13  C   UNL     1     -11.680  11.514  69.540  1.00  0.00    -0.413 A  
HETATM   14  C   UNL     1     -12.112  11.571  68.233  1.00  0.00    -0.002 A  
HETATM   15  C   UNL     1     -10.080  12.173  71.371  1.00  0.00     9.984 C  
HETATM   16  O   UNL     1     -12.015  12.176  66.046  1.00  0.00    -0.578 OA 
HETATM   17  O   UNL     1     -13.275  11.043  67.760  1.00  0.00     4.418 OA 
ENDROOT
BRANCH   7  18
HETATM   18  C   UNL     1      -8.634  15.204  68.877  1.00  0.00    -0.200 A  
HETATM   19  O   UNL     1     -10.059  19.050  68.063  1.00  0.00    -0.345 OA 
HETATM   20  C   UNL     1      -9.512  17.839  68.394  1.00  0.00    -0.297 A  
HETATM   21  C   UNL     1      -9.349  17.411  69.714  1.00  0.00     0.962 A  
HETATM   22  C   UNL     1      -8.667  15.711  67.577  1.00  0.00    -0.189 A  
HETATM   23  H   UNL     1     -10.170  19.341  67.165  1.00  0.00     0.000 HD 
HETATM   24  C   UNL     1      -8.903  16.095  69.935  1.00  0.00     0.607 A  
HETATM   25  C   UNL     1      -9.125  17.008  67.323  1.00  0.00    -0.223 A  
BRANCH  21  26
HETATM   26  O   UNL     1      -9.586  18.080  70.882  1.00  0.00     3.506 OA 
HETATM   27  C   UNL     1      -9.215  19.442  71.023  1.00  0.00     2.913 C  
ENDBRANCH  21  26
BRANCH  25  28
HETATM   28  O   UNL     1      -9.300  17.509  66.056  1.00  0.00    -0.482 OA 
HETATM   29  C   UNL     1     -10.417  17.014  65.328  1.00  0.00    -0.037 C  
ENDBRANCH  25  28
ENDBRANCH   7  18
BRANCH  15  30
HETATM   30  O   UNL     1      -9.396  11.006  71.812  1.00  0.00     7.163 OA 
BRANCH  30  31
HETATM   31  C   UNL     1      -8.419  10.337  70.982  1.00  0.00     2.169 C  
HETATM   32  O   UNL     1      -8.652  10.462  69.560  1.00  0.00    -0.159 OA 
HETATM   33  C   UNL     1      -7.807   9.563  68.800  1.00  0.00    -0.084 C  
HETATM   34  C   UNL     1      -7.827   9.780  67.280  1.00  0.00    -0.098 C  
HETATM   35  O   UNL     1      -7.074   8.752  66.602  1.00  0.00    -0.078 OA 
HETATM   36  C   UNL     1      -7.619   7.459  66.879  1.00  0.00    -0.102 C  
HETATM   37  H   UNL     1      -7.812   7.837  73.030  1.00  0.00     0.000 HD 
HETATM   38  O   UNL     1      -7.539   7.181  68.269  1.00  0.00    -0.109 OA 
HETATM   39  C   UNL     1      -8.258   8.130  69.053  1.00  0.00    -0.127 C  
HETATM   40  H   UNL     1      -8.331   6.301  71.708  1.00  0.00     0.000 HD 
HETATM   41  O   UNL     1      -7.773   8.737  72.730  1.00  0.00    -0.369 OA 
HETATM   42  C   UNL     1      -7.954   7.796  70.503  1.00  0.00    -0.098 C  
HETATM   43  C   UNL     1      -8.483   8.852  71.477  1.00  0.00    -0.114 C  
HETATM   44  O   UNL     1      -8.521   6.509  70.802  1.00  0.00    -0.131 OA 
BRANCH  36  45
HETATM   45  C   UNL     1      -6.769   6.391  66.235  1.00  0.00    -0.056 A  
HETATM   46  S   UNL     1      -6.507   4.910  67.080  1.00  0.00    -0.050 SA 
HETATM   47  C   UNL     1      -5.238   5.245  64.879  1.00  0.00    -0.009 A  
HETATM   48  C   UNL     1      -6.037   6.414  65.059  1.00  0.00    -0.030 A  
HETATM   49  C   UNL     1      -5.388   4.349  65.914  1.00  0.00    -0.009 A  
ENDBRANCH  36  45
ENDBRANCH  30  31
ENDBRANCH  15  30
TORSDOF 6
ENDMDL
MODEL      122
REMARK 921   NORMALIZED FREE ENERGY PREDICTED BY IDOCK:   66.25 KCAL/MOL
REMARK 922        TOTAL FREE ENERGY PREDICTED BY IDOCK:   87.47 KCAL/MOL
REMARK 923 INTER-LIGAND FREE ENERGY PREDICTED BY IDOCK:   68.90 KCAL/MOL
REMARK 924 INTRA-LIGAND FREE ENERGY PREDICTED BY IDOCK:   18.57 KCAL/MOL
REMARK 927      BINDING AFFINITY PREDICTED BY RF-SCORE:    0.00 PKD
ROOT
HETATM    1  C   UNL     1      -9.907  13.682  66.874  1.00  0.00    -0.261 C  
HETATM    2  C   UNL     1     -10.086  12.680  65.768  1.00  0.00    -0.271 C  
HETATM    3  O   UNL     1     -10.797  13.409  64.745  1.00  0.00    -0.332 OA 
HETATM    4  C   UNL     1     -11.535  14.411  65.336  1.00  0.00    -0.344 C  
HETATM    5  C   UNL     1     -11.252  14.412  66.817  1.00  0.00    -0.340 C  
HETATM    6  O   UNL     1     -12.344  15.099  64.740  1.00  0.00    -0.231 OA 
HETATM    7  C   UNL     1     -11.199  15.750  67.560  1.00  0.00    -0.218 C  
HETATM    8  C   UNL     1     -10.478  15.563  68.907  1.00  0.00    -0.223 A  
HETATM    9  C   UNL     1      -9.736  14.372  69.241  1.00  0.00     0.073 A  
HETATM   10  C   UNL     1     -10.525  16.640  69.815  1.00  0.00    -0.182 A  
HETATM   11  C   UNL     1      -8.710  16.923  72.804  1.00  0.00    16.933 C  
HETATM   12  C   UNL     1      -9.801  16.545  70.983  1.00  0.00     2.929 A  
HETATM   13  C   UNL     1      -9.031  14.327  70.459  1.00  0.00     2.735 A  
HETATM   14  C   UNL     1      -9.073  15.425  71.292  1.00  0.00     3.312 A  
HETATM   15  C   UNL     1      -9.585  13.176  68.288  1.00  0.00    -0.218 C  
HETATM   16  O   UNL     1      -9.685  17.517  71.926  1.00  0.00     6.740 OA 
HETATM   17  O   UNL     1      -8.399  15.553  72.467  1.00  0.00     7.260 OA 
ENDROOT
BRANCH   7  18
HETATM   18  C   UNL     1     -10.638  16.898  66.698  1.00  0.00    -0.189 A  
HETATM   19  O   UNL     1      -8.209  19.711  64.782  1.00  0.00     0.942 OA 
HETATM   20  C   UNL     1      -9.068  18.787  65.316  1.00  0.00     1.888 A  
HETATM   21  C   UNL     1      -9.337  17.557  64.710  1.00  0.00     4.112 A  
HETATM   22  C   UNL     1     -10.473  18.188  67.207  1.00  0.00    -0.407 A  
HETATM   23  H   UNL     1      -8.026  20.547  65.195  1.00  0.00     0.000 HD 
HETATM   24  C   UNL     1     -10.128  16.630  65.413  1.00  0.00    -0.049 A  
HETATM   25  C   UNL     1      -9.674  19.125  66.543  1.00  0.00    -0.359 A  
BRANCH  21  26
HETATM   26  O   UNL     1      -8.918  17.071  63.504  1.00  0.00    11.436 OA 
HETATM   27  C   UNL     1      -9.341  15.794  63.053  1.00  0.00    16.892 C  
ENDBRANCH  21  26
BRANCH  25  28
HETATM   28  O   UNL     1      -9.373  20.360  67.063  1.00  0.00    -0.381 OA 
HETATM   29  C   UNL     1      -8.241  20.426  67.921  1.00  0.00    -0.104 C  
ENDBRANCH  25  28
ENDBRANCH   7  18
BRANCH  15  30
HETATM   30  O   UNL     1     -10.440  12.074  68.570  1.00  0.00    -0.218 OA 
BRANCH  30  31
HETATM   31  C   UNL     1     -10.354  10.835  67.829  1.00  0.00    -0.193 C  
HETATM   32  O   UNL     1      -9.425   9.871  68.375  1.00  0.00    -0.135 OA 
HETATM   33  C   UNL     1      -9.189   8.777  67.455  1.00  0.00    -0.136 C  
HETATM   34  C   UNL     1      -8.391   7.599  68.035  1.00  0.00    -0.124 C  
HETATM   35  O   UNL     1      -8.083   6.630  67.011  1.00  0.00    -0.110 OA 
HETATM   36  C   UNL     1      -7.310   7.226  65.966  1.00  0.00    -0.075 C  
HETATM   37  H   UNL     1     -10.887  12.123  64.850  1.00  0.00     0.000 HD 
HETATM   38  O   UNL     1      -8.049   8.266  65.342  1.00  0.00    -0.118 OA 
HETATM   39  C   UNL     1      -8.407   9.299  66.257  1.00  0.00    -0.122 C  
HETATM   40  H   UNL     1      -9.106  11.466  63.972  1.00  0.00     0.000 HD 
HETATM   41  O   UNL     1     -11.127  11.838  65.724  1.00  0.00    -0.311 OA 
HETATM   42  C   UNL     1      -9.312  10.247  65.489  1.00  0.00    -0.199 C  
HETATM   43  C   UNL     1      -9.959  11.305  66.387  1.00  0.00    -0.215 C  
HETATM   44  O   UNL     1      -8.540  10.873  64.452  1.00  0.00    -0.096 OA 
BRANCH  36  45
HETATM   45  C   UNL     1      -7.073   6.224  64.863  1.00  0.00    -0.060 A  
HETATM   46  S   UNL     1      -8.424   5.400  64.177  1.00  0.00    -0.033 SA 
HETATM   47  C   UNL     1      -6.092   4.681  63.396  1.00  0.00    -0.018 A  
HETATM   48  C   UNL     1      -5.888   5.743  64.327  1.00  0.00    -0.024 A  
HETATM   49  C   UNL     1      -7.426   4.383  63.230  1.00  0.00    -0.054 A  
ENDBRANCH  36  45
ENDBRANCH  30  31
ENDBRANCH  15  30
TORSDOF 6
ENDMDL
MODEL      123
REMARK 921   NORMALIZED FREE ENERGY PREDICTED BY IDOCK:   76.25 KCAL/MOL
REMARK 922        TOTAL FREE ENERGY PREDICTED BY IDOCK:  100.97 KCAL/MOL
REMARK 923 INTER-LIGAND FREE ENERGY PREDICTED BY IDOCK:   95.45 KCAL/MOL
REMARK 924 INTRA-LIGAND FREE ENERGY PREDICTED BY IDOCK:    5.52 KCAL/MOL
REMARK 927      BINDING AFFINITY PREDICTED BY RF-SCORE:    0.00 PKD
ROOT
HETATM    1  C   UNL     1     -10.272  13.747  68.860  1.00  0.00    -0.111 C  
HETATM    2  C   UNL     1     -10.716  12.402  68.360  1.00  0.00    -0.235 C  
HETATM    3  O   UNL     1     -10.398  12.427  66.952  1.00  0.00    -0.222 OA 
HETATM    4  C   UNL     1     -10.418  13.732  66.509  1.00  0.00    -0.282 C  
HETATM    5  C   UNL     1     -10.684  14.638  67.684  1.00  0.00    -0.271 C  
HETATM    6  O   UNL     1     -10.327  14.051  65.338  1.00  0.00    -0.321 OA 
HETATM    7  C   UNL     1      -9.989  16.002  67.740  1.00  0.00    -0.234 C  
HETATM    8  C   UNL     1     -10.041  16.548  69.178  1.00  0.00    -0.287 A  
HETATM    9  C   UNL     1     -10.431  15.743  70.309  1.00  0.00    -0.238 A  
HETATM   10  C   UNL     1      -9.639  17.886  69.371  1.00  0.00     0.205 A  
HETATM   11  C   UNL     1      -9.143  19.485  72.454  1.00  0.00     4.698 C  
HETATM   12  C   UNL     1      -9.572  18.370  70.658  1.00  0.00     3.181 A  
HETATM   13  C   UNL     1     -10.359  16.301  71.600  1.00  0.00     2.407 A  
HETATM   14  C   UNL     1      -9.917  17.600  71.739  1.00  0.00     6.362 A  
HETATM   15  C   UNL     1     -10.827  14.263  70.197  1.00  0.00     0.228 C  
HETATM   16  O   UNL     1      -9.139  19.608  71.018  1.00  0.00     1.813 OA 
HETATM   17  O   UNL     1      -9.737  18.253  72.919  1.00  0.00     6.935 OA 
ENDROOT
BRANCH   7  18
HETATM   18  C   UNL     1      -8.579  15.987  67.121  1.00  0.00    -0.219 A  
HETATM   19  O   UNL     1      -5.279  16.117  64.554  1.00  0.00     5.907 OA 
HETATM   20  C   UNL     1      -6.295  16.123  65.474  1.00  0.00     4.850 A  
HETATM   21  C   UNL     1      -6.742  17.285  66.108  1.00  0.00    -0.169 A  
HETATM   22  C   UNL     1      -8.018  14.823  66.591  1.00  0.00     0.307 A  
HETATM   23  H   UNL     1      -4.976  15.327  64.123  1.00  0.00     0.000 HD 
HETATM   24  C   UNL     1      -7.879  17.196  66.931  1.00  0.00    -0.250 A  
HETATM   25  C   UNL     1      -6.901  14.881  65.752  1.00  0.00     6.898 A  
BRANCH  21  26
HETATM   26  O   UNL     1      -6.253  18.559  66.037  1.00  0.00    -0.174 OA 
HETATM   27  C   UNL     1      -6.514  19.372  64.905  1.00  0.00    -0.183 C  
ENDBRANCH  21  26
BRANCH  25  28
HETATM   28  O   UNL     1      -6.390  13.784  65.102  1.00  0.00    10.679 OA 
HETATM   29  C   UNL     1      -5.150  13.283  65.586  1.00  0.00     6.421 C  
ENDBRANCH  25  28
ENDBRANCH   7  18
BRANCH  15  30
HETATM   30  O   UNL     1     -12.228  14.014  70.219  1.00  0.00    -0.319 OA 
BRANCH  30  31
HETATM   31  C   UNL     1     -12.773  12.772  70.720  1.00  0.00    -0.136 C  
HETATM   32  O   UNL     1     -12.396  12.455  72.080  1.00  0.00     0.266 OA 
HETATM   33  C   UNL     1     -12.746  11.093  72.427  1.00  0.00     0.873 C  
HETATM   34  C   UNL     1     -12.586  10.738  73.913  1.00  0.00    12.190 C  
HETATM   35  O   UNL     1     -12.817   9.331  74.135  1.00  0.00     4.332 OA 
HETATM   36  C   UNL     1     -11.894   8.540  73.381  1.00  0.00     1.759 C  
HETATM   37  H   UNL     1     -12.741  11.150  67.859  1.00  0.00     0.000 HD 
HETATM   38  O   UNL     1     -12.070   8.774  71.992  1.00  0.00    -0.331 OA 
HETATM   39  C   UNL     1     -11.857  10.138  71.640  1.00  0.00    -0.154 C  
HETATM   40  H   UNL     1     -11.524   9.567  68.484  1.00  0.00     0.000 HD 
HETATM   41  O   UNL     1     -13.053  11.792  68.485  1.00  0.00     1.658 OA 
HETATM   42  C   UNL     1     -12.229  10.260  70.173  1.00  0.00    -0.176 C  
HETATM   43  C   UNL     1     -12.257  11.712  69.687  1.00  0.00    -0.206 C  
HETATM   44  O   UNL     1     -11.292   9.491  69.401  1.00  0.00    -0.103 OA 
BRANCH  36  45
HETATM   45  C   UNL     1     -12.207   7.074  73.555  1.00  0.00     2.225 A  
HETATM   46  S   UNL     1     -13.831   6.534  73.342  1.00  0.00     4.632 SA 
HETATM   47  C   UNL     1     -12.119   4.809  74.154  1.00  0.00     2.973 A  
HETATM   48  C   UNL     1     -11.399   6.028  73.972  1.00  0.00     1.126 A  
HETATM   49  C   UNL     1     -13.457   4.947  73.859  1.00  0.00     7.148 A  
ENDBRANCH  36  45
ENDBRANCH  30  31
ENDBRANCH  15  30
TORSDOF 6
ENDMDL
