MODEL        1
REMARK 921   NORMALIZED FREE ENERGY PREDICTED BY IDOCK:   -6.95 KCAL/MOL
REMARK 922        TOTAL FREE ENERGY PREDICTED BY IDOCK:  -13.53 KCAL/MOL
REMARK 923 INTER-LIGAND FREE ENERGY PREDICTED BY IDOCK:  -11.82 KCAL/MOL
REMARK 924 INTRA-LIGAND FREE ENERGY PREDICTED BY IDOCK:   -1.71 KCAL/MOL
REMARK 927      BINDING AFFINITY PREDICTED BY RF-SCORE:    0.00 PKD
ROOT
HETATM    1  C   UNL     1     -11.764   6.795  70.349  1.00  0.00    -0.418 C  
HETATM    2  C   UNL     1     -11.191   8.213  70.409  1.00  0.00    -0.221 C  
HETATM    3  C   UNL     1     -11.633   8.927  71.694  1.00  0.00    -0.408 C  
ENDROOT
BRANCH   2   4
HETATM    4  O   UNL     1      -9.759   8.253  70.104  1.00  0.00    -0.174 OA 
BRANCH   4   5
HETATM    5  C   UNL     1      -9.153   9.446  69.887  1.00  0.00    -0.204 C  
HETATM    6  O   UNL     1      -8.189   9.838  70.547  1.00  0.00    -0.209 OA 
BRANCH   5   7
HETATM    7  C   UNL     1      -9.744  10.337  68.757  1.00  0.00    -0.177 C  
HETATM    8  C   UNL     1      -8.967  10.091  67.464  1.00  0.00    -0.141 C  
BRANCH   7   9
HETATM    9  N   UNL     1      -9.946  11.817  69.004  1.00  0.00    -0.419 NA 
HETATM   10  H   UNL     1      -9.405  12.380  68.348  1.00  0.00     0.000 HD 
BRANCH   9  11
HETATM   11  P   UNL     1     -11.650  12.265  68.975  1.00  0.00    -0.329 P  
HETATM   12  O   UNL     1     -12.100  10.923  68.348  1.00  0.00    -0.559 OA 
BRANCH  11  13
HETATM   13  C   UNL     1     -12.152  13.151  67.356  1.00  0.00    -0.263 C  
BRANCH  13  14
HETATM   14  O   UNL     1     -12.173  12.251  66.184  1.00  0.00    -0.647 OA 
BRANCH  14  15
HETATM   15  C   UNL     1     -11.939  12.762  64.844  1.00  0.00    -0.402 C  
HETATM   16  C   UNL     1     -12.205  11.659  63.812  1.00  0.00    -0.313 C  
BRANCH  15  17
HETATM   17  C   UNL     1     -10.616  13.492  64.659  1.00  0.00    -0.427 C  
BRANCH  17  18
HETATM   18  N   UNL     1     -10.677  14.920  64.802  1.00  0.00    -0.390 NA 
HETATM   19  C   UNL     1     -11.434  15.805  64.082  1.00  0.00    -0.072 A  
HETATM   20  N   UNL     1     -11.309  17.033  64.536  1.00  0.00    -0.986 NA 
HETATM   21  C   UNL     1     -10.415  16.925  65.578  1.00  0.00    -0.204 A  
HETATM   22  C   UNL     1      -9.894  17.874  66.461  1.00  0.00    -0.343 A  
HETATM   23  N   UNL     1      -8.960  17.483  67.359  1.00  0.00    -0.228 NA 
HETATM   24  N   UNL     1     -10.302  19.199  66.431  1.00  0.00    -0.423 NA 
HETATM   25  C   UNL     1      -8.614  16.182  67.386  1.00  0.00    -0.180 A  
HETATM   26  H1  UNL     1      -9.921  19.893  67.076  1.00  0.00     0.000 HD 
HETATM   27  H2  UNL     1     -11.318  19.215  66.519  1.00  0.00     0.000 HD 
HETATM   28  N   UNL     1      -9.072  15.169  66.616  1.00  0.00    -0.261 NA 
HETATM   29  C   UNL     1      -9.975  15.627  65.735  1.00  0.00    -0.359 A  
ENDBRANCH  17  18
ENDBRANCH  15  17
ENDBRANCH  14  15
ENDBRANCH  13  14
ENDBRANCH  11  13
BRANCH  11  30
HETATM   30  O   UNL     1     -11.146  13.765  69.676  1.00  0.00    -0.166 OA 
BRANCH  30  31
HETATM   31  C   UNL     1     -11.924  14.253  70.711  1.00  0.00    -0.320 A  
HETATM   32  C   UNL     1     -12.807  13.354  71.313  1.00  0.00    -0.407 A  
HETATM   33  C   UNL     1     -12.733  15.999  72.188  1.00  0.00    -0.450 A  
HETATM   34  C   UNL     1     -11.882  15.577  71.157  1.00  0.00    -0.435 A  
HETATM   35  C   UNL     1     -13.628  15.103  72.772  1.00  0.00    -0.588 A  
HETATM   36  C   UNL     1     -13.664  13.783  72.333  1.00  0.00    -0.692 A  
ENDBRANCH  30  31
ENDBRANCH  11  30
ENDBRANCH   9  11
ENDBRANCH   7   9
ENDBRANCH   5   7
ENDBRANCH   4   5
ENDBRANCH   2   4
TORSDOF 12
ENDMDL
MODEL        2
REMARK 921   NORMALIZED FREE ENERGY PREDICTED BY IDOCK:   -6.84 KCAL/MOL
REMARK 922        TOTAL FREE ENERGY PREDICTED BY IDOCK:  -13.35 KCAL/MOL
REMARK 923 INTER-LIGAND FREE ENERGY PREDICTED BY IDOCK:  -11.73 KCAL/MOL
REMARK 924 INTRA-LIGAND FREE ENERGY PREDICTED BY IDOCK:   -1.62 KCAL/MOL
REMARK 927      BINDING AFFINITY PREDICTED BY RF-SCORE:    0.00 PKD
ROOT
HETATM    1  C   UNL     1      -9.112   7.467  70.680  1.00  0.00    -0.155 C  
HETATM    2  C   UNL     1     -10.600   7.776  70.493  1.00  0.00    -0.226 C  
HETATM    3  C   UNL     1     -11.381   6.503  70.138  1.00  0.00    -0.463 C  
ENDROOT
BRANCH   2   4
HETATM    4  O   UNL     1     -11.146   8.590  71.582  1.00  0.00    -0.253 OA 
BRANCH   4   5
HETATM    5  C   UNL     1     -12.288   9.293  71.384  1.00  0.00    -0.343 C  
HETATM    6  O   UNL     1     -13.395   8.887  71.743  1.00  0.00    -0.344 OA 
BRANCH   5   7
HETATM    7  C   UNL     1     -12.154  10.659  70.653  1.00  0.00    -0.365 C  
HETATM    8  C   UNL     1     -13.005  11.702  71.376  1.00  0.00    -0.426 C  
BRANCH   7   9
HETATM    9  N   UNL     1     -12.358  10.725  69.154  1.00  0.00    -0.736 NA 
HETATM   10  H   UNL     1     -13.252  11.157  68.921  1.00  0.00     0.000 HD 
BRANCH   9  11
HETATM   11  P   UNL     1     -11.024  11.539  68.341  1.00  0.00    -0.268 P  
HETATM   12  O   UNL     1      -9.974  11.088  69.386  1.00  0.00    -0.131 OA 
BRANCH  11  13
HETATM   13  C   UNL     1     -10.789  13.342  68.933  1.00  0.00    -0.220 C  
BRANCH  13  14
HETATM   14  O   UNL     1     -11.616  14.311  68.184  1.00  0.00    -0.295 OA 
BRANCH  14  15
HETATM   15  C   UNL     1     -11.024  15.499  67.592  1.00  0.00    -0.315 C  
HETATM   16  C   UNL     1      -9.890  15.097  66.640  1.00  0.00    -0.265 C  
BRANCH  15  17
HETATM   17  C   UNL     1     -10.654  16.594  68.584  1.00  0.00    -0.337 C  
BRANCH  17  18
HETATM   18  N   UNL     1     -10.079  17.778  68.007  1.00  0.00    -0.335 NA 
HETATM   19  C   UNL     1     -10.703  18.729  67.245  1.00  0.00    -0.425 A  
HETATM   20  N   UNL     1      -9.896  19.725  66.955  1.00  0.00    -0.364 NA 
HETATM   21  C   UNL     1      -8.699  19.380  67.542  1.00  0.00    -0.304 A  
HETATM   22  C   UNL     1      -7.466  20.035  67.600  1.00  0.00    -0.292 A  
HETATM   23  N   UNL     1      -6.425  19.411  68.199  1.00  0.00    -0.228 NA 
HETATM   24  N   UNL     1      -7.285  21.296  67.053  1.00  0.00    -0.790 NA 
HETATM   25  C   UNL     1      -6.646  18.203  68.752  1.00  0.00    -0.237 A  
HETATM   26  H1  UNL     1      -6.385  21.775  67.095  1.00  0.00     0.000 HD 
HETATM   27  H2  UNL     1      -7.988  21.916  67.457  1.00  0.00     0.000 HD 
HETATM   28  N   UNL     1      -7.794  17.489  68.795  1.00  0.00    -0.264 NA 
HETATM   29  C   UNL     1      -8.777  18.151  68.166  1.00  0.00    -0.277 A  
ENDBRANCH  17  18
ENDBRANCH  15  17
ENDBRANCH  14  15
ENDBRANCH  13  14
ENDBRANCH  11  13
BRANCH  11  30
HETATM   30  O   UNL     1     -12.197  12.042  67.173  1.00  0.00    -0.505 OA 
BRANCH  30  31
HETATM   31  C   UNL     1     -11.774  12.092  65.857  1.00  0.00    -0.328 A  
HETATM   32  C   UNL     1     -10.561  11.468  65.561  1.00  0.00    -0.334 A  
HETATM   33  C   UNL     1     -11.957  12.778  63.537  1.00  0.00    -0.633 A  
HETATM   34  C   UNL     1     -12.478  12.742  64.838  1.00  0.00    -0.563 A  
HETATM   35  C   UNL     1     -10.736  12.171  63.251  1.00  0.00    -0.373 A  
HETATM   36  C   UNL     1     -10.039  11.517  64.264  1.00  0.00    -0.338 A  
ENDBRANCH  30  31
ENDBRANCH  11  30
ENDBRANCH   9  11
ENDBRANCH   7   9
ENDBRANCH   5   7
ENDBRANCH   4   5
ENDBRANCH   2   4
TORSDOF 12
ENDMDL
MODEL        3
REMARK 921   NORMALIZED FREE ENERGY PREDICTED BY IDOCK:   -6.82 KCAL/MOL
REMARK 922        TOTAL FREE ENERGY PREDICTED BY IDOCK:  -13.32 KCAL/MOL
REMARK 923 INTER-LIGAND FREE ENERGY PREDICTED BY IDOCK:  -11.74 KCAL/MOL
REMARK 924 INTRA-LIGAND FREE ENERGY PREDICTED BY IDOCK:   -1.58 KCAL/MOL
REMARK 927      BINDING AFFINITY PREDICTED BY RF-SCORE:    0.00 PKD
ROOT
HETATM    1  C   UNL     1     -11.175   6.427  71.627  1.00  0.00    -0.327 C  
HETATM    2  C   UNL     1     -10.851   7.569  72.592  1.00  0.00    -0.315 C  
HETATM    3  C   UNL     1     -10.093   7.047  73.821  1.00  0.00    -0.390 C  
ENDROOT
BRANCH   2   4
HETATM    4  O   UNL     1     -10.266   8.728  71.913  1.00  0.00    -0.301 OA 
BRANCH   4   5
HETATM    5  C   UNL     1     -11.069   9.578  71.228  1.00  0.00    -0.379 C  
HETATM    6  O   UNL     1     -12.157   9.965  71.658  1.00  0.00    -0.389 OA 
BRANCH   5   7
HETATM    7  C   UNL     1     -10.566  10.049  69.833  1.00  0.00    -0.282 C  
HETATM    8  C   UNL     1      -9.341   9.225  69.437  1.00  0.00    -0.164 C  
BRANCH   7   9
HETATM    9  N   UNL     1     -10.341  11.525  69.582  1.00  0.00    -0.347 NA 
HETATM   10  H   UNL     1      -9.536  11.679  68.975  1.00  0.00     0.000 HD 
BRANCH   9  11
HETATM   11  P   UNL     1     -11.782  12.313  68.944  1.00  0.00    -0.295 P  
HETATM   12  O   UNL     1     -12.398  10.994  68.417  1.00  0.00    -0.528 OA 
BRANCH  11  13
HETATM   13  C   UNL     1     -11.565  12.895  67.135  1.00  0.00    -0.363 C  
BRANCH  13  14
HETATM   14  O   UNL     1     -11.955  14.305  66.929  1.00  0.00    -0.416 OA 
BRANCH  14  15
HETATM   15  C   UNL     1     -11.737  14.962  65.651  1.00  0.00    -0.194 C  
HETATM   16  C   UNL     1     -12.438  14.177  64.535  1.00  0.00    -0.350 C  
BRANCH  15  17
HETATM   17  C   UNL     1     -10.288  15.320  65.354  1.00  0.00    -0.393 C  
BRANCH  17  18
HETATM   18  N   UNL     1      -9.633  16.117  66.355  1.00  0.00    -0.266 NA 
HETATM   19  C   UNL     1      -8.730  15.706  67.297  1.00  0.00    -0.194 A  
HETATM   20  N   UNL     1      -8.266  16.716  68.000  1.00  0.00    -0.181 NA 
HETATM   21  C   UNL     1      -8.921  17.816  67.493  1.00  0.00    -0.244 A  
HETATM   22  C   UNL     1      -8.847  19.174  67.813  1.00  0.00    -0.301 A  
HETATM   23  N   UNL     1      -9.678  20.037  67.184  1.00  0.00    -0.383 NA 
HETATM   24  N   UNL     1      -7.954  19.652  68.760  1.00  0.00    -0.322 NA 
HETATM   25  C   UNL     1     -10.506  19.545  66.243  1.00  0.00    -0.512 A  
HETATM   26  H1  UNL     1      -7.899  20.644  68.994  1.00  0.00     0.000 HD 
HETATM   27  H2  UNL     1      -7.019  19.342  68.493  1.00  0.00     0.000 HD 
HETATM   28  N   UNL     1     -10.643  18.268  65.821  1.00  0.00    -0.563 NA 
HETATM   29  C   UNL     1      -9.809  17.463  66.498  1.00  0.00    -0.304 A  
ENDBRANCH  17  18
ENDBRANCH  15  17
ENDBRANCH  14  15
ENDBRANCH  13  14
ENDBRANCH  11  13
BRANCH  11  30
HETATM   30  O   UNL     1     -11.093  13.787  69.534  1.00  0.00    -0.205 OA 
BRANCH  30  31
HETATM   31  C   UNL     1     -11.719  14.366  70.624  1.00  0.00    -0.252 A  
HETATM   32  C   UNL     1     -12.813  13.684  71.158  1.00  0.00    -0.399 A  
HETATM   33  C   UNL     1     -12.041  16.120  72.269  1.00  0.00    -0.616 A  
HETATM   34  C   UNL     1     -11.327  15.584  71.188  1.00  0.00    -0.442 A  
HETATM   35  C   UNL     1     -13.146  15.445  72.785  1.00  0.00    -0.568 A  
HETATM   36  C   UNL     1     -13.531  14.228  72.229  1.00  0.00    -0.552 A  
ENDBRANCH  30  31
ENDBRANCH  11  30
ENDBRANCH   9  11
ENDBRANCH   7   9
ENDBRANCH   5   7
ENDBRANCH   4   5
ENDBRANCH   2   4
TORSDOF 12
ENDMDL
MODEL        4
REMARK 921   NORMALIZED FREE ENERGY PREDICTED BY IDOCK:   -6.79 KCAL/MOL
REMARK 922        TOTAL FREE ENERGY PREDICTED BY IDOCK:  -13.26 KCAL/MOL
REMARK 923 INTER-LIGAND FREE ENERGY PREDICTED BY IDOCK:  -11.66 KCAL/MOL
REMARK 924 INTRA-LIGAND FREE ENERGY PREDICTED BY IDOCK:   -1.60 KCAL/MOL
REMARK 927      BINDING AFFINITY PREDICTED BY RF-SCORE:    0.00 PKD
ROOT
HETATM    1  C   UNL     1     -10.120  18.079  67.853  1.00  0.00    -0.360 C  
HETATM    2  C   UNL     1     -10.622  18.231  66.415  1.00  0.00    -0.293 C  
HETATM    3  C   UNL     1     -10.421  19.668  65.915  1.00  0.00    -0.591 C  
ENDROOT
BRANCH   2   4
HETATM    4  O   UNL     1     -10.136  17.164  65.535  1.00  0.00    -0.576 OA 
BRANCH   4   5
HETATM    5  C   UNL     1     -11.024  16.326  64.947  1.00  0.00    -0.307 C  
HETATM    6  O   UNL     1     -11.632  16.611  63.913  1.00  0.00    -1.204 OA 
BRANCH   5   7
HETATM    7  C   UNL     1     -11.271  14.960  65.649  1.00  0.00    -0.347 C  
HETATM    8  C   UNL     1     -11.966  14.011  64.673  1.00  0.00    -0.449 C  
BRANCH   7   9
HETATM    9  N   UNL     1     -11.933  14.931  67.010  1.00  0.00    -0.329 NA 
HETATM   10  H   UNL     1     -12.830  14.446  66.976  1.00  0.00     0.000 HD 
BRANCH   9  11
HETATM   11  P   UNL     1     -10.880  14.242  68.243  1.00  0.00    -0.264 P  
HETATM   12  O   UNL     1      -9.581  14.587  67.475  1.00  0.00    -0.206 OA 
BRANCH  11  13
HETATM   13  C   UNL     1     -10.519  12.387  67.951  1.00  0.00    -0.215 C  
BRANCH  13  14
HETATM   14  O   UNL     1      -9.282  11.925  68.613  1.00  0.00    -0.160 OA 
BRANCH  14  15
HETATM   15  C   UNL     1      -8.859  10.537  68.524  1.00  0.00    -0.144 C  
HETATM   16  C   UNL     1      -7.511  10.448  67.799  1.00  0.00    -0.088 C  
BRANCH  15  17
HETATM   17  C   UNL     1      -9.919   9.577  68.003  1.00  0.00    -0.167 C  
BRANCH  17  18
HETATM   18  N   UNL     1     -10.368   8.587  68.942  1.00  0.00    -0.211 NA 
HETATM   19  C   UNL     1     -10.087   7.247  68.949  1.00  0.00    -0.180 A  
HETATM   20  N   UNL     1     -10.594   6.649  70.005  1.00  0.00    -0.210 NA 
HETATM   21  C   UNL     1     -11.244   7.652  70.688  1.00  0.00    -0.266 A  
HETATM   22  C   UNL     1     -11.959   7.650  71.888  1.00  0.00    -0.295 A  
HETATM   23  N   UNL     1     -12.562   8.794  72.289  1.00  0.00    -0.390 NA 
HETATM   24  N   UNL     1     -12.072   6.508  72.667  1.00  0.00    -0.503 NA 
HETATM   25  C   UNL     1     -12.400   9.893  71.528  1.00  0.00    -0.412 A  
HETATM   26  H1  UNL     1     -12.595   6.506  73.544  1.00  0.00     0.000 HD 
HETATM   27  H2  UNL     1     -11.131   6.169  72.863  1.00  0.00     0.000 HD 
HETATM   28  N   UNL     1     -11.706  10.030  70.376  1.00  0.00    -0.279 NA 
HETATM   29  C   UNL     1     -11.154   8.859  70.024  1.00  0.00    -0.170 A  
ENDBRANCH  17  18
ENDBRANCH  15  17
ENDBRANCH  14  15
ENDBRANCH  13  14
ENDBRANCH  11  13
BRANCH  11  30
HETATM   30  O   UNL     1     -12.333  13.857  69.101  1.00  0.00    -0.314 OA 
BRANCH  30  31
HETATM   31  C   UNL     1     -12.488  14.444  70.344  1.00  0.00    -0.357 A  
HETATM   32  C   UNL     1     -13.460  13.895  71.182  1.00  0.00    -0.199 A  
HETATM   33  C   UNL     1     -11.997  16.106  72.041  1.00  0.00    -0.607 A  
HETATM   34  C   UNL     1     -11.749  15.548  70.779  1.00  0.00    -0.397 A  
HETATM   35  C   UNL     1     -12.982  15.568  72.867  1.00  0.00    -0.583 A  
HETATM   36  C   UNL     1     -13.713  14.464  72.436  1.00  0.00    -0.590 A  
ENDBRANCH  30  31
ENDBRANCH  11  30
ENDBRANCH   9  11
ENDBRANCH   7   9
ENDBRANCH   5   7
ENDBRANCH   4   5
ENDBRANCH   2   4
TORSDOF 12
ENDMDL
MODEL        5
REMARK 921   NORMALIZED FREE ENERGY PREDICTED BY IDOCK:   -6.77 KCAL/MOL
REMARK 922        TOTAL FREE ENERGY PREDICTED BY IDOCK:  -13.23 KCAL/MOL
REMARK 923 INTER-LIGAND FREE ENERGY PREDICTED BY IDOCK:  -11.75 KCAL/MOL
REMARK 924 INTRA-LIGAND FREE ENERGY PREDICTED BY IDOCK:   -1.48 KCAL/MOL
REMARK 927      BINDING AFFINITY PREDICTED BY RF-SCORE:    0.00 PKD
ROOT
HETATM    1  C   UNL     1     -11.629   6.363  70.030  1.00  0.00    -0.446 C  
HETATM    2  C   UNL     1     -11.810   6.962  71.427  1.00  0.00    -0.330 C  
HETATM    3  C   UNL     1     -11.206   6.042  72.498  1.00  0.00    -0.333 C  
ENDROOT
BRANCH   2   4
HETATM    4  O   UNL     1     -11.419   8.373  71.488  1.00  0.00    -0.255 OA 
BRANCH   4   5
HETATM    5  C   UNL     1     -12.376   9.330  71.553  1.00  0.00    -0.360 C  
HETATM    6  O   UNL     1     -13.411   9.200  72.209  1.00  0.00    -0.424 OA 
BRANCH   5   7
HETATM    7  C   UNL     1     -12.125  10.630  70.735  1.00  0.00    -0.374 C  
HETATM    8  C   UNL     1     -12.810  11.804  71.433  1.00  0.00    -0.440 C  
BRANCH   7   9
HETATM    9  N   UNL     1     -12.401  10.638  69.246  1.00  0.00    -0.717 NA 
HETATM   10  H   UNL     1     -13.217  11.208  69.024  1.00  0.00     0.000 HD 
BRANCH   9  11
HETATM   11  P   UNL     1     -10.995  11.145  68.316  1.00  0.00    -0.278 P  
HETATM   12  O   UNL     1      -9.981  10.568  69.335  1.00  0.00    -0.222 OA 
BRANCH  11  13
HETATM   13  C   UNL     1     -10.403  12.905  68.774  1.00  0.00    -0.125 C  
BRANCH  13  14
HETATM   14  O   UNL     1     -11.515  13.854  68.989  1.00  0.00    -0.260 OA 
BRANCH  14  15
HETATM   15  C   UNL     1     -11.260  15.223  69.407  1.00  0.00    -0.285 C  
HETATM   16  C   UNL     1     -11.827  15.451  70.814  1.00  0.00    -0.394 C  
BRANCH  15  17
HETATM   17  C   UNL     1     -11.652  16.286  68.391  1.00  0.00    -0.154 C  
BRANCH  17  18
HETATM   18  N   UNL     1     -10.613  16.677  67.479  1.00  0.00    -0.323 NA 
HETATM   19  C   UNL     1     -10.334  16.148  66.247  1.00  0.00    -0.328 A  
HETATM   20  N   UNL     1      -9.367  16.804  65.644  1.00  0.00    -0.480 NA 
HETATM   21  C   UNL     1      -9.000  17.780  66.544  1.00  0.00    -0.261 A  
HETATM   22  C   UNL     1      -8.042  18.795  66.479  1.00  0.00    -0.289 A  
HETATM   23  N   UNL     1      -7.851  19.578  67.566  1.00  0.00    -0.258 NA 
HETATM   24  N   UNL     1      -7.284  19.009  65.339  1.00  0.00    -0.472 NA 
HETATM   25  C   UNL     1      -8.631  19.367  68.643  1.00  0.00    -0.358 A  
HETATM   26  H1  UNL     1      -6.584  19.750  65.291  1.00  0.00     0.000 HD 
HETATM   27  H2  UNL     1      -7.925  19.134  64.556  1.00  0.00     0.000 HD 
HETATM   28  N   UNL     1      -9.610  18.450  68.812  1.00  0.00    -0.339 NA 
HETATM   29  C   UNL     1      -9.733  17.694  67.711  1.00  0.00    -0.280 A  
ENDBRANCH  17  18
ENDBRANCH  15  17
ENDBRANCH  14  15
ENDBRANCH  13  14
ENDBRANCH  11  13
BRANCH  11  30
HETATM   30  O   UNL     1     -12.127  11.789  67.177  1.00  0.00    -0.592 OA 
BRANCH  30  31
HETATM   31  C   UNL     1     -11.707  11.853  65.860  1.00  0.00    -0.136 A  
HETATM   32  C   UNL     1     -10.522  11.186  65.544  1.00  0.00    -0.317 A  
HETATM   33  C   UNL     1     -11.871  12.600  63.558  1.00  0.00    -0.619 A  
HETATM   34  C   UNL     1     -12.388  12.555  64.860  1.00  0.00    -0.539 A  
HETATM   35  C   UNL     1     -10.677  11.951  63.252  1.00  0.00    -0.415 A  
HETATM   36  C   UNL     1     -10.004  11.245  64.245  1.00  0.00    -0.347 A  
ENDBRANCH  30  31
ENDBRANCH  11  30
ENDBRANCH   9  11
ENDBRANCH   7   9
ENDBRANCH   5   7
ENDBRANCH   4   5
ENDBRANCH   2   4
TORSDOF 12
ENDMDL
MODEL        6
REMARK 921   NORMALIZED FREE ENERGY PREDICTED BY IDOCK:   -6.76 KCAL/MOL
REMARK 922        TOTAL FREE ENERGY PREDICTED BY IDOCK:  -13.22 KCAL/MOL
REMARK 923 INTER-LIGAND FREE ENERGY PREDICTED BY IDOCK:  -11.62 KCAL/MOL
REMARK 924 INTRA-LIGAND FREE ENERGY PREDICTED BY IDOCK:   -1.60 KCAL/MOL
REMARK 927      BINDING AFFINITY PREDICTED BY RF-SCORE:    0.00 PKD
ROOT
HETATM    1  C   UNL     1     -11.851   6.365  72.004  1.00  0.00    -0.382 C  
HETATM    2  C   UNL     1     -12.674   7.527  71.443  1.00  0.00    -0.348 C  
HETATM    3  C   UNL     1     -14.177   7.234  71.551  1.00  0.00    -0.540 C  
ENDROOT
BRANCH   2   4
HETATM    4  O   UNL     1     -12.229   8.827  71.951  1.00  0.00    -0.314 OA 
BRANCH   4   5
HETATM    5  C   UNL     1     -11.260   9.508  71.290  1.00  0.00    -0.382 C  
HETATM    6  O   UNL     1     -10.060   9.265  71.423  1.00  0.00    -0.314 OA 
BRANCH   5   7
HETATM    7  C   UNL     1     -11.728  10.652  70.345  1.00  0.00    -0.353 C  
HETATM    8  C   UNL     1     -12.894  11.396  70.994  1.00  0.00    -0.381 C  
BRANCH   7   9
HETATM    9  N   UNL     1     -12.013  10.345  68.890  1.00  0.00    -0.680 NA 
HETATM   10  H   UNL     1     -12.968  10.600  68.637  1.00  0.00     0.000 HD 
BRANCH   9  11
HETATM   11  P   UNL     1     -10.844  11.105  67.813  1.00  0.00    -0.282 P  
HETATM   12  O   UNL     1      -9.693  10.152  68.221  1.00  0.00    -0.139 OA 
BRANCH  11  13
HETATM   13  C   UNL     1      -9.901  12.545  68.647  1.00  0.00    -0.075 C  
BRANCH  13  14
HETATM   14  O   UNL     1     -10.779  13.673  69.023  1.00  0.00    -0.234 OA 
BRANCH  14  15
HETATM   15  C   UNL     1     -10.275  15.036  69.054  1.00  0.00    -0.242 C  
HETATM   16  C   UNL     1     -11.374  15.987  69.545  1.00  0.00    -0.344 C  
BRANCH  15  17
HETATM   17  C   UNL     1      -9.573  15.488  67.781  1.00  0.00    -0.209 C  
BRANCH  17  18
HETATM   18  N   UNL     1      -8.935  16.773  67.853  1.00  0.00    -0.216 NA 
HETATM   19  C   UNL     1      -7.811  17.114  68.556  1.00  0.00    -0.257 A  
HETATM   20  N   UNL     1      -7.454  18.359  68.329  1.00  0.00    -0.270 NA 
HETATM   21  C   UNL     1      -8.409  18.836  67.458  1.00  0.00    -0.265 A  
HETATM   22  C   UNL     1      -8.569  20.079  66.841  1.00  0.00    -0.336 A  
HETATM   23  N   UNL     1      -9.664  20.289  66.074  1.00  0.00    -0.332 NA 
HETATM   24  N   UNL     1      -7.643  21.099  67.005  1.00  0.00    -0.719 NA 
HETATM   25  C   UNL     1     -10.523  19.265  65.907  1.00  0.00    -0.451 A  
HETATM   26  H1  UNL     1      -7.760  22.007  66.554  1.00  0.00     0.000 HD 
HETATM   27  H2  UNL     1      -6.728  20.734  66.741  1.00  0.00     0.000 HD 
HETATM   28  N   UNL     1     -10.458  18.014  66.415  1.00  0.00    -0.367 NA 
HETATM   29  C   UNL     1      -9.365  17.880  67.182  1.00  0.00    -0.265 A  
ENDBRANCH  17  18
ENDBRANCH  15  17
ENDBRANCH  14  15
ENDBRANCH  13  14
ENDBRANCH  11  13
BRANCH  11  30
HETATM   30  O   UNL     1     -12.130  12.169  67.358  1.00  0.00    -0.553 OA 
BRANCH  30  31
HETATM   31  C   UNL     1     -12.122  12.620  66.050  1.00  0.00    -0.364 A  
HETATM   32  C   UNL     1     -11.772  11.694  65.066  1.00  0.00    -0.072 A  
HETATM   33  C   UNL     1     -12.351  14.319  64.333  1.00  0.00    -0.417 A  
HETATM   34  C   UNL     1     -12.420  13.935  65.680  1.00  0.00    -0.538 A  
HETATM   35  C   UNL     1     -11.980  13.396  63.357  1.00  0.00    -0.406 A  
HETATM   36  C   UNL     1     -11.691  12.085  63.725  1.00  0.00    -0.575 A  
ENDBRANCH  30  31
ENDBRANCH  11  30
ENDBRANCH   9  11
ENDBRANCH   7   9
ENDBRANCH   5   7
ENDBRANCH   4   5
ENDBRANCH   2   4
TORSDOF 12
ENDMDL
MODEL        7
REMARK 921   NORMALIZED FREE ENERGY PREDICTED BY IDOCK:   -6.76 KCAL/MOL
REMARK 922        TOTAL FREE ENERGY PREDICTED BY IDOCK:  -13.22 KCAL/MOL
REMARK 923 INTER-LIGAND FREE ENERGY PREDICTED BY IDOCK:  -11.64 KCAL/MOL
REMARK 924 INTRA-LIGAND FREE ENERGY PREDICTED BY IDOCK:   -1.58 KCAL/MOL
REMARK 927      BINDING AFFINITY PREDICTED BY RF-SCORE:    0.00 PKD
ROOT
HETATM    1  C   UNL     1      -5.880  19.940  69.039  1.00  0.00    -0.289 C  
HETATM    2  C   UNL     1      -7.197  19.745  68.283  1.00  0.00    -0.306 C  
HETATM    3  C   UNL     1      -7.387  20.842  67.225  1.00  0.00    -0.397 C  
ENDROOT
BRANCH   2   4
HETATM    4  O   UNL     1      -7.384  18.365  67.828  1.00  0.00    -0.219 OA 
BRANCH   4   5
HETATM    5  C   UNL     1      -8.390  18.075  66.966  1.00  0.00    -0.236 C  
HETATM    6  O   UNL     1      -8.233  18.029  65.744  1.00  0.00    -0.519 OA 
BRANCH   5   7
HETATM    7  C   UNL     1      -9.791  17.811  67.587  1.00  0.00    -0.299 C  
HETATM    8  C   UNL     1     -10.671  19.043  67.385  1.00  0.00    -0.559 C  
BRANCH   7   9
HETATM    9  N   UNL     1      -9.891  17.291  69.006  1.00  0.00    -0.267 NA 
HETATM   10  H   UNL     1     -10.600  17.796  69.537  1.00  0.00     0.000 HD 
BRANCH   9  11
HETATM   11  P   UNL     1     -10.174  15.553  69.054  1.00  0.00    -0.260 P  
HETATM   12  O   UNL     1      -8.721  15.199  68.653  1.00  0.00    -0.157 OA 
BRANCH  11  13
HETATM   13  C   UNL     1     -10.771  14.856  67.376  1.00  0.00    -0.292 C  
BRANCH  13  14
HETATM   14  O   UNL     1     -10.197  13.533  67.059  1.00  0.00    -0.245 OA 
BRANCH  14  15
HETATM   15  C   UNL     1     -11.028  12.341  67.042  1.00  0.00    -0.268 C  
HETATM   16  C   UNL     1     -11.931  12.353  65.802  1.00  0.00    -0.437 C  
BRANCH  15  17
HETATM   17  C   UNL     1     -11.756  12.048  68.347  1.00  0.00    -0.332 C  
BRANCH  17  18
HETATM   18  N   UNL     1     -11.140  11.057  69.186  1.00  0.00    -0.223 NA 
HETATM   19  C   UNL     1      -9.861  10.573  69.113  1.00  0.00    -0.218 A  
HETATM   20  N   UNL     1      -9.603   9.735  70.092  1.00  0.00    -0.250 NA 
HETATM   21  C   UNL     1     -10.779   9.668  70.806  1.00  0.00    -0.331 A  
HETATM   22  C   UNL     1     -11.129   8.962  71.960  1.00  0.00    -0.351 A  
HETATM   23  N   UNL     1     -12.405   9.035  72.405  1.00  0.00    -0.324 NA 
HETATM   24  N   UNL     1     -10.209   8.186  72.648  1.00  0.00    -0.307 NA 
HETATM   25  C   UNL     1     -13.263   9.828  71.735  1.00  0.00    -0.436 A  
HETATM   26  H1  UNL     1     -10.465   7.669  73.490  1.00  0.00     0.000 HD 
HETATM   27  H2  UNL     1      -9.409   8.776  72.874  1.00  0.00     0.000 HD 
HETATM   28  N   UNL     1     -13.036  10.585  70.638  1.00  0.00    -0.344 NA 
HETATM   29  C   UNL     1     -11.763  10.449  70.236  1.00  0.00    -0.321 A  
ENDBRANCH  17  18
ENDBRANCH  15  17
ENDBRANCH  14  15
ENDBRANCH  13  14
ENDBRANCH  11  13
BRANCH  11  30
HETATM   30  O   UNL     1     -11.798  15.949  69.503  1.00  0.00    -0.345 OA 
BRANCH  30  31
HETATM   31  C   UNL     1     -12.230  15.477  70.730  1.00  0.00    -0.403 A  
HETATM   32  C   UNL     1     -11.740  16.129  71.863  1.00  0.00    -0.575 A  
HETATM   33  C   UNL     1     -13.454  13.952  72.167  1.00  0.00    -0.578 A  
HETATM   34  C   UNL     1     -13.096  14.391  70.884  1.00  0.00    -0.390 A  
HETATM   35  C   UNL     1     -12.945  14.593  73.295  1.00  0.00    -0.569 A  
HETATM   36  C   UNL     1     -12.089  15.680  73.142  1.00  0.00    -0.598 A  
ENDBRANCH  30  31
ENDBRANCH  11  30
ENDBRANCH   9  11
ENDBRANCH   7   9
ENDBRANCH   5   7
ENDBRANCH   4   5
ENDBRANCH   2   4
TORSDOF 12
ENDMDL
MODEL        8
REMARK 921   NORMALIZED FREE ENERGY PREDICTED BY IDOCK:   -6.72 KCAL/MOL
REMARK 922        TOTAL FREE ENERGY PREDICTED BY IDOCK:  -13.15 KCAL/MOL
REMARK 923 INTER-LIGAND FREE ENERGY PREDICTED BY IDOCK:  -11.63 KCAL/MOL
REMARK 924 INTRA-LIGAND FREE ENERGY PREDICTED BY IDOCK:   -1.52 KCAL/MOL
REMARK 927      BINDING AFFINITY PREDICTED BY RF-SCORE:    0.00 PKD
ROOT
HETATM    1  C   UNL     1     -10.440  19.726  68.145  1.00  0.00    -0.494 C  
HETATM    2  C   UNL     1     -10.352  19.065  66.767  1.00  0.00    -0.412 C  
HETATM    3  C   UNL     1      -9.119  19.563  66.001  1.00  0.00    -0.240 C  
ENDROOT
BRANCH   2   4
HETATM    4  O   UNL     1     -10.536  17.613  66.828  1.00  0.00    -0.334 OA 
BRANCH   4   5
HETATM    5  C   UNL     1     -10.675  16.907  65.679  1.00  0.00    -0.167 C  
HETATM    6  O   UNL     1     -11.163  17.386  64.653  1.00  0.00    -0.992 OA 
BRANCH   5   7
HETATM    7  C   UNL     1     -10.201  15.426  65.704  1.00  0.00    -0.376 C  
HETATM    8  C   UNL     1      -8.838  15.345  66.391  1.00  0.00    -0.340 C  
BRANCH   7   9
HETATM    9  N   UNL     1     -10.222  14.615  64.425  1.00  0.00    -0.456 NA 
HETATM   10  H   UNL     1      -9.300  14.234  64.214  1.00  0.00     0.000 HD 
BRANCH   9  11
HETATM   11  P   UNL     1     -11.444  13.348  64.466  1.00  0.00    -0.403 P  
HETATM   12  O   UNL     1     -12.537  14.235  63.820  1.00  0.00    -0.821 OA 
BRANCH  11  13
HETATM   13  C   UNL     1     -12.452  13.347  66.091  1.00  0.00    -0.326 C  
BRANCH  13  14
HETATM   14  O   UNL     1     -12.144  12.197  66.965  1.00  0.00    -0.591 OA 
BRANCH  14  15
HETATM   15  C   UNL     1     -11.920  12.378  68.390  1.00  0.00    -0.216 C  
HETATM   16  C   UNL     1     -11.661  13.860  68.692  1.00  0.00    -0.396 C  
BRANCH  15  17
HETATM   17  C   UNL     1     -10.906  11.424  69.005  1.00  0.00    -0.219 C  
BRANCH  17  18
HETATM   18  N   UNL     1     -11.433  10.515  69.985  1.00  0.00    -0.292 NA 
HETATM   19  C   UNL     1     -12.195  10.812  71.083  1.00  0.00    -0.352 A  
HETATM   20  N   UNL     1     -12.577   9.726  71.718  1.00  0.00    -0.399 NA 
HETATM   21  C   UNL     1     -12.015   8.694  71.002  1.00  0.00    -0.243 A  
HETATM   22  C   UNL     1     -12.069   7.307  71.168  1.00  0.00    -0.340 A  
HETATM   23  N   UNL     1     -11.344   6.524  70.335  1.00  0.00    -0.356 NA 
HETATM   24  N   UNL     1     -12.835   6.721  72.164  1.00  0.00    -0.556 NA 
HETATM   25  C   UNL     1     -10.642   7.124  69.355  1.00  0.00    -0.233 A  
HETATM   26  H1  UNL     1     -12.874   5.709  72.285  1.00  0.00     0.000 HD 
HETATM   27  H2  UNL     1     -13.791   7.062  72.065  1.00  0.00     0.000 HD 
HETATM   28  N   UNL     1     -10.542   8.442  69.070  1.00  0.00    -0.195 NA 
HETATM   29  C   UNL     1     -11.263   9.161  69.944  1.00  0.00    -0.102 A  
ENDBRANCH  17  18
ENDBRANCH  15  17
ENDBRANCH  14  15
ENDBRANCH  13  14
ENDBRANCH  11  13
BRANCH  11  30
HETATM   30  O   UNL     1     -10.223  12.356  65.186  1.00  0.00    -0.278 OA 
BRANCH  30  31
HETATM   31  C   UNL     1      -9.771  11.289  64.430  1.00  0.00    -0.254 A  
HETATM   32  C   UNL     1      -9.172  10.236  65.123  1.00  0.00    -0.252 A  
HETATM   33  C   UNL     1      -9.347  10.125  62.344  1.00  0.00    -0.297 A  
HETATM   34  C   UNL     1      -9.866  11.228  63.037  1.00  0.00    -0.370 A  
HETATM   35  C   UNL     1      -8.731   9.085  63.039  1.00  0.00    -0.126 A  
HETATM   36  C   UNL     1      -8.644   9.142  64.427  1.00  0.00    -0.204 A  
ENDBRANCH  30  31
ENDBRANCH  11  30
ENDBRANCH   9  11
ENDBRANCH   7   9
ENDBRANCH   5   7
ENDBRANCH   4   5
ENDBRANCH   2   4
TORSDOF 12
ENDMDL
MODEL        9
REMARK 921   NORMALIZED FREE ENERGY PREDICTED BY IDOCK:   -6.72 KCAL/MOL
REMARK 922        TOTAL FREE ENERGY PREDICTED BY IDOCK:  -13.14 KCAL/MOL
REMARK 923 INTER-LIGAND FREE ENERGY PREDICTED BY IDOCK:  -11.98 KCAL/MOL
REMARK 924 INTRA-LIGAND FREE ENERGY PREDICTED BY IDOCK:   -1.16 KCAL/MOL
REMARK 927      BINDING AFFINITY PREDICTED BY RF-SCORE:    0.00 PKD
ROOT
HETATM    1  C   UNL     1     -10.702  11.528  65.054  1.00  0.00    -0.350 C  
HETATM    2  C   UNL     1     -11.187  12.424  63.912  1.00  0.00    -0.422 C  
HETATM    3  C   UNL     1     -12.531  11.926  63.360  1.00  0.00    -0.582 C  
ENDROOT
BRANCH   2   4
HETATM    4  O   UNL     1     -11.111  13.849  64.245  1.00  0.00    -0.351 OA 
BRANCH   4   5
HETATM    5  C   UNL     1     -11.863  14.340  65.260  1.00  0.00    -0.374 C  
HETATM    6  O   UNL     1     -13.089  14.217  65.306  1.00  0.00    -0.763 OA 
BRANCH   5   7
HETATM    7  C   UNL     1     -11.109  15.101  66.388  1.00  0.00    -0.312 C  
HETATM    8  C   UNL     1      -9.605  14.892  66.217  1.00  0.00    -0.334 C  
BRANCH   7   9
HETATM    9  N   UNL     1     -11.532  14.907  67.829  1.00  0.00    -0.330 NA 
HETATM   10  H   UNL     1     -11.624  13.918  68.058  1.00  0.00     0.000 HD 
BRANCH   9  11
HETATM   11  P   UNL     1     -10.449  15.725  68.951  1.00  0.00    -0.258 P  
HETATM   12  O   UNL     1      -9.793  14.411  69.440  1.00  0.00    -0.026 OA 
BRANCH  11  13
HETATM   13  C   UNL     1     -11.217  15.948  70.688  1.00  0.00    -0.378 C  
BRANCH  13  14
HETATM   14  O   UNL     1     -11.656  14.675  71.296  1.00  0.00    -0.301 OA 
BRANCH  14  15
HETATM   15  C   UNL     1     -12.974  14.129  71.019  1.00  0.00    -0.329 C  
HETATM   16  C   UNL     1     -14.053  15.151  71.399  1.00  0.00    -0.598 C  
BRANCH  15  17
HETATM   17  C   UNL     1     -13.214  12.728  71.566  1.00  0.00    -0.239 C  
BRANCH  17  18
HETATM   18  N   UNL     1     -12.492  11.677  70.904  1.00  0.00    -0.377 NA 
HETATM   19  C   UNL     1     -11.679  11.780  69.807  1.00  0.00    -0.335 A  
HETATM   20  N   UNL     1     -11.108  10.631  69.517  1.00  0.00    -0.254 NA 
HETATM   21  C   UNL     1     -11.598   9.756  70.460  1.00  0.00    -0.292 A  
HETATM   22  C   UNL     1     -11.355   8.399  70.687  1.00  0.00    -0.244 A  
HETATM   23  N   UNL     1     -12.047   7.769  71.665  1.00  0.00    -0.293 NA 
HETATM   24  N   UNL     1     -10.436   7.686  69.931  1.00  0.00    -0.226 NA 
HETATM   25  C   UNL     1     -12.903   8.499  72.404  1.00  0.00    -0.321 A  
HETATM   26  H1  UNL     1     -10.259   6.695  70.096  1.00  0.00     0.000 HD 
HETATM   27  H2  UNL     1      -9.543   8.176  69.982  1.00  0.00     0.000 HD 
HETATM   28  N   UNL     1     -13.194   9.816  72.308  1.00  0.00    -0.423 NA 
HETATM   29  C   UNL     1     -12.494  10.374  71.308  1.00  0.00    -0.415 A  
ENDBRANCH  17  18
ENDBRANCH  15  17
ENDBRANCH  14  15
ENDBRANCH  13  14
ENDBRANCH  11  13
BRANCH  11  30
HETATM   30  O   UNL     1     -11.182  17.194  68.404  1.00  0.00    -0.218 OA 
BRANCH  30  31
HETATM   31  C   UNL     1     -10.320  18.208  68.023  1.00  0.00    -0.391 A  
HETATM   32  C   UNL     1     -10.783  19.095  67.050  1.00  0.00    -0.542 A  
HETATM   33  C   UNL     1      -8.207  19.400  68.069  1.00  0.00    -0.353 A  
HETATM   34  C   UNL     1      -9.031  18.367  68.539  1.00  0.00    -0.336 A  
HETATM   35  C   UNL     1      -8.667  20.270  67.082  1.00  0.00    -0.429 A  
HETATM   36  C   UNL     1      -9.953  20.117  66.573  1.00  0.00    -0.586 A  
ENDBRANCH  30  31
ENDBRANCH  11  30
ENDBRANCH   9  11
ENDBRANCH   7   9
ENDBRANCH   5   7
ENDBRANCH   4   5
ENDBRANCH   2   4
TORSDOF 12
ENDMDL
MODEL       10
REMARK 921   NORMALIZED FREE ENERGY PREDICTED BY IDOCK:   -6.67 KCAL/MOL
REMARK 922        TOTAL FREE ENERGY PREDICTED BY IDOCK:  -13.07 KCAL/MOL
REMARK 923 INTER-LIGAND FREE ENERGY PREDICTED BY IDOCK:  -11.53 KCAL/MOL
REMARK 924 INTRA-LIGAND FREE ENERGY PREDICTED BY IDOCK:   -1.54 KCAL/MOL
REMARK 927      BINDING AFFINITY PREDICTED BY RF-SCORE:    0.00 PKD
ROOT
HETATM    1  C   UNL     1     -10.825   6.628  70.723  1.00  0.00    -0.299 C  
HETATM    2  C   UNL     1     -11.435   7.046  72.063  1.00  0.00    -0.271 C  
HETATM    3  C   UNL     1     -10.743   6.324  73.228  1.00  0.00    -0.284 C  
ENDROOT
BRANCH   2   4
HETATM    4  O   UNL     1     -11.571   8.499  72.189  1.00  0.00    -0.332 OA 
BRANCH   4   5
HETATM    5  C   UNL     1     -12.612   9.129  71.592  1.00  0.00    -0.360 C  
HETATM    6  O   UNL     1     -13.763   8.689  71.614  1.00  0.00    -0.374 OA 
BRANCH   5   7
HETATM    7  C   UNL     1     -12.294  10.453  70.841  1.00  0.00    -0.381 C  
HETATM    8  C   UNL     1     -12.938  11.621  71.586  1.00  0.00    -0.483 C  
BRANCH   7   9
HETATM    9  N   UNL     1     -12.548  10.545  69.351  1.00  0.00    -0.690 NA 
HETATM   10  H   UNL     1     -13.269  11.235  69.140  1.00  0.00     0.000 HD 
BRANCH   9  11
HETATM   11  P   UNL     1     -11.071  10.866  68.447  1.00  0.00    -0.311 P  
HETATM   12  O   UNL     1     -10.154  10.208  69.508  1.00  0.00    -0.211 OA 
BRANCH  11  13
HETATM   13  C   UNL     1     -10.297  12.561  68.879  1.00  0.00    -0.038 C  
BRANCH  13  14
HETATM   14  O   UNL     1     -11.302  13.627  69.070  1.00  0.00    -0.257 OA 
BRANCH  14  15
HETATM   15  C   UNL     1     -11.006  14.799  69.877  1.00  0.00    -0.199 C  
HETATM   16  C   UNL     1     -12.280  15.631  70.073  1.00  0.00    -0.351 C  
BRANCH  15  17
HETATM   17  C   UNL     1      -9.794  15.600  69.424  1.00  0.00    -0.284 C  
BRANCH  17  18
HETATM   18  N   UNL     1     -10.086  16.767  68.639  1.00  0.00    -0.262 NA 
HETATM   19  C   UNL     1     -10.095  18.074  69.048  1.00  0.00    -0.293 A  
HETATM   20  N   UNL     1     -10.321  18.895  68.047  1.00  0.00    -0.391 NA 
HETATM   21  C   UNL     1     -10.485  18.070  66.957  1.00  0.00    -0.351 A  
HETATM   22  C   UNL     1     -10.735  18.345  65.610  1.00  0.00    -0.038 A  
HETATM   23  N   UNL     1     -10.924  17.310  64.759  1.00  0.00    -0.911 NA 
HETATM   24  N   UNL     1     -10.804  19.645  65.132  1.00  0.00    -0.277 NA 
HETATM   25  C   UNL     1     -10.813  16.061  65.249  1.00  0.00    -0.362 A  
HETATM   26  H1  UNL     1     -10.987  19.846  64.148  1.00  0.00     0.000 HD 
HETATM   27  H2  UNL     1      -9.940  20.120  65.393  1.00  0.00     0.000 HD 
HETATM   28  N   UNL     1     -10.539  15.669  66.513  1.00  0.00    -0.305 NA 
HETATM   29  C   UNL     1     -10.387  16.739  67.308  1.00  0.00    -0.304 A  
ENDBRANCH  17  18
ENDBRANCH  15  17
ENDBRANCH  14  15
ENDBRANCH  13  14
ENDBRANCH  11  13
BRANCH  11  30
HETATM   30  O   UNL     1     -12.096  11.601  67.262  1.00  0.00    -0.595 OA 
BRANCH  30  31
HETATM   31  C   UNL     1     -11.563  11.748  65.993  1.00  0.00    -0.134 A  
HETATM   32  C   UNL     1     -12.196  12.658  65.146  1.00  0.00    -0.539 A  
HETATM   33  C   UNL     1     -10.008  11.209  64.211  1.00  0.00    -0.359 A  
HETATM   34  C   UNL     1     -10.460  11.027  65.526  1.00  0.00    -0.302 A  
HETATM   35  C   UNL     1     -10.656  12.104  63.362  1.00  0.00    -0.454 A  
HETATM   36  C   UNL     1     -11.750  12.827  63.831  1.00  0.00    -0.530 A  
ENDBRANCH  30  31
ENDBRANCH  11  30
ENDBRANCH   9  11
ENDBRANCH   7   9
ENDBRANCH   5   7
ENDBRANCH   4   5
ENDBRANCH   2   4
TORSDOF 12
ENDMDL
MODEL       11
REMARK 921   NORMALIZED FREE ENERGY PREDICTED BY IDOCK:   -6.64 KCAL/MOL
REMARK 922        TOTAL FREE ENERGY PREDICTED BY IDOCK:  -13.02 KCAL/MOL
REMARK 923 INTER-LIGAND FREE ENERGY PREDICTED BY IDOCK:  -11.63 KCAL/MOL
REMARK 924 INTRA-LIGAND FREE ENERGY PREDICTED BY IDOCK:   -1.39 KCAL/MOL
REMARK 927      BINDING AFFINITY PREDICTED BY RF-SCORE:    0.00 PKD
ROOT
HETATM    1  C   UNL     1     -11.340   5.805  72.068  1.00  0.00    -0.289 C  
HETATM    2  C   UNL     1     -11.354   7.274  72.497  1.00  0.00    -0.296 C  
HETATM    3  C   UNL     1     -10.099   7.617  73.312  1.00  0.00    -0.393 C  
ENDROOT
BRANCH   2   4
HETATM    4  O   UNL     1     -11.676   8.178  71.390  1.00  0.00    -0.272 OA 
BRANCH   4   5
HETATM    5  C   UNL     1     -12.465   9.258  71.617  1.00  0.00    -0.368 C  
HETATM    6  O   UNL     1     -13.377   9.260  72.446  1.00  0.00    -0.445 OA 
BRANCH   5   7
HETATM    7  C   UNL     1     -12.183  10.525  70.759  1.00  0.00    -0.369 C  
HETATM    8  C   UNL     1     -12.875  11.728  71.396  1.00  0.00    -0.440 C  
BRANCH   7   9
HETATM    9  N   UNL     1     -12.422  10.480  69.264  1.00  0.00    -0.717 NA 
HETATM   10  H   UNL     1     -13.149  11.139  68.986  1.00  0.00     0.000 HD 
BRANCH   9  11
HETATM   11  P   UNL     1     -10.939  10.742  68.350  1.00  0.00    -0.295 P  
HETATM   12  O   UNL     1     -10.037  10.081  69.421  1.00  0.00    -0.192 OA 
BRANCH  11  13
HETATM   13  C   UNL     1     -10.116  12.423  68.744  1.00  0.00    -0.055 C  
BRANCH  13  14
HETATM   14  O   UNL     1     -11.085  13.534  68.843  1.00  0.00    -0.252 OA 
BRANCH  14  15
HETATM   15  C   UNL     1     -10.762  14.745  69.579  1.00  0.00    -0.215 C  
HETATM   16  C   UNL     1     -12.029  15.586  69.781  1.00  0.00    -0.384 C  
BRANCH  15  17
HETATM   17  C   UNL     1      -9.570  15.523  69.040  1.00  0.00    -0.238 C  
BRANCH  17  18
HETATM   18  N   UNL     1      -9.838  16.339  67.888  1.00  0.00    -0.234 NA 
HETATM   19  C   UNL     1     -10.083  15.927  66.606  1.00  0.00    -0.279 A  
HETATM   20  N   UNL     1     -10.374  16.938  65.817  1.00  0.00    -0.527 NA 
HETATM   21  C   UNL     1     -10.289  18.045  66.632  1.00  0.00    -0.371 A  
HETATM   22  C   UNL     1     -10.500  19.404  66.384  1.00  0.00    -0.488 A  
HETATM   23  N   UNL     1     -10.268  20.290  67.380  1.00  0.00    -0.391 NA 
HETATM   24  N   UNL     1     -10.928  19.860  65.147  1.00  0.00    -0.140 NA 
HETATM   25  C   UNL     1      -9.890  19.809  68.579  1.00  0.00    -0.404 A  
HETATM   26  H1  UNL     1     -11.082  20.853  64.965  1.00  0.00     0.000 HD 
HETATM   27  H2  UNL     1     -11.785  19.362  64.909  1.00  0.00     0.000 HD 
HETATM   28  N   UNL     1      -9.691  18.525  68.951  1.00  0.00    -0.341 NA 
HETATM   29  C   UNL     1      -9.914  17.701  67.915  1.00  0.00    -0.323 A  
ENDBRANCH  17  18
ENDBRANCH  15  17
ENDBRANCH  14  15
ENDBRANCH  13  14
ENDBRANCH  11  13
BRANCH  11  30
HETATM   30  O   UNL     1     -11.947  11.480  67.152  1.00  0.00    -0.581 OA 
BRANCH  30  31
HETATM   31  C   UNL     1     -11.406  11.607  65.885  1.00  0.00    -0.199 A  
HETATM   32  C   UNL     1     -11.998  12.544  65.039  1.00  0.00    -0.478 A  
HETATM   33  C   UNL     1      -9.870  11.007  64.105  1.00  0.00    -0.360 A  
HETATM   34  C   UNL     1     -10.333  10.841  65.419  1.00  0.00    -0.315 A  
HETATM   35  C   UNL     1     -10.479  11.930  63.257  1.00  0.00    -0.427 A  
HETATM   36  C   UNL     1     -11.542  12.697  63.724  1.00  0.00    -0.550 A  
ENDBRANCH  30  31
ENDBRANCH  11  30
ENDBRANCH   9  11
ENDBRANCH   7   9
ENDBRANCH   5   7
ENDBRANCH   4   5
ENDBRANCH   2   4
TORSDOF 12
ENDMDL
MODEL       12
REMARK 921   NORMALIZED FREE ENERGY PREDICTED BY IDOCK:   -6.61 KCAL/MOL
REMARK 922        TOTAL FREE ENERGY PREDICTED BY IDOCK:  -12.95 KCAL/MOL
REMARK 923 INTER-LIGAND FREE ENERGY PREDICTED BY IDOCK:  -11.14 KCAL/MOL
REMARK 924 INTRA-LIGAND FREE ENERGY PREDICTED BY IDOCK:   -1.81 KCAL/MOL
REMARK 927      BINDING AFFINITY PREDICTED BY RF-SCORE:    0.00 PKD
ROOT
HETATM    1  C   UNL     1     -10.433  17.977  67.958  1.00  0.00    -0.388 C  
HETATM    2  C   UNL     1     -10.702  18.119  66.457  1.00  0.00    -0.151 C  
HETATM    3  C   UNL     1     -10.434  19.556  65.988  1.00  0.00    -0.611 C  
ENDROOT
BRANCH   2   4
HETATM    4  O   UNL     1     -10.076  17.053  65.671  1.00  0.00    -0.554 OA 
BRANCH   4   5
HETATM    5  C   UNL     1     -10.855  16.192  64.970  1.00  0.00    -0.363 C  
HETATM    6  O   UNL     1     -11.518  16.536  63.990  1.00  0.00    -1.137 OA 
BRANCH   5   7
HETATM    7  C   UNL     1     -10.898  14.720  65.469  1.00  0.00    -0.351 C  
HETATM    8  C   UNL     1     -11.505  13.837  64.379  1.00  0.00    -0.392 C  
BRANCH   7   9
HETATM    9  N   UNL     1     -11.497  14.410  66.825  1.00  0.00    -0.357 NA 
HETATM   10  H   UNL     1     -12.355  13.866  66.735  1.00  0.00     0.000 HD 
BRANCH   9  11
HETATM   11  P   UNL     1     -10.343  13.612  67.890  1.00  0.00    -0.260 P  
HETATM   12  O   UNL     1      -9.235  14.667  67.653  1.00  0.00    -0.186 OA 
BRANCH  11  13
HETATM   13  C   UNL     1      -9.265  12.323  66.976  1.00  0.00    -0.205 C  
BRANCH  13  14
HETATM   14  O   UNL     1      -8.946  11.142  67.804  1.00  0.00    -0.135 OA 
BRANCH  14  15
HETATM   15  C   UNL     1      -9.076   9.796  67.269  1.00  0.00    -0.134 C  
HETATM   16  C   UNL     1     -10.525   9.547  66.832  1.00  0.00    -0.279 C  
BRANCH  15  17
HETATM   17  C   UNL     1      -8.486   8.700  68.145  1.00  0.00    -0.131 C  
BRANCH  17  18
HETATM   18  N   UNL     1      -8.995   8.643  69.487  1.00  0.00    -0.143 NA 
HETATM   19  C   UNL     1      -8.584   9.370  70.572  1.00  0.00    -0.223 A  
HETATM   20  N   UNL     1      -9.327   9.127  71.630  1.00  0.00    -0.322 NA 
HETATM   21  C   UNL     1     -10.238   8.187  71.201  1.00  0.00    -0.195 A  
HETATM   22  C   UNL     1     -11.293   7.547  71.855  1.00  0.00    -0.260 A  
HETATM   23  N   UNL     1     -11.989   6.596  71.189  1.00  0.00    -0.362 NA 
HETATM   24  N   UNL     1     -11.634   7.854  73.163  1.00  0.00    -0.599 NA 
HETATM   25  C   UNL     1     -11.656   6.349  69.909  1.00  0.00    -0.353 A  
HETATM   26  H1  UNL     1     -12.405   7.386  73.641  1.00  0.00     0.000 HD 
HETATM   27  H2  UNL     1     -11.798   8.860  73.216  1.00  0.00     0.000 HD 
HETATM   28  N   UNL     1     -10.688   6.925  69.160  1.00  0.00    -0.229 NA 
HETATM   29  C   UNL     1     -10.023   7.839  69.883  1.00  0.00    -0.191 A  
ENDBRANCH  17  18
ENDBRANCH  15  17
ENDBRANCH  14  15
ENDBRANCH  13  14
ENDBRANCH  11  13
BRANCH  11  30
HETATM   30  O   UNL     1     -11.582  12.433  68.155  1.00  0.00    -0.298 OA 
BRANCH  30  31
HETATM   31  C   UNL     1     -12.069  12.331  69.446  1.00  0.00    -0.176 A  
HETATM   32  C   UNL     1     -12.284  11.042  69.938  1.00  0.00    -0.408 A  
HETATM   33  C   UNL     1     -12.894  13.240  71.539  1.00  0.00    -0.419 A  
HETATM   34  C   UNL     1     -12.367  13.432  70.254  1.00  0.00    -0.354 A  
HETATM   35  C   UNL     1     -13.127  11.952  72.017  1.00  0.00    -0.441 A  
HETATM   36  C   UNL     1     -12.823  10.855  71.216  1.00  0.00    -0.536 A  
ENDBRANCH  30  31
ENDBRANCH  11  30
ENDBRANCH   9  11
ENDBRANCH   7   9
ENDBRANCH   5   7
ENDBRANCH   4   5
ENDBRANCH   2   4
TORSDOF 12
ENDMDL
MODEL       13
REMARK 921   NORMALIZED FREE ENERGY PREDICTED BY IDOCK:   -6.58 KCAL/MOL
REMARK 922        TOTAL FREE ENERGY PREDICTED BY IDOCK:  -12.92 KCAL/MOL
REMARK 923 INTER-LIGAND FREE ENERGY PREDICTED BY IDOCK:  -11.17 KCAL/MOL
REMARK 924 INTRA-LIGAND FREE ENERGY PREDICTED BY IDOCK:   -1.75 KCAL/MOL
REMARK 927      BINDING AFFINITY PREDICTED BY RF-SCORE:    0.00 PKD
ROOT
HETATM    1  C   UNL     1     -11.986   6.249  72.162  1.00  0.00    -0.338 C  
HETATM    2  C   UNL     1     -12.688   7.454  71.533  1.00  0.00    -0.372 C  
HETATM    3  C   UNL     1     -14.213   7.276  71.564  1.00  0.00    -0.540 C  
ENDROOT
BRANCH   2   4
HETATM    4  O   UNL     1     -12.174   8.730  72.038  1.00  0.00    -0.329 OA 
BRANCH   4   5
HETATM    5  C   UNL     1     -11.182   9.365  71.366  1.00  0.00    -0.381 C  
HETATM    6  O   UNL     1      -9.993   9.060  71.479  1.00  0.00    -0.295 OA 
BRANCH   5   7
HETATM    7  C   UNL     1     -11.605  10.537  70.434  1.00  0.00    -0.342 C  
HETATM    8  C   UNL     1     -12.672  11.377  71.135  1.00  0.00    -0.479 C  
BRANCH   7   9
HETATM    9  N   UNL     1     -11.989  10.245  68.999  1.00  0.00    -0.609 NA 
HETATM   10  H   UNL     1     -12.895  10.653  68.768  1.00  0.00     0.000 HD 
BRANCH   9  11
HETATM   11  P   UNL     1     -10.747  10.765  67.864  1.00  0.00    -0.284 P  
HETATM   12  O   UNL     1      -9.779   9.613  68.233  1.00  0.00    -0.143 OA 
BRANCH  11  13
HETATM   13  C   UNL     1      -9.513  12.004  68.638  1.00  0.00    -0.062 C  
BRANCH  13  14
HETATM   14  O   UNL     1      -8.422  12.389  67.718  1.00  0.00    -0.148 OA 
BRANCH  14  15
HETATM   15  C   UNL     1      -8.148  13.786  67.425  1.00  0.00    -0.177 C  
HETATM   16  C   UNL     1      -6.688  14.113  67.765  1.00  0.00    -0.190 C  
BRANCH  15  17
HETATM   17  C   UNL     1      -9.162  14.770  67.992  1.00  0.00    -0.194 C  
BRANCH  17  18
HETATM   18  N   UNL     1      -9.595  15.797  67.086  1.00  0.00    -0.216 NA 
HETATM   19  C   UNL     1      -9.908  15.669  65.759  1.00  0.00    -0.351 A  
HETATM   20  N   UNL     1     -10.351  16.799  65.253  1.00  0.00    -0.643 NA 
HETATM   21  C   UNL     1     -10.297  17.690  66.302  1.00  0.00    -0.342 A  
HETATM   22  C   UNL     1     -10.646  19.039  66.397  1.00  0.00    -0.409 A  
HETATM   23  N   UNL     1     -10.413  19.691  67.560  1.00  0.00    -0.448 NA 
HETATM   24  N   UNL     1     -11.214  19.722  65.333  1.00  0.00    -0.152 NA 
HETATM   25  C   UNL     1      -9.895  18.988  68.586  1.00  0.00    -0.413 A  
HETATM   26  H1  UNL     1     -11.469  20.708  65.402  1.00  0.00     0.000 HD 
HETATM   27  H2  UNL     1     -12.041  19.205  65.035  1.00  0.00     0.000 HD 
HETATM   28  N   UNL     1      -9.554  17.681  68.628  1.00  0.00    -0.304 NA 
HETATM   29  C   UNL     1      -9.788  17.100  67.441  1.00  0.00    -0.264 A  
ENDBRANCH  17  18
ENDBRANCH  15  17
ENDBRANCH  14  15
ENDBRANCH  13  14
ENDBRANCH  11  13
BRANCH  11  30
HETATM   30  O   UNL     1     -11.828  12.051  67.451  1.00  0.00    -0.546 OA 
BRANCH  30  31
HETATM   31  C   UNL     1     -11.916  12.375  66.108  1.00  0.00    -0.327 A  
HETATM   32  C   UNL     1     -11.159  11.605  65.224  1.00  0.00    -0.298 A  
HETATM   33  C   UNL     1     -12.696  13.710  64.239  1.00  0.00    -0.049 A  
HETATM   34  C   UNL     1     -12.693  13.426  65.612  1.00  0.00    -0.432 A  
HETATM   35  C   UNL     1     -11.922  12.952  63.362  1.00  0.00    -0.612 A  
HETATM   36  C   UNL     1     -11.154  11.901  63.856  1.00  0.00    -0.483 A  
ENDBRANCH  30  31
ENDBRANCH  11  30
ENDBRANCH   9  11
ENDBRANCH   7   9
ENDBRANCH   5   7
ENDBRANCH   4   5
ENDBRANCH   2   4
TORSDOF 12
ENDMDL
MODEL       14
REMARK 921   NORMALIZED FREE ENERGY PREDICTED BY IDOCK:   -6.58 KCAL/MOL
REMARK 922        TOTAL FREE ENERGY PREDICTED BY IDOCK:  -12.90 KCAL/MOL
REMARK 923 INTER-LIGAND FREE ENERGY PREDICTED BY IDOCK:  -11.84 KCAL/MOL
REMARK 924 INTRA-LIGAND FREE ENERGY PREDICTED BY IDOCK:   -1.06 KCAL/MOL
REMARK 927      BINDING AFFINITY PREDICTED BY RF-SCORE:    0.00 PKD
ROOT
HETATM    1  C   UNL     1     -10.960   6.062  71.619  1.00  0.00    -0.328 C  
HETATM    2  C   UNL     1     -11.397   7.445  72.109  1.00  0.00    -0.271 C  
HETATM    3  C   UNL     1     -10.224   8.189  72.762  1.00  0.00    -0.372 C  
ENDROOT
BRANCH   2   4
HETATM    4  O   UNL     1     -12.152   8.186  71.096  1.00  0.00    -0.299 OA 
BRANCH   4   5
HETATM    5  C   UNL     1     -12.782   9.337  71.439  1.00  0.00    -0.330 C  
HETATM    6  O   UNL     1     -13.670   9.386  72.292  1.00  0.00    -0.451 OA 
BRANCH   5   7
HETATM    7  C   UNL     1     -12.344  10.627  70.688  1.00  0.00    -0.369 C  
HETATM    8  C   UNL     1     -12.959  11.844  71.378  1.00  0.00    -0.385 C  
BRANCH   7   9
HETATM    9  N   UNL     1     -12.510  10.706  69.185  1.00  0.00    -0.737 NA 
HETATM   10  H   UNL     1     -13.305  11.291  68.930  1.00  0.00     0.000 HD 
BRANCH   9  11
HETATM   11  P   UNL     1     -11.035  11.245  68.386  1.00  0.00    -0.270 P  
HETATM   12  O   UNL     1     -10.102  10.545  69.404  1.00  0.00    -0.222 OA 
BRANCH  11  13
HETATM   13  C   UNL     1     -10.421  12.936  69.036  1.00  0.00     0.009 C  
BRANCH  13  14
HETATM   14  O   UNL     1      -9.421  13.569  68.151  1.00  0.00    -0.204 OA 
BRANCH  14  15
HETATM   15  C   UNL     1      -9.432  15.003  67.915  1.00  0.00    -0.195 C  
HETATM   16  C   UNL     1      -8.755  15.317  66.575  1.00  0.00    -0.314 C  
BRANCH  15  17
HETATM   17  C   UNL     1      -8.940  15.848  69.082  1.00  0.00    -0.256 C  
BRANCH  17  18
HETATM   18  N   UNL     1      -8.303  17.084  68.721  1.00  0.00    -0.253 NA 
HETATM   19  C   UNL     1      -6.964  17.371  68.725  1.00  0.00    -0.236 A  
HETATM   20  N   UNL     1      -6.724  18.575  68.254  1.00  0.00    -0.219 NA 
HETATM   21  C   UNL     1      -7.969  19.082  67.957  1.00  0.00    -0.289 A  
HETATM   22  C   UNL     1      -8.371  20.306  67.415  1.00  0.00    -0.340 A  
HETATM   23  N   UNL     1      -9.695  20.561  67.299  1.00  0.00    -0.464 NA 
HETATM   24  N   UNL     1      -7.452  21.259  67.005  1.00  0.00    -0.788 NA 
HETATM   25  C   UNL     1     -10.560  19.599  67.670  1.00  0.00    -0.423 A  
HETATM   26  H1  UNL     1      -7.745  22.153  66.609  1.00  0.00     0.000 HD 
HETATM   27  H2  UNL     1      -6.817  20.816  66.341  1.00  0.00     0.000 HD 
HETATM   28  N   UNL     1     -10.295  18.370  68.169  1.00  0.00    -0.375 NA 
HETATM   29  C   UNL     1      -8.970  18.189  68.280  1.00  0.00    -0.296 A  
ENDBRANCH  17  18
ENDBRANCH  15  17
ENDBRANCH  14  15
ENDBRANCH  13  14
ENDBRANCH  11  13
BRANCH  11  30
HETATM   30  O   UNL     1     -12.079  12.027  67.248  1.00  0.00    -0.572 OA 
BRANCH  30  31
HETATM   31  C   UNL     1     -11.653  12.041  65.931  1.00  0.00    -0.300 A  
HETATM   32  C   UNL     1     -12.443  12.746  65.022  1.00  0.00    -0.572 A  
HETATM   33  C   UNL     1     -10.169  11.414  64.117  1.00  0.00    -0.376 A  
HETATM   34  C   UNL     1     -10.508  11.380  65.477  1.00  0.00    -0.322 A  
HETATM   35  C   UNL     1     -10.973  12.101  63.210  1.00  0.00    -0.398 A  
HETATM   36  C   UNL     1     -12.109  12.766  63.663  1.00  0.00    -0.624 A  
ENDBRANCH  30  31
ENDBRANCH  11  30
ENDBRANCH   9  11
ENDBRANCH   7   9
ENDBRANCH   5   7
ENDBRANCH   4   5
ENDBRANCH   2   4
TORSDOF 12
ENDMDL
MODEL       15
REMARK 921   NORMALIZED FREE ENERGY PREDICTED BY IDOCK:   -6.54 KCAL/MOL
REMARK 922        TOTAL FREE ENERGY PREDICTED BY IDOCK:  -12.85 KCAL/MOL
REMARK 923 INTER-LIGAND FREE ENERGY PREDICTED BY IDOCK:  -10.99 KCAL/MOL
REMARK 924 INTRA-LIGAND FREE ENERGY PREDICTED BY IDOCK:   -1.86 KCAL/MOL
REMARK 927      BINDING AFFINITY PREDICTED BY RF-SCORE:    0.00 PKD
ROOT
HETATM    1  C   UNL     1     -10.516   6.116  71.522  1.00  0.00    -0.268 C  
HETATM    2  C   UNL     1     -10.789   6.976  70.286  1.00  0.00    -0.254 C  
HETATM    3  C   UNL     1     -11.115   6.098  69.070  1.00  0.00    -0.437 C  
ENDROOT
BRANCH   2   4
HETATM    4  O   UNL     1     -11.718   8.075  70.560  1.00  0.00    -0.206 OA 
BRANCH   4   5
HETATM    5  C   UNL     1     -11.248   9.234  71.083  1.00  0.00    -0.343 C  
HETATM    6  O   UNL     1     -10.222   9.296  71.763  1.00  0.00    -0.311 OA 
BRANCH   5   7
HETATM    7  C   UNL     1     -12.081  10.518  70.805  1.00  0.00    -0.370 C  
HETATM    8  C   UNL     1     -13.271  10.564  71.762  1.00  0.00    -0.522 C  
BRANCH   7   9
HETATM    9  N   UNL     1     -12.504  10.838  69.386  1.00  0.00    -0.649 NA 
HETATM   10  H   UNL     1     -13.402  11.321  69.367  1.00  0.00     0.000 HD 
BRANCH   9  11
HETATM   11  P   UNL     1     -11.271  11.750  68.519  1.00  0.00    -0.309 P  
HETATM   12  O   UNL     1     -11.222  12.886  69.570  1.00  0.00    -0.185 OA 
BRANCH  11  13
HETATM   13  C   UNL     1     -12.014  12.987  67.264  1.00  0.00    -0.321 C  
BRANCH  13  14
HETATM   14  O   UNL     1     -12.449  12.347  66.006  1.00  0.00    -0.551 OA 
BRANCH  14  15
HETATM   15  C   UNL     1     -12.090  12.912  64.716  1.00  0.00    -0.422 C  
HETATM   16  C   UNL     1     -12.351  11.886  63.606  1.00  0.00    -0.591 C  
BRANCH  15  17
HETATM   17  C   UNL     1     -10.714  13.562  64.662  1.00  0.00    -0.416 C  
BRANCH  17  18
HETATM   18  N   UNL     1     -10.700  14.988  64.832  1.00  0.00    -0.415 NA 
HETATM   19  C   UNL     1     -11.455  15.920  64.172  1.00  0.00    -0.052 A  
HETATM   20  N   UNL     1     -11.248  17.132  64.638  1.00  0.00    -0.959 NA 
HETATM   21  C   UNL     1     -10.302  16.964  65.624  1.00  0.00    -0.237 A  
HETATM   22  C   UNL     1      -9.688  17.872  66.491  1.00  0.00    -0.329 A  
HETATM   23  N   UNL     1      -8.723  17.422  67.326  1.00  0.00    -0.220 NA 
HETATM   24  N   UNL     1     -10.035  19.214  66.506  1.00  0.00    -0.356 NA 
HETATM   25  C   UNL     1      -8.437  16.107  67.312  1.00  0.00    -0.180 A  
HETATM   26  H1  UNL     1      -9.587  19.877  67.139  1.00  0.00     0.000 HD 
HETATM   27  H2  UNL     1     -11.043  19.274  66.653  1.00  0.00     0.000 HD 
HETATM   28  N   UNL     1      -8.984  15.130  66.553  1.00  0.00    -0.286 NA 
HETATM   29  C   UNL     1      -9.914  15.644  65.734  1.00  0.00    -0.359 A  
ENDBRANCH  17  18
ENDBRANCH  15  17
ENDBRANCH  14  15
ENDBRANCH  13  14
ENDBRANCH  11  13
BRANCH  11  30
HETATM   30  O   UNL     1     -11.324  10.479  67.345  1.00  0.00    -0.381 OA 
BRANCH  30  31
HETATM   31  C   UNL     1     -10.263   9.591  67.350  1.00  0.00    -0.227 A  
HETATM   32  C   UNL     1      -9.290   9.779  68.332  1.00  0.00    -0.135 A  
HETATM   33  C   UNL     1      -8.986   7.722  66.476  1.00  0.00    -0.191 A  
HETATM   34  C   UNL     1     -10.114   8.554  66.424  1.00  0.00    -0.271 A  
HETATM   35  C   UNL     1      -8.007   7.926  67.446  1.00  0.00    -0.122 A  
HETATM   36  C   UNL     1      -8.159   8.955  68.372  1.00  0.00    -0.109 A  
ENDBRANCH  30  31
ENDBRANCH  11  30
ENDBRANCH   9  11
ENDBRANCH   7   9
ENDBRANCH   5   7
ENDBRANCH   4   5
ENDBRANCH   2   4
TORSDOF 12
ENDMDL
MODEL       16
REMARK 921   NORMALIZED FREE ENERGY PREDICTED BY IDOCK:   -6.52 KCAL/MOL
REMARK 922        TOTAL FREE ENERGY PREDICTED BY IDOCK:  -12.80 KCAL/MOL
REMARK 923 INTER-LIGAND FREE ENERGY PREDICTED BY IDOCK:  -11.18 KCAL/MOL
REMARK 924 INTRA-LIGAND FREE ENERGY PREDICTED BY IDOCK:   -1.62 KCAL/MOL
REMARK 927      BINDING AFFINITY PREDICTED BY RF-SCORE:    0.00 PKD
ROOT
HETATM    1  C   UNL     1     -11.592  16.036  64.222  1.00  0.00    -0.139 C  
HETATM    2  C   UNL     1     -10.974  15.082  65.246  1.00  0.00    -0.382 C  
HETATM    3  C   UNL     1     -11.284  13.621  64.890  1.00  0.00    -0.349 C  
ENDROOT
BRANCH   2   4
HETATM    4  O   UNL     1      -9.571  15.396  65.531  1.00  0.00    -0.313 OA 
BRANCH   4   5
HETATM    5  C   UNL     1      -9.253  16.585  66.099  1.00  0.00    -0.303 C  
HETATM    6  O   UNL     1      -8.353  17.312  65.674  1.00  0.00    -0.475 OA 
BRANCH   5   7
HETATM    7  C   UNL     1     -10.074  17.005  67.352  1.00  0.00    -0.291 C  
HETATM    8  C   UNL     1     -10.773  18.335  67.072  1.00  0.00    -0.305 C  
BRANCH   7   9
HETATM    9  N   UNL     1      -9.408  17.009  68.711  1.00  0.00    -0.266 NA 
HETATM   10  H   UNL     1      -9.665  17.838  69.247  1.00  0.00     0.000 HD 
BRANCH   9  11
HETATM   11  P   UNL     1      -9.744  15.535  69.615  1.00  0.00    -0.111 P  
HETATM   12  O   UNL     1      -8.259  15.099  69.660  1.00  0.00    -0.210 OA 
BRANCH  11  13
HETATM   13  C   UNL     1     -10.113  14.041  68.479  1.00  0.00    -0.236 C  
BRANCH  13  14
HETATM   14  O   UNL     1      -9.092  12.977  68.570  1.00  0.00    -0.157 OA 
BRANCH  14  15
HETATM   15  C   UNL     1      -9.476  11.580  68.684  1.00  0.00    -0.141 C  
HETATM   16  C   UNL     1      -8.592  10.720  67.771  1.00  0.00    -0.127 C  
BRANCH  15  17
HETATM   17  C   UNL     1     -10.968  11.312  68.548  1.00  0.00    -0.220 C  
BRANCH  17  18
HETATM   18  N   UNL     1     -11.662  11.057  69.780  1.00  0.00    -0.303 NA 
HETATM   19  C   UNL     1     -12.327  11.955  70.572  1.00  0.00    -0.284 A  
HETATM   20  N   UNL     1     -12.922  11.363  71.584  1.00  0.00    -0.453 NA 
HETATM   21  C   UNL     1     -12.601  10.031  71.440  1.00  0.00    -0.415 A  
HETATM   22  C   UNL     1     -12.946   8.904  72.190  1.00  0.00    -0.416 A  
HETATM   23  N   UNL     1     -12.416   7.707  71.846  1.00  0.00    -0.311 NA 
HETATM   24  N   UNL     1     -13.803   8.985  73.277  1.00  0.00    -1.163 NA 
HETATM   25  C   UNL     1     -11.617   7.658  70.763  1.00  0.00    -0.265 A  
HETATM   26  H1  UNL     1     -14.055   8.162  73.825  1.00  0.00     0.000 HD 
HETATM   27  H2  UNL     1     -14.667   9.426  72.961  1.00  0.00     0.000 HD 
HETATM   28  N   UNL     1     -11.244   8.663  69.940  1.00  0.00    -0.117 NA 
HETATM   29  C   UNL     1     -11.783   9.822  70.349  1.00  0.00    -0.231 A  
ENDBRANCH  17  18
ENDBRANCH  15  17
ENDBRANCH  14  15
ENDBRANCH  13  14
ENDBRANCH  11  13
BRANCH  11  30
HETATM   30  O   UNL     1     -11.403  16.023  69.566  1.00  0.00    -0.318 OA 
BRANCH  30  31
HETATM   31  C   UNL     1     -12.145  15.798  70.712  1.00  0.00    -0.408 A  
HETATM   32  C   UNL     1     -13.411  15.236  70.543  1.00  0.00    -0.128 A  
HETATM   33  C   UNL     1     -12.537  15.897  73.105  1.00  0.00    -0.622 A  
HETATM   34  C   UNL     1     -11.704  16.122  71.999  1.00  0.00    -0.574 A  
HETATM   35  C   UNL     1     -13.808  15.353  72.928  1.00  0.00    -0.493 A  
HETATM   36  C   UNL     1     -14.244  15.024  71.648  1.00  0.00    -0.649 A  
ENDBRANCH  30  31
ENDBRANCH  11  30
ENDBRANCH   9  11
ENDBRANCH   7   9
ENDBRANCH   5   7
ENDBRANCH   4   5
ENDBRANCH   2   4
TORSDOF 12
ENDMDL
MODEL       17
REMARK 921   NORMALIZED FREE ENERGY PREDICTED BY IDOCK:   -6.51 KCAL/MOL
REMARK 922        TOTAL FREE ENERGY PREDICTED BY IDOCK:  -12.79 KCAL/MOL
REMARK 923 INTER-LIGAND FREE ENERGY PREDICTED BY IDOCK:  -11.69 KCAL/MOL
REMARK 924 INTRA-LIGAND FREE ENERGY PREDICTED BY IDOCK:   -1.10 KCAL/MOL
REMARK 927      BINDING AFFINITY PREDICTED BY RF-SCORE:    0.00 PKD
ROOT
HETATM    1  C   UNL     1     -11.867  11.948  63.328  1.00  0.00    -0.418 C  
HETATM    2  C   UNL     1     -10.763  12.177  64.363  1.00  0.00    -0.323 C  
HETATM    3  C   UNL     1      -9.770  11.006  64.371  1.00  0.00    -0.330 C  
ENDROOT
BRANCH   2   4
HETATM    4  O   UNL     1     -10.182  13.520  64.277  1.00  0.00    -0.368 OA 
BRANCH   4   5
HETATM    5  C   UNL     1     -10.758  14.543  64.955  1.00  0.00    -0.429 C  
HETATM    6  O   UNL     1     -10.671  15.718  64.595  1.00  0.00    -0.497 OA 
BRANCH   5   7
HETATM    7  C   UNL     1     -11.539  14.176  66.249  1.00  0.00    -0.370 C  
HETATM    8  C   UNL     1     -13.015  13.975  65.906  1.00  0.00    -0.223 C  
BRANCH   7   9
HETATM    9  N   UNL     1     -11.374  15.031  67.487  1.00  0.00    -0.331 NA 
HETATM   10  H   UNL     1     -12.233  15.535  67.707  1.00  0.00     0.000 HD 
BRANCH   9  11
HETATM   11  P   UNL     1     -10.813  14.093  68.868  1.00  0.00    -0.235 P  
HETATM   12  O   UNL     1      -9.361  13.989  68.341  1.00  0.00    -0.207 OA 
BRANCH  11  13
HETATM   13  C   UNL     1     -11.007  12.208  68.608  1.00  0.00    -0.245 C  
BRANCH  13  14
HETATM   14  O   UNL     1      -9.734  11.533  68.282  1.00  0.00    -0.185 OA 
BRANCH  14  15
HETATM   15  C   UNL     1      -9.579  10.099  68.466  1.00  0.00    -0.154 C  
HETATM   16  C   UNL     1     -10.590   9.349  67.589  1.00  0.00    -0.333 C  
BRANCH  15  17
HETATM   17  C   UNL     1      -9.541   9.640  69.917  1.00  0.00    -0.230 C  
BRANCH  17  18
HETATM   18  N   UNL     1     -10.557   8.694  70.289  1.00  0.00    -0.217 NA 
HETATM   19  C   UNL     1     -10.559   7.340  70.084  1.00  0.00    -0.232 A  
HETATM   20  N   UNL     1     -11.609   6.768  70.630  1.00  0.00    -0.349 NA 
HETATM   21  C   UNL     1     -12.316   7.809  71.188  1.00  0.00    -0.247 A  
HETATM   22  C   UNL     1     -13.509   7.841  71.916  1.00  0.00    -0.266 A  
HETATM   23  N   UNL     1     -14.014   9.042  72.285  1.00  0.00    -0.463 NA 
HETATM   24  N   UNL     1     -14.186   6.680  72.258  1.00  0.00    -0.566 NA 
HETATM   25  C   UNL     1     -13.312  10.146  71.969  1.00  0.00    -0.387 A  
HETATM   26  H1  UNL     1     -15.056   6.703  72.789  1.00  0.00     0.000 HD 
HETATM   27  H2  UNL     1     -13.533   6.072  72.753  1.00  0.00     0.000 HD 
HETATM   28  N   UNL     1     -12.136  10.242  71.308  1.00  0.00    -0.377 NA 
HETATM   29  C   UNL     1     -11.703   9.023  70.952  1.00  0.00    -0.276 A  
ENDBRANCH  17  18
ENDBRANCH  15  17
ENDBRANCH  14  15
ENDBRANCH  13  14
ENDBRANCH  11  13
BRANCH  11  30
HETATM   30  O   UNL     1     -12.435  14.211  69.458  1.00  0.00    -0.298 OA 
BRANCH  30  31
HETATM   31  C   UNL     1     -12.594  14.747  70.723  1.00  0.00    -0.349 A  
HETATM   32  C   UNL     1     -13.895  14.811  71.222  1.00  0.00    -0.460 A  
HETATM   33  C   UNL     1     -11.790  15.800  72.756  1.00  0.00    -0.584 A  
HETATM   34  C   UNL     1     -11.537  15.236  71.497  1.00  0.00    -0.456 A  
HETATM   35  C   UNL     1     -13.094  15.880  73.241  1.00  0.00    -0.694 A  
HETATM   36  C   UNL     1     -14.145  15.386  72.473  1.00  0.00    -0.593 A  
ENDBRANCH  30  31
ENDBRANCH  11  30
ENDBRANCH   9  11
ENDBRANCH   7   9
ENDBRANCH   5   7
ENDBRANCH   4   5
ENDBRANCH   2   4
TORSDOF 12
ENDMDL
MODEL       18
REMARK 921   NORMALIZED FREE ENERGY PREDICTED BY IDOCK:   -6.49 KCAL/MOL
REMARK 922        TOTAL FREE ENERGY PREDICTED BY IDOCK:  -12.76 KCAL/MOL
REMARK 923 INTER-LIGAND FREE ENERGY PREDICTED BY IDOCK:  -11.55 KCAL/MOL
REMARK 924 INTRA-LIGAND FREE ENERGY PREDICTED BY IDOCK:   -1.21 KCAL/MOL
REMARK 927      BINDING AFFINITY PREDICTED BY RF-SCORE:    0.00 PKD
ROOT
HETATM    1  C   UNL     1     -10.534   5.344  71.722  1.00  0.00    -0.288 C  
HETATM    2  C   UNL     1     -10.457   6.597  70.845  1.00  0.00    -0.215 C  
HETATM    3  C   UNL     1     -11.325   6.438  69.589  1.00  0.00    -0.479 C  
ENDROOT
BRANCH   2   4
HETATM    4  O   UNL     1     -10.646   7.831  71.612  1.00  0.00    -0.211 OA 
BRANCH   4   5
HETATM    5  C   UNL     1     -10.362   9.026  71.038  1.00  0.00    -0.278 C  
HETATM    6  O   UNL     1      -9.213   9.389  70.778  1.00  0.00    -0.247 OA 
BRANCH   5   7
HETATM    7  C   UNL     1     -11.568   9.957  70.725  1.00  0.00    -0.349 C  
HETATM    8  C   UNL     1     -12.763   9.537  71.579  1.00  0.00    -0.461 C  
BRANCH   7   9
HETATM    9  N   UNL     1     -11.975  10.190  69.285  1.00  0.00    -0.498 NA 
HETATM   10  H   UNL     1     -12.903   9.810  69.096  1.00  0.00     0.000 HD 
BRANCH   9  11
HETATM   11  P   UNL     1     -11.879  11.891  68.838  1.00  0.00    -0.209 P  
HETATM   12  O   UNL     1     -12.024  11.610  67.323  1.00  0.00    -0.627 OA 
BRANCH  11  13
HETATM   13  C   UNL     1     -10.083  12.471  68.525  1.00  0.00    -0.181 C  
BRANCH  13  14
HETATM   14  O   UNL     1     -10.007  13.759  67.804  1.00  0.00    -0.232 OA 
BRANCH  14  15
HETATM   15  C   UNL     1      -8.823  14.597  67.893  1.00  0.00    -0.170 C  
HETATM   16  C   UNL     1      -7.562  13.738  67.734  1.00  0.00    -0.173 C  
BRANCH  15  17
HETATM   17  C   UNL     1      -8.795  15.540  69.088  1.00  0.00    -0.253 C  
BRANCH  17  18
HETATM   18  N   UNL     1      -8.263  16.849  68.827  1.00  0.00    -0.249 NA 
HETATM   19  C   UNL     1      -6.991  17.300  69.059  1.00  0.00    -0.235 A  
HETATM   20  N   UNL     1      -6.824  18.528  68.620  1.00  0.00    -0.256 NA 
HETATM   21  C   UNL     1      -8.052  18.879  68.106  1.00  0.00    -0.302 A  
HETATM   22  C   UNL     1      -8.503  20.048  67.487  1.00  0.00    -0.339 A  
HETATM   23  N   UNL     1      -9.808  20.138  67.140  1.00  0.00    -0.419 NA 
HETATM   24  N   UNL     1      -7.652  21.112  67.230  1.00  0.00    -0.672 NA 
HETATM   25  C   UNL     1     -10.598  19.072  67.369  1.00  0.00    -0.474 A  
HETATM   26  H1  UNL     1      -7.981  21.966  66.778  1.00  0.00     0.000 HD 
HETATM   27  H2  UNL     1      -6.862  20.757  66.691  1.00  0.00     0.000 HD 
HETATM   28  N   UNL     1     -10.273  17.881  67.922  1.00  0.00    -0.352 NA 
HETATM   29  C   UNL     1      -8.976  17.866  68.262  1.00  0.00    -0.275 A  
ENDBRANCH  17  18
ENDBRANCH  15  17
ENDBRANCH  14  15
ENDBRANCH  13  14
ENDBRANCH  11  13
BRANCH  11  30
HETATM   30  O   UNL     1     -11.718  12.206  70.533  1.00  0.00    -0.205 OA 
BRANCH  30  31
HETATM   31  C   UNL     1     -12.412  13.296  71.025  1.00  0.00    -0.336 A  
HETATM   32  C   UNL     1     -13.320  13.051  72.057  1.00  0.00    -0.588 A  
HETATM   33  C   UNL     1     -13.038  15.640  71.066  1.00  0.00    -0.487 A  
HETATM   34  C   UNL     1     -12.265  14.597  70.535  1.00  0.00    -0.389 A  
HETATM   35  C   UNL     1     -13.958  15.386  72.081  1.00  0.00    -0.649 A  
HETATM   36  C   UNL     1     -14.098  14.092  72.575  1.00  0.00    -0.452 A  
ENDBRANCH  30  31
ENDBRANCH  11  30
ENDBRANCH   9  11
ENDBRANCH   7   9
ENDBRANCH   5   7
ENDBRANCH   4   5
ENDBRANCH   2   4
TORSDOF 12
ENDMDL
MODEL       19
REMARK 921   NORMALIZED FREE ENERGY PREDICTED BY IDOCK:   -6.47 KCAL/MOL
REMARK 922        TOTAL FREE ENERGY PREDICTED BY IDOCK:  -12.72 KCAL/MOL
REMARK 923 INTER-LIGAND FREE ENERGY PREDICTED BY IDOCK:  -10.93 KCAL/MOL
REMARK 924 INTRA-LIGAND FREE ENERGY PREDICTED BY IDOCK:   -1.80 KCAL/MOL
REMARK 927      BINDING AFFINITY PREDICTED BY RF-SCORE:    0.00 PKD
ROOT
HETATM    1  C   UNL     1     -10.520   7.251  73.640  1.00  0.00    -0.391 C  
HETATM    2  C   UNL     1     -11.026   7.552  72.228  1.00  0.00    -0.262 C  
HETATM    3  C   UNL     1     -12.042   6.494  71.774  1.00  0.00    -0.393 C  
ENDROOT
BRANCH   2   4
HETATM    4  O   UNL     1     -11.429   8.951  72.062  1.00  0.00    -0.352 OA 
BRANCH   4   5
HETATM    5  C   UNL     1     -10.973   9.658  70.999  1.00  0.00    -0.361 C  
HETATM    6  O   UNL     1      -9.918   9.390  70.419  1.00  0.00    -0.216 OA 
BRANCH   5   7
HETATM    7  C   UNL     1     -11.840  10.862  70.533  1.00  0.00    -0.360 C  
HETATM    8  C   UNL     1     -12.999  11.056  71.510  1.00  0.00    -0.553 C  
BRANCH   7   9
HETATM    9  N   UNL     1     -12.315  10.926  69.096  1.00  0.00    -0.693 NA 
HETATM   10  H   UNL     1     -13.274  11.267  69.038  1.00  0.00     0.000 HD 
BRANCH   9  11
HETATM   11  P   UNL     1     -11.235  11.882  68.085  1.00  0.00    -0.312 P  
HETATM   12  O   UNL     1     -11.536  13.204  68.832  1.00  0.00    -0.268 OA 
BRANCH  11  13
HETATM   13  C   UNL     1     -12.109  12.594  66.540  1.00  0.00    -0.225 C  
BRANCH  13  14
HETATM   14  O   UNL     1     -11.808  14.023  66.310  1.00  0.00    -0.372 OA 
BRANCH  14  15
HETATM   15  C   UNL     1     -10.835  14.431  65.311  1.00  0.00    -0.361 C  
HETATM   16  C   UNL     1     -10.566  13.273  64.341  1.00  0.00    -0.438 C  
BRANCH  15  17
HETATM   17  C   UNL     1      -9.580  15.088  65.870  1.00  0.00    -0.321 C  
BRANCH  17  18
HETATM   18  N   UNL     1      -9.805  16.068  66.897  1.00  0.00    -0.239 NA 
HETATM   19  C   UNL     1      -9.681  15.908  68.251  1.00  0.00    -0.209 A  
HETATM   20  N   UNL     1      -9.879  17.038  68.893  1.00  0.00    -0.274 NA 
HETATM   21  C   UNL     1     -10.163  17.951  67.903  1.00  0.00    -0.371 A  
HETATM   22  C   UNL     1     -10.447  19.319  67.949  1.00  0.00    -0.410 A  
HETATM   23  N   UNL     1     -10.762  19.957  66.798  1.00  0.00    -0.431 NA 
HETATM   24  N   UNL     1     -10.423  20.028  69.141  1.00  0.00    -0.527 NA 
HETATM   25  C   UNL     1     -10.739  19.247  65.655  1.00  0.00    -0.251 A  
HETATM   26  H1  UNL     1     -10.631  21.026  69.175  1.00  0.00     0.000 HD 
HETATM   27  H2  UNL     1      -9.510  19.883  69.572  1.00  0.00     0.000 HD 
HETATM   28  N   UNL     1     -10.444  17.939  65.477  1.00  0.00    -0.631 NA 
HETATM   29  C   UNL     1     -10.165  17.361  66.655  1.00  0.00    -0.324 A  
ENDBRANCH  17  18
ENDBRANCH  15  17
ENDBRANCH  14  15
ENDBRANCH  13  14
ENDBRANCH  11  13
BRANCH  11  30
HETATM   30  O   UNL     1     -10.898  10.403  67.252  1.00  0.00    -0.276 OA 
BRANCH  30  31
HETATM   31  C   UNL     1      -9.706  10.350  66.550  1.00  0.00    -0.194 A  
HETATM   32  C   UNL     1      -8.593  10.936  67.154  1.00  0.00    -0.130 A  
HETATM   33  C   UNL     1      -8.338   9.792  64.626  1.00  0.00    -0.165 A  
HETATM   34  C   UNL     1      -9.575   9.769  65.285  1.00  0.00    -0.368 A  
HETATM   35  C   UNL     1      -7.234  10.397  65.225  1.00  0.00    -0.106 A  
HETATM   36  C   UNL     1      -7.363  10.968  66.487  1.00  0.00    -0.144 A  
ENDBRANCH  30  31
ENDBRANCH  11  30
ENDBRANCH   9  11
ENDBRANCH   7   9
ENDBRANCH   5   7
ENDBRANCH   4   5
ENDBRANCH   2   4
TORSDOF 12
ENDMDL
MODEL       20
REMARK 921   NORMALIZED FREE ENERGY PREDICTED BY IDOCK:   -6.45 KCAL/MOL
REMARK 922        TOTAL FREE ENERGY PREDICTED BY IDOCK:  -12.69 KCAL/MOL
REMARK 923 INTER-LIGAND FREE ENERGY PREDICTED BY IDOCK:  -11.22 KCAL/MOL
REMARK 924 INTRA-LIGAND FREE ENERGY PREDICTED BY IDOCK:   -1.48 KCAL/MOL
REMARK 927      BINDING AFFINITY PREDICTED BY RF-SCORE:    0.00 PKD
ROOT
HETATM    1  C   UNL     1      -8.502   6.026  69.609  1.00  0.00    -0.126 C  
HETATM    2  C   UNL     1      -9.730   6.935  69.511  1.00  0.00    -0.158 C  
HETATM    3  C   UNL     1     -11.013   6.106  69.357  1.00  0.00    -0.454 C  
ENDROOT
BRANCH   2   4
HETATM    4  O   UNL     1      -9.746   7.969  70.549  1.00  0.00    -0.177 OA 
BRANCH   4   5
HETATM    5  C   UNL     1      -9.057   9.121  70.358  1.00  0.00    -0.233 C  
HETATM    6  O   UNL     1      -8.128   9.474  71.086  1.00  0.00    -0.308 OA 
BRANCH   5   7
HETATM    7  C   UNL     1      -9.501  10.014  69.164  1.00  0.00    -0.207 C  
HETATM    8  C   UNL     1      -8.382  10.057  68.124  1.00  0.00    -0.113 C  
BRANCH   7   9
HETATM    9  N   UNL     1     -10.053  11.398  69.435  1.00  0.00    -0.424 NA 
HETATM   10  H   UNL     1      -9.393  12.122  69.152  1.00  0.00     0.000 HD 
BRANCH   9  11
HETATM   11  P   UNL     1     -11.628  11.639  68.683  1.00  0.00    -0.332 P  
HETATM   12  O   UNL     1     -11.776  10.154  68.272  1.00  0.00    -0.178 OA 
BRANCH  11  13
HETATM   13  C   UNL     1     -11.498  12.103  66.832  1.00  0.00    -0.351 C  
BRANCH  13  14
HETATM   14  O   UNL     1     -11.748  13.536  66.574  1.00  0.00    -0.335 OA 
BRANCH  14  15
HETATM   15  C   UNL     1     -11.064  14.233  65.498  1.00  0.00    -0.323 C  
HETATM   16  C   UNL     1     -10.996  13.336  64.256  1.00  0.00    -0.418 C  
BRANCH  15  17
HETATM   17  C   UNL     1      -9.737  14.869  65.889  1.00  0.00    -0.333 C  
BRANCH  17  18
HETATM   18  N   UNL     1      -9.809  15.846  66.940  1.00  0.00    -0.238 NA 
HETATM   19  C   UNL     1      -9.550  15.666  68.272  1.00  0.00    -0.200 A  
HETATM   20  N   UNL     1      -9.630  16.796  68.940  1.00  0.00    -0.254 NA 
HETATM   21  C   UNL     1      -9.977  17.731  67.991  1.00  0.00    -0.333 A  
HETATM   22  C   UNL     1     -10.195  19.109  68.077  1.00  0.00    -0.401 A  
HETATM   23  N   UNL     1     -10.601  19.773  66.970  1.00  0.00    -0.470 NA 
HETATM   24  N   UNL     1     -10.015  19.803  69.263  1.00  0.00    -0.497 NA 
HETATM   25  C   UNL     1     -10.730  19.076  65.826  1.00  0.00    -0.276 A  
HETATM   26  H1  UNL     1     -10.174  20.809  69.326  1.00  0.00     0.000 HD 
HETATM   27  H2  UNL     1      -9.068  19.615  69.595  1.00  0.00     0.000 HD 
HETATM   28  N   UNL     1     -10.512  17.759  65.608  1.00  0.00    -0.628 NA 
HETATM   29  C   UNL     1     -10.135  17.156  66.746  1.00  0.00    -0.303 A  
ENDBRANCH  17  18
ENDBRANCH  15  17
ENDBRANCH  14  15
ENDBRANCH  13  14
ENDBRANCH  11  13
BRANCH  11  30
HETATM   30  O   UNL     1     -11.462  13.299  69.143  1.00  0.00    -0.271 OA 
BRANCH  30  31
HETATM   31  C   UNL     1     -12.258  13.731  70.189  1.00  0.00    -0.356 A  
HETATM   32  C   UNL     1     -12.393  15.110  70.349  1.00  0.00    -0.411 A  
HETATM   33  C   UNL     1     -13.658  13.391  72.141  1.00  0.00    -0.660 A  
HETATM   34  C   UNL     1     -12.900  12.869  71.084  1.00  0.00    -0.326 A  
HETATM   35  C   UNL     1     -13.773  14.770  72.309  1.00  0.00    -0.560 A  
HETATM   36  C   UNL     1     -13.140  15.628  71.414  1.00  0.00    -0.559 A  
ENDBRANCH  30  31
ENDBRANCH  11  30
ENDBRANCH   9  11
ENDBRANCH   7   9
ENDBRANCH   5   7
ENDBRANCH   4   5
ENDBRANCH   2   4
TORSDOF 12
ENDMDL
MODEL       21
REMARK 921   NORMALIZED FREE ENERGY PREDICTED BY IDOCK:   -6.43 KCAL/MOL
REMARK 922        TOTAL FREE ENERGY PREDICTED BY IDOCK:  -12.66 KCAL/MOL
REMARK 923 INTER-LIGAND FREE ENERGY PREDICTED BY IDOCK:  -10.90 KCAL/MOL
REMARK 924 INTRA-LIGAND FREE ENERGY PREDICTED BY IDOCK:   -1.76 KCAL/MOL
REMARK 927      BINDING AFFINITY PREDICTED BY RF-SCORE:    0.00 PKD
ROOT
HETATM    1  C   UNL     1      -7.376   9.819  64.363  1.00  0.00    -0.132 C  
HETATM    2  C   UNL     1      -8.599  10.371  65.099  1.00  0.00    -0.180 C  
HETATM    3  C   UNL     1      -9.800  10.491  64.151  1.00  0.00    -0.401 C  
ENDROOT
BRANCH   2   4
HETATM    4  O   UNL     1      -8.843   9.687  66.372  1.00  0.00    -0.144 OA 
BRANCH   4   5
HETATM    5  C   UNL     1      -8.365  10.222  67.522  1.00  0.00    -0.114 C  
HETATM    6  O   UNL     1      -7.506   9.669  68.212  1.00  0.00    -0.077 OA 
BRANCH   5   7
HETATM    7  C   UNL     1      -8.966  11.587  67.963  1.00  0.00    -0.170 C  
HETATM    8  C   UNL     1      -7.833  12.591  68.174  1.00  0.00    -0.151 C  
BRANCH   7   9
HETATM    9  N   UNL     1      -9.958  11.630  69.107  1.00  0.00    -0.418 NA 
HETATM   10  H   UNL     1      -9.700  12.337  69.795  1.00  0.00     0.000 HD 
BRANCH   9  11
HETATM   11  P   UNL     1     -11.609  11.862  68.540  1.00  0.00    -0.332 P  
HETATM   12  O   UNL     1     -11.768  10.393  68.075  1.00  0.00    -0.383 OA 
BRANCH  11  13
HETATM   13  C   UNL     1     -11.690  12.414  66.710  1.00  0.00    -0.362 C  
BRANCH  13  14
HETATM   14  O   UNL     1     -12.174  13.800  66.543  1.00  0.00    -0.435 OA 
BRANCH  14  15
HETATM   15  C   UNL     1     -11.991  14.510  65.288  1.00  0.00    -0.353 C  
HETATM   16  C   UNL     1     -12.400  13.610  64.115  1.00  0.00    -0.385 C  
BRANCH  15  17
HETATM   17  C   UNL     1     -10.633  15.179  65.124  1.00  0.00    -0.424 C  
BRANCH  17  18
HETATM   18  N   UNL     1     -10.240  16.046  66.200  1.00  0.00    -0.306 NA 
HETATM   19  C   UNL     1      -9.688  15.694  67.403  1.00  0.00    -0.222 A  
HETATM   20  N   UNL     1      -9.372  16.750  68.120  1.00  0.00    -0.229 NA 
HETATM   21  C   UNL     1      -9.761  17.820  67.345  1.00  0.00    -0.284 A  
HETATM   22  C   UNL     1      -9.677  19.199  67.552  1.00  0.00    -0.316 A  
HETATM   23  N   UNL     1     -10.216  20.029  66.630  1.00  0.00    -0.462 NA 
HETATM   24  N   UNL     1      -9.066  19.731  68.678  1.00  0.00    -0.273 NA 
HETATM   25  C   UNL     1     -10.768  19.480  65.531  1.00  0.00    -0.205 A  
HETATM   26  H1  UNL     1      -9.004  20.739  68.829  1.00  0.00     0.000 HD 
HETATM   27  H2  UNL     1      -8.122  19.349  68.731  1.00  0.00     0.000 HD 
HETATM   28  N   UNL     1     -10.875  18.174  65.201  1.00  0.00    -0.577 NA 
HETATM   29  C   UNL     1     -10.343  17.406  66.165  1.00  0.00    -0.327 A  
ENDBRANCH  17  18
ENDBRANCH  15  17
ENDBRANCH  14  15
ENDBRANCH  13  14
ENDBRANCH  11  13
BRANCH  11  30
HETATM   30  O   UNL     1     -11.432  13.503  69.059  1.00  0.00    -0.264 OA 
BRANCH  30  31
HETATM   31  C   UNL     1     -12.201  13.893  70.142  1.00  0.00    -0.358 A  
HETATM   32  C   UNL     1     -12.633  12.883  71.003  1.00  0.00    -0.376 A  
HETATM   33  C   UNL     1     -13.388  15.520  71.494  1.00  0.00    -0.593 A  
HETATM   34  C   UNL     1     -12.574  15.216  70.394  1.00  0.00    -0.405 A  
HETATM   35  C   UNL     1     -13.834  14.506  72.339  1.00  0.00    -0.587 A  
HETATM   36  C   UNL     1     -13.456  13.189  72.093  1.00  0.00    -0.653 A  
ENDBRANCH  30  31
ENDBRANCH  11  30
ENDBRANCH   9  11
ENDBRANCH   7   9
ENDBRANCH   5   7
ENDBRANCH   4   5
ENDBRANCH   2   4
TORSDOF 12
ENDMDL
MODEL       22
REMARK 921   NORMALIZED FREE ENERGY PREDICTED BY IDOCK:   -6.42 KCAL/MOL
REMARK 922        TOTAL FREE ENERGY PREDICTED BY IDOCK:  -12.63 KCAL/MOL
REMARK 923 INTER-LIGAND FREE ENERGY PREDICTED BY IDOCK:  -10.55 KCAL/MOL
REMARK 924 INTRA-LIGAND FREE ENERGY PREDICTED BY IDOCK:   -2.09 KCAL/MOL
REMARK 927      BINDING AFFINITY PREDICTED BY RF-SCORE:    0.00 PKD
ROOT
HETATM    1  C   UNL     1     -11.803   6.242  72.313  1.00  0.00    -0.326 C  
HETATM    2  C   UNL     1     -11.474   7.736  72.341  1.00  0.00    -0.363 C  
HETATM    3  C   UNL     1     -10.066   7.975  72.904  1.00  0.00    -0.376 C  
ENDROOT
BRANCH   2   4
HETATM    4  O   UNL     1     -11.789   8.404  71.075  1.00  0.00    -0.282 OA 
BRANCH   4   5
HETATM    5  C   UNL     1     -12.429   9.599  71.090  1.00  0.00    -0.332 C  
HETATM    6  O   UNL     1     -13.462   9.799  71.732  1.00  0.00    -0.390 OA 
BRANCH   5   7
HETATM    7  C   UNL     1     -11.807  10.738  70.233  1.00  0.00    -0.349 C  
HETATM    8  C   UNL     1     -12.283  12.088  70.768  1.00  0.00    -0.382 C  
BRANCH   7   9
HETATM    9  N   UNL     1     -11.913  10.677  68.723  1.00  0.00    -0.736 NA 
HETATM   10  H   UNL     1     -12.354  11.517  68.348  1.00  0.00     0.000 HD 
BRANCH   9  11
HETATM   11  P   UNL     1     -10.352  10.381  67.963  1.00  0.00    -0.210 P  
HETATM   12  O   UNL     1      -9.851  11.829  68.188  1.00  0.00    -0.178 OA 
BRANCH  11  13
HETATM   13  C   UNL     1     -10.373  10.717  66.080  1.00  0.00    -0.227 C  
BRANCH  13  14
HETATM   14  O   UNL     1     -10.706  12.116  65.744  1.00  0.00    -0.251 OA 
BRANCH  14  15
HETATM   15  C   UNL     1     -11.923  12.442  65.017  1.00  0.00    -0.402 C  
HETATM   16  C   UNL     1     -11.685  12.291  63.509  1.00  0.00    -0.584 C  
BRANCH  15  17
HETATM   17  C   UNL     1     -12.579  13.754  65.423  1.00  0.00    -0.497 C  
BRANCH  17  18
HETATM   18  N   UNL     1     -11.673  14.806  65.794  1.00  0.00    -0.302 NA 
HETATM   19  C   UNL     1     -10.947  15.620  64.966  1.00  0.00    -0.431 A  
HETATM   20  N   UNL     1     -10.284  16.533  65.642  1.00  0.00    -0.535 NA 
HETATM   21  C   UNL     1     -10.586  16.272  66.959  1.00  0.00    -0.284 A  
HETATM   22  C   UNL     1     -10.201  16.902  68.146  1.00  0.00    -0.311 A  
HETATM   23  N   UNL     1     -10.605  16.372  69.324  1.00  0.00    -0.290 NA 
HETATM   24  N   UNL     1      -9.414  18.043  68.143  1.00  0.00    -0.279 NA 
HETATM   25  C   UNL     1     -11.400  15.287  69.289  1.00  0.00    -0.298 A  
HETATM   26  H1  UNL     1      -9.132  18.503  69.009  1.00  0.00     0.000 HD 
HETATM   27  H2  UNL     1      -9.873  18.738  67.554  1.00  0.00     0.000 HD 
HETATM   28  N   UNL     1     -11.868  14.615  68.213  1.00  0.00    -0.318 NA 
HETATM   29  C   UNL     1     -11.414  15.175  67.082  1.00  0.00    -0.250 A  
ENDBRANCH  17  18
ENDBRANCH  15  17
ENDBRANCH  14  15
ENDBRANCH  13  14
ENDBRANCH  11  13
BRANCH  11  30
HETATM   30  O   UNL     1     -10.912   8.763  67.713  1.00  0.00    -0.093 OA 
BRANCH  30  31
HETATM   31  C   UNL     1     -10.202   7.760  68.348  1.00  0.00    -0.200 A  
HETATM   32  C   UNL     1     -10.839   6.526  68.484  1.00  0.00    -0.353 A  
HETATM   33  C   UNL     1      -8.280   6.870  69.532  1.00  0.00    -0.131 A  
HETATM   34  C   UNL     1      -8.915   7.929  68.868  1.00  0.00    -0.141 A  
HETATM   35  C   UNL     1      -8.929   5.646  69.683  1.00  0.00    -0.135 A  
HETATM   36  C   UNL     1     -10.207   5.476  69.159  1.00  0.00    -0.309 A  
ENDBRANCH  30  31
ENDBRANCH  11  30
ENDBRANCH   9  11
ENDBRANCH   7   9
ENDBRANCH   5   7
ENDBRANCH   4   5
ENDBRANCH   2   4
TORSDOF 12
ENDMDL
MODEL       23
REMARK 921   NORMALIZED FREE ENERGY PREDICTED BY IDOCK:   -6.40 KCAL/MOL
REMARK 922        TOTAL FREE ENERGY PREDICTED BY IDOCK:  -12.60 KCAL/MOL
REMARK 923 INTER-LIGAND FREE ENERGY PREDICTED BY IDOCK:  -10.84 KCAL/MOL
REMARK 924 INTRA-LIGAND FREE ENERGY PREDICTED BY IDOCK:   -1.76 KCAL/MOL
REMARK 927      BINDING AFFINITY PREDICTED BY RF-SCORE:    0.00 PKD
ROOT
HETATM    1  C   UNL     1     -11.160   6.593  72.208  1.00  0.00    -0.292 C  
HETATM    2  C   UNL     1     -10.895   8.083  71.980  1.00  0.00    -0.272 C  
HETATM    3  C   UNL     1      -9.415   8.417  72.217  1.00  0.00    -0.367 C  
ENDROOT
BRANCH   2   4
HETATM    4  O   UNL     1     -11.478   8.572  70.728  1.00  0.00    -0.269 OA 
BRANCH   4   5
HETATM    5  C   UNL     1     -11.508   9.904  70.479  1.00  0.00    -0.318 C  
HETATM    6  O   UNL     1     -12.089  10.710  71.208  1.00  0.00    -0.345 OA 
BRANCH   5   7
HETATM    7  C   UNL     1     -10.778  10.394  69.196  1.00  0.00    -0.234 C  
HETATM    8  C   UNL     1     -10.139   9.198  68.492  1.00  0.00    -0.212 C  
BRANCH   7   9
HETATM    9  N   UNL     1      -9.813  11.558  69.286  1.00  0.00    -0.403 NA 
HETATM   10  H   UNL     1      -9.070  11.372  69.960  1.00  0.00     0.000 HD 
BRANCH   9  11
HETATM   11  P   UNL     1      -9.153  11.993  67.712  1.00  0.00    -0.203 P  
HETATM   12  O   UNL     1      -7.724  11.508  68.060  1.00  0.00    -0.107 OA 
BRANCH  11  13
HETATM   13  C   UNL     1      -8.493  13.788  67.659  1.00  0.00    -0.183 C  
BRANCH  13  14
HETATM   14  O   UNL     1      -9.025  14.634  68.747  1.00  0.00    -0.185 OA 
BRANCH  14  15
HETATM   15  C   UNL     1      -9.569  15.953  68.471  1.00  0.00    -0.205 C  
HETATM   16  C   UNL     1      -8.431  16.929  68.147  1.00  0.00    -0.217 C  
BRANCH  15  17
HETATM   17  C   UNL     1     -10.562  16.466  69.506  1.00  0.00    -0.320 C  
BRANCH  17  18
HETATM   18  N   UNL     1     -11.478  15.484  70.018  1.00  0.00    -0.301 NA 
HETATM   19  C   UNL     1     -12.030  14.423  69.352  1.00  0.00    -0.328 A  
HETATM   20  N   UNL     1     -12.761  13.676  70.150  1.00  0.00    -0.137 NA 
HETATM   21  C   UNL     1     -12.686  14.304  71.373  1.00  0.00    -0.352 A  
HETATM   22  C   UNL     1     -13.236  13.988  72.618  1.00  0.00    -0.509 A  
HETATM   23  N   UNL     1     -13.047  14.845  73.649  1.00  0.00    -0.469 NA 
HETATM   24  N   UNL     1     -13.971  12.830  72.817  1.00  0.00    -0.579 NA 
HETATM   25  C   UNL     1     -12.296  15.941  73.430  1.00  0.00    -0.538 A  
HETATM   26  H1  UNL     1     -14.373  12.599  73.726  1.00  0.00     0.000 HD 
HETATM   27  H2  UNL     1     -13.399  12.040  72.518  1.00  0.00     0.000 HD 
HETATM   28  N   UNL     1     -11.684  16.334  72.291  1.00  0.00    -0.491 NA 
HETATM   29  C   UNL     1     -11.928  15.456  71.306  1.00  0.00    -0.374 A  
ENDBRANCH  17  18
ENDBRANCH  15  17
ENDBRANCH  14  15
ENDBRANCH  13  14
ENDBRANCH  11  13
BRANCH  11  30
HETATM   30  O   UNL     1     -10.750  12.535  67.323  1.00  0.00    -0.228 OA 
BRANCH  30  31
HETATM   31  C   UNL     1     -11.053  12.641  65.978  1.00  0.00    -0.287 A  
HETATM   32  C   UNL     1     -11.959  13.639  65.614  1.00  0.00    -0.422 A  
HETATM   33  C   UNL     1     -10.915  11.954  63.655  1.00  0.00    -0.511 A  
HETATM   34  C   UNL     1     -10.524  11.802  64.993  1.00  0.00    -0.332 A  
HETATM   35  C   UNL     1     -11.836  12.938  63.300  1.00  0.00    -0.469 A  
HETATM   36  C   UNL     1     -12.357  13.778  64.279  1.00  0.00    -0.384 A  
ENDBRANCH  30  31
ENDBRANCH  11  30
ENDBRANCH   9  11
ENDBRANCH   7   9
ENDBRANCH   5   7
ENDBRANCH   4   5
ENDBRANCH   2   4
TORSDOF 12
ENDMDL
MODEL       24
REMARK 921   NORMALIZED FREE ENERGY PREDICTED BY IDOCK:   -6.36 KCAL/MOL
REMARK 922        TOTAL FREE ENERGY PREDICTED BY IDOCK:  -12.53 KCAL/MOL
REMARK 923 INTER-LIGAND FREE ENERGY PREDICTED BY IDOCK:  -10.79 KCAL/MOL
REMARK 924 INTRA-LIGAND FREE ENERGY PREDICTED BY IDOCK:   -1.74 KCAL/MOL
REMARK 927      BINDING AFFINITY PREDICTED BY RF-SCORE:    0.00 PKD
ROOT
HETATM    1  C   UNL     1     -10.013   7.672  73.260  1.00  0.00    -0.379 C  
HETATM    2  C   UNL     1     -11.159   7.622  72.247  1.00  0.00    -0.286 C  
HETATM    3  C   UNL     1     -11.482   6.173  71.858  1.00  0.00    -0.355 C  
ENDROOT
BRANCH   2   4
HETATM    4  O   UNL     1     -12.297   8.455  72.646  1.00  0.00    -0.365 OA 
BRANCH   4   5
HETATM    5  C   UNL     1     -13.081   9.017  71.694  1.00  0.00    -0.365 C  
HETATM    6  O   UNL     1     -14.144   8.516  71.319  1.00  0.00    -0.314 OA 
BRANCH   5   7
HETATM    7  C   UNL     1     -12.573  10.343  71.059  1.00  0.00    -0.393 C  
HETATM    8  C   UNL     1     -13.135  11.526  71.847  1.00  0.00    -0.492 C  
BRANCH   7   9
HETATM    9  N   UNL     1     -12.718  10.558  69.567  1.00  0.00    -0.640 NA 
HETATM   10  H   UNL     1     -13.509  11.166  69.355  1.00  0.00     0.000 HD 
BRANCH   9  11
HETATM   11  P   UNL     1     -11.233  11.164  68.839  1.00  0.00    -0.313 P  
HETATM   12  O   UNL     1     -11.445  12.608  69.357  1.00  0.00    -0.276 OA 
BRANCH  11  13
HETATM   13  C   UNL     1     -11.492  11.802  67.055  1.00  0.00    -0.298 C  
BRANCH  13  14
HETATM   14  O   UNL     1     -11.798  13.246  66.994  1.00  0.00    -0.365 OA 
BRANCH  14  15
HETATM   15  C   UNL     1     -11.325  14.065  65.890  1.00  0.00    -0.317 C  
HETATM   16  C   UNL     1     -11.282  13.231  64.603  1.00  0.00    -0.370 C  
BRANCH  15  17
HETATM   17  C   UNL     1     -10.052  14.850  66.174  1.00  0.00    -0.298 C  
BRANCH  17  18
HETATM   18  N   UNL     1     -10.170  15.871  67.178  1.00  0.00    -0.272 NA 
HETATM   19  C   UNL     1     -10.109  15.723  68.537  1.00  0.00    -0.215 A  
HETATM   20  N   UNL     1     -10.170  16.882  69.156  1.00  0.00    -0.296 NA 
HETATM   21  C   UNL     1     -10.297  17.806  68.142  1.00  0.00    -0.391 A  
HETATM   22  C   UNL     1     -10.393  19.200  68.159  1.00  0.00    -0.376 A  
HETATM   23  N   UNL     1     -10.585  19.852  66.989  1.00  0.00    -0.442 NA 
HETATM   24  N   UNL     1     -10.308  19.922  69.339  1.00  0.00    -0.575 NA 
HETATM   25  C   UNL     1     -10.625  19.123  65.858  1.00  0.00    -0.415 A  
HETATM   26  H1  UNL     1     -10.378  20.940  69.351  1.00  0.00     0.000 HD 
HETATM   27  H2  UNL     1      -9.436  19.663  69.801  1.00  0.00     0.000 HD 
HETATM   28  N   UNL     1     -10.507  17.784  65.709  1.00  0.00    -0.583 NA 
HETATM   29  C   UNL     1     -10.343  17.197  66.905  1.00  0.00    -0.308 A  
ENDBRANCH  17  18
ENDBRANCH  15  17
ENDBRANCH  14  15
ENDBRANCH  13  14
ENDBRANCH  11  13
BRANCH  11  30
HETATM   30  O   UNL     1     -10.996   9.550  68.261  1.00  0.00    -0.182 OA 
BRANCH  30  31
HETATM   31  C   UNL     1      -9.961   8.835  68.837  1.00  0.00    -0.192 A  
HETATM   32  C   UNL     1      -9.949   7.457  68.617  1.00  0.00    -0.174 A  
HETATM   33  C   UNL     1      -7.971   8.609  70.207  1.00  0.00    -0.106 A  
HETATM   34  C   UNL     1      -8.963   9.413  69.628  1.00  0.00    -0.181 A  
HETATM   35  C   UNL     1      -7.975   7.231  70.001  1.00  0.00    -0.117 A  
HETATM   36  C   UNL     1      -8.964   6.657  69.207  1.00  0.00    -0.135 A  
ENDBRANCH  30  31
ENDBRANCH  11  30
ENDBRANCH   9  11
ENDBRANCH   7   9
ENDBRANCH   5   7
ENDBRANCH   4   5
ENDBRANCH   2   4
TORSDOF 12
ENDMDL
MODEL       25
REMARK 921   NORMALIZED FREE ENERGY PREDICTED BY IDOCK:   -6.31 KCAL/MOL
REMARK 922        TOTAL FREE ENERGY PREDICTED BY IDOCK:  -12.45 KCAL/MOL
REMARK 923 INTER-LIGAND FREE ENERGY PREDICTED BY IDOCK:  -10.68 KCAL/MOL
REMARK 924 INTRA-LIGAND FREE ENERGY PREDICTED BY IDOCK:   -1.78 KCAL/MOL
REMARK 927      BINDING AFFINITY PREDICTED BY RF-SCORE:    0.00 PKD
ROOT
HETATM    1  C   UNL     1     -10.568  11.495  63.271  1.00  0.00    -0.405 C  
HETATM    2  C   UNL     1     -10.198  12.086  64.633  1.00  0.00    -0.282 C  
HETATM    3  C   UNL     1      -9.222  11.167  65.381  1.00  0.00    -0.225 C  
ENDROOT
BRANCH   2   4
HETATM    4  O   UNL     1      -9.822  13.500  64.547  1.00  0.00    -0.150 OA 
BRANCH   4   5
HETATM    5  C   UNL     1     -10.656  14.446  65.043  1.00  0.00    -0.432 C  
HETATM    6  O   UNL     1     -10.662  15.612  64.642  1.00  0.00    -0.431 OA 
BRANCH   5   7
HETATM    7  C   UNL     1     -11.623  14.003  66.179  1.00  0.00    -0.367 C  
HETATM    8  C   UNL     1     -13.049  13.950  65.634  1.00  0.00    -0.205 C  
BRANCH   7   9
HETATM    9  N   UNL     1     -11.571  14.709  67.518  1.00  0.00    -0.364 NA 
HETATM   10  H   UNL     1     -12.475  15.119  67.755  1.00  0.00     0.000 HD 
BRANCH   9  11
HETATM   11  P   UNL     1     -10.993  13.650  68.801  1.00  0.00    -0.252 P  
HETATM   12  O   UNL     1      -9.587  13.483  68.173  1.00  0.00    -0.205 OA 
BRANCH  11  13
HETATM   13  C   UNL     1     -11.335  11.803  68.443  1.00  0.00    -0.270 C  
BRANCH  13  14
HETATM   14  O   UNL     1     -12.515  11.281  69.163  1.00  0.00    -0.378 OA 
BRANCH  14  15
HETATM   15  C   UNL     1     -12.364  10.394  70.305  1.00  0.00    -0.250 C  
HETATM   16  C   UNL     1     -13.010  11.025  71.544  1.00  0.00    -0.553 C  
BRANCH  15  17
HETATM   17  C   UNL     1     -10.951   9.873  70.527  1.00  0.00    -0.326 C  
BRANCH  17  18
HETATM   18  N   UNL     1     -10.803   8.446  70.457  1.00  0.00    -0.229 NA 
HETATM   19  C   UNL     1     -10.705   7.666  69.335  1.00  0.00    -0.184 A  
HETATM   20  N   UNL     1     -10.493   6.405  69.638  1.00  0.00    -0.208 NA 
HETATM   21  C   UNL     1     -10.476   6.379  71.014  1.00  0.00    -0.223 A  
HETATM   22  C   UNL     1     -10.279   5.338  71.925  1.00  0.00    -0.207 A  
HETATM   23  N   UNL     1     -10.390   5.601  73.248  1.00  0.00    -0.197 NA 
HETATM   24  N   UNL     1      -9.986   4.049  71.506  1.00  0.00    -0.176 NA 
HETATM   25  C   UNL     1     -10.638   6.871  73.621  1.00  0.00    -0.340 A  
HETATM   26  H1  UNL     1      -9.842   3.288  72.171  1.00  0.00     0.000 HD 
HETATM   27  H2  UNL     1      -9.165   4.096  70.902  1.00  0.00     0.000 HD 
HETATM   28  N   UNL     1     -10.808   7.963  72.843  1.00  0.00    -0.389 NA 
HETATM   29  C   UNL     1     -10.710   7.631  71.547  1.00  0.00    -0.221 A  
ENDBRANCH  17  18
ENDBRANCH  15  17
ENDBRANCH  14  15
ENDBRANCH  13  14
ENDBRANCH  11  13
BRANCH  11  30
HETATM   30  O   UNL     1     -12.564  13.838  69.503  1.00  0.00    -0.192 OA 
BRANCH  30  31
HETATM   31  C   UNL     1     -12.621  14.494  70.719  1.00  0.00    -0.351 A  
HETATM   32  C   UNL     1     -13.867  14.555  71.344  1.00  0.00    -0.441 A  
HETATM   33  C   UNL     1     -11.671  15.781  72.544  1.00  0.00    -0.566 A  
HETATM   34  C   UNL     1     -11.518  15.102  71.326  1.00  0.00    -0.395 A  
HETATM   35  C   UNL     1     -12.922  15.856  73.154  1.00  0.00    -0.653 A  
HETATM   36  C   UNL     1     -14.018  15.244  72.553  1.00  0.00    -0.609 A  
ENDBRANCH  30  31
ENDBRANCH  11  30
ENDBRANCH   9  11
ENDBRANCH   7   9
ENDBRANCH   5   7
ENDBRANCH   4   5
ENDBRANCH   2   4
TORSDOF 12
ENDMDL
MODEL       26
REMARK 921   NORMALIZED FREE ENERGY PREDICTED BY IDOCK:   -6.29 KCAL/MOL
REMARK 922        TOTAL FREE ENERGY PREDICTED BY IDOCK:  -12.41 KCAL/MOL
REMARK 923 INTER-LIGAND FREE ENERGY PREDICTED BY IDOCK:  -10.83 KCAL/MOL
REMARK 924 INTRA-LIGAND FREE ENERGY PREDICTED BY IDOCK:   -1.59 KCAL/MOL
REMARK 927      BINDING AFFINITY PREDICTED BY RF-SCORE:    0.00 PKD
ROOT
HETATM    1  C   UNL     1     -12.546  13.547  65.502  1.00  0.00    -0.531 C  
HETATM    2  C   UNL     1     -12.036  12.231  64.910  1.00  0.00    -0.357 C  
HETATM    3  C   UNL     1     -12.522  12.058  63.464  1.00  0.00    -0.654 C  
ENDROOT
BRANCH   2   4
HETATM    4  O   UNL     1     -10.603  12.030  65.141  1.00  0.00    -0.268 OA 
BRANCH   4   5
HETATM    5  C   UNL     1     -10.114  10.770  65.250  1.00  0.00    -0.290 C  
HETATM    6  O   UNL     1     -10.027  10.000  64.292  1.00  0.00    -0.235 OA 
BRANCH   5   7
HETATM    7  C   UNL     1      -9.668  10.310  66.668  1.00  0.00    -0.185 C  
HETATM    8  C   UNL     1      -8.394   9.474  66.548  1.00  0.00    -0.119 C  
BRANCH   7   9
HETATM    9  N   UNL     1     -10.674   9.652  67.588  1.00  0.00    -0.335 NA 
HETATM   10  H   UNL     1     -10.336   8.749  67.921  1.00  0.00     0.000 HD 
BRANCH   9  11
HETATM   11  P   UNL     1     -11.126  10.699  68.930  1.00  0.00    -0.292 P  
HETATM   12  O   UNL     1     -12.371  11.266  68.205  1.00  0.00    -0.542 OA 
BRANCH  11  13
HETATM   13  C   UNL     1     -10.317  12.429  68.821  1.00  0.00    -0.121 C  
BRANCH  13  14
HETATM   14  O   UNL     1     -11.296  13.533  68.889  1.00  0.00    -0.255 OA 
BRANCH  14  15
HETATM   15  C   UNL     1     -10.875  14.889  69.200  1.00  0.00    -0.250 C  
HETATM   16  C   UNL     1     -11.183  15.208  70.668  1.00  0.00    -0.321 C  
BRANCH  15  17
HETATM   17  C   UNL     1     -11.347  15.948  68.213  1.00  0.00    -0.342 C  
BRANCH  17  18
HETATM   18  N   UNL     1     -10.319  16.529  67.395  1.00  0.00    -0.286 NA 
HETATM   19  C   UNL     1      -9.762  16.015  66.255  1.00  0.00    -0.306 A  
HETATM   20  N   UNL     1      -8.906  16.853  65.712  1.00  0.00    -0.493 NA 
HETATM   21  C   UNL     1      -8.904  17.938  66.559  1.00  0.00    -0.261 A  
HETATM   22  C   UNL     1      -8.213  19.153  66.515  1.00  0.00    -0.306 A  
HETATM   23  N   UNL     1      -8.358  20.020  67.544  1.00  0.00    -0.326 NA 
HETATM   24  N   UNL     1      -7.382  19.481  65.454  1.00  0.00    -0.415 NA 
HETATM   25  C   UNL     1      -9.201  19.686  68.538  1.00  0.00    -0.316 A  
HETATM   26  H1  UNL     1      -6.878  20.367  65.423  1.00  0.00     0.000 HD 
HETATM   27  H2  UNL     1      -7.925  19.399  64.595  1.00  0.00     0.000 HD 
HETATM   28  N   UNL     1      -9.949  18.568  68.674  1.00  0.00    -0.375 NA 
HETATM   29  C   UNL     1      -9.742  17.742  67.637  1.00  0.00    -0.282 A  
ENDBRANCH  17  18
ENDBRANCH  15  17
ENDBRANCH  14  15
ENDBRANCH  13  14
ENDBRANCH  11  13
BRANCH  11  30
HETATM   30  O   UNL     1      -9.734  10.065  69.740  1.00  0.00    -0.225 OA 
BRANCH  30  31
HETATM   31  C   UNL     1      -9.975   9.264  70.842  1.00  0.00    -0.297 A  
HETATM   32  C   UNL     1     -11.311   9.044  71.180  1.00  0.00    -0.375 A  
HETATM   33  C   UNL     1      -9.297   7.928  72.750  1.00  0.00    -0.297 A  
HETATM   34  C   UNL     1      -8.966   8.697  71.626  1.00  0.00    -0.305 A  
HETATM   35  C   UNL     1     -10.632   7.728  73.096  1.00  0.00    -0.415 A  
HETATM   36  C   UNL     1     -11.637   8.287  72.311  1.00  0.00    -0.449 A  
ENDBRANCH  30  31
ENDBRANCH  11  30
ENDBRANCH   9  11
ENDBRANCH   7   9
ENDBRANCH   5   7
ENDBRANCH   4   5
ENDBRANCH   2   4
TORSDOF 12
ENDMDL
MODEL       27
REMARK 921   NORMALIZED FREE ENERGY PREDICTED BY IDOCK:   -6.28 KCAL/MOL
REMARK 922        TOTAL FREE ENERGY PREDICTED BY IDOCK:  -12.39 KCAL/MOL
REMARK 923 INTER-LIGAND FREE ENERGY PREDICTED BY IDOCK:  -11.61 KCAL/MOL
REMARK 924 INTRA-LIGAND FREE ENERGY PREDICTED BY IDOCK:   -0.78 KCAL/MOL
REMARK 927      BINDING AFFINITY PREDICTED BY RF-SCORE:    0.00 PKD
ROOT
HETATM    1  C   UNL     1     -10.558  10.861  64.762  1.00  0.00    -0.316 C  
HETATM    2  C   UNL     1     -10.207  11.888  63.682  1.00  0.00    -0.438 C  
HETATM    3  C   UNL     1      -9.500  11.214  62.497  1.00  0.00    -0.233 C  
ENDROOT
BRANCH   2   4
HETATM    4  O   UNL     1     -11.334  12.763  63.352  1.00  0.00    -0.472 OA 
BRANCH   4   5
HETATM    5  C   UNL     1     -12.353  12.904  64.236  1.00  0.00    -0.385 C  
HETATM    6  O   UNL     1     -13.281  12.097  64.323  1.00  0.00    -0.768 OA 
BRANCH   5   7
HETATM    7  C   UNL     1     -12.321  14.162  65.150  1.00  0.00    -0.451 C  
HETATM    8  C   UNL     1     -11.562  15.281  64.438  1.00  0.00    -0.265 C  
BRANCH   7   9
HETATM    9  N   UNL     1     -11.876  14.025  66.590  1.00  0.00    -0.398 NA 
HETATM   10  H   UNL     1     -11.880  13.049  66.888  1.00  0.00     0.000 HD 
BRANCH   9  11
HETATM   11  P   UNL     1     -10.304  14.770  66.870  1.00  0.00    -0.277 P  
HETATM   12  O   UNL     1      -9.537  13.712  66.040  1.00  0.00    -0.253 OA 
BRANCH  11  13
HETATM   13  C   UNL     1      -9.444  14.110  68.445  1.00  0.00    -0.214 C  
BRANCH  13  14
HETATM   14  O   UNL     1      -8.739  12.830  68.229  1.00  0.00    -0.183 OA 
BRANCH  14  15
HETATM   15  C   UNL     1      -9.010  11.675  69.069  1.00  0.00     0.210 C  
HETATM   16  C   UNL     1      -7.774  10.768  69.123  1.00  0.00    -0.138 C  
BRANCH  15  17
HETATM   17  C   UNL     1     -10.311  10.948  68.758  1.00  0.00    -0.198 C  
BRANCH  17  18
HETATM   18  N   UNL     1     -11.214  10.802  69.866  1.00  0.00    -0.289 NA 
HETATM   19  C   UNL     1     -12.026  11.756  70.418  1.00  0.00    -0.332 A  
HETATM   20  N   UNL     1     -12.787  11.257  71.367  1.00  0.00    -0.424 NA 
HETATM   21  C   UNL     1     -12.426   9.929  71.433  1.00  0.00    -0.398 A  
HETATM   22  C   UNL     1     -12.885   8.878  72.231  1.00  0.00    -0.411 A  
HETATM   23  N   UNL     1     -12.283   7.670  72.125  1.00  0.00    -0.286 NA 
HETATM   24  N   UNL     1     -13.928   9.046  73.129  1.00  0.00    -1.215 NA 
HETATM   25  C   UNL     1     -11.299   7.533  71.216  1.00  0.00    -0.261 A  
HETATM   26  H1  UNL     1     -14.263   8.278  73.712  1.00  0.00     0.000 HD 
HETATM   27  H2  UNL     1     -14.726   9.420  72.615  1.00  0.00     0.000 HD 
HETATM   28  N   UNL     1     -10.797   8.456  70.366  1.00  0.00    -0.233 NA 
HETATM   29  C   UNL     1     -11.419   9.633  70.538  1.00  0.00    -0.285 A  
ENDBRANCH  17  18
ENDBRANCH  15  17
ENDBRANCH  14  15
ENDBRANCH  13  14
ENDBRANCH  11  13
BRANCH  11  30
HETATM   30  O   UNL     1     -11.162  15.954  67.797  1.00  0.00    -0.326 OA 
BRANCH  30  31
HETATM   31  C   UNL     1     -10.651  17.239  67.778  1.00  0.00    -0.367 A  
HETATM   32  C   UNL     1     -10.476  17.829  66.526  1.00  0.00    -0.297 A  
HETATM   33  C   UNL     1      -9.743  19.234  68.818  1.00  0.00    -0.510 A  
HETATM   34  C   UNL     1     -10.291  17.949  68.928  1.00  0.00    -0.272 A  
HETATM   35  C   UNL     1      -9.551  19.811  67.564  1.00  0.00    -0.470 A  
HETATM   36  C   UNL     1      -9.917  19.108  66.420  1.00  0.00    -0.458 A  
ENDBRANCH  30  31
ENDBRANCH  11  30
ENDBRANCH   9  11
ENDBRANCH   7   9
ENDBRANCH   5   7
ENDBRANCH   4   5
ENDBRANCH   2   4
TORSDOF 12
ENDMDL
MODEL       28
REMARK 921   NORMALIZED FREE ENERGY PREDICTED BY IDOCK:   -6.27 KCAL/MOL
REMARK 922        TOTAL FREE ENERGY PREDICTED BY IDOCK:  -12.38 KCAL/MOL
REMARK 923 INTER-LIGAND FREE ENERGY PREDICTED BY IDOCK:  -10.59 KCAL/MOL
REMARK 924 INTRA-LIGAND FREE ENERGY PREDICTED BY IDOCK:   -1.79 KCAL/MOL
REMARK 927      BINDING AFFINITY PREDICTED BY RF-SCORE:    0.00 PKD
ROOT
HETATM    1  C   UNL     1     -14.380  15.191  71.662  1.00  0.00    -0.685 C  
HETATM    2  C   UNL     1     -12.950  15.206  71.115  1.00  0.00    -0.421 C  
HETATM    3  C   UNL     1     -12.021  16.007  72.039  1.00  0.00    -0.622 C  
ENDROOT
BRANCH   2   4
HETATM    4  O   UNL     1     -12.484  13.874  70.723  1.00  0.00    -0.336 OA 
BRANCH   4   5
HETATM    5  C   UNL     1     -12.101  13.649  69.443  1.00  0.00    -0.314 C  
HETATM    6  O   UNL     1     -12.210  14.494  68.552  1.00  0.00    -0.254 OA 
BRANCH   5   7
HETATM    7  C   UNL     1     -11.517  12.243  69.122  1.00  0.00    -0.296 C  
HETATM    8  C   UNL     1     -12.273  11.188  69.928  1.00  0.00    -0.385 C  
BRANCH   7   9
HETATM    9  N   UNL     1     -10.020  12.024  69.196  1.00  0.00    -0.397 NA 
HETATM   10  H   UNL     1      -9.778  11.370  69.940  1.00  0.00     0.000 HD 
BRANCH   9  11
HETATM   11  P   UNL     1      -9.351  11.508  67.650  1.00  0.00    -0.180 P  
HETATM   12  O   UNL     1      -8.662  10.256  68.247  1.00  0.00    -0.121 OA 
BRANCH  11  13
HETATM   13  C   UNL     1      -7.624  12.254  67.308  1.00  0.00    -0.152 C  
BRANCH  13  14
HETATM   14  O   UNL     1      -7.650  13.720  67.128  1.00  0.00    -0.108 OA 
BRANCH  14  15
HETATM   15  C   UNL     1      -7.366  14.616  68.237  1.00  0.00    -0.117 C  
HETATM   16  C   UNL     1      -6.652  13.848  69.357  1.00  0.00    -0.114 C  
BRANCH  15  17
HETATM   17  C   UNL     1      -8.549  15.453  68.703  1.00  0.00    -0.179 C  
BRANCH  17  18
HETATM   18  N   UNL     1      -8.972  16.480  67.792  1.00  0.00    -0.201 NA 
HETATM   19  C   UNL     1      -9.827  16.359  66.729  1.00  0.00    -0.256 A  
HETATM   20  N   UNL     1     -10.062  17.521  66.160  1.00  0.00    -0.452 NA 
HETATM   21  C   UNL     1      -9.305  18.417  66.882  1.00  0.00    -0.290 A  
HETATM   22  C   UNL     1      -9.143  19.800  66.773  1.00  0.00    -0.361 A  
HETATM   23  N   UNL     1      -8.260  20.418  67.592  1.00  0.00    -0.278 NA 
HETATM   24  N   UNL     1      -9.855  20.547  65.847  1.00  0.00    -0.591 NA 
HETATM   25  C   UNL     1      -7.615  19.669  68.506  1.00  0.00    -0.337 A  
HETATM   26  H1  UNL     1      -9.737  21.557  65.767  1.00  0.00     0.000 HD 
HETATM   27  H2  UNL     1     -10.847  20.358  65.988  1.00  0.00     0.000 HD 
HETATM   28  N   UNL     1      -7.713  18.340  68.732  1.00  0.00    -0.295 NA 
HETATM   29  C   UNL     1      -8.584  17.786  67.875  1.00  0.00    -0.250 A  
ENDBRANCH  17  18
ENDBRANCH  15  17
ENDBRANCH  14  15
ENDBRANCH  13  14
ENDBRANCH  11  13
BRANCH  11  30
HETATM   30  O   UNL     1     -10.122  12.907  66.983  1.00  0.00    -0.239 OA 
BRANCH  30  31
HETATM   31  C   UNL     1     -10.737  12.744  65.755  1.00  0.00    -0.272 A  
HETATM   32  C   UNL     1     -10.337  11.647  64.991  1.00  0.00    -0.329 A  
HETATM   33  C   UNL     1     -12.247  13.403  63.973  1.00  0.00    -0.466 A  
HETATM   34  C   UNL     1     -11.701  13.620  65.246  1.00  0.00    -0.349 A  
HETATM   35  C   UNL     1     -11.829  12.317  63.206  1.00  0.00    -0.476 A  
HETATM   36  C   UNL     1     -10.875  11.441  63.715  1.00  0.00    -0.468 A  
ENDBRANCH  30  31
ENDBRANCH  11  30
ENDBRANCH   9  11
ENDBRANCH   7   9
ENDBRANCH   5   7
ENDBRANCH   4   5
ENDBRANCH   2   4
TORSDOF 12
ENDMDL
MODEL       29
REMARK 921   NORMALIZED FREE ENERGY PREDICTED BY IDOCK:   -6.26 KCAL/MOL
REMARK 922        TOTAL FREE ENERGY PREDICTED BY IDOCK:  -12.37 KCAL/MOL
REMARK 923 INTER-LIGAND FREE ENERGY PREDICTED BY IDOCK:  -10.52 KCAL/MOL
REMARK 924 INTRA-LIGAND FREE ENERGY PREDICTED BY IDOCK:   -1.84 KCAL/MOL
REMARK 927      BINDING AFFINITY PREDICTED BY RF-SCORE:    0.00 PKD
ROOT
HETATM    1  C   UNL     1     -11.289   5.132  72.912  1.00  0.00    -0.354 C  
HETATM    2  C   UNL     1     -10.793   6.086  71.823  1.00  0.00    -0.260 C  
HETATM    3  C   UNL     1      -9.905   5.347  70.812  1.00  0.00    -0.252 C  
ENDROOT
BRANCH   2   4
HETATM    4  O   UNL     1     -11.869   6.907  71.262  1.00  0.00    -0.302 OA 
BRANCH   4   5
HETATM    5  C   UNL     1     -11.973   8.210  71.621  1.00  0.00    -0.300 C  
HETATM    6  O   UNL     1     -12.505   8.576  72.671  1.00  0.00    -0.370 OA 
BRANCH   5   7
HETATM    7  C   UNL     1     -11.399   9.259  70.626  1.00  0.00    -0.275 C  
HETATM    8  C   UNL     1     -12.045  10.617  70.898  1.00  0.00    -0.489 C  
BRANCH   7   9
HETATM    9  N   UNL     1     -11.376   8.947  69.145  1.00  0.00    -0.310 NA 
HETATM   10  H   UNL     1     -12.068   9.501  68.639  1.00  0.00     0.000 HD 
BRANCH   9  11
HETATM   11  P   UNL     1      -9.769   9.145  68.452  1.00  0.00    -0.160 P  
HETATM   12  O   UNL     1      -9.045   8.618  69.716  1.00  0.00    -0.146 OA 
BRANCH  11  13
HETATM   13  C   UNL     1      -9.028  10.875  68.791  1.00  0.00    -0.164 C  
BRANCH  13  14
HETATM   14  O   UNL     1      -7.854  11.179  67.946  1.00  0.00    -0.105 OA 
BRANCH  14  15
HETATM   15  C   UNL     1      -7.613  12.527  67.456  1.00  0.00    -0.156 C  
HETATM   16  C   UNL     1      -6.118  12.856  67.551  1.00  0.00    -0.143 C  
BRANCH  15  17
HETATM   17  C   UNL     1      -8.531  13.593  68.038  1.00  0.00    -0.174 C  
BRANCH  17  18
HETATM   18  N   UNL     1      -9.130  14.479  67.078  1.00  0.00    -0.227 NA 
HETATM   19  C   UNL     1      -8.632  15.663  66.604  1.00  0.00    -0.295 A  
HETATM   20  N   UNL     1      -9.403  16.173  65.668  1.00  0.00    -0.422 NA 
HETATM   21  C   UNL     1     -10.448  15.283  65.560  1.00  0.00    -0.374 A  
HETATM   22  C   UNL     1     -11.574  15.265  64.732  1.00  0.00    -0.322 A  
HETATM   23  N   UNL     1     -12.487  14.281  64.900  1.00  0.00    -0.579 NA 
HETATM   24  N   UNL     1     -11.778  16.230  63.758  1.00  0.00    -1.488 NA 
HETATM   25  C   UNL     1     -12.239  13.339  65.829  1.00  0.00    -0.456 A  
HETATM   26  H1  UNL     1     -12.600  16.216  63.154  1.00  0.00     0.000 HD 
HETATM   27  H2  UNL     1     -10.952  16.251  63.161  1.00  0.00     0.000 HD 
HETATM   28  N   UNL     1     -11.176  13.227  66.658  1.00  0.00    -0.299 NA 
HETATM   29  C   UNL     1     -10.322  14.243  66.458  1.00  0.00    -0.278 A  
ENDBRANCH  17  18
ENDBRANCH  15  17
ENDBRANCH  14  15
ENDBRANCH  13  14
ENDBRANCH  11  13
BRANCH  11  30
HETATM   30  O   UNL     1     -10.578   9.733  67.040  1.00  0.00    -0.239 OA 
BRANCH  30  31
HETATM   31  C   UNL     1      -9.909   9.581  65.839  1.00  0.00    -0.290 A  
HETATM   32  C   UNL     1      -9.006   8.520  65.751  1.00  0.00    -0.229 A  
HETATM   33  C   UNL     1      -9.327  10.231  63.575  1.00  0.00    -0.341 A  
HETATM   34  C   UNL     1     -10.075  10.434  64.743  1.00  0.00    -0.387 A  
HETATM   35  C   UNL     1      -8.412   9.182  63.499  1.00  0.00    -0.193 A  
HETATM   36  C   UNL     1      -8.253   8.329  64.587  1.00  0.00    -0.145 A  
ENDBRANCH  30  31
ENDBRANCH  11  30
ENDBRANCH   9  11
ENDBRANCH   7   9
ENDBRANCH   5   7
ENDBRANCH   4   5
ENDBRANCH   2   4
TORSDOF 12
ENDMDL
MODEL       30
REMARK 921   NORMALIZED FREE ENERGY PREDICTED BY IDOCK:   -6.26 KCAL/MOL
REMARK 922        TOTAL FREE ENERGY PREDICTED BY IDOCK:  -12.36 KCAL/MOL
REMARK 923 INTER-LIGAND FREE ENERGY PREDICTED BY IDOCK:  -11.10 KCAL/MOL
REMARK 924 INTRA-LIGAND FREE ENERGY PREDICTED BY IDOCK:   -1.26 KCAL/MOL
REMARK 927      BINDING AFFINITY PREDICTED BY RF-SCORE:    0.00 PKD
ROOT
HETATM    1  C   UNL     1      -7.292  20.635  66.844  1.00  0.00    -0.339 C  
HETATM    2  C   UNL     1      -8.162  19.528  66.244  1.00  0.00    -0.343 C  
HETATM    3  C   UNL     1      -7.356  18.234  66.069  1.00  0.00    -0.281 C  
ENDROOT
BRANCH   2   4
HETATM    4  O   UNL     1      -9.455  19.400  66.921  1.00  0.00    -0.307 OA 
BRANCH   4   5
HETATM    5  C   UNL     1     -10.277  18.368  66.607  1.00  0.00    -0.394 C  
HETATM    6  O   UNL     1     -10.742  18.203  65.478  1.00  0.00    -0.599 OA 
BRANCH   5   7
HETATM    7  C   UNL     1     -10.636  17.383  67.755  1.00  0.00    -0.371 C  
HETATM    8  C   UNL     1      -9.604  17.516  68.874  1.00  0.00    -0.224 C  
BRANCH   7   9
HETATM    9  N   UNL     1     -10.912  15.930  67.431  1.00  0.00    -0.296 NA 
HETATM   10  H   UNL     1     -10.298  15.593  66.690  1.00  0.00     0.000 HD 
BRANCH   9  11
HETATM   11  P   UNL     1     -10.813  14.904  68.859  1.00  0.00    -0.273 P  
HETATM   12  O   UNL     1      -9.521  14.192  68.387  1.00  0.00    -0.207 OA 
BRANCH  11  13
HETATM   13  C   UNL     1     -11.758  13.254  68.649  1.00  0.00    -0.341 C  
BRANCH  13  14
HETATM   14  O   UNL     1     -11.230  12.170  69.504  1.00  0.00    -0.217 OA 
BRANCH  14  15
HETATM   15  C   UNL     1     -10.767  10.919  68.926  1.00  0.00    -0.215 C  
HETATM   16  C   UNL     1     -11.014   9.768  69.909  1.00  0.00    -0.299 C  
BRANCH  15  17
HETATM   17  C   UNL     1      -9.359  10.964  68.349  1.00  0.00    -0.172 C  
BRANCH  17  18
HETATM   18  N   UNL     1      -9.225  10.449  67.014  1.00  0.00    -0.146 NA 
HETATM   19  C   UNL     1      -8.767   9.217  66.631  1.00  0.00    -0.127 A  
HETATM   20  N   UNL     1      -8.858   9.047  65.330  1.00  0.00    -0.189 NA 
HETATM   21  C   UNL     1      -9.378  10.234  64.865  1.00  0.00    -0.252 A  
HETATM   22  C   UNL     1      -9.718  10.661  63.578  1.00  0.00    -0.339 A  
HETATM   23  N   UNL     1     -10.151  11.932  63.409  1.00  0.00    -0.439 NA 
HETATM   24  N   UNL     1      -9.611   9.822  62.480  1.00  0.00    -0.560 NA 
HETATM   25  C   UNL     1     -10.278  12.708  64.502  1.00  0.00    -0.305 A  
HETATM   26  H1  UNL     1      -9.859  10.134  61.540  1.00  0.00     0.000 HD 
HETATM   27  H2  UNL     1     -10.146   8.977  62.680  1.00  0.00     0.000 HD 
HETATM   28  N   UNL     1     -10.021  12.399  65.793  1.00  0.00    -0.255 NA 
HETATM   29  C   UNL     1      -9.575  11.138  65.889  1.00  0.00    -0.218 A  
ENDBRANCH  17  18
ENDBRANCH  15  17
ENDBRANCH  14  15
ENDBRANCH  13  14
ENDBRANCH  11  13
BRANCH  11  30
HETATM   30  O   UNL     1     -12.257  15.699  69.386  1.00  0.00    -0.322 OA 
BRANCH  30  31
HETATM   31  C   UNL     1     -12.553  15.608  70.735  1.00  0.00    -0.431 A  
HETATM   32  C   UNL     1     -11.787  16.389  71.601  1.00  0.00    -0.349 A  
HETATM   33  C   UNL     1     -13.754  14.713  72.643  1.00  0.00    -0.545 A  
HETATM   34  C   UNL     1     -13.545  14.774  71.258  1.00  0.00    -0.480 A  
HETATM   35  C   UNL     1     -12.973  15.479  73.506  1.00  0.00    -0.669 A  
HETATM   36  C   UNL     1     -11.990  16.316  72.984  1.00  0.00    -0.598 A  
ENDBRANCH  30  31
ENDBRANCH  11  30
ENDBRANCH   9  11
ENDBRANCH   7   9
ENDBRANCH   5   7
ENDBRANCH   4   5
ENDBRANCH   2   4
TORSDOF 12
ENDMDL
MODEL       31
REMARK 921   NORMALIZED FREE ENERGY PREDICTED BY IDOCK:   -6.26 KCAL/MOL
REMARK 922        TOTAL FREE ENERGY PREDICTED BY IDOCK:  -12.36 KCAL/MOL
REMARK 923 INTER-LIGAND FREE ENERGY PREDICTED BY IDOCK:  -11.37 KCAL/MOL
REMARK 924 INTRA-LIGAND FREE ENERGY PREDICTED BY IDOCK:   -0.99 KCAL/MOL
REMARK 927      BINDING AFFINITY PREDICTED BY RF-SCORE:    0.00 PKD
ROOT
HETATM    1  C   UNL     1      -8.809   9.881  63.334  1.00  0.00    -0.253 C  
HETATM    2  C   UNL     1      -9.966  10.538  64.090  1.00  0.00    -0.318 C  
HETATM    3  C   UNL     1     -10.029  10.032  65.538  1.00  0.00    -0.367 C  
ENDROOT
BRANCH   2   4
HETATM    4  O   UNL     1     -10.003  11.991  63.908  1.00  0.00    -0.329 OA 
BRANCH   4   5
HETATM    5  C   UNL     1     -11.194  12.639  63.931  1.00  0.00    -0.442 C  
HETATM    6  O   UNL     1     -12.081  12.439  63.100  1.00  0.00    -0.442 OA 
BRANCH   5   7
HETATM    7  C   UNL     1     -11.402  13.685  65.063  1.00  0.00    -0.329 C  
HETATM    8  C   UNL     1     -12.864  13.664  65.505  1.00  0.00    -0.443 C  
BRANCH   7   9
HETATM    9  N   UNL     1     -10.907  15.103  64.866  1.00  0.00    -0.510 NA 
HETATM   10  H   UNL     1     -11.677  15.738  64.657  1.00  0.00     0.000 HD 
BRANCH   9  11
HETATM   11  P   UNL     1      -9.966  15.671  66.242  1.00  0.00    -0.349 P  
HETATM   12  O   UNL     1      -9.362  14.276  66.539  1.00  0.00    -0.276 OA 
BRANCH  11  13
HETATM   13  C   UNL     1     -10.931  15.566  67.890  1.00  0.00    -0.316 C  
BRANCH  13  14
HETATM   14  O   UNL     1     -10.750  14.276  68.588  1.00  0.00    -0.235 OA 
BRANCH  14  15
HETATM   15  C   UNL     1     -11.895  13.510  69.052  1.00  0.00    -0.343 C  
HETATM   16  C   UNL     1     -12.176  13.833  70.525  1.00  0.00    -0.440 C  
BRANCH  15  17
HETATM   17  C   UNL     1     -11.842  12.022  68.734  1.00  0.00    -0.302 C  
BRANCH  17  18
HETATM   18  N   UNL     1     -11.823  11.149  69.875  1.00  0.00    -0.330 NA 
HETATM   19  C   UNL     1     -12.805  10.972  70.813  1.00  0.00    -0.266 A  
HETATM   20  N   UNL     1     -12.489  10.031  71.675  1.00  0.00    -0.402 NA 
HETATM   21  C   UNL     1     -11.242   9.605  71.278  1.00  0.00    -0.376 A  
HETATM   22  C   UNL     1     -10.389   8.620  71.782  1.00  0.00    -0.316 A  
HETATM   23  N   UNL     1      -9.167   8.467  71.220  1.00  0.00    -0.180 NA 
HETATM   24  N   UNL     1     -10.760   7.808  72.843  1.00  0.00    -0.358 NA 
HETATM   25  C   UNL     1      -8.854   9.246  70.167  1.00  0.00    -0.213 A  
HETATM   26  H1  UNL     1     -10.137   7.089  73.212  1.00  0.00     0.000 HD 
HETATM   27  H2  UNL     1     -11.645   7.362  72.601  1.00  0.00     0.000 HD 
HETATM   28  N   UNL     1      -9.602  10.200  69.568  1.00  0.00    -0.224 NA 
HETATM   29  C   UNL     1     -10.788  10.316  70.186  1.00  0.00    -0.302 A  
ENDBRANCH  17  18
ENDBRANCH  15  17
ENDBRANCH  14  15
ENDBRANCH  13  14
ENDBRANCH  11  13
BRANCH  11  30
HETATM   30  O   UNL     1     -10.640  17.230  65.911  1.00  0.00    -0.339 OA 
BRANCH  30  31
HETATM   31  C   UNL     1      -9.907  18.322  66.339  1.00  0.00    -0.357 A  
HETATM   32  C   UNL     1      -8.537  18.128  66.522  1.00  0.00    -0.282 A  
HETATM   33  C   UNL     1      -9.655  20.619  67.079  1.00  0.00    -0.484 A  
HETATM   34  C   UNL     1     -10.465  19.575  66.611  1.00  0.00    -0.593 A  
HETATM   35  C   UNL     1      -8.291  20.414  67.280  1.00  0.00    -0.398 A  
HETATM   36  C   UNL     1      -7.734  19.169  67.002  1.00  0.00    -0.259 A  
ENDBRANCH  30  31
ENDBRANCH  11  30
ENDBRANCH   9  11
ENDBRANCH   7   9
ENDBRANCH   5   7
ENDBRANCH   4   5
ENDBRANCH   2   4
TORSDOF 12
ENDMDL
MODEL       32
REMARK 921   NORMALIZED FREE ENERGY PREDICTED BY IDOCK:   -6.25 KCAL/MOL
REMARK 922        TOTAL FREE ENERGY PREDICTED BY IDOCK:  -12.34 KCAL/MOL
REMARK 923 INTER-LIGAND FREE ENERGY PREDICTED BY IDOCK:  -10.04 KCAL/MOL
REMARK 924 INTRA-LIGAND FREE ENERGY PREDICTED BY IDOCK:   -2.30 KCAL/MOL
REMARK 927      BINDING AFFINITY PREDICTED BY RF-SCORE:    0.00 PKD
ROOT
HETATM    1  C   UNL     1     -14.296  15.109  71.552  1.00  0.00    -0.660 C  
HETATM    2  C   UNL     1     -12.896  15.257  70.953  1.00  0.00    -0.449 C  
HETATM    3  C   UNL     1     -12.013  16.145  71.842  1.00  0.00    -0.583 C  
ENDROOT
BRANCH   2   4
HETATM    4  O   UNL     1     -12.321  13.972  70.545  1.00  0.00    -0.324 OA 
BRANCH   4   5
HETATM    5  C   UNL     1     -12.106  13.723  69.230  1.00  0.00    -0.329 C  
HETATM    6  O   UNL     1     -12.626  14.383  68.329  1.00  0.00     0.068 OA 
BRANCH   5   7
HETATM    7  C   UNL     1     -11.167  12.531  68.887  1.00  0.00    -0.281 C  
HETATM    8  C   UNL     1     -11.504  11.348  69.794  1.00  0.00    -0.376 C  
BRANCH   7   9
HETATM    9  N   UNL     1      -9.672  12.758  68.811  1.00  0.00    -0.416 NA 
HETATM   10  H   UNL     1      -9.205  12.435  69.658  1.00  0.00     0.000 HD 
BRANCH   9  11
HETATM   11  P   UNL     1      -8.965  12.028  67.372  1.00  0.00    -0.193 P  
HETATM   12  O   UNL     1      -8.638  10.692  68.084  1.00  0.00    -0.117 OA 
BRANCH  11  13
HETATM   13  C   UNL     1      -7.089  12.367  67.219  1.00  0.00    -0.128 C  
BRANCH  13  14
HETATM   14  O   UNL     1      -6.752  13.804  67.281  1.00  0.00    -0.230 OA 
BRANCH  14  15
HETATM   15  C   UNL     1      -6.110  14.372  68.455  1.00  0.00    -0.102 C  
HETATM   16  C   UNL     1      -5.265  13.301  69.156  1.00  0.00    -0.073 C  
BRANCH  15  17
HETATM   17  C   UNL     1      -7.038  15.147  69.380  1.00  0.00    -0.189 C  
BRANCH  17  18
HETATM   18  N   UNL     1      -7.333  16.492  68.969  1.00  0.00    -0.220 NA 
HETATM   19  C   UNL     1      -6.468  17.549  68.869  1.00  0.00    -0.213 A  
HETATM   20  N   UNL     1      -7.059  18.616  68.378  1.00  0.00    -0.263 NA 
HETATM   21  C   UNL     1      -8.364  18.224  68.178  1.00  0.00    -0.284 A  
HETATM   22  C   UNL     1      -9.473  18.904  67.667  1.00  0.00    -0.301 A  
HETATM   23  N   UNL     1     -10.671  18.276  67.653  1.00  0.00    -0.403 NA 
HETATM   24  N   UNL     1      -9.374  20.201  67.186  1.00  0.00    -0.370 NA 
HETATM   25  C   UNL     1     -10.723  17.004  68.092  1.00  0.00    -0.374 A  
HETATM   26  H1  UNL     1     -10.184  20.698  66.813  1.00  0.00     0.000 HD 
HETATM   27  H2  UNL     1      -8.643  20.217  66.476  1.00  0.00     0.000 HD 
HETATM   28  N   UNL     1      -9.721  16.232  68.570  1.00  0.00    -0.217 NA 
HETATM   29  C   UNL     1      -8.569  16.920  68.579  1.00  0.00    -0.251 A  
ENDBRANCH  17  18
ENDBRANCH  15  17
ENDBRANCH  14  15
ENDBRANCH  13  14
ENDBRANCH  11  13
BRANCH  11  30
HETATM   30  O   UNL     1      -9.332  13.520  66.577  1.00  0.00    -0.257 OA 
BRANCH  30  31
HETATM   31  C   UNL     1     -10.293  13.469  65.583  1.00  0.00    -0.297 A  
HETATM   32  C   UNL     1     -10.380  12.282  64.853  1.00  0.00    -0.319 A  
HETATM   33  C   UNL     1     -12.064  14.409  64.218  1.00  0.00    -0.461 A  
HETATM   34  C   UNL     1     -11.144  14.532  65.268  1.00  0.00    -0.355 A  
HETATM   35  C   UNL     1     -12.134  13.230  63.479  1.00  0.00    -0.550 A  
HETATM   36  C   UNL     1     -11.291  12.168  63.797  1.00  0.00    -0.529 A  
ENDBRANCH  30  31
ENDBRANCH  11  30
ENDBRANCH   9  11
ENDBRANCH   7   9
ENDBRANCH   5   7
ENDBRANCH   4   5
ENDBRANCH   2   4
TORSDOF 12
ENDMDL
MODEL       33
REMARK 921   NORMALIZED FREE ENERGY PREDICTED BY IDOCK:   -6.24 KCAL/MOL
REMARK 922        TOTAL FREE ENERGY PREDICTED BY IDOCK:  -12.34 KCAL/MOL
REMARK 923 INTER-LIGAND FREE ENERGY PREDICTED BY IDOCK:  -10.84 KCAL/MOL
REMARK 924 INTRA-LIGAND FREE ENERGY PREDICTED BY IDOCK:   -1.50 KCAL/MOL
REMARK 927      BINDING AFFINITY PREDICTED BY RF-SCORE:    0.00 PKD
ROOT
HETATM    1  C   UNL     1     -11.186   5.804  72.126  1.00  0.00    -0.327 C  
HETATM    2  C   UNL     1     -10.811   6.838  71.063  1.00  0.00    -0.242 C  
HETATM    3  C   UNL     1     -11.381   6.446  69.693  1.00  0.00    -0.479 C  
ENDROOT
BRANCH   2   4
HETATM    4  O   UNL     1     -11.066   8.213  71.502  1.00  0.00    -0.240 OA 
BRANCH   4   5
HETATM    5  C   UNL     1     -10.309   9.224  71.010  1.00  0.00    -0.318 C  
HETATM    6  O   UNL     1      -9.104   9.333  71.242  1.00  0.00    -0.264 OA 
BRANCH   5   7
HETATM    7  C   UNL     1     -11.037  10.283  70.133  1.00  0.00    -0.319 C  
HETATM    8  C   UNL     1     -12.222  10.853  70.912  1.00  0.00    -0.485 C  
BRANCH   7   9
HETATM    9  N   UNL     1     -11.430   9.931  68.714  1.00  0.00    -0.491 NA 
HETATM   10  H   UNL     1     -12.426  10.088  68.556  1.00  0.00     0.000 HD 
BRANCH   9  11
HETATM   11  P   UNL     1     -10.452  10.787  67.526  1.00  0.00    -0.255 P  
HETATM   12  O   UNL     1      -9.174   9.968  67.832  1.00  0.00    -0.137 OA 
BRANCH  11  13
HETATM   13  C   UNL     1      -9.594  12.334  68.254  1.00  0.00    -0.212 C  
BRANCH  13  14
HETATM   14  O   UNL     1      -8.940  13.172  67.228  1.00  0.00    -0.198 OA 
BRANCH  14  15
HETATM   15  C   UNL     1      -8.883  14.618  67.368  1.00  0.00    -0.195 C  
HETATM   16  C   UNL     1      -9.594  15.045  68.657  1.00  0.00    -0.219 C  
BRANCH  15  17
HETATM   17  C   UNL     1      -9.302  15.398  66.129  1.00  0.00    -0.332 C  
BRANCH  17  18
HETATM   18  N   UNL     1      -9.268  16.828  66.263  1.00  0.00    -0.322 NA 
HETATM   19  C   UNL     1     -10.329  17.690  66.335  1.00  0.00    -0.345 A  
HETATM   20  N   UNL     1      -9.936  18.928  66.541  1.00  0.00    -0.360 NA 
HETATM   21  C   UNL     1      -8.562  18.850  66.579  1.00  0.00    -0.305 A  
HETATM   22  C   UNL     1      -7.579  19.823  66.780  1.00  0.00    -0.254 A  
HETATM   23  N   UNL     1      -6.278  19.461  66.692  1.00  0.00    -0.177 NA 
HETATM   24  N   UNL     1      -7.905  21.143  67.055  1.00  0.00    -0.685 NA 
HETATM   25  C   UNL     1      -5.997  18.165  66.462  1.00  0.00    -0.162 A  
HETATM   26  H1  UNL     1      -7.188  21.853  67.201  1.00  0.00     0.000 HD 
HETATM   27  H2  UNL     1      -8.523  21.149  67.867  1.00  0.00     0.000 HD 
HETATM   28  N   UNL     1      -6.852  17.131  66.290  1.00  0.00    -0.241 NA 
HETATM   29  C   UNL     1      -8.121  17.560  66.365  1.00  0.00    -0.274 A  
ENDBRANCH  17  18
ENDBRANCH  15  17
ENDBRANCH  14  15
ENDBRANCH  13  14
ENDBRANCH  11  13
BRANCH  11  30
HETATM   30  O   UNL     1     -11.880  11.702  67.183  1.00  0.00    -0.608 OA 
BRANCH  30  31
HETATM   31  C   UNL     1     -11.906  12.372  65.973  1.00  0.00    -0.395 A  
HETATM   32  C   UNL     1     -12.516  13.628  65.961  1.00  0.00    -0.477 A  
HETATM   33  C   UNL     1     -11.486  12.582  63.593  1.00  0.00    -0.568 A  
HETATM   34  C   UNL     1     -11.383  11.852  64.785  1.00  0.00    -0.344 A  
HETATM   35  C   UNL     1     -12.114  13.826  63.582  1.00  0.00    -0.330 A  
HETATM   36  C   UNL     1     -12.628  14.347  64.766  1.00  0.00    -0.282 A  
ENDBRANCH  30  31
ENDBRANCH  11  30
ENDBRANCH   9  11
ENDBRANCH   7   9
ENDBRANCH   5   7
ENDBRANCH   4   5
ENDBRANCH   2   4
TORSDOF 12
ENDMDL
MODEL       34
REMARK 921   NORMALIZED FREE ENERGY PREDICTED BY IDOCK:   -6.21 KCAL/MOL
REMARK 922        TOTAL FREE ENERGY PREDICTED BY IDOCK:  -12.28 KCAL/MOL
REMARK 923 INTER-LIGAND FREE ENERGY PREDICTED BY IDOCK:  -10.85 KCAL/MOL
REMARK 924 INTRA-LIGAND FREE ENERGY PREDICTED BY IDOCK:   -1.43 KCAL/MOL
REMARK 927      BINDING AFFINITY PREDICTED BY RF-SCORE:    0.00 PKD
ROOT
HETATM    1  C   UNL     1     -10.144  15.410  65.333  1.00  0.00    -0.394 C  
HETATM    2  C   UNL     1     -10.751  15.055  66.692  1.00  0.00    -0.312 C  
HETATM    3  C   UNL     1     -10.622  16.230  67.672  1.00  0.00    -0.311 C  
ENDROOT
BRANCH   2   4
HETATM    4  O   UNL     1     -12.082  14.454  66.572  1.00  0.00    -0.418 OA 
BRANCH   4   5
HETATM    5  C   UNL     1     -12.213  13.220  66.027  1.00  0.00    -0.424 C  
HETATM    6  O   UNL     1     -13.025  12.963  65.136  1.00  0.00    -0.758 OA 
BRANCH   5   7
HETATM    7  C   UNL     1     -11.290  12.103  66.592  1.00  0.00    -0.350 C  
HETATM    8  C   UNL     1     -10.762  11.254  65.435  1.00  0.00    -0.291 C  
BRANCH   7   9
HETATM    9  N   UNL     1     -11.782  11.235  67.731  1.00  0.00    -0.599 NA 
HETATM   10  H   UNL     1     -11.785  10.249  67.471  1.00  0.00     0.000 HD 
BRANCH   9  11
HETATM   11  P   UNL     1     -10.862  11.502  69.209  1.00  0.00    -0.051 P  
HETATM   12  O   UNL     1      -9.490  11.378  68.503  1.00  0.00    -0.182 OA 
BRANCH  11  13
HETATM   13  C   UNL     1     -10.488   9.879  70.149  1.00  0.00    -0.285 C  
BRANCH  13  14
HETATM   14  O   UNL     1     -11.558   9.494  71.092  1.00  0.00    -0.307 OA 
BRANCH  14  15
HETATM   15  C   UNL     1     -11.412   8.335  71.957  1.00  0.00    -0.334 C  
HETATM   16  C   UNL     1      -9.947   8.187  72.388  1.00  0.00    -0.345 C  
BRANCH  15  17
HETATM   17  C   UNL     1     -12.045   7.056  71.426  1.00  0.00    -0.355 C  
BRANCH  17  18
HETATM   18  N   UNL     1     -11.126   6.096  70.881  1.00  0.00    -0.301 NA 
HETATM   19  C   UNL     1     -10.442   5.115  71.548  1.00  0.00    -0.185 A  
HETATM   20  N   UNL     1      -9.751   4.358  70.724  1.00  0.00    -0.188 NA 
HETATM   21  C   UNL     1      -9.990   4.897  69.480  1.00  0.00    -0.225 A  
HETATM   22  C   UNL     1      -9.552   4.529  68.205  1.00  0.00    -0.143 A  
HETATM   23  N   UNL     1      -9.899   5.303  67.150  1.00  0.00    -0.150 NA 
HETATM   24  N   UNL     1      -8.769   3.403  68.001  1.00  0.00    -0.100 NA 
HETATM   25  C   UNL     1     -10.691   6.366  67.380  1.00  0.00    -0.336 A  
HETATM   26  H1  UNL     1      -8.449   3.134  67.070  1.00  0.00     0.000 HD 
HETATM   27  H2  UNL     1      -9.257   2.605  68.407  1.00  0.00     0.000 HD 
HETATM   28  N   UNL     1     -11.207   6.800  68.552  1.00  0.00    -0.134 NA 
HETATM   29  C   UNL     1     -10.808   6.006  69.557  1.00  0.00    -0.369 A  
ENDBRANCH  17  18
ENDBRANCH  15  17
ENDBRANCH  14  15
ENDBRANCH  13  14
ENDBRANCH  11  13
BRANCH  11  30
HETATM   30  O   UNL     1     -12.396  11.642  69.998  1.00  0.00    -0.255 OA 
BRANCH  30  31
HETATM   31  C   UNL     1     -12.660  12.849  70.621  1.00  0.00    -0.177 A  
HETATM   32  C   UNL     1     -13.313  12.792  71.854  1.00  0.00    -0.510 A  
HETATM   33  C   UNL     1     -12.670  15.271  70.757  1.00  0.00    -0.491 A  
HETATM   34  C   UNL     1     -12.331  14.094  70.076  1.00  0.00    -0.403 A  
HETATM   35  C   UNL     1     -13.340  15.210  71.977  1.00  0.00    -0.494 A  
HETATM   36  C   UNL     1     -13.661  13.970  72.524  1.00  0.00    -0.670 A  
ENDBRANCH  30  31
ENDBRANCH  11  30
ENDBRANCH   9  11
ENDBRANCH   7   9
ENDBRANCH   5   7
ENDBRANCH   4   5
ENDBRANCH   2   4
TORSDOF 12
ENDMDL
MODEL       35
REMARK 921   NORMALIZED FREE ENERGY PREDICTED BY IDOCK:   -6.21 KCAL/MOL
REMARK 922        TOTAL FREE ENERGY PREDICTED BY IDOCK:  -12.27 KCAL/MOL
REMARK 923 INTER-LIGAND FREE ENERGY PREDICTED BY IDOCK:  -11.02 KCAL/MOL
REMARK 924 INTRA-LIGAND FREE ENERGY PREDICTED BY IDOCK:   -1.25 KCAL/MOL
REMARK 927      BINDING AFFINITY PREDICTED BY RF-SCORE:    0.00 PKD
ROOT
HETATM    1  C   UNL     1      -9.889  10.752  63.083  1.00  0.00    -0.378 C  
HETATM    2  C   UNL     1     -10.298  11.395  64.411  1.00  0.00    -0.320 C  
HETATM    3  C   UNL     1     -11.622  12.158  64.264  1.00  0.00    -0.444 C  
ENDROOT
BRANCH   2   4
HETATM    4  O   UNL     1     -10.208  10.463  65.537  1.00  0.00    -0.278 OA 
BRANCH   4   5
HETATM    5  C   UNL     1      -9.247  10.639  66.477  1.00  0.00    -0.166 C  
HETATM    6  O   UNL     1      -8.159  11.164  66.233  1.00  0.00    -0.168 OA 
BRANCH   5   7
HETATM    7  C   UNL     1      -9.566  10.128  67.911  1.00  0.00    -0.148 C  
HETATM    8  C   UNL     1     -10.595   9.002  67.826  1.00  0.00    -0.278 C  
BRANCH   7   9
HETATM    9  N   UNL     1      -9.927  11.123  68.994  1.00  0.00    -0.346 NA 
HETATM   10  H   UNL     1      -9.557  12.050  68.783  1.00  0.00     0.000 HD 
BRANCH   9  11
HETATM   11  P   UNL     1     -11.663  11.179  69.286  1.00  0.00    -0.368 P  
HETATM   12  O   UNL     1     -11.974  11.875  67.938  1.00  0.00    -0.556 OA 
BRANCH  11  13
HETATM   13  C   UNL     1     -12.207  12.773  70.195  1.00  0.00    -0.249 C  
BRANCH  13  14
HETATM   14  O   UNL     1     -12.291  13.948  69.304  1.00  0.00    -0.323 OA 
BRANCH  14  15
HETATM   15  C   UNL     1     -11.294  15.004  69.363  1.00  0.00    -0.297 C  
HETATM   16  C   UNL     1     -10.979  15.343  70.825  1.00  0.00    -0.349 C  
BRANCH  15  17
HETATM   17  C   UNL     1     -11.589  16.213  68.486  1.00  0.00    -0.265 C  
BRANCH  17  18
HETATM   18  N   UNL     1     -10.542  16.583  67.574  1.00  0.00    -0.321 NA 
HETATM   19  C   UNL     1     -10.221  15.993  66.381  1.00  0.00    -0.305 A  
HETATM   20  N   UNL     1      -9.260  16.641  65.761  1.00  0.00    -0.503 NA 
HETATM   21  C   UNL     1      -8.942  17.677  66.610  1.00  0.00    -0.265 A  
HETATM   22  C   UNL     1      -8.012  18.716  66.506  1.00  0.00    -0.278 A  
HETATM   23  N   UNL     1      -7.867  19.566  67.549  1.00  0.00    -0.258 NA 
HETATM   24  N   UNL     1      -7.235  18.887  65.371  1.00  0.00    -0.479 NA 
HETATM   25  C   UNL     1      -8.665  19.393  68.620  1.00  0.00    -0.363 A  
HETATM   26  H1  UNL     1      -6.556  19.645  65.294  1.00  0.00     0.000 HD 
HETATM   27  H2  UNL     1      -7.863  18.947  64.569  1.00  0.00     0.000 HD 
HETATM   28  N   UNL     1      -9.620  18.458  68.822  1.00  0.00    -0.339 NA 
HETATM   29  C   UNL     1      -9.697  17.637  67.765  1.00  0.00    -0.280 A  
ENDBRANCH  17  18
ENDBRANCH  15  17
ENDBRANCH  14  15
ENDBRANCH  13  14
ENDBRANCH  11  13
BRANCH  11  30
HETATM   30  O   UNL     1     -11.315  10.402  70.793  1.00  0.00    -0.330 OA 
BRANCH  30  31
HETATM   31  C   UNL     1     -12.116   9.324  71.129  1.00  0.00    -0.316 A  
HETATM   32  C   UNL     1     -11.522   8.062  71.087  1.00  0.00    -0.302 A  
HETATM   33  C   UNL     1     -14.215   8.289  71.768  1.00  0.00    -0.544 A  
HETATM   34  C   UNL     1     -13.465   9.438  71.479  1.00  0.00    -0.445 A  
HETATM   35  C   UNL     1     -13.623   7.029  71.705  1.00  0.00    -0.346 A  
HETATM   36  C   UNL     1     -12.278   6.917  71.364  1.00  0.00    -0.418 A  
ENDBRANCH  30  31
ENDBRANCH  11  30
ENDBRANCH   9  11
ENDBRANCH   7   9
ENDBRANCH   5   7
ENDBRANCH   4   5
ENDBRANCH   2   4
TORSDOF 12
ENDMDL
MODEL       36
REMARK 921   NORMALIZED FREE ENERGY PREDICTED BY IDOCK:   -6.20 KCAL/MOL
REMARK 922        TOTAL FREE ENERGY PREDICTED BY IDOCK:  -12.27 KCAL/MOL
REMARK 923 INTER-LIGAND FREE ENERGY PREDICTED BY IDOCK:  -11.17 KCAL/MOL
REMARK 924 INTRA-LIGAND FREE ENERGY PREDICTED BY IDOCK:   -1.10 KCAL/MOL
REMARK 927      BINDING AFFINITY PREDICTED BY RF-SCORE:    0.00 PKD
ROOT
HETATM    1  C   UNL     1      -9.767  20.778  67.152  1.00  0.00    -0.457 C  
HETATM    2  C   UNL     1      -9.676  19.596  66.184  1.00  0.00    -0.406 C  
HETATM    3  C   UNL     1      -8.243  19.050  66.121  1.00  0.00    -0.246 C  
ENDROOT
BRANCH   2   4
HETATM    4  O   UNL     1     -10.738  18.610  66.401  1.00  0.00    -0.362 OA 
BRANCH   4   5
HETATM    5  C   UNL     1     -10.469  17.291  66.240  1.00  0.00    -0.268 C  
HETATM    6  O   UNL     1     -10.194  16.792  65.147  1.00  0.00    -0.599 OA 
BRANCH   5   7
HETATM    7  C   UNL     1     -10.540  16.400  67.513  1.00  0.00    -0.309 C  
HETATM    8  C   UNL     1      -9.282  16.620  68.351  1.00  0.00    -0.225 C  
BRANCH   7   9
HETATM    9  N   UNL     1     -10.857  14.926  67.373  1.00  0.00    -0.296 NA 
HETATM   10  H   UNL     1     -10.221  14.471  66.718  1.00  0.00     0.000 HD 
BRANCH   9  11
HETATM   11  P   UNL     1     -10.868  14.102  68.930  1.00  0.00    -0.235 P  
HETATM   12  O   UNL     1      -9.604  13.266  68.615  1.00  0.00    -0.166 OA 
BRANCH  11  13
HETATM   13  C   UNL     1     -11.899  12.491  68.906  1.00  0.00    -0.301 C  
BRANCH  13  14
HETATM   14  O   UNL     1     -12.084  11.901  70.247  1.00  0.00    -0.337 OA 
BRANCH  14  15
HETATM   15  C   UNL     1     -12.136  10.459  70.429  1.00  0.00    -0.315 C  
HETATM   16  C   UNL     1     -12.914  10.123  71.708  1.00  0.00    -0.567 C  
BRANCH  15  17
HETATM   17  C   UNL     1     -10.795   9.750  70.304  1.00  0.00    -0.301 C  
BRANCH  17  18
HETATM   18  N   UNL     1     -10.636   8.938  69.129  1.00  0.00    -0.220 NA 
HETATM   19  C   UNL     1     -10.559   9.353  67.826  1.00  0.00    -0.258 A  
HETATM   20  N   UNL     1     -10.328   8.348  67.010  1.00  0.00    -0.304 NA 
HETATM   21  C   UNL     1     -10.277   7.243  67.830  1.00  0.00    -0.191 A  
HETATM   22  C   UNL     1     -10.049   5.891  67.559  1.00  0.00    -0.165 A  
HETATM   23  N   UNL     1     -10.130   5.002  68.576  1.00  0.00    -0.144 NA 
HETATM   24  N   UNL     1      -9.755   5.444  66.281  1.00  0.00    -0.159 NA 
HETATM   25  C   UNL     1     -10.380   5.476  69.812  1.00  0.00    -0.296 A  
HETATM   26  H1  UNL     1      -9.588   4.457  66.083  1.00  0.00     0.000 HD 
HETATM   27  H2  UNL     1      -8.949   5.970  65.943  1.00  0.00     0.000 HD 
HETATM   28  N   UNL     1     -10.579   6.754  70.204  1.00  0.00    -0.208 NA 
HETATM   29  C   UNL     1     -10.509   7.580  69.148  1.00  0.00    -0.215 A  
ENDBRANCH  17  18
ENDBRANCH  15  17
ENDBRANCH  14  15
ENDBRANCH  13  14
ENDBRANCH  11  13
BRANCH  11  30
HETATM   30  O   UNL     1     -12.280  15.038  69.283  1.00  0.00    -0.261 OA 
BRANCH  30  31
HETATM   31  C   UNL     1     -12.511  15.326  70.616  1.00  0.00    -0.406 A  
HETATM   32  C   UNL     1     -13.804  15.105  71.093  1.00  0.00    -0.495 A  
HETATM   33  C   UNL     1     -11.867  16.137  72.810  1.00  0.00    -0.577 A  
HETATM   34  C   UNL     1     -11.538  15.836  71.481  1.00  0.00    -0.531 A  
HETATM   35  C   UNL     1     -13.165  15.935  73.276  1.00  0.00    -0.698 A  
HETATM   36  C   UNL     1     -14.132  15.420  72.417  1.00  0.00    -0.645 A  
ENDBRANCH  30  31
ENDBRANCH  11  30
ENDBRANCH   9  11
ENDBRANCH   7   9
ENDBRANCH   5   7
ENDBRANCH   4   5
ENDBRANCH   2   4
TORSDOF 12
ENDMDL
MODEL       37
REMARK 921   NORMALIZED FREE ENERGY PREDICTED BY IDOCK:   -6.20 KCAL/MOL
REMARK 922        TOTAL FREE ENERGY PREDICTED BY IDOCK:  -12.27 KCAL/MOL
REMARK 923 INTER-LIGAND FREE ENERGY PREDICTED BY IDOCK:  -10.61 KCAL/MOL
REMARK 924 INTRA-LIGAND FREE ENERGY PREDICTED BY IDOCK:   -1.66 KCAL/MOL
REMARK 927      BINDING AFFINITY PREDICTED BY RF-SCORE:    0.00 PKD
ROOT
HETATM    1  C   UNL     1     -12.432  12.149  63.658  1.00  0.00    -0.658 C  
HETATM    2  C   UNL     1     -12.074  13.131  64.776  1.00  0.00    -0.409 C  
HETATM    3  C   UNL     1     -12.501  14.558  64.407  1.00  0.00    -0.335 C  
ENDROOT
BRANCH   2   4
HETATM    4  O   UNL     1     -12.487  12.651  66.098  1.00  0.00    -0.520 OA 
BRANCH   4   5
HETATM    5  C   UNL     1     -11.654  12.806  67.157  1.00  0.00    -0.364 C  
HETATM    6  O   UNL     1     -11.184  13.897  67.485  1.00  0.00    -0.284 OA 
BRANCH   5   7
HETATM    7  C   UNL     1     -11.288  11.522  67.955  1.00  0.00    -0.303 C  
HETATM    8  C   UNL     1     -10.686  10.492  67.001  1.00  0.00    -0.310 C  
BRANCH   7   9
HETATM    9  N   UNL     1     -12.320  10.892  68.866  1.00  0.00    -0.759 NA 
HETATM   10  H   UNL     1     -12.560   9.950  68.557  1.00  0.00     0.000 HD 
BRANCH   9  11
HETATM   11  P   UNL     1     -11.807  10.902  70.551  1.00  0.00    -0.315 P  
HETATM   12  O   UNL     1     -10.600   9.966  70.299  1.00  0.00    -0.265 OA 
BRANCH  11  13
HETATM   13  C   UNL     1     -12.627   9.513  71.579  1.00  0.00    -0.373 C  
BRANCH  13  14
HETATM   14  O   UNL     1     -12.384   8.163  71.029  1.00  0.00    -0.258 OA 
BRANCH  14  15
HETATM   15  C   UNL     1     -11.846   7.101  71.863  1.00  0.00    -0.300 C  
HETATM   16  C   UNL     1     -11.025   7.704  73.010  1.00  0.00    -0.457 C  
BRANCH  15  17
HETATM   17  C   UNL     1     -11.141   5.986  71.103  1.00  0.00    -0.271 C  
BRANCH  17  18
HETATM   18  N   UNL     1     -10.607   6.357  69.822  1.00  0.00    -0.229 NA 
HETATM   19  C   UNL     1     -11.271   6.440  68.627  1.00  0.00    -0.248 A  
HETATM   20  N   UNL     1     -10.493   6.894  67.669  1.00  0.00    -0.202 NA 
HETATM   21  C   UNL     1      -9.274   7.087  68.280  1.00  0.00    -0.128 A  
HETATM   22  C   UNL     1      -8.054   7.566  67.794  1.00  0.00    -0.119 A  
HETATM   23  N   UNL     1      -6.985   7.580  68.623  1.00  0.00    -0.076 NA 
HETATM   24  N   UNL     1      -7.914   8.012  66.489  1.00  0.00    -0.100 NA 
HETATM   25  C   UNL     1      -7.165   7.175  69.894  1.00  0.00    -0.079 A  
HETATM   26  H1  UNL     1      -7.024   8.362  66.134  1.00  0.00     0.000 HD 
HETATM   27  H2  UNL     1      -8.619   8.732  66.327  1.00  0.00     0.000 HD 
HETATM   28  N   UNL     1      -8.295   6.731  70.488  1.00  0.00    -0.128 NA 
HETATM   29  C   UNL     1      -9.308   6.719  69.609  1.00  0.00    -0.144 A  
ENDBRANCH  17  18
ENDBRANCH  15  17
ENDBRANCH  14  15
ENDBRANCH  13  14
ENDBRANCH  11  13
BRANCH  11  30
HETATM   30  O   UNL     1     -13.156  11.949  70.832  1.00  0.00    -0.087 OA 
BRANCH  30  31
HETATM   31  C   UNL     1     -12.865  13.213  71.314  1.00  0.00    -0.296 A  
HETATM   32  C   UNL     1     -13.575  13.637  72.439  1.00  0.00    -0.703 A  
HETATM   33  C   UNL     1     -11.724  15.353  71.257  1.00  0.00    -0.433 A  
HETATM   34  C   UNL     1     -11.931  14.072  70.727  1.00  0.00    -0.364 A  
HETATM   35  C   UNL     1     -12.450  15.780  72.368  1.00  0.00    -0.540 A  
HETATM   36  C   UNL     1     -13.374  14.922  72.957  1.00  0.00    -0.556 A  
ENDBRANCH  30  31
ENDBRANCH  11  30
ENDBRANCH   9  11
ENDBRANCH   7   9
ENDBRANCH   5   7
ENDBRANCH   4   5
ENDBRANCH   2   4
TORSDOF 12
ENDMDL
MODEL       38
REMARK 921   NORMALIZED FREE ENERGY PREDICTED BY IDOCK:   -6.20 KCAL/MOL
REMARK 922        TOTAL FREE ENERGY PREDICTED BY IDOCK:  -12.26 KCAL/MOL
REMARK 923 INTER-LIGAND FREE ENERGY PREDICTED BY IDOCK:  -10.80 KCAL/MOL
REMARK 924 INTRA-LIGAND FREE ENERGY PREDICTED BY IDOCK:   -1.46 KCAL/MOL
REMARK 927      BINDING AFFINITY PREDICTED BY RF-SCORE:    0.00 PKD
ROOT
HETATM    1  C   UNL     1     -10.303  19.998  65.846  1.00  0.00    -0.529 C  
HETATM    2  C   UNL     1      -9.785  18.814  66.666  1.00  0.00    -0.344 C  
HETATM    3  C   UNL     1      -9.335  19.271  68.061  1.00  0.00    -0.388 C  
ENDROOT
BRANCH   2   4
HETATM    4  O   UNL     1     -10.689  17.662  66.622  1.00  0.00    -0.254 OA 
BRANCH   4   5
HETATM    5  C   UNL     1     -10.626  16.802  65.575  1.00  0.00    -0.230 C  
HETATM    6  O   UNL     1     -11.070  17.072  64.458  1.00  0.00    -1.098 OA 
BRANCH   5   7
HETATM    7  C   UNL     1      -9.973  15.416  65.845  1.00  0.00    -0.346 C  
HETATM    8  C   UNL     1      -8.562  15.623  66.393  1.00  0.00    -0.319 C  
BRANCH   7   9
HETATM    9  N   UNL     1      -9.991  14.360  64.759  1.00  0.00    -0.552 NA 
HETATM   10  H   UNL     1      -9.048  14.140  64.440  1.00  0.00     0.000 HD 
BRANCH   9  11
HETATM   11  P   UNL     1     -10.850  12.908  65.265  1.00  0.00    -0.313 P  
HETATM   12  O   UNL     1     -12.212  13.394  64.713  1.00  0.00    -0.380 OA 
BRANCH  11  13
HETATM   13  C   UNL     1     -11.557  13.048  67.037  1.00  0.00    -0.360 C  
BRANCH  13  14
HETATM   14  O   UNL     1     -10.600  12.620  68.079  1.00  0.00    -0.210 OA 
BRANCH  14  15
HETATM   15  C   UNL     1     -11.042  11.846  69.227  1.00  0.00    -0.203 C  
HETATM   16  C   UNL     1     -10.596  10.386  69.074  1.00  0.00    -0.247 C  
BRANCH  15  17
HETATM   17  C   UNL     1     -12.509  12.021  69.591  1.00  0.00     0.122 C  
BRANCH  17  18
HETATM   18  N   UNL     1     -12.759  12.722  70.821  1.00  0.00    -0.197 NA 
HETATM   19  C   UNL     1     -13.351  12.239  71.957  1.00  0.00    -0.386 A  
HETATM   20  N   UNL     1     -13.342  13.129  72.925  1.00  0.00    -0.388 NA 
HETATM   21  C   UNL     1     -12.735  14.233  72.370  1.00  0.00    -0.292 A  
HETATM   22  C   UNL     1     -12.422  15.488  72.900  1.00  0.00    -0.424 A  
HETATM   23  N   UNL     1     -11.878  16.421  72.083  1.00  0.00    -0.505 NA 
HETATM   24  N   UNL     1     -12.662  15.799  74.229  1.00  0.00    -0.821 NA 
HETATM   25  C   UNL     1     -11.623  16.073  70.808  1.00  0.00    -0.400 A  
HETATM   26  H1  UNL     1     -12.434  16.716  74.616  1.00  0.00     0.000 HD 
HETATM   27  H2  UNL     1     -12.201  15.094  74.804  1.00  0.00     0.000 HD 
HETATM   28  N   UNL     1     -11.843  14.889  70.193  1.00  0.00    -0.288 NA 
HETATM   29  C   UNL     1     -12.402  14.019  71.048  1.00  0.00    -0.369 A  
ENDBRANCH  17  18
ENDBRANCH  15  17
ENDBRANCH  14  15
ENDBRANCH  13  14
ENDBRANCH  11  13
BRANCH  11  30
HETATM   30  O   UNL     1      -9.327  12.365  65.882  1.00  0.00    -0.181 OA 
BRANCH  30  31
HETATM   31  C   UNL     1      -8.938  11.086  65.524  1.00  0.00    -0.194 A  
HETATM   32  C   UNL     1      -9.433  10.592  64.316  1.00  0.00    -0.321 A  
HETATM   33  C   UNL     1      -7.797   8.976  65.891  1.00  0.00    -0.102 A  
HETATM   34  C   UNL     1      -8.111  10.277  66.309  1.00  0.00    -0.129 A  
HETATM   35  C   UNL     1      -8.310   8.481  64.693  1.00  0.00    -0.156 A  
HETATM   36  C   UNL     1      -9.128   9.289  63.908  1.00  0.00     0.009 A  
ENDBRANCH  30  31
ENDBRANCH  11  30
ENDBRANCH   9  11
ENDBRANCH   7   9
ENDBRANCH   5   7
ENDBRANCH   4   5
ENDBRANCH   2   4
TORSDOF 12
ENDMDL
MODEL       39
REMARK 921   NORMALIZED FREE ENERGY PREDICTED BY IDOCK:   -6.19 KCAL/MOL
REMARK 922        TOTAL FREE ENERGY PREDICTED BY IDOCK:  -12.24 KCAL/MOL
REMARK 923 INTER-LIGAND FREE ENERGY PREDICTED BY IDOCK:  -10.79 KCAL/MOL
REMARK 924 INTRA-LIGAND FREE ENERGY PREDICTED BY IDOCK:   -1.45 KCAL/MOL
REMARK 927      BINDING AFFINITY PREDICTED BY RF-SCORE:    0.00 PKD
ROOT
HETATM    1  C   UNL     1      -8.332   9.661  64.652  1.00  0.00    -0.162 C  
HETATM    2  C   UNL     1      -9.298  10.613  65.361  1.00  0.00    -0.210 C  
HETATM    3  C   UNL     1     -10.477  10.975  64.447  1.00  0.00    -0.422 C  
ENDROOT
BRANCH   2   4
HETATM    4  O   UNL     1      -9.640  10.163  66.713  1.00  0.00    -0.166 OA 
BRANCH   4   5
HETATM    5  C   UNL     1      -9.126  10.814  67.785  1.00  0.00    -0.151 C  
HETATM    6  O   UNL     1      -8.494  10.243  68.676  1.00  0.00    -0.114 OA 
BRANCH   5   7
HETATM    7  C   UNL     1      -9.383  12.346  67.865  1.00  0.00    -0.195 C  
HETATM    8  C   UNL     1      -8.054  13.087  67.719  1.00  0.00    -0.168 C  
BRANCH   7   9
HETATM    9  N   UNL     1     -10.202  12.905  69.009  1.00  0.00    -0.434 NA 
HETATM   10  H   UNL     1      -9.663  13.575  69.557  1.00  0.00     0.000 HD 
BRANCH   9  11
HETATM   11  P   UNL     1     -11.719  13.606  68.454  1.00  0.00    -0.378 P  
HETATM   12  O   UNL     1     -12.089  12.381  67.583  1.00  0.00    -0.470 OA 
BRANCH  11  13
HETATM   13  C   UNL     1     -11.514  14.637  66.856  1.00  0.00    -0.363 C  
BRANCH  13  14
HETATM   14  O   UNL     1     -10.982  15.993  67.104  1.00  0.00    -0.289 OA 
BRANCH  14  15
HETATM   15  C   UNL     1     -10.265  16.717  66.066  1.00  0.00    -0.351 C  
HETATM   16  C   UNL     1      -8.826  16.195  65.966  1.00  0.00    -0.313 C  
BRANCH  15  17
HETATM   17  C   UNL     1     -10.381  18.232  66.147  1.00  0.00    -0.398 C  
BRANCH  17  18
HETATM   18  N   UNL     1      -9.465  18.872  67.050  1.00  0.00    -0.302 NA 
HETATM   19  C   UNL     1      -9.511  18.892  68.418  1.00  0.00    -0.356 A  
HETATM   20  N   UNL     1      -8.464  19.500  68.931  1.00  0.00    -0.326 NA 
HETATM   21  C   UNL     1      -7.731  19.903  67.837  1.00  0.00    -0.294 A  
HETATM   22  C   UNL     1      -6.515  20.582  67.730  1.00  0.00    -0.288 A  
HETATM   23  N   UNL     1      -6.061  20.912  66.498  1.00  0.00    -0.236 NA 
HETATM   24  N   UNL     1      -5.773  20.929  68.848  1.00  0.00    -0.358 NA 
HETATM   25  C   UNL     1      -6.788  20.526  65.433  1.00  0.00    -0.198 A  
HETATM   26  H1  UNL     1      -4.884  21.425  68.770  1.00  0.00     0.000 HD 
HETATM   27  H2  UNL     1      -5.611  20.082  69.392  1.00  0.00     0.000 HD 
HETATM   28  N   UNL     1      -7.951  19.837  65.406  1.00  0.00    -0.243 NA 
HETATM   29  C   UNL     1      -8.356  19.562  66.655  1.00  0.00    -0.318 A  
ENDBRANCH  17  18
ENDBRANCH  15  17
ENDBRANCH  14  15
ENDBRANCH  13  14
ENDBRANCH  11  13
BRANCH  11  30
HETATM   30  O   UNL     1     -11.306  14.976  69.427  1.00  0.00    -0.263 OA 
BRANCH  30  31
HETATM   31  C   UNL     1     -11.948  15.079  70.649  1.00  0.00    -0.318 A  
HETATM   32  C   UNL     1     -13.062  14.263  70.845  1.00  0.00    -0.368 A  
HETATM   33  C   UNL     1     -12.284  16.028  72.857  1.00  0.00    -0.621 A  
HETATM   34  C   UNL     1     -11.553  15.959  71.662  1.00  0.00    -0.541 A  
HETATM   35  C   UNL     1     -13.408  15.225  73.040  1.00  0.00    -0.610 A  
HETATM   36  C   UNL     1     -13.797  14.344  72.034  1.00  0.00    -0.567 A  
ENDBRANCH  30  31
ENDBRANCH  11  30
ENDBRANCH   9  11
ENDBRANCH   7   9
ENDBRANCH   5   7
ENDBRANCH   4   5
ENDBRANCH   2   4
TORSDOF 12
ENDMDL
MODEL       40
REMARK 921   NORMALIZED FREE ENERGY PREDICTED BY IDOCK:   -6.19 KCAL/MOL
REMARK 922        TOTAL FREE ENERGY PREDICTED BY IDOCK:  -12.24 KCAL/MOL
REMARK 923 INTER-LIGAND FREE ENERGY PREDICTED BY IDOCK:  -10.42 KCAL/MOL
REMARK 924 INTRA-LIGAND FREE ENERGY PREDICTED BY IDOCK:   -1.82 KCAL/MOL
REMARK 927      BINDING AFFINITY PREDICTED BY RF-SCORE:    0.00 PKD
ROOT
HETATM    1  C   UNL     1     -13.216  10.100  71.949  1.00  0.00    -0.557 C  
HETATM    2  C   UNL     1     -13.021  11.433  71.223  1.00  0.00    -0.316 C  
HETATM    3  C   UNL     1     -13.406  12.611  72.130  1.00  0.00    -0.570 C  
ENDROOT
BRANCH   2   4
HETATM    4  O   UNL     1     -11.717  11.525  70.560  1.00  0.00    -0.309 OA 
BRANCH   4   5
HETATM    5  C   UNL     1     -11.536  10.930  69.355  1.00  0.00    -0.316 C  
HETATM    6  O   UNL     1     -12.359  11.006  68.440  1.00  0.00    -0.528 OA 
BRANCH   5   7
HETATM    7  C   UNL     1     -10.227  10.111  69.167  1.00  0.00    -0.214 C  
HETATM    8  C   UNL     1      -9.893   9.389  70.471  1.00  0.00    -0.331 C  
BRANCH   7   9
HETATM    9  N   UNL     1      -9.004  10.787  68.583  1.00  0.00    -0.156 NA 
HETATM   10  H   UNL     1      -8.225  10.774  69.241  1.00  0.00     0.000 HD 
BRANCH   9  11
HETATM   11  P   UNL     1      -8.542  10.090  67.033  1.00  0.00    -0.124 P  
HETATM   12  O   UNL     1      -7.282  10.979  66.891  1.00  0.00    -0.117 OA 
BRANCH  11  13
HETATM   13  C   UNL     1      -9.319  11.014  65.549  1.00  0.00    -0.215 C  
BRANCH  13  14
HETATM   14  O   UNL     1     -10.306  12.035  65.953  1.00  0.00    -0.230 OA 
BRANCH  14  15
HETATM   15  C   UNL     1     -11.480  12.305  65.139  1.00  0.00    -0.341 C  
HETATM   16  C   UNL     1     -11.088  12.347  63.657  1.00  0.00    -0.535 C  
BRANCH  15  17
HETATM   17  C   UNL     1     -12.321  13.487  65.601  1.00  0.00    -0.476 C  
BRANCH  17  18
HETATM   18  N   UNL     1     -11.582  14.603  66.121  1.00  0.00    -0.355 NA 
HETATM   19  C   UNL     1     -10.813  15.498  65.426  1.00  0.00    -0.390 A  
HETATM   20  N   UNL     1     -10.347  16.447  66.208  1.00  0.00    -0.323 NA 
HETATM   21  C   UNL     1     -10.823  16.127  67.459  1.00  0.00    -0.284 A  
HETATM   22  C   UNL     1     -10.684  16.757  68.699  1.00  0.00    -0.352 A  
HETATM   23  N   UNL     1     -11.214  16.164  69.793  1.00  0.00    -0.341 NA 
HETATM   24  N   UNL     1     -10.011  17.962  68.832  1.00  0.00    -0.358 NA 
HETATM   25  C   UNL     1     -11.894  15.014  69.622  1.00  0.00    -0.324 A  
HETATM   26  H1  UNL     1      -9.908  18.422  69.737  1.00  0.00     0.000 HD 
HETATM   27  H2  UNL     1     -10.434  18.630  68.188  1.00  0.00     0.000 HD 
HETATM   28  N   UNL     1     -12.129  14.333  68.478  1.00  0.00    -0.305 NA 
HETATM   29  C   UNL     1     -11.559  14.960  67.438  1.00  0.00    -0.332 A  
ENDBRANCH  17  18
ENDBRANCH  15  17
ENDBRANCH  14  15
ENDBRANCH  13  14
ENDBRANCH  11  13
BRANCH  11  30
HETATM   30  O   UNL     1      -9.950   9.097  67.192  1.00  0.00    -0.185 OA 
BRANCH  30  31
HETATM   31  C   UNL     1      -9.819   7.776  66.801  1.00  0.00    -0.241 A  
HETATM   32  C   UNL     1      -8.705   7.457  66.024  1.00  0.00    -0.171 A  
HETATM   33  C   UNL     1     -10.552   5.468  66.654  1.00  0.00    -0.365 A  
HETATM   34  C   UNL     1     -10.741   6.776  67.124  1.00  0.00    -0.441 A  
HETATM   35  C   UNL     1      -9.449   5.159  65.860  1.00  0.00    -0.168 A  
HETATM   36  C   UNL     1      -8.528   6.154  65.545  1.00  0.00    -0.149 A  
ENDBRANCH  30  31
ENDBRANCH  11  30
ENDBRANCH   9  11
ENDBRANCH   7   9
ENDBRANCH   5   7
ENDBRANCH   4   5
ENDBRANCH   2   4
TORSDOF 12
ENDMDL
MODEL       41
REMARK 921   NORMALIZED FREE ENERGY PREDICTED BY IDOCK:   -6.18 KCAL/MOL
REMARK 922        TOTAL FREE ENERGY PREDICTED BY IDOCK:  -12.22 KCAL/MOL
REMARK 923 INTER-LIGAND FREE ENERGY PREDICTED BY IDOCK:  -11.02 KCAL/MOL
REMARK 924 INTRA-LIGAND FREE ENERGY PREDICTED BY IDOCK:   -1.20 KCAL/MOL
REMARK 927      BINDING AFFINITY PREDICTED BY RF-SCORE:    0.00 PKD
ROOT
HETATM    1  C   UNL     1     -10.276  19.862  68.513  1.00  0.00    -0.529 C  
HETATM    2  C   UNL     1     -10.607  18.732  67.535  1.00  0.00    -0.435 C  
HETATM    3  C   UNL     1     -10.397  19.185  66.084  1.00  0.00    -0.561 C  
ENDROOT
BRANCH   2   4
HETATM    4  O   UNL     1      -9.984  17.461  67.915  1.00  0.00    -0.277 OA 
BRANCH   4   5
HETATM    5  C   UNL     1     -10.679  16.306  67.771  1.00  0.00    -0.325 C  
HETATM    6  O   UNL     1     -11.701  16.054  68.412  1.00  0.00    -0.346 OA 
BRANCH   5   7
HETATM    7  C   UNL     1     -10.117  15.271  66.755  1.00  0.00    -0.258 C  
HETATM    8  C   UNL     1      -8.682  15.650  66.392  1.00  0.00    -0.354 C  
BRANCH   7   9
HETATM    9  N   UNL     1     -10.923  14.925  65.521  1.00  0.00    -0.334 NA 
HETATM   10  H   UNL     1     -10.337  14.913  64.687  1.00  0.00     0.000 HD 
BRANCH   9  11
HETATM   11  P   UNL     1     -11.800  13.409  65.709  1.00  0.00    -0.427 P  
HETATM   12  O   UNL     1     -13.174  14.041  65.378  1.00  0.00    -0.761 OA 
BRANCH  11  13
HETATM   13  C   UNL     1     -12.401  13.121  67.501  1.00  0.00     0.072 C  
BRANCH  13  14
HETATM   14  O   UNL     1     -12.020  11.798  68.036  1.00  0.00    -0.553 OA 
BRANCH  14  15
HETATM   15  C   UNL     1     -11.981  11.552  69.469  1.00  0.00    -0.335 C  
HETATM   16  C   UNL     1     -12.132  12.876  70.229  1.00  0.00    -0.377 C  
BRANCH  15  17
HETATM   17  C   UNL     1     -10.822  10.685  69.939  1.00  0.00    -0.241 C  
BRANCH  17  18
HETATM   18  N   UNL     1     -11.129   9.773  71.005  1.00  0.00    -0.350 NA 
HETATM   19  C   UNL     1     -12.361   9.459  71.513  1.00  0.00    -0.370 A  
HETATM   20  N   UNL     1     -12.284   8.519  72.430  1.00  0.00    -0.385 NA 
HETATM   21  C   UNL     1     -10.939   8.240  72.522  1.00  0.00    -0.354 A  
HETATM   22  C   UNL     1     -10.230   7.326  73.306  1.00  0.00    -0.319 A  
HETATM   23  N   UNL     1      -8.878   7.321  73.236  1.00  0.00    -0.136 NA 
HETATM   24  N   UNL     1     -10.874   6.438  74.154  1.00  0.00    -0.341 NA 
HETATM   25  C   UNL     1      -8.287   8.170  72.375  1.00  0.00    -0.170 A  
HETATM   26  H1  UNL     1     -10.356   5.771  74.727  1.00  0.00     0.000 HD 
HETATM   27  H2  UNL     1     -11.553   5.915  73.602  1.00  0.00     0.000 HD 
HETATM   28  N   UNL     1      -8.861   9.067  71.542  1.00  0.00    -0.336 NA 
HETATM   29  C   UNL     1     -10.196   9.037  71.677  1.00  0.00    -0.348 A  
ENDBRANCH  17  18
ENDBRANCH  15  17
ENDBRANCH  14  15
ENDBRANCH  13  14
ENDBRANCH  11  13
BRANCH  11  30
HETATM   30  O   UNL     1     -10.264  12.702  66.077  1.00  0.00    -0.260 OA 
BRANCH  30  31
HETATM   31  C   UNL     1      -9.801  11.741  65.197  1.00  0.00    -0.235 A  
HETATM   32  C   UNL     1     -10.334  11.759  63.907  1.00  0.00    -0.428 A  
HETATM   33  C   UNL     1      -8.477   9.799  64.595  1.00  0.00    -0.179 A  
HETATM   34  C   UNL     1      -8.863  10.761  65.538  1.00  0.00    -0.203 A  
HETATM   35  C   UNL     1      -9.027   9.809  63.315  1.00  0.00    -0.274 A  
HETATM   36  C   UNL     1      -9.955  10.789  62.973  1.00  0.00    -0.291 A  
ENDBRANCH  30  31
ENDBRANCH  11  30
ENDBRANCH   9  11
ENDBRANCH   7   9
ENDBRANCH   5   7
ENDBRANCH   4   5
ENDBRANCH   2   4
TORSDOF 12
ENDMDL
MODEL       42
REMARK 921   NORMALIZED FREE ENERGY PREDICTED BY IDOCK:   -6.16 KCAL/MOL
REMARK 922        TOTAL FREE ENERGY PREDICTED BY IDOCK:  -12.20 KCAL/MOL
REMARK 923 INTER-LIGAND FREE ENERGY PREDICTED BY IDOCK:  -10.95 KCAL/MOL
REMARK 924 INTRA-LIGAND FREE ENERGY PREDICTED BY IDOCK:   -1.26 KCAL/MOL
REMARK 927      BINDING AFFINITY PREDICTED BY RF-SCORE:    0.00 PKD
ROOT
HETATM    1  C   UNL     1      -8.704   9.103  63.636  1.00  0.00    -0.148 C  
HETATM    2  C   UNL     1      -9.378   9.704  64.872  1.00  0.00    -0.242 C  
HETATM    3  C   UNL     1      -8.799   9.099  66.158  1.00  0.00    -0.187 C  
ENDROOT
BRANCH   2   4
HETATM    4  O   UNL     1      -9.449  11.166  64.817  1.00  0.00    -0.220 OA 
BRANCH   4   5
HETATM    5  C   UNL     1     -10.618  11.768  64.487  1.00  0.00    -0.313 C  
HETATM    6  O   UNL     1     -11.380  11.325  63.625  1.00  0.00    -0.325 OA 
BRANCH   5   7
HETATM    7  C   UNL     1     -10.968  13.083  65.242  1.00  0.00    -0.284 C  
HETATM    8  C   UNL     1     -12.466  13.354  65.111  1.00  0.00    -0.509 C  
BRANCH   7   9
HETATM    9  N   UNL     1     -10.157  14.333  64.974  1.00  0.00    -0.549 NA 
HETATM   10  H   UNL     1     -10.666  14.984  64.376  1.00  0.00     0.000 HD 
BRANCH   9  11
HETATM   11  P   UNL     1      -9.634  15.112  66.465  1.00  0.00    -0.310 P  
HETATM   12  O   UNL     1      -9.265  13.777  67.157  1.00  0.00    -0.223 OA 
BRANCH  11  13
HETATM   13  C   UNL     1     -11.058  15.331  67.722  1.00  0.00    -0.318 C  
BRANCH  13  14
HETATM   14  O   UNL     1     -10.584  15.623  69.091  1.00  0.00    -0.212 OA 
BRANCH  14  15
HETATM   15  C   UNL     1     -11.524  15.822  70.182  1.00  0.00    -0.361 C  
HETATM   16  C   UNL     1     -10.838  15.528  71.521  1.00  0.00     0.032 C  
BRANCH  15  17
HETATM   17  C   UNL     1     -12.870  15.134  70.000  1.00  0.00    -0.086 C  
BRANCH  17  18
HETATM   18  N   UNL     1     -13.127  14.039  70.894  1.00  0.00    -0.275 NA 
HETATM   19  C   UNL     1     -13.867  14.051  72.046  1.00  0.00    -0.490 A  
HETATM   20  N   UNL     1     -13.966  12.851  72.573  1.00  0.00    -0.531 NA 
HETATM   21  C   UNL     1     -13.236  12.044  71.728  1.00  0.00    -0.317 A  
HETATM   22  C   UNL     1     -12.977  10.671  71.744  1.00  0.00    -0.472 A  
HETATM   23  N   UNL     1     -12.151  10.154  70.805  1.00  0.00    -0.318 NA 
HETATM   24  N   UNL     1     -13.536   9.835  72.699  1.00  0.00    -0.599 NA 
HETATM   25  C   UNL     1     -11.657  10.988  69.871  1.00  0.00    -0.337 A  
HETATM   26  H1  UNL     1     -13.347   8.832  72.711  1.00  0.00     0.000 HD 
HETATM   27  H2  UNL     1     -14.548   9.962  72.673  1.00  0.00     0.000 HD 
HETATM   28  N   UNL     1     -11.863  12.316  69.727  1.00  0.00    -0.329 NA 
HETATM   29  C   UNL     1     -12.669  12.769  70.700  1.00  0.00    -0.077 A  
ENDBRANCH  17  18
ENDBRANCH  15  17
ENDBRANCH  14  15
ENDBRANCH  13  14
ENDBRANCH  11  13
BRANCH  11  30
HETATM   30  O   UNL     1     -10.045  16.604  65.691  1.00  0.00    -0.508 OA 
BRANCH  30  31
HETATM   31  C   UNL     1      -9.685  17.763  66.355  1.00  0.00    -0.308 A  
HETATM   32  C   UNL     1     -10.535  18.861  66.214  1.00  0.00    -0.510 A  
HETATM   33  C   UNL     1      -8.214  19.111  67.735  1.00  0.00    -0.319 A  
HETATM   34  C   UNL     1      -8.524  17.888  67.126  1.00  0.00    -0.242 A  
HETATM   35  C   UNL     1      -9.055  20.211  67.574  1.00  0.00    -0.465 A  
HETATM   36  C   UNL     1     -10.214  20.084  66.814  1.00  0.00    -0.592 A  
ENDBRANCH  30  31
ENDBRANCH  11  30
ENDBRANCH   9  11
ENDBRANCH   7   9
ENDBRANCH   5   7
ENDBRANCH   4   5
ENDBRANCH   2   4
TORSDOF 12
ENDMDL
MODEL       43
REMARK 921   NORMALIZED FREE ENERGY PREDICTED BY IDOCK:   -6.16 KCAL/MOL
REMARK 922        TOTAL FREE ENERGY PREDICTED BY IDOCK:  -12.19 KCAL/MOL
REMARK 923 INTER-LIGAND FREE ENERGY PREDICTED BY IDOCK:  -11.05 KCAL/MOL
REMARK 924 INTRA-LIGAND FREE ENERGY PREDICTED BY IDOCK:   -1.14 KCAL/MOL
REMARK 927      BINDING AFFINITY PREDICTED BY RF-SCORE:    0.00 PKD
ROOT
HETATM    1  C   UNL     1     -11.383  15.128  71.297  1.00  0.00    -0.368 C  
HETATM    2  C   UNL     1     -12.494  14.087  71.452  1.00  0.00    -0.356 C  
HETATM    3  C   UNL     1     -13.877  14.752  71.396  1.00  0.00    -0.509 C  
ENDROOT
BRANCH   2   4
HETATM    4  O   UNL     1     -12.299  12.923  70.584  1.00  0.00    -0.358 OA 
BRANCH   4   5
HETATM    5  C   UNL     1     -12.730  11.704  70.991  1.00  0.00    -0.298 C  
HETATM    6  O   UNL     1     -13.462  11.545  71.970  1.00  0.00    -0.405 OA 
BRANCH   5   7
HETATM    7  C   UNL     1     -12.243  10.477  70.169  1.00  0.00    -0.280 C  
HETATM    8  C   UNL     1     -11.042   9.845  70.872  1.00  0.00    -0.418 C  
BRANCH   7   9
HETATM    9  N   UNL     1     -11.994  10.627  68.683  1.00  0.00    -0.772 NA 
HETATM   10  H   UNL     1     -12.251  11.559  68.357  1.00  0.00     0.000 HD 
BRANCH   9  11
HETATM   11  P   UNL     1     -10.333  10.233  68.248  1.00  0.00    -0.210 P  
HETATM   12  O   UNL     1      -9.792  11.636  68.618  1.00  0.00    -0.203 OA 
BRANCH  11  13
HETATM   13  C   UNL     1      -9.943  10.604  66.413  1.00  0.00    -0.222 C  
BRANCH  13  14
HETATM   14  O   UNL     1     -10.333  11.968  66.001  1.00  0.00    -0.226 OA 
BRANCH  14  15
HETATM   15  C   UNL     1     -11.502  12.193  65.167  1.00  0.00    -0.323 C  
HETATM   16  C   UNL     1     -11.097  12.183  63.687  1.00  0.00    -0.528 C  
BRANCH  15  17
HETATM   17  C   UNL     1     -12.362  13.381  65.576  1.00  0.00    -0.480 C  
BRANCH  17  18
HETATM   18  N   UNL     1     -11.781  14.673  65.334  1.00  0.00    -0.348 NA 
HETATM   19  C   UNL     1     -11.882  15.440  64.205  1.00  0.00    -0.199 A  
HETATM   20  N   UNL     1     -11.296  16.608  64.358  1.00  0.00    -1.044 NA 
HETATM   21  C   UNL     1     -10.782  16.570  65.635  1.00  0.00    -0.248 A  
HETATM   22  C   UNL     1     -10.068  17.512  66.380  1.00  0.00    -0.345 A  
HETATM   23  N   UNL     1      -9.621  17.165  67.609  1.00  0.00    -0.251 NA 
HETATM   24  N   UNL     1      -9.801  18.780  65.888  1.00  0.00    -0.491 NA 
HETATM   25  C   UNL     1      -9.930  15.939  68.071  1.00  0.00    -0.220 A  
HETATM   26  H1  UNL     1      -9.280  19.468  66.431  1.00  0.00     0.000 HD 
HETATM   27  H2  UNL     1     -10.689  19.204  65.617  1.00  0.00     0.000 HD 
HETATM   28  N   UNL     1     -10.641  14.961  67.466  1.00  0.00    -0.262 NA 
HETATM   29  C   UNL     1     -11.034  15.359  66.247  1.00  0.00    -0.278 A  
ENDBRANCH  17  18
ENDBRANCH  15  17
ENDBRANCH  14  15
ENDBRANCH  13  14
ENDBRANCH  11  13
BRANCH  11  30
HETATM   30  O   UNL     1     -10.938   8.665  67.835  1.00  0.00    -0.057 OA 
BRANCH  30  31
HETATM   31  C   UNL     1     -10.389   7.594  68.519  1.00  0.00    -0.198 A  
HETATM   32  C   UNL     1      -9.006   7.605  68.701  1.00  0.00    -0.133 A  
HETATM   33  C   UNL     1     -10.496   5.452  69.652  1.00  0.00    -0.361 A  
HETATM   34  C   UNL     1     -11.137   6.517  69.004  1.00  0.00    -0.375 A  
HETATM   35  C   UNL     1      -9.112   5.458  69.814  1.00  0.00    -0.157 A  
HETATM   36  C   UNL     1      -8.369   6.534  69.338  1.00  0.00    -0.123 A  
ENDBRANCH  30  31
ENDBRANCH  11  30
ENDBRANCH   9  11
ENDBRANCH   7   9
ENDBRANCH   5   7
ENDBRANCH   4   5
ENDBRANCH   2   4
TORSDOF 12
ENDMDL
MODEL       44
REMARK 921   NORMALIZED FREE ENERGY PREDICTED BY IDOCK:   -6.15 KCAL/MOL
REMARK 922        TOTAL FREE ENERGY PREDICTED BY IDOCK:  -12.18 KCAL/MOL
REMARK 923 INTER-LIGAND FREE ENERGY PREDICTED BY IDOCK:  -10.80 KCAL/MOL
REMARK 924 INTRA-LIGAND FREE ENERGY PREDICTED BY IDOCK:   -1.38 KCAL/MOL
REMARK 927      BINDING AFFINITY PREDICTED BY RF-SCORE:    0.00 PKD
ROOT
HETATM    1  C   UNL     1     -11.056   6.456  68.587  1.00  0.00    -0.393 C  
HETATM    2  C   UNL     1     -10.152   6.501  67.352  1.00  0.00    -0.162 C  
HETATM    3  C   UNL     1     -10.378   5.269  66.465  1.00  0.00    -0.332 C  
ENDROOT
BRANCH   2   4
HETATM    4  O   UNL     1     -10.187   7.802  66.678  1.00  0.00    -0.269 OA 
BRANCH   4   5
HETATM    5  C   UNL     1      -9.347   8.787  67.079  1.00  0.00    -0.157 C  
HETATM    6  O   UNL     1      -8.398   8.589  67.841  1.00  0.00    -0.124 OA 
BRANCH   5   7
HETATM    7  C   UNL     1      -9.637  10.218  66.544  1.00  0.00    -0.181 C  
HETATM    8  C   UNL     1      -8.657  10.543  65.417  1.00  0.00    -0.188 C  
BRANCH   7   9
HETATM    9  N   UNL     1      -9.753  11.369  67.521  1.00  0.00    -0.177 NA 
HETATM   10  H   UNL     1      -9.398  12.236  67.116  1.00  0.00     0.000 HD 
BRANCH   9  11
HETATM   11  P   UNL     1     -11.399  11.568  68.116  1.00  0.00    -0.326 P  
HETATM   12  O   UNL     1     -12.008  11.694  66.698  1.00  0.00    -0.503 OA 
BRANCH  11  13
HETATM   13  C   UNL     1     -11.851  13.398  68.437  1.00  0.00    -0.366 C  
BRANCH  13  14
HETATM   14  O   UNL     1     -12.130  14.153  67.198  1.00  0.00    -0.426 OA 
BRANCH  14  15
HETATM   15  C   UNL     1     -11.115  15.000  66.594  1.00  0.00    -0.326 C  
HETATM   16  C   UNL     1     -10.782  14.492  65.185  1.00  0.00    -0.422 C  
BRANCH  15  17
HETATM   17  C   UNL     1      -9.900  15.268  67.470  1.00  0.00    -0.213 C  
BRANCH  17  18
HETATM   18  N   UNL     1      -9.077  16.372  67.061  1.00  0.00    -0.208 NA 
HETATM   19  C   UNL     1      -7.793  16.333  66.588  1.00  0.00    -0.275 A  
HETATM   20  N   UNL     1      -7.372  17.525  66.226  1.00  0.00    -0.294 NA 
HETATM   21  C   UNL     1      -8.430  18.362  66.503  1.00  0.00    -0.270 A  
HETATM   22  C   UNL     1      -8.601  19.737  66.326  1.00  0.00    -0.364 A  
HETATM   23  N   UNL     1      -9.745  20.312  66.764  1.00  0.00    -0.430 NA 
HETATM   24  N   UNL     1      -7.627  20.522  65.726  1.00  0.00    -0.526 NA 
HETATM   25  C   UNL     1     -10.685  19.515  67.307  1.00  0.00    -0.484 A  
HETATM   26  H1  UNL     1      -7.752  21.526  65.598  1.00  0.00     0.000 HD 
HETATM   27  H2  UNL     1      -7.414  20.114  64.816  1.00  0.00     0.000 HD 
HETATM   28  N   UNL     1     -10.653  18.177  67.496  1.00  0.00    -0.413 NA 
HETATM   29  C   UNL     1      -9.487  17.674  67.063  1.00  0.00    -0.266 A  
ENDBRANCH  17  18
ENDBRANCH  15  17
ENDBRANCH  14  15
ENDBRANCH  13  14
ENDBRANCH  11  13
BRANCH  11  30
HETATM   30  O   UNL     1     -10.718  11.426  69.701  1.00  0.00    -0.125 OA 
BRANCH  30  31
HETATM   31  C   UNL     1     -11.413  10.639  70.602  1.00  0.00    -0.281 A  
HETATM   32  C   UNL     1     -10.733   9.545  71.138  1.00  0.00    -0.408 A  
HETATM   33  C   UNL     1     -13.384  10.001  71.864  1.00  0.00    -0.516 A  
HETATM   34  C   UNL     1     -12.741  10.871  70.973  1.00  0.00    -0.505 A  
HETATM   35  C   UNL     1     -12.707   8.898  72.382  1.00  0.00    -0.436 A  
HETATM   36  C   UNL     1     -11.383   8.671  72.018  1.00  0.00    -0.432 A  
ENDBRANCH  30  31
ENDBRANCH  11  30
ENDBRANCH   9  11
ENDBRANCH   7   9
ENDBRANCH   5   7
ENDBRANCH   4   5
ENDBRANCH   2   4
TORSDOF 12
ENDMDL
MODEL       45
REMARK 921   NORMALIZED FREE ENERGY PREDICTED BY IDOCK:   -6.15 KCAL/MOL
REMARK 922        TOTAL FREE ENERGY PREDICTED BY IDOCK:  -12.17 KCAL/MOL
REMARK 923 INTER-LIGAND FREE ENERGY PREDICTED BY IDOCK:  -10.10 KCAL/MOL
REMARK 924 INTRA-LIGAND FREE ENERGY PREDICTED BY IDOCK:   -2.07 KCAL/MOL
REMARK 927      BINDING AFFINITY PREDICTED BY RF-SCORE:    0.00 PKD
ROOT
HETATM    1  C   UNL     1     -11.268  11.598  63.719  1.00  0.00    -0.498 C  
HETATM    2  C   UNL     1     -10.411  12.176  64.848  1.00  0.00    -0.288 C  
HETATM    3  C   UNL     1      -9.312  11.187  65.261  1.00  0.00    -0.243 C  
ENDROOT
BRANCH   2   4
HETATM    4  O   UNL     1      -9.980  13.550  64.578  1.00  0.00    -0.264 OA 
BRANCH   4   5
HETATM    5  C   UNL     1     -10.724  14.587  65.034  1.00  0.00    -0.427 C  
HETATM    6  O   UNL     1     -10.635  15.728  64.577  1.00  0.00    -0.406 OA 
BRANCH   5   7
HETATM    7  C   UNL     1     -11.709  14.285  66.199  1.00  0.00    -0.390 C  
HETATM    8  C   UNL     1     -13.144  14.458  65.703  1.00  0.00     0.061 C  
BRANCH   7   9
HETATM    9  N   UNL     1     -11.506  14.958  67.540  1.00  0.00    -0.346 NA 
HETATM   10  H   UNL     1     -12.333  15.488  67.818  1.00  0.00     0.000 HD 
BRANCH   9  11
HETATM   11  P   UNL     1     -11.034  13.811  68.791  1.00  0.00    -0.260 P  
HETATM   12  O   UNL     1      -9.619  13.590  68.200  1.00  0.00    -0.205 OA 
BRANCH  11  13
HETATM   13  C   UNL     1     -11.468  12.005  68.337  1.00  0.00    -0.301 C  
BRANCH  13  14
HETATM   14  O   UNL     1     -12.554  11.443  69.167  1.00  0.00    -0.255 OA 
BRANCH  14  15
HETATM   15  C   UNL     1     -12.266  10.513  70.246  1.00  0.00    -0.311 C  
HETATM   16  C   UNL     1     -12.913  11.007  71.547  1.00  0.00    -0.553 C  
BRANCH  15  17
HETATM   17  C   UNL     1     -10.801  10.122  70.381  1.00  0.00    -0.301 C  
BRANCH  17  18
HETATM   18  N   UNL     1     -10.511   8.734  70.150  1.00  0.00    -0.207 NA 
HETATM   19  C   UNL     1     -10.305   7.753  71.083  1.00  0.00    -0.200 A  
HETATM   20  N   UNL     1     -10.148   6.574  70.522  1.00  0.00    -0.183 NA 
HETATM   21  C   UNL     1     -10.237   6.822  69.170  1.00  0.00    -0.181 A  
HETATM   22  C   UNL     1     -10.167   5.976  68.061  1.00  0.00    -0.181 A  
HETATM   23  N   UNL     1     -10.218   6.521  66.823  1.00  0.00    -0.198 NA 
HETATM   24  N   UNL     1     -10.037   4.602  68.199  1.00  0.00    -0.058 NA 
HETATM   25  C   UNL     1     -10.382   7.853  66.725  1.00  0.00    -0.287 A  
HETATM   26  H1  UNL     1      -9.985   3.984  67.389  1.00  0.00     0.000 HD 
HETATM   27  H2  UNL     1     -10.797   4.275  68.795  1.00  0.00     0.000 HD 
HETATM   28  N   UNL     1     -10.501   8.766  67.716  1.00  0.00    -0.241 NA 
HETATM   29  C   UNL     1     -10.420   8.166  68.913  1.00  0.00    -0.185 A  
ENDBRANCH  17  18
ENDBRANCH  15  17
ENDBRANCH  14  15
ENDBRANCH  13  14
ENDBRANCH  11  13
BRANCH  11  30
HETATM   30  O   UNL     1     -12.614  14.059  69.451  1.00  0.00    -0.193 OA 
BRANCH  30  31
HETATM   31  C   UNL     1     -12.676  14.687  70.682  1.00  0.00    -0.357 A  
HETATM   32  C   UNL     1     -13.911  14.678  71.332  1.00  0.00    -0.473 A  
HETATM   33  C   UNL     1     -11.749  15.981  72.513  1.00  0.00    -0.547 A  
HETATM   34  C   UNL     1     -11.590  15.334  71.279  1.00  0.00    -0.430 A  
HETATM   35  C   UNL     1     -12.989  15.986  73.149  1.00  0.00    -0.627 A  
HETATM   36  C   UNL     1     -14.068  15.336  72.557  1.00  0.00    -0.567 A  
ENDBRANCH  30  31
ENDBRANCH  11  30
ENDBRANCH   9  11
ENDBRANCH   7   9
ENDBRANCH   5   7
ENDBRANCH   4   5
ENDBRANCH   2   4
TORSDOF 12
ENDMDL
MODEL       46
REMARK 921   NORMALIZED FREE ENERGY PREDICTED BY IDOCK:   -6.15 KCAL/MOL
REMARK 922        TOTAL FREE ENERGY PREDICTED BY IDOCK:  -12.17 KCAL/MOL
REMARK 923 INTER-LIGAND FREE ENERGY PREDICTED BY IDOCK:  -11.07 KCAL/MOL
REMARK 924 INTRA-LIGAND FREE ENERGY PREDICTED BY IDOCK:   -1.10 KCAL/MOL
REMARK 927      BINDING AFFINITY PREDICTED BY RF-SCORE:    0.00 PKD
ROOT
HETATM    1  C   UNL     1     -12.663  15.858  73.748  1.00  0.00    -0.729 C  
HETATM    2  C   UNL     1     -13.082  14.807  72.717  1.00  0.00    -0.474 C  
HETATM    3  C   UNL     1     -14.341  15.255  71.961  1.00  0.00    -0.689 C  
ENDROOT
BRANCH   2   4
HETATM    4  O   UNL     1     -11.960  14.349  71.894  1.00  0.00    -0.262 OA 
BRANCH   4   5
HETATM    5  C   UNL     1     -11.711  14.952  70.706  1.00  0.00    -0.311 C  
HETATM    6  O   UNL     1     -11.486  16.160  70.601  1.00  0.00    -0.379 OA 
BRANCH   5   7
HETATM    7  C   UNL     1     -11.737  14.048  69.441  1.00  0.00    -0.315 C  
HETATM    8  C   UNL     1     -11.955  12.596  69.864  1.00  0.00    -0.365 C  
BRANCH   7   9
HETATM    9  N   UNL     1     -10.624  14.162  68.420  1.00  0.00    -0.252 NA 
HETATM   10  H   UNL     1     -10.335  13.243  68.084  1.00  0.00     0.000 HD 
BRANCH   9  11
HETATM   11  P   UNL     1     -11.059  15.224  67.084  1.00  0.00    -0.241 P  
HETATM   12  O   UNL     1     -12.335  14.423  66.725  1.00  0.00    -0.392 OA 
BRANCH  11  13
HETATM   13  C   UNL     1     -10.287  14.673  65.423  1.00  0.00    -0.383 C  
BRANCH  13  14
HETATM   14  O   UNL     1     -11.271  14.079  64.494  1.00  0.00    -0.371 OA 
BRANCH  14  15
HETATM   15  C   UNL     1     -11.181  12.683  64.100  1.00  0.00    -0.386 C  
HETATM   16  C   UNL     1     -12.534  12.206  63.557  1.00  0.00    -0.666 C  
BRANCH  15  17
HETATM   17  C   UNL     1     -10.561  11.763  65.143  1.00  0.00    -0.283 C  
BRANCH  17  18
HETATM   18  N   UNL     1      -9.847  10.632  64.618  1.00  0.00    -0.293 NA 
HETATM   19  C   UNL     1      -9.532  10.371  63.312  1.00  0.00    -0.323 A  
HETATM   20  N   UNL     1      -8.796   9.287  63.197  1.00  0.00    -0.195 NA 
HETATM   21  C   UNL     1      -8.656   8.828  64.488  1.00  0.00    -0.099 A  
HETATM   22  C   UNL     1      -7.975   7.729  65.017  1.00  0.00    -0.134 A  
HETATM   23  N   UNL     1      -8.073   7.481  66.344  1.00  0.00    -0.110 NA 
HETATM   24  N   UNL     1      -7.214   6.889  64.219  1.00  0.00    -0.062 NA 
HETATM   25  C   UNL     1      -8.789   8.338  67.096  1.00  0.00    -0.137 A  
HETATM   26  H1  UNL     1      -6.716   6.087  64.605  1.00  0.00     0.000 HD 
HETATM   27  H2  UNL     1      -6.538   7.464  63.716  1.00  0.00     0.000 HD 
HETATM   28  N   UNL     1      -9.456   9.449  66.710  1.00  0.00    -0.156 NA 
HETATM   29  C   UNL     1      -9.338   9.625  65.385  1.00  0.00    -0.259 A  
ENDBRANCH  17  18
ENDBRANCH  15  17
ENDBRANCH  14  15
ENDBRANCH  13  14
ENDBRANCH  11  13
BRANCH  11  30
HETATM   30  O   UNL     1      -9.633  16.119  67.486  1.00  0.00    -0.227 OA 
BRANCH  30  31
HETATM   31  C   UNL     1      -9.683  17.485  67.271  1.00  0.00    -0.276 A  
HETATM   32  C   UNL     1      -9.113  18.297  68.253  1.00  0.00    -0.318 A  
HETATM   33  C   UNL     1     -10.323  19.471  66.034  1.00  0.00    -0.604 A  
HETATM   34  C   UNL     1     -10.282  18.075  66.154  1.00  0.00    -0.364 A  
HETATM   35  C   UNL     1      -9.771  20.278  67.026  1.00  0.00    -0.598 A  
HETATM   36  C   UNL     1      -9.168  19.691  68.135  1.00  0.00    -0.418 A  
ENDBRANCH  30  31
ENDBRANCH  11  30
ENDBRANCH   9  11
ENDBRANCH   7   9
ENDBRANCH   5   7
ENDBRANCH   4   5
ENDBRANCH   2   4
TORSDOF 12
ENDMDL
MODEL       47
REMARK 921   NORMALIZED FREE ENERGY PREDICTED BY IDOCK:   -6.13 KCAL/MOL
REMARK 922        TOTAL FREE ENERGY PREDICTED BY IDOCK:  -12.14 KCAL/MOL
REMARK 923 INTER-LIGAND FREE ENERGY PREDICTED BY IDOCK:  -11.02 KCAL/MOL
REMARK 924 INTRA-LIGAND FREE ENERGY PREDICTED BY IDOCK:   -1.12 KCAL/MOL
REMARK 927      BINDING AFFINITY PREDICTED BY RF-SCORE:    0.00 PKD
ROOT
HETATM    1  C   UNL     1      -7.897   9.409  64.811  1.00  0.00    -0.118 C  
HETATM    2  C   UNL     1      -9.068  10.169  65.439  1.00  0.00    -0.188 C  
HETATM    3  C   UNL     1     -10.000  10.729  64.356  1.00  0.00    -0.400 C  
ENDROOT
BRANCH   2   4
HETATM    4  O   UNL     1      -9.708   9.418  66.522  1.00  0.00    -0.198 OA 
BRANCH   4   5
HETATM    5  C   UNL     1      -9.395   9.702  67.810  1.00  0.00    -0.127 C  
HETATM    6  O   UNL     1      -9.151   8.832  68.648  1.00  0.00    -0.141 OA 
BRANCH   5   7
HETATM    7  C   UNL     1      -9.370  11.205  68.211  1.00  0.00    -0.176 C  
HETATM    8  C   UNL     1      -7.924  11.636  68.457  1.00  0.00    -0.144 C  
BRANCH   7   9
HETATM    9  N   UNL     1     -10.285  11.698  69.312  1.00  0.00    -0.425 NA 
HETATM   10  H   UNL     1      -9.790  12.311  69.959  1.00  0.00     0.000 HD 
BRANCH   9  11
HETATM   11  P   UNL     1     -11.728  12.479  68.670  1.00  0.00    -0.277 P  
HETATM   12  O   UNL     1     -12.260  11.186  68.005  1.00  0.00    -0.584 OA 
BRANCH  11  13
HETATM   13  C   UNL     1     -11.453  13.221  66.929  1.00  0.00    -0.338 C  
BRANCH  13  14
HETATM   14  O   UNL     1     -10.904  14.592  66.963  1.00  0.00    -0.292 OA 
BRANCH  14  15
HETATM   15  C   UNL     1      -9.490  14.838  66.730  1.00  0.00    -0.254 C  
HETATM   16  C   UNL     1      -8.791  15.159  68.057  1.00  0.00    -0.170 C  
BRANCH  15  17
HETATM   17  C   UNL     1      -9.188  15.820  65.606  1.00  0.00    -0.087 C  
BRANCH  17  18
HETATM   18  N   UNL     1      -8.496  17.015  66.002  1.00  0.00    -0.517 NA 
HETATM   19  C   UNL     1      -7.147  17.252  65.976  1.00  0.00    -0.165 A  
HETATM   20  N   UNL     1      -6.864  18.486  66.329  1.00  0.00    -0.215 NA 
HETATM   21  C   UNL     1      -8.088  19.052  66.612  1.00  0.00    -0.274 A  
HETATM   22  C   UNL     1      -8.447  20.338  67.023  1.00  0.00    -0.319 A  
HETATM   23  N   UNL     1      -9.747  20.593  67.299  1.00  0.00    -0.470 NA 
HETATM   24  N   UNL     1      -7.507  21.348  67.162  1.00  0.00    -0.794 NA 
HETATM   25  C   UNL     1     -10.638  19.601  67.117  1.00  0.00    -0.487 A  
HETATM   26  H1  UNL     1      -7.769  22.287  67.462  1.00  0.00     0.000 HD 
HETATM   27  H2  UNL     1      -7.004  21.431  66.279  1.00  0.00     0.000 HD 
HETATM   28  N   UNL     1     -10.421  18.336  66.691  1.00  0.00    -0.375 NA 
HETATM   29  C   UNL     1      -9.114  18.143  66.457  1.00  0.00    -0.276 A  
ENDBRANCH  17  18
ENDBRANCH  15  17
ENDBRANCH  14  15
ENDBRANCH  13  14
ENDBRANCH  11  13
BRANCH  11  30
HETATM   30  O   UNL     1     -11.133  13.924  69.414  1.00  0.00    -0.242 OA 
BRANCH  30  31
HETATM   31  C   UNL     1     -11.790  14.343  70.558  1.00  0.00    -0.299 A  
HETATM   32  C   UNL     1     -11.340  15.527  71.144  1.00  0.00    -0.442 A  
HETATM   33  C   UNL     1     -13.429  14.116  72.332  1.00  0.00    -0.616 A  
HETATM   34  C   UNL     1     -12.844  13.640  71.150  1.00  0.00    -0.399 A  
HETATM   35  C   UNL     1     -12.962  15.288  72.926  1.00  0.00    -0.564 A  
HETATM   36  C   UNL     1     -11.918  15.991  72.331  1.00  0.00    -0.644 A  
ENDBRANCH  30  31
ENDBRANCH  11  30
ENDBRANCH   9  11
ENDBRANCH   7   9
ENDBRANCH   5   7
ENDBRANCH   4   5
ENDBRANCH   2   4
TORSDOF 12
ENDMDL
MODEL       48
REMARK 921   NORMALIZED FREE ENERGY PREDICTED BY IDOCK:   -6.11 KCAL/MOL
REMARK 922        TOTAL FREE ENERGY PREDICTED BY IDOCK:  -12.11 KCAL/MOL
REMARK 923 INTER-LIGAND FREE ENERGY PREDICTED BY IDOCK:   -9.88 KCAL/MOL
REMARK 924 INTRA-LIGAND FREE ENERGY PREDICTED BY IDOCK:   -2.23 KCAL/MOL
REMARK 927      BINDING AFFINITY PREDICTED BY RF-SCORE:    0.00 PKD
ROOT
HETATM    1  C   UNL     1     -13.505   7.812  71.647  1.00  0.00    -0.401 C  
HETATM    2  C   UNL     1     -11.987   7.653  71.544  1.00  0.00    -0.303 C  
HETATM    3  C   UNL     1     -11.559   6.230  71.931  1.00  0.00    -0.369 C  
ENDROOT
BRANCH   2   4
HETATM    4  O   UNL     1     -11.452   8.171  70.282  1.00  0.00    -0.200 OA 
BRANCH   4   5
HETATM    5  C   UNL     1     -10.630   9.250  70.296  1.00  0.00    -0.235 C  
HETATM    6  O   UNL     1      -9.609   9.305  70.983  1.00  0.00    -0.271 OA 
BRANCH   5   7
HETATM    7  C   UNL     1     -11.041  10.456  69.404  1.00  0.00    -0.254 C  
HETATM    8  C   UNL     1     -12.323  11.077  69.956  1.00  0.00    -0.377 C  
BRANCH   7   9
HETATM    9  N   UNL     1     -11.119  10.278  67.902  1.00  0.00    -0.390 NA 
HETATM   10  H   UNL     1     -11.756  10.955  67.481  1.00  0.00     0.000 HD 
BRANCH   9  11
HETATM   11  P   UNL     1      -9.529  10.341  67.146  1.00  0.00    -0.164 P  
HETATM   12  O   UNL     1      -9.114  11.638  67.883  1.00  0.00    -0.159 OA 
BRANCH  11  13
HETATM   13  C   UNL     1      -9.532  11.318  65.502  1.00  0.00    -0.229 C  
BRANCH  13  14
HETATM   14  O   UNL     1     -10.742  11.079  64.687  1.00  0.00    -0.324 OA 
BRANCH  14  15
HETATM   15  C   UNL     1     -11.767  12.101  64.552  1.00  0.00    -0.338 C  
HETATM   16  C   UNL     1     -12.589  11.850  63.283  1.00  0.00    -0.473 C  
BRANCH  15  17
HETATM   17  C   UNL     1     -11.269  13.531  64.707  1.00  0.00    -0.352 C  
BRANCH  17  18
HETATM   18  N   UNL     1     -11.448  14.107  66.011  1.00  0.00    -0.334 NA 
HETATM   19  C   UNL     1     -12.025  13.531  67.111  1.00  0.00    -0.381 A  
HETATM   20  N   UNL     1     -11.946  14.313  68.166  1.00  0.00    -0.333 NA 
HETATM   21  C   UNL     1     -11.309  15.444  67.709  1.00  0.00    -0.306 A  
HETATM   22  C   UNL     1     -10.924  16.622  68.355  1.00  0.00    -0.345 A  
HETATM   23  N   UNL     1     -10.366  17.613  67.621  1.00  0.00    -0.354 NA 
HETATM   24  N   UNL     1     -11.109  16.800  69.717  1.00  0.00    -0.388 NA 
HETATM   25  C   UNL     1     -10.167  17.392  66.308  1.00  0.00    -0.341 A  
HETATM   26  H1  UNL     1     -10.828  17.661  70.189  1.00  0.00     0.000 HD 
HETATM   27  H2  UNL     1     -10.662  16.020  70.198  1.00  0.00     0.000 HD 
HETATM   28  N   UNL     1     -10.458  16.290  65.582  1.00  0.00    -0.400 NA 
HETATM   29  C   UNL     1     -11.028  15.358  66.361  1.00  0.00    -0.277 A  
ENDBRANCH  17  18
ENDBRANCH  15  17
ENDBRANCH  14  15
ENDBRANCH  13  14
ENDBRANCH  11  13
BRANCH  11  30
HETATM   30  O   UNL     1      -9.993   8.891  66.323  1.00  0.00    -0.282 OA 
BRANCH  30  31
HETATM   31  C   UNL     1      -9.879   7.713  67.038  1.00  0.00    -0.215 A  
HETATM   32  C   UNL     1      -8.695   7.523  67.753  1.00  0.00    -0.123 A  
HETATM   33  C   UNL     1     -10.648   5.535  67.782  1.00  0.00    -0.229 A  
HETATM   34  C   UNL     1     -10.861   6.718  67.060  1.00  0.00    -0.453 A  
HETATM   35  C   UNL     1      -9.455   5.341  68.477  1.00  0.00    -0.166 A  
HETATM   36  C   UNL     1      -8.480   6.335  68.461  1.00  0.00    -0.115 A  
ENDBRANCH  30  31
ENDBRANCH  11  30
ENDBRANCH   9  11
ENDBRANCH   7   9
ENDBRANCH   5   7
ENDBRANCH   4   5
ENDBRANCH   2   4
TORSDOF 12
ENDMDL
MODEL       49
REMARK 921   NORMALIZED FREE ENERGY PREDICTED BY IDOCK:   -6.11 KCAL/MOL
REMARK 922        TOTAL FREE ENERGY PREDICTED BY IDOCK:  -12.10 KCAL/MOL
REMARK 923 INTER-LIGAND FREE ENERGY PREDICTED BY IDOCK:  -10.60 KCAL/MOL
REMARK 924 INTRA-LIGAND FREE ENERGY PREDICTED BY IDOCK:   -1.51 KCAL/MOL
REMARK 927      BINDING AFFINITY PREDICTED BY RF-SCORE:    0.00 PKD
ROOT
HETATM    1  C   UNL     1     -12.970  16.091  73.615  1.00  0.00    -0.673 C  
HETATM    2  C   UNL     1     -13.096  14.854  72.722  1.00  0.00    -0.462 C  
HETATM    3  C   UNL     1     -14.401  14.892  71.916  1.00  0.00    -0.667 C  
ENDROOT
BRANCH   2   4
HETATM    4  O   UNL     1     -11.872  14.583  71.963  1.00  0.00    -0.248 OA 
BRANCH   4   5
HETATM    5  C   UNL     1     -11.710  15.135  70.735  1.00  0.00    -0.325 C  
HETATM    6  O   UNL     1     -11.555  16.346  70.560  1.00  0.00    -0.281 OA 
BRANCH   5   7
HETATM    7  C   UNL     1     -11.745  14.165  69.520  1.00  0.00    -0.312 C  
HETATM    8  C   UNL     1     -11.993  12.743  70.019  1.00  0.00    -0.371 C  
BRANCH   7   9
HETATM    9  N   UNL     1     -10.624  14.205  68.503  1.00  0.00    -0.246 NA 
HETATM   10  H   UNL     1     -10.386  13.267  68.178  1.00  0.00     0.000 HD 
BRANCH   9  11
HETATM   11  P   UNL     1     -10.993  15.274  67.153  1.00  0.00    -0.283 P  
HETATM   12  O   UNL     1     -12.254  14.481  66.733  1.00  0.00    -0.376 OA 
BRANCH  11  13
HETATM   13  C   UNL     1     -10.148  14.728  65.527  1.00  0.00    -0.380 C  
BRANCH  13  14
HETATM   14  O   UNL     1     -10.788  13.549  64.907  1.00  0.00    -0.322 OA 
BRANCH  14  15
HETATM   15  C   UNL     1     -10.004  12.389  64.518  1.00  0.00    -0.175 C  
HETATM   16  C   UNL     1     -10.891  11.386  63.771  1.00  0.00    -0.468 C  
BRANCH  15  17
HETATM   17  C   UNL     1      -9.166  11.779  65.634  1.00  0.00    -0.100 C  
BRANCH  17  18
HETATM   18  N   UNL     1      -9.810  10.741  66.389  1.00  0.00    -0.201 NA 
HETATM   19  C   UNL     1     -10.828  10.870  67.296  1.00  0.00    -0.287 A  
HETATM   20  N   UNL     1     -11.236   9.700  67.738  1.00  0.00    -0.025 NA 
HETATM   21  C   UNL     1     -10.426   8.789  67.098  1.00  0.00    -0.283 A  
HETATM   22  C   UNL     1     -10.379   7.393  67.139  1.00  0.00    -0.307 A  
HETATM   23  N   UNL     1      -9.410   6.754  66.444  1.00  0.00    -0.158 NA 
HETATM   24  N   UNL     1     -11.290   6.655  67.880  1.00  0.00    -0.616 NA 
HETATM   25  C   UNL     1      -8.566   7.499  65.706  1.00  0.00    -0.142 A  
HETATM   26  H1  UNL     1     -11.256   5.636  67.910  1.00  0.00     0.000 HD 
HETATM   27  H2  UNL     1     -12.228   6.928  67.584  1.00  0.00     0.000 HD 
HETATM   28  N   UNL     1      -8.534   8.842  65.555  1.00  0.00    -0.149 NA 
HETATM   29  C   UNL     1      -9.502   9.415  66.286  1.00  0.00    -0.214 A  
ENDBRANCH  17  18
ENDBRANCH  15  17
ENDBRANCH  14  15
ENDBRANCH  13  14
ENDBRANCH  11  13
BRANCH  11  30
HETATM   30  O   UNL     1      -9.583  16.162  67.624  1.00  0.00    -0.221 OA 
BRANCH  30  31
HETATM   31  C   UNL     1      -9.736  17.529  67.768  1.00  0.00    -0.274 A  
HETATM   32  C   UNL     1     -10.472  18.188  66.782  1.00  0.00    -0.363 A  
HETATM   33  C   UNL     1      -9.354  19.657  68.869  1.00  0.00    -0.342 A  
HETATM   34  C   UNL     1      -9.183  18.266  68.819  1.00  0.00    -0.252 A  
HETATM   35  C   UNL     1     -10.072  20.313  67.870  1.00  0.00    -0.476 A  
HETATM   36  C   UNL     1     -10.629  19.578  66.828  1.00  0.00    -0.597 A  
ENDBRANCH  30  31
ENDBRANCH  11  30
ENDBRANCH   9  11
ENDBRANCH   7   9
ENDBRANCH   5   7
ENDBRANCH   4   5
ENDBRANCH   2   4
TORSDOF 12
ENDMDL
MODEL       50
REMARK 921   NORMALIZED FREE ENERGY PREDICTED BY IDOCK:   -6.09 KCAL/MOL
REMARK 922        TOTAL FREE ENERGY PREDICTED BY IDOCK:  -12.08 KCAL/MOL
REMARK 923 INTER-LIGAND FREE ENERGY PREDICTED BY IDOCK:  -10.07 KCAL/MOL
REMARK 924 INTRA-LIGAND FREE ENERGY PREDICTED BY IDOCK:   -2.01 KCAL/MOL
REMARK 927      BINDING AFFINITY PREDICTED BY RF-SCORE:    0.00 PKD
ROOT
HETATM    1  C   UNL     1      -8.972  15.205  67.739  1.00  0.00    -0.178 C  
HETATM    2  C   UNL     1     -10.202  16.010  67.311  1.00  0.00    -0.277 C  
HETATM    3  C   UNL     1     -10.225  16.203  65.788  1.00  0.00    -0.397 C  
ENDROOT
BRANCH   2   4
HETATM    4  O   UNL     1     -11.438  15.513  67.921  1.00  0.00    -0.330 OA 
BRANCH   4   5
HETATM    5  C   UNL     1     -11.520  15.398  69.269  1.00  0.00    -0.333 C  
HETATM    6  O   UNL     1     -11.289  16.335  70.037  1.00  0.00    -0.334 OA 
BRANCH   5   7
HETATM    7  C   UNL     1     -11.907  14.001  69.832  1.00  0.00    -0.329 C  
HETATM    8  C   UNL     1     -12.348  14.150  71.288  1.00  0.00    -0.447 C  
BRANCH   7   9
HETATM    9  N   UNL     1     -10.952  12.839  69.663  1.00  0.00    -0.447 NA 
HETATM   10  H   UNL     1     -10.706  12.428  70.563  1.00  0.00     0.000 HD 
BRANCH   9  11
HETATM   11  P   UNL     1     -11.583  11.622  68.556  1.00  0.00    -0.319 P  
HETATM   12  O   UNL     1     -12.660  11.124  69.551  1.00  0.00    -0.245 OA 
BRANCH  11  13
HETATM   13  C   UNL     1     -10.694   9.937  68.728  1.00  0.00    -0.220 C  
BRANCH  13  14
HETATM   14  O   UNL     1     -10.903   9.049  67.565  1.00  0.00    -0.232 OA 
BRANCH  14  15
HETATM   15  C   UNL     1     -10.065   7.881  67.355  1.00  0.00    -0.226 C  
HETATM   16  C   UNL     1      -9.230   8.060  66.081  1.00  0.00    -0.219 C  
BRANCH  15  17
HETATM   17  C   UNL     1     -10.792   6.546  67.449  1.00  0.00    -0.373 C  
BRANCH  17  18
HETATM   18  N   UNL     1     -10.427   5.725  68.570  1.00  0.00    -0.217 NA 
HETATM   19  C   UNL     1      -9.579   4.650  68.583  1.00  0.00    -0.162 A  
HETATM   20  N   UNL     1      -9.406   4.182  69.799  1.00  0.00    -0.148 NA 
HETATM   21  C   UNL     1     -10.197   4.984  70.591  1.00  0.00    -0.235 A  
HETATM   22  C   UNL     1     -10.425   4.997  71.970  1.00  0.00    -0.203 A  
HETATM   23  N   UNL     1     -11.327   5.872  72.472  1.00  0.00    -0.294 NA 
HETATM   24  N   UNL     1      -9.759   4.133  72.827  1.00  0.00    -0.132 NA 
HETATM   25  C   UNL     1     -11.927   6.721  71.616  1.00  0.00    -0.347 A  
HETATM   26  H1  UNL     1      -9.926   4.143  73.834  1.00  0.00     0.000 HD 
HETATM   27  H2  UNL     1      -8.758   4.252  72.675  1.00  0.00     0.000 HD 
HETATM   28  N   UNL     1     -11.763   6.831  70.279  1.00  0.00    -0.362 NA 
HETATM   29  C   UNL     1     -10.876   5.924  69.843  1.00  0.00    -0.369 A  
ENDBRANCH  17  18
ENDBRANCH  15  17
ENDBRANCH  14  15
ENDBRANCH  13  14
ENDBRANCH  11  13
BRANCH  11  30
HETATM   30  O   UNL     1     -10.380  12.179  67.444  1.00  0.00    -0.203 OA 
BRANCH  30  31
HETATM   31  C   UNL     1     -10.786  12.354  66.133  1.00  0.00    -0.273 A  
HETATM   32  C   UNL     1     -12.152  12.539  65.917  1.00  0.00    -0.420 A  
HETATM   33  C   UNL     1     -10.416  12.479  63.739  1.00  0.00    -0.451 A  
HETATM   34  C   UNL     1      -9.915  12.332  65.040  1.00  0.00    -0.227 A  
HETATM   35  C   UNL     1     -11.784  12.642  63.527  1.00  0.00    -0.604 A  
HETATM   36  C   UNL     1     -12.650  12.672  64.616  1.00  0.00    -0.517 A  
ENDBRANCH  30  31
ENDBRANCH  11  30
ENDBRANCH   9  11
ENDBRANCH   7   9
ENDBRANCH   5   7
ENDBRANCH   4   5
ENDBRANCH   2   4
TORSDOF 12
ENDMDL
MODEL       51
REMARK 921   NORMALIZED FREE ENERGY PREDICTED BY IDOCK:   -6.08 KCAL/MOL
REMARK 922        TOTAL FREE ENERGY PREDICTED BY IDOCK:  -12.06 KCAL/MOL
REMARK 923 INTER-LIGAND FREE ENERGY PREDICTED BY IDOCK:  -10.48 KCAL/MOL
REMARK 924 INTRA-LIGAND FREE ENERGY PREDICTED BY IDOCK:   -1.58 KCAL/MOL
REMARK 927      BINDING AFFINITY PREDICTED BY RF-SCORE:    0.00 PKD
ROOT
HETATM    1  C   UNL     1     -10.243  20.068  68.536  1.00  0.00    -0.484 C  
HETATM    2  C   UNL     1     -10.611  18.976  67.529  1.00  0.00    -0.461 C  
HETATM    3  C   UNL     1     -10.517  19.506  66.091  1.00  0.00    -0.613 C  
ENDROOT
BRANCH   2   4
HETATM    4  O   UNL     1      -9.927  17.709  67.800  1.00  0.00    -0.290 OA 
BRANCH   4   5
HETATM    5  C   UNL     1     -10.610  16.543  67.692  1.00  0.00    -0.321 C  
HETATM    6  O   UNL     1     -11.547  16.245  68.435  1.00  0.00    -0.327 OA 
BRANCH   5   7
HETATM    7  C   UNL     1     -10.148  15.559  66.580  1.00  0.00    -0.279 C  
HETATM    8  C   UNL     1      -8.826  16.050  65.991  1.00  0.00    -0.314 C  
BRANCH   7   9
HETATM    9  N   UNL     1     -11.120  15.157  65.490  1.00  0.00    -0.345 NA 
HETATM   10  H   UNL     1     -10.699  15.251  64.566  1.00  0.00     0.000 HD 
BRANCH   9  11
HETATM   11  P   UNL     1     -11.759  13.535  65.740  1.00  0.00    -0.388 P  
HETATM   12  O   UNL     1     -13.231  13.970  65.539  1.00  0.00    -0.710 OA 
BRANCH  11  13
HETATM   13  C   UNL     1     -12.152  13.172  67.576  1.00  0.00    -0.248 C  
BRANCH  13  14
HETATM   14  O   UNL     1     -12.152  11.729  67.896  1.00  0.00    -0.592 OA 
BRANCH  14  15
HETATM   15  C   UNL     1     -11.670  11.247  69.179  1.00  0.00    -0.341 C  
HETATM   16  C   UNL     1     -11.929  12.301  70.263  1.00  0.00    -0.373 C  
BRANCH  15  17
HETATM   17  C   UNL     1     -10.251  10.696  69.164  1.00  0.00    -0.220 C  
BRANCH  17  18
HETATM   18  N   UNL     1     -10.119   9.324  69.569  1.00  0.00    -0.190 NA 
HETATM   19  C   UNL     1      -9.764   8.844  70.801  1.00  0.00    -0.227 A  
HETATM   20  N   UNL     1      -9.826   7.531  70.847  1.00  0.00    -0.177 NA 
HETATM   21  C   UNL     1     -10.218   7.161  69.579  1.00  0.00    -0.195 A  
HETATM   22  C   UNL     1     -10.471   5.911  69.010  1.00  0.00    -0.265 A  
HETATM   23  N   UNL     1     -10.779   5.846  67.694  1.00  0.00    -0.270 NA 
HETATM   24  N   UNL     1     -10.406   4.744  69.756  1.00  0.00    -0.154 NA 
HETATM   25  C   UNL     1     -10.871   7.001  67.009  1.00  0.00    -0.343 A  
HETATM   26  H1  UNL     1     -10.591   3.830  69.340  1.00  0.00     0.000 HD 
HETATM   27  H2  UNL     1     -11.023   4.852  70.561  1.00  0.00     0.000 HD 
HETATM   28  N   UNL     1     -10.688   8.265  67.452  1.00  0.00    -0.236 NA 
HETATM   29  C   UNL     1     -10.364   8.258  68.754  1.00  0.00    -0.205 A  
ENDBRANCH  17  18
ENDBRANCH  15  17
ENDBRANCH  14  15
ENDBRANCH  13  14
ENDBRANCH  11  13
BRANCH  11  30
HETATM   30  O   UNL     1     -10.113  13.049  65.964  1.00  0.00    -0.275 OA 
BRANCH  30  31
HETATM   31  C   UNL     1      -9.691  11.950  65.238  1.00  0.00    -0.192 A  
HETATM   32  C   UNL     1     -10.080  11.893  63.899  1.00  0.00    -0.396 A  
HETATM   33  C   UNL     1      -8.577   9.810  64.979  1.00  0.00    -0.178 A  
HETATM   34  C   UNL     1      -8.930  10.908  65.776  1.00  0.00    -0.208 A  
HETATM   35  C   UNL     1      -8.985   9.748  63.648  1.00  0.00    -0.270 A  
HETATM   36  C   UNL     1      -9.737  10.789  63.110  1.00  0.00    -0.394 A  
ENDBRANCH  30  31
ENDBRANCH  11  30
ENDBRANCH   9  11
ENDBRANCH   7   9
ENDBRANCH   5   7
ENDBRANCH   4   5
ENDBRANCH   2   4
TORSDOF 12
ENDMDL
MODEL       52
REMARK 921   NORMALIZED FREE ENERGY PREDICTED BY IDOCK:   -6.07 KCAL/MOL
REMARK 922        TOTAL FREE ENERGY PREDICTED BY IDOCK:  -12.05 KCAL/MOL
REMARK 923 INTER-LIGAND FREE ENERGY PREDICTED BY IDOCK:  -10.69 KCAL/MOL
REMARK 924 INTRA-LIGAND FREE ENERGY PREDICTED BY IDOCK:   -1.36 KCAL/MOL
REMARK 927      BINDING AFFINITY PREDICTED BY RF-SCORE:    0.00 PKD
ROOT
HETATM    1  C   UNL     1     -11.003   6.202  68.930  1.00  0.00    -0.424 C  
HETATM    2  C   UNL     1     -10.348   6.449  67.569  1.00  0.00    -0.196 C  
HETATM    3  C   UNL     1     -10.512   5.227  66.654  1.00  0.00    -0.345 C  
ENDROOT
BRANCH   2   4
HETATM    4  O   UNL     1     -10.719   7.744  66.994  1.00  0.00    -0.347 OA 
BRANCH   4   5
HETATM    5  C   UNL     1      -9.803   8.743  66.947  1.00  0.00    -0.229 C  
HETATM    6  O   UNL     1      -8.707   8.674  67.507  1.00  0.00    -0.133 OA 
BRANCH   5   7
HETATM    7  C   UNL     1     -10.199  10.021  66.154  1.00  0.00    -0.213 C  
HETATM    8  C   UNL     1      -9.544   9.981  64.774  1.00  0.00    -0.374 C  
BRANCH   7   9
HETATM    9  N   UNL     1     -10.033  11.380  66.802  1.00  0.00    -0.205 NA 
HETATM   10  H   UNL     1      -9.691  12.070  66.133  1.00  0.00     0.000 HD 
BRANCH   9  11
HETATM   11  P   UNL     1     -11.516  11.925  67.581  1.00  0.00    -0.284 P  
HETATM   12  O   UNL     1     -12.268  12.129  66.243  1.00  0.00    -0.604 OA 
BRANCH  11  13
HETATM   13  C   UNL     1     -11.554  13.819  67.851  1.00  0.00    -0.341 C  
BRANCH  13  14
HETATM   14  O   UNL     1     -10.662  14.267  68.940  1.00  0.00    -0.248 OA 
BRANCH  14  15
HETATM   15  C   UNL     1     -10.784  15.601  69.505  1.00  0.00    -0.271 C  
HETATM   16  C   UNL     1     -11.701  15.564  70.734  1.00  0.00    -0.397 C  
BRANCH  15  17
HETATM   17  C   UNL     1     -11.121  16.694  68.501  1.00  0.00    -0.301 C  
BRANCH  17  18
HETATM   18  N   UNL     1     -10.108  16.958  67.516  1.00  0.00    -0.274 NA 
HETATM   19  C   UNL     1      -9.905  16.313  66.326  1.00  0.00    -0.313 A  
HETATM   20  N   UNL     1      -8.939  16.870  65.630  1.00  0.00    -0.416 NA 
HETATM   21  C   UNL     1      -8.495  17.903  66.424  1.00  0.00    -0.234 A  
HETATM   22  C   UNL     1      -7.500  18.866  66.231  1.00  0.00    -0.265 A  
HETATM   23  N   UNL     1      -7.229  19.731  67.236  1.00  0.00    -0.224 NA 
HETATM   24  N   UNL     1      -6.784  18.947  65.047  1.00  0.00    -0.493 NA 
HETATM   25  C   UNL     1      -7.969  19.649  68.358  1.00  0.00    -0.322 A  
HETATM   26  H1  UNL     1      -6.058  19.649  64.906  1.00  0.00     0.000 HD 
HETATM   27  H2  UNL     1      -7.454  19.031  64.282  1.00  0.00     0.000 HD 
HETATM   28  N   UNL     1      -8.976  18.794  68.647  1.00  0.00    -0.344 NA 
HETATM   29  C   UNL     1      -9.178  17.951  67.622  1.00  0.00    -0.258 A  
ENDBRANCH  17  18
ENDBRANCH  15  17
ENDBRANCH  14  15
ENDBRANCH  13  14
ENDBRANCH  11  13
BRANCH  11  30
HETATM   30  O   UNL     1     -10.675  11.697  69.076  1.00  0.00    -0.209 OA 
BRANCH  30  31
HETATM   31  C   UNL     1     -11.344  10.985  70.056  1.00  0.00    -0.277 A  
HETATM   32  C   UNL     1     -12.446  11.606  70.644  1.00  0.00    -0.386 A  
HETATM   33  C   UNL     1     -11.673   9.075  71.516  1.00  0.00    -0.415 A  
HETATM   34  C   UNL     1     -10.962   9.711  70.488  1.00  0.00    -0.374 A  
HETATM   35  C   UNL     1     -12.760   9.708  72.114  1.00  0.00    -0.427 A  
HETATM   36  C   UNL     1     -13.145  10.973  71.678  1.00  0.00    -0.543 A  
ENDBRANCH  30  31
ENDBRANCH  11  30
ENDBRANCH   9  11
ENDBRANCH   7   9
ENDBRANCH   5   7
ENDBRANCH   4   5
ENDBRANCH   2   4
TORSDOF 12
ENDMDL
MODEL       53
REMARK 921   NORMALIZED FREE ENERGY PREDICTED BY IDOCK:   -6.06 KCAL/MOL
REMARK 922        TOTAL FREE ENERGY PREDICTED BY IDOCK:  -12.03 KCAL/MOL
REMARK 923 INTER-LIGAND FREE ENERGY PREDICTED BY IDOCK:   -9.91 KCAL/MOL
REMARK 924 INTRA-LIGAND FREE ENERGY PREDICTED BY IDOCK:   -2.12 KCAL/MOL
REMARK 927      BINDING AFFINITY PREDICTED BY RF-SCORE:    0.00 PKD
ROOT
HETATM    1  C   UNL     1     -11.079  12.182  63.923  1.00  0.00    -0.470 C  
HETATM    2  C   UNL     1     -11.274  12.591  65.385  1.00  0.00    -0.307 C  
HETATM    3  C   UNL     1     -12.490  13.516  65.535  1.00  0.00    -0.538 C  
ENDROOT
BRANCH   2   4
HETATM    4  O   UNL     1     -11.211  11.449  66.301  1.00  0.00    -0.270 OA 
BRANCH   4   5
HETATM    5  C   UNL     1     -10.018  11.081  66.831  1.00  0.00    -0.196 C  
HETATM    6  O   UNL     1      -9.055  11.846  66.909  1.00  0.00    -0.184 OA 
BRANCH   5   7
HETATM    7  C   UNL     1      -9.897   9.614  67.334  1.00  0.00    -0.171 C  
HETATM    8  C   UNL     1      -9.543   8.706  66.157  1.00  0.00    -0.305 C  
BRANCH   7   9
HETATM    9  N   UNL     1     -11.009   9.020  68.172  1.00  0.00    -0.482 NA 
HETATM   10  H   UNL     1     -11.708   8.560  67.588  1.00  0.00     0.000 HD 
BRANCH   9  11
HETATM   11  P   UNL     1     -10.393   7.930  69.411  1.00  0.00    -0.207 P  
HETATM   12  O   UNL     1     -10.931   6.659  68.710  1.00  0.00    -0.263 OA 
BRANCH  11  13
HETATM   13  C   UNL     1     -11.645   7.639  70.827  1.00  0.00    -0.265 C  
BRANCH  13  14
HETATM   14  O   UNL     1     -11.646   8.720  71.833  1.00  0.00    -0.315 OA 
BRANCH  14  15
HETATM   15  C   UNL     1     -12.797   9.593  71.993  1.00  0.00    -0.410 C  
HETATM   16  C   UNL     1     -14.036   8.762  72.348  1.00  0.00    -0.485 C  
BRANCH  15  17
HETATM   17  C   UNL     1     -13.009  10.587  70.860  1.00  0.00    -0.367 C  
BRANCH  17  18
HETATM   18  N   UNL     1     -12.966  11.972  71.240  1.00  0.00    -0.295 NA 
HETATM   19  C   UNL     1     -13.551  12.563  72.328  1.00  0.00    -0.342 A  
HETATM   20  N   UNL     1     -13.236  13.836  72.417  1.00  0.00    -0.466 NA 
HETATM   21  C   UNL     1     -12.432  14.068  71.324  1.00  0.00    -0.369 A  
HETATM   22  C   UNL     1     -11.775  15.218  70.878  1.00  0.00    -0.344 A  
HETATM   23  N   UNL     1     -11.098  15.168  69.707  1.00  0.00    -0.264 NA 
HETATM   24  N   UNL     1     -11.809  16.403  71.598  1.00  0.00    -0.674 NA 
HETATM   25  C   UNL     1     -11.054  13.992  69.052  1.00  0.00    -0.264 A  
HETATM   26  H1  UNL     1     -11.329  17.242  71.272  1.00  0.00     0.000 HD 
HETATM   27  H2  UNL     1     -11.483  16.203  72.544  1.00  0.00     0.000 HD 
HETATM   28  N   UNL     1     -11.612  12.810  69.398  1.00  0.00    -0.297 NA 
HETATM   29  C   UNL     1     -12.285  12.934  70.552  1.00  0.00    -0.314 A  
ENDBRANCH  17  18
ENDBRANCH  15  17
ENDBRANCH  14  15
ENDBRANCH  13  14
ENDBRANCH  11  13
BRANCH  11  30
HETATM   30  O   UNL     1      -9.790   9.351  70.195  1.00  0.00    -0.200 OA 
BRANCH  30  31
HETATM   31  C   UNL     1      -8.498   9.283  70.684  1.00  0.00    -0.217 A  
HETATM   32  C   UNL     1      -7.525  10.008  69.995  1.00  0.00    -0.181 A  
HETATM   33  C   UNL     1      -6.787   8.479  72.204  1.00  0.00    -0.093 A  
HETATM   34  C   UNL     1      -8.128   8.523  71.798  1.00  0.00    -0.191 A  
HETATM   35  C   UNL     1      -5.815   9.188  71.500  1.00  0.00    -0.069 A  
HETATM   36  C   UNL     1      -6.185   9.951  70.396  1.00  0.00    -0.094 A  
ENDBRANCH  30  31
ENDBRANCH  11  30
ENDBRANCH   9  11
ENDBRANCH   7   9
ENDBRANCH   5   7
ENDBRANCH   4   5
ENDBRANCH   2   4
TORSDOF 12
ENDMDL
MODEL       54
REMARK 921   NORMALIZED FREE ENERGY PREDICTED BY IDOCK:   -6.05 KCAL/MOL
REMARK 922        TOTAL FREE ENERGY PREDICTED BY IDOCK:  -12.01 KCAL/MOL
REMARK 923 INTER-LIGAND FREE ENERGY PREDICTED BY IDOCK:  -10.65 KCAL/MOL
REMARK 924 INTRA-LIGAND FREE ENERGY PREDICTED BY IDOCK:   -1.36 KCAL/MOL
REMARK 927      BINDING AFFINITY PREDICTED BY RF-SCORE:    0.00 PKD
ROOT
HETATM    1  C   UNL     1     -13.600  13.453  72.381  1.00  0.00    -0.708 C  
HETATM    2  C   UNL     1     -13.150  12.317  71.459  1.00  0.00    -0.257 C  
HETATM    3  C   UNL     1     -11.977  12.763  70.575  1.00  0.00    -0.277 C  
ENDROOT
BRANCH   2   4
HETATM    4  O   UNL     1     -12.978  11.049  72.174  1.00  0.00    -0.409 OA 
BRANCH   4   5
HETATM    5  C   UNL     1     -13.080   9.879  71.495  1.00  0.00    -0.418 C  
HETATM    6  O   UNL     1     -14.151   9.443  71.069  1.00  0.00    -0.123 OA 
BRANCH   5   7
HETATM    7  C   UNL     1     -11.766   9.075  71.283  1.00  0.00    -0.313 C  
HETATM    8  C   UNL     1     -11.583   8.095  72.441  1.00  0.00    -0.463 C  
BRANCH   7   9
HETATM    9  N   UNL     1     -10.480   9.815  70.980  1.00  0.00    -0.311 NA 
HETATM   10  H   UNL     1     -10.192  10.395  71.768  1.00  0.00     0.000 HD 
BRANCH   9  11
HETATM   11  P   UNL     1      -9.190   8.723  70.485  1.00  0.00    -0.224 P  
HETATM   12  O   UNL     1      -8.150   9.345  71.449  1.00  0.00    -0.306 OA 
BRANCH  11  13
HETATM   13  C   UNL     1      -8.177   9.397  69.010  1.00  0.00    -0.108 C  
BRANCH  13  14
HETATM   14  O   UNL     1      -8.658  10.708  68.526  1.00  0.00    -0.123 OA 
BRANCH  14  15
HETATM   15  C   UNL     1      -9.339  10.829  67.248  1.00  0.00    -0.151 C  
HETATM   16  C   UNL     1      -8.431  11.543  66.239  1.00  0.00    -0.108 C  
BRANCH  15  17
HETATM   17  C   UNL     1     -10.753  11.388  67.326  1.00  0.00    -0.241 C  
BRANCH  17  18
HETATM   18  N   UNL     1     -10.925  12.706  66.781  1.00  0.00    -0.254 NA 
HETATM   19  C   UNL     1     -10.494  13.895  67.307  1.00  0.00    -0.271 A  
HETATM   20  N   UNL     1     -10.748  14.903  66.502  1.00  0.00    -0.303 NA 
HETATM   21  C   UNL     1     -11.388  14.330  65.426  1.00  0.00    -0.329 A  
HETATM   22  C   UNL     1     -11.890  14.876  64.242  1.00  0.00    -0.297 A  
HETATM   23  N   UNL     1     -12.546  14.066  63.379  1.00  0.00    -0.736 NA 
HETATM   24  N   UNL     1     -11.742  16.221  63.939  1.00  0.00    -1.518 NA 
HETATM   25  C   UNL     1     -12.639  12.758  63.686  1.00  0.00    -0.286 A  
HETATM   26  H1  UNL     1     -12.109  16.620  63.074  1.00  0.00     0.000 HD 
HETATM   27  H2  UNL     1     -10.748  16.445  63.989  1.00  0.00     0.000 HD 
HETATM   28  N   UNL     1     -12.165  12.109  64.773  1.00  0.00    -0.346 NA 
HETATM   29  C   UNL     1     -11.548  12.970  65.596  1.00  0.00    -0.354 A  
ENDBRANCH  17  18
ENDBRANCH  15  17
ENDBRANCH  14  15
ENDBRANCH  13  14
ENDBRANCH  11  13
BRANCH  11  30
HETATM   30  O   UNL     1     -10.352   8.026  69.409  1.00  0.00    -0.210 OA 
BRANCH  30  31
HETATM   31  C   UNL     1     -10.127   6.716  69.023  1.00  0.00    -0.162 A  
HETATM   32  C   UNL     1      -9.487   5.889  69.947  1.00  0.00    -0.180 A  
HETATM   33  C   UNL     1     -10.183   4.872  67.448  1.00  0.00    -0.173 A  
HETATM   34  C   UNL     1     -10.483   6.203  67.772  1.00  0.00    -0.290 A  
HETATM   35  C   UNL     1      -9.525   4.056  68.366  1.00  0.00    -0.211 A  
HETATM   36  C   UNL     1      -9.178   4.565  69.614  1.00  0.00    -0.195 A  
ENDBRANCH  30  31
ENDBRANCH  11  30
ENDBRANCH   9  11
ENDBRANCH   7   9
ENDBRANCH   5   7
ENDBRANCH   4   5
ENDBRANCH   2   4
TORSDOF 12
ENDMDL
MODEL       55
REMARK 921   NORMALIZED FREE ENERGY PREDICTED BY IDOCK:   -6.05 KCAL/MOL
REMARK 922        TOTAL FREE ENERGY PREDICTED BY IDOCK:  -12.01 KCAL/MOL
REMARK 923 INTER-LIGAND FREE ENERGY PREDICTED BY IDOCK:  -11.01 KCAL/MOL
REMARK 924 INTRA-LIGAND FREE ENERGY PREDICTED BY IDOCK:   -1.00 KCAL/MOL
REMARK 927      BINDING AFFINITY PREDICTED BY RF-SCORE:    0.00 PKD
ROOT
HETATM    1  C   UNL     1      -9.555  10.827  63.085  1.00  0.00    -0.385 C  
HETATM    2  C   UNL     1     -10.400  10.950  64.355  1.00  0.00    -0.361 C  
HETATM    3  C   UNL     1      -9.727  10.229  65.531  1.00  0.00    -0.326 C  
ENDROOT
BRANCH   2   4
HETATM    4  O   UNL     1     -10.843  12.325  64.603  1.00  0.00    -0.283 OA 
BRANCH   4   5
HETATM    5  C   UNL     1     -12.011  12.545  65.254  1.00  0.00    -0.438 C  
HETATM    6  O   UNL     1     -13.106  12.530  64.689  1.00  0.00    -0.845 OA 
BRANCH   5   7
HETATM    7  C   UNL     1     -11.920  12.843  66.778  1.00  0.00    -0.350 C  
HETATM    8  C   UNL     1     -10.636  13.620  67.063  1.00  0.00    -0.274 C  
BRANCH   7   9
HETATM    9  N   UNL     1     -12.112  11.715  67.770  1.00  0.00    -0.579 NA 
HETATM   10  H   UNL     1     -11.739  10.837  67.409  1.00  0.00     0.000 HD 
BRANCH   9  11
HETATM   11  P   UNL     1     -11.430  12.099  69.348  1.00  0.00    -0.240 P  
HETATM   12  O   UNL     1     -10.283  11.066  69.221  1.00  0.00    -0.204 OA 
BRANCH  11  13
HETATM   13  C   UNL     1     -12.181  11.042  70.754  1.00  0.00    -0.380 C  
BRANCH  13  14
HETATM   14  O   UNL     1     -11.933   9.595  70.588  1.00  0.00    -0.272 OA 
BRANCH  14  15
HETATM   15  C   UNL     1     -11.677   8.743  71.737  1.00  0.00    -0.346 C  
HETATM   16  C   UNL     1     -10.182   8.760  72.076  1.00  0.00    -0.401 C  
BRANCH  15  17
HETATM   17  C   UNL     1     -12.287   7.351  71.651  1.00  0.00    -0.341 C  
BRANCH  17  18
HETATM   18  N   UNL     1     -11.363   6.292  71.355  1.00  0.00    -0.292 NA 
HETATM   19  C   UNL     1     -10.791   5.407  72.229  1.00  0.00    -0.227 A  
HETATM   20  N   UNL     1     -10.058   4.512  71.605  1.00  0.00    -0.193 NA 
HETATM   21  C   UNL     1     -10.151   4.858  70.276  1.00  0.00    -0.252 A  
HETATM   22  C   UNL     1      -9.608   4.283  69.123  1.00  0.00    -0.179 A  
HETATM   23  N   UNL     1      -9.816   4.893  67.933  1.00  0.00    -0.154 NA 
HETATM   24  N   UNL     1      -8.859   3.118  69.173  1.00  0.00    -0.087 NA 
HETATM   25  C   UNL     1     -10.580   6.002  67.916  1.00  0.00    -0.267 A  
HETATM   26  H1  UNL     1      -8.463   2.698  68.332  1.00  0.00     0.000 HD 
HETATM   27  H2  UNL     1      -9.419   2.406  69.643  1.00  0.00     0.000 HD 
HETATM   28  N   UNL     1     -11.187   6.627  68.949  1.00  0.00    -0.238 NA 
HETATM   29  C   UNL     1     -10.923   5.988  70.099  1.00  0.00    -0.359 A  
ENDBRANCH  17  18
ENDBRANCH  15  17
ENDBRANCH  14  15
ENDBRANCH  13  14
ENDBRANCH  11  13
BRANCH  11  30
HETATM   30  O   UNL     1     -12.711  13.254  69.489  1.00  0.00     0.117 OA 
BRANCH  30  31
HETATM   31  C   UNL     1     -12.655  14.105  70.579  1.00  0.00    -0.342 A  
HETATM   32  C   UNL     1     -11.709  15.129  70.531  1.00  0.00    -0.344 A  
HETATM   33  C   UNL     1     -13.320  14.858  72.788  1.00  0.00    -0.576 A  
HETATM   34  C   UNL     1     -13.469  13.975  71.709  1.00  0.00    -0.473 A  
HETATM   35  C   UNL     1     -12.360  15.867  72.743  1.00  0.00    -0.580 A  
HETATM   36  C   UNL     1     -11.555  16.001  71.615  1.00  0.00    -0.538 A  
ENDBRANCH  30  31
ENDBRANCH  11  30
ENDBRANCH   9  11
ENDBRANCH   7   9
ENDBRANCH   5   7
ENDBRANCH   4   5
ENDBRANCH   2   4
TORSDOF 12
ENDMDL
MODEL       56
REMARK 921   NORMALIZED FREE ENERGY PREDICTED BY IDOCK:   -6.05 KCAL/MOL
REMARK 922        TOTAL FREE ENERGY PREDICTED BY IDOCK:  -12.00 KCAL/MOL
REMARK 923 INTER-LIGAND FREE ENERGY PREDICTED BY IDOCK:  -10.41 KCAL/MOL
REMARK 924 INTRA-LIGAND FREE ENERGY PREDICTED BY IDOCK:   -1.59 KCAL/MOL
REMARK 927      BINDING AFFINITY PREDICTED BY RF-SCORE:    0.00 PKD
ROOT
HETATM    1  C   UNL     1     -13.669  15.693  72.492  1.00  0.00    -0.651 C  
HETATM    2  C   UNL     1     -13.047  14.430  71.892  1.00  0.00    -0.355 C  
HETATM    3  C   UNL     1     -13.743  13.170  72.427  1.00  0.00    -0.640 C  
ENDROOT
BRANCH   2   4
HETATM    4  O   UNL     1     -12.891  14.517  70.438  1.00  0.00    -0.349 OA 
BRANCH   4   5
HETATM    5  C   UNL     1     -11.897  13.825  69.828  1.00  0.00    -0.331 C  
HETATM    6  O   UNL     1     -11.937  12.605  69.657  1.00  0.00    -0.315 OA 
BRANCH   5   7
HETATM    7  C   UNL     1     -10.661  14.642  69.355  1.00  0.00    -0.222 C  
HETATM    8  C   UNL     1     -10.935  16.132  69.558  1.00  0.00    -0.341 C  
BRANCH   7   9
HETATM    9  N   UNL     1     -10.070  14.373  67.987  1.00  0.00    -0.228 NA 
HETATM   10  H   UNL     1     -10.087  13.378  67.765  1.00  0.00     0.000 HD 
BRANCH   9  11
HETATM   11  P   UNL     1     -10.857  15.322  66.729  1.00  0.00    -0.269 P  
HETATM   12  O   UNL     1     -12.169  14.503  66.785  1.00  0.00    -0.376 OA 
BRANCH  11  13
HETATM   13  C   UNL     1     -10.539  14.630  64.975  1.00  0.00    -0.439 C  
BRANCH  13  14
HETATM   14  O   UNL     1     -11.083  13.271  64.780  1.00  0.00    -0.314 OA 
BRANCH  14  15
HETATM   15  C   UNL     1     -10.211  12.108  64.778  1.00  0.00    -0.281 C  
HETATM   16  C   UNL     1     -10.120  11.526  63.362  1.00  0.00    -0.454 C  
BRANCH  15  17
HETATM   17  C   UNL     1     -10.509  11.082  65.862  1.00  0.00    -0.240 C  
BRANCH  17  18
HETATM   18  N   UNL     1      -9.471  10.897  66.837  1.00  0.00    -0.174 NA 
HETATM   19  C   UNL     1      -8.175  11.337  66.778  1.00  0.00    -0.158 A  
HETATM   20  N   UNL     1      -7.519  11.065  67.884  1.00  0.00    -0.091 NA 
HETATM   21  C   UNL     1      -8.434  10.404  68.673  1.00  0.00    -0.129 A  
HETATM   22  C   UNL     1      -8.342   9.877  69.964  1.00  0.00    -0.168 A  
HETATM   23  N   UNL     1      -9.403   9.204  70.468  1.00  0.00    -0.220 NA 
HETATM   24  N   UNL     1      -7.194  10.017  70.729  1.00  0.00    -0.372 NA 
HETATM   25  C   UNL     1     -10.514   9.119  69.713  1.00  0.00    -0.223 A  
HETATM   26  H1  UNL     1      -7.127   9.632  71.671  1.00  0.00     0.000 HD 
HETATM   27  H2  UNL     1      -6.973  11.012  70.781  1.00  0.00     0.000 HD 
HETATM   28  N   UNL     1     -10.737   9.617  68.476  1.00  0.00    -0.217 NA 
HETATM   29  C   UNL     1      -9.643  10.250  68.026  1.00  0.00    -0.145 A  
ENDBRANCH  17  18
ENDBRANCH  15  17
ENDBRANCH  14  15
ENDBRANCH  13  14
ENDBRANCH  11  13
BRANCH  11  30
HETATM   30  O   UNL     1      -9.390  16.239  66.667  1.00  0.00    -0.220 OA 
BRANCH  30  31
HETATM   31  C   UNL     1      -9.513  17.609  66.824  1.00  0.00    -0.280 A  
HETATM   32  C   UNL     1     -10.506  18.241  66.074  1.00  0.00    -0.380 A  
HETATM   33  C   UNL     1      -8.861  19.762  67.732  1.00  0.00    -0.386 A  
HETATM   34  C   UNL     1      -8.694  18.372  67.661  1.00  0.00    -0.268 A  
HETATM   35  C   UNL     1      -9.840  20.392  66.965  1.00  0.00    -0.594 A  
HETATM   36  C   UNL     1     -10.661  19.631  66.137  1.00  0.00    -0.584 A  
ENDBRANCH  30  31
ENDBRANCH  11  30
ENDBRANCH   9  11
ENDBRANCH   7   9
ENDBRANCH   5   7
ENDBRANCH   4   5
ENDBRANCH   2   4
TORSDOF 12
ENDMDL
MODEL       57
REMARK 921   NORMALIZED FREE ENERGY PREDICTED BY IDOCK:   -6.03 KCAL/MOL
REMARK 922        TOTAL FREE ENERGY PREDICTED BY IDOCK:  -11.98 KCAL/MOL
REMARK 923 INTER-LIGAND FREE ENERGY PREDICTED BY IDOCK:  -10.93 KCAL/MOL
REMARK 924 INTRA-LIGAND FREE ENERGY PREDICTED BY IDOCK:   -1.05 KCAL/MOL
REMARK 927      BINDING AFFINITY PREDICTED BY RF-SCORE:    0.00 PKD
ROOT
HETATM    1  C   UNL     1     -10.526  10.882  64.846  1.00  0.00    -0.352 C  
HETATM    2  C   UNL     1     -10.227  11.979  63.822  1.00  0.00    -0.422 C  
HETATM    3  C   UNL     1      -9.339  11.443  62.690  1.00  0.00    -0.247 C  
ENDROOT
BRANCH   2   4
HETATM    4  O   UNL     1     -11.430  12.708  63.412  1.00  0.00    -0.487 OA 
BRANCH   4   5
HETATM    5  C   UNL     1     -12.385  12.994  64.331  1.00  0.00    -0.376 C  
HETATM    6  O   UNL     1     -13.296  12.214  64.616  1.00  0.00    -0.608 OA 
BRANCH   5   7
HETATM    7  C   UNL     1     -12.299  14.385  65.021  1.00  0.00    -0.396 C  
HETATM    8  C   UNL     1     -11.738  15.404  64.031  1.00  0.00     0.051 C  
BRANCH   7   9
HETATM    9  N   UNL     1     -11.629  14.506  66.374  1.00  0.00    -0.365 NA 
HETATM   10  H   UNL     1     -11.440  13.588  66.776  1.00  0.00     0.000 HD 
BRANCH   9  11
HETATM   11  P   UNL     1     -10.167  15.486  66.301  1.00  0.00    -0.336 P  
HETATM   12  O   UNL     1      -9.432  14.508  65.353  1.00  0.00    -0.109 OA 
BRANCH  11  13
HETATM   13  C   UNL     1      -8.913  15.042  67.676  1.00  0.00    -0.178 C  
BRANCH  13  14
HETATM   14  O   UNL     1      -8.405  13.659  67.574  1.00  0.00    -0.164 OA 
BRANCH  14  15
HETATM   15  C   UNL     1      -8.904  12.612  68.451  1.00  0.00    -0.119 C  
HETATM   16  C   UNL     1      -7.847  11.511  68.601  1.00  0.00    -0.137 C  
BRANCH  15  17
HETATM   17  C   UNL     1     -10.298  12.104  68.113  1.00  0.00    -0.207 C  
BRANCH  17  18
HETATM   18  N   UNL     1     -11.194  11.976  69.229  1.00  0.00    -0.244 NA 
HETATM   19  C   UNL     1     -11.526  10.837  69.913  1.00  0.00    -0.321 A  
HETATM   20  N   UNL     1     -12.309  11.097  70.937  1.00  0.00    -0.387 NA 
HETATM   21  C   UNL     1     -12.500  12.459  70.887  1.00  0.00    -0.274 A  
HETATM   22  C   UNL     1     -13.220  13.330  71.709  1.00  0.00    -0.405 A  
HETATM   23  N   UNL     1     -13.288  14.638  71.369  1.00  0.00    -0.354 NA 
HETATM   24  N   UNL     1     -13.869  12.885  72.851  1.00  0.00    -0.593 NA 
HETATM   25  C   UNL     1     -12.615  15.043  70.276  1.00  0.00    -0.317 A  
HETATM   26  H1  UNL     1     -14.396  13.521  73.451  1.00  0.00     0.000 HD 
HETATM   27  H2  UNL     1     -13.184  12.401  73.432  1.00  0.00     0.000 HD 
HETATM   28  N   UNL     1     -11.858  14.310  69.429  1.00  0.00    -0.306 NA 
HETATM   29  C   UNL     1     -11.851  13.023  69.808  1.00  0.00    -0.311 A  
ENDBRANCH  17  18
ENDBRANCH  15  17
ENDBRANCH  14  15
ENDBRANCH  13  14
ENDBRANCH  11  13
BRANCH  11  30
HETATM   30  O   UNL     1     -10.990  16.579  67.361  1.00  0.00    -0.248 OA 
BRANCH  30  31
HETATM   31  C   UNL     1     -10.533  17.886  67.373  1.00  0.00    -0.383 A  
HETATM   32  C   UNL     1     -10.300  18.482  66.133  1.00  0.00    -0.457 A  
HETATM   33  C   UNL     1      -9.782  19.918  68.465  1.00  0.00    -0.421 A  
HETATM   34  C   UNL     1     -10.281  18.610  68.542  1.00  0.00    -0.398 A  
HETATM   35  C   UNL     1      -9.531  20.502  67.225  1.00  0.00    -0.559 A  
HETATM   36  C   UNL     1      -9.789  19.783  66.061  1.00  0.00    -0.497 A  
ENDBRANCH  30  31
ENDBRANCH  11  30
ENDBRANCH   9  11
ENDBRANCH   7   9
ENDBRANCH   5   7
ENDBRANCH   4   5
ENDBRANCH   2   4
TORSDOF 12
ENDMDL
MODEL       58
REMARK 921   NORMALIZED FREE ENERGY PREDICTED BY IDOCK:   -6.03 KCAL/MOL
REMARK 922        TOTAL FREE ENERGY PREDICTED BY IDOCK:  -11.98 KCAL/MOL
REMARK 923 INTER-LIGAND FREE ENERGY PREDICTED BY IDOCK:  -10.50 KCAL/MOL
REMARK 924 INTRA-LIGAND FREE ENERGY PREDICTED BY IDOCK:   -1.48 KCAL/MOL
REMARK 927      BINDING AFFINITY PREDICTED BY RF-SCORE:    0.00 PKD
ROOT
HETATM    1  C   UNL     1     -10.743   5.580  66.738  1.00  0.00    -0.329 C  
HETATM    2  C   UNL     1     -10.756   6.083  68.183  1.00  0.00    -0.278 C  
HETATM    3  C   UNL     1      -9.802   5.258  69.058  1.00  0.00    -0.235 C  
ENDROOT
BRANCH   2   4
HETATM    4  O   UNL     1     -10.621   7.540  68.272  1.00  0.00    -0.193 OA 
BRANCH   4   5
HETATM    5  C   UNL     1     -10.632   8.140  69.487  1.00  0.00    -0.213 C  
HETATM    6  O   UNL     1     -11.462   7.875  70.359  1.00  0.00    -0.246 OA 
BRANCH   5   7
HETATM    7  C   UNL     1      -9.541   9.219  69.746  1.00  0.00    -0.190 C  
HETATM    8  C   UNL     1      -8.909   8.977  71.116  1.00  0.00    -0.282 C  
BRANCH   7   9
HETATM    9  N   UNL     1      -9.878  10.682  69.546  1.00  0.00    -0.413 NA 
HETATM   10  H   UNL     1      -9.585  11.242  70.347  1.00  0.00     0.000 HD 
BRANCH   9  11
HETATM   11  P   UNL     1      -9.209  11.314  68.045  1.00  0.00    -0.171 P  
HETATM   12  O   UNL     1      -7.752  11.311  68.570  1.00  0.00    -0.115 OA 
BRANCH  11  13
HETATM   13  C   UNL     1      -9.156  13.226  68.008  1.00  0.00    -0.202 C  
BRANCH  13  14
HETATM   14  O   UNL     1     -10.181  13.852  68.869  1.00  0.00    -0.213 OA 
BRANCH  14  15
HETATM   15  C   UNL     1     -10.641  15.208  68.621  1.00  0.00    -0.234 C  
HETATM   16  C   UNL     1     -11.964  15.453  69.356  1.00  0.00    -0.351 C  
BRANCH  15  17
HETATM   17  C   UNL     1     -10.648  15.624  67.156  1.00  0.00    -0.308 C  
BRANCH  17  18
HETATM   18  N   UNL     1      -9.660  16.601  66.789  1.00  0.00    -0.246 NA 
HETATM   19  C   UNL     1      -8.467  16.390  66.152  1.00  0.00    -0.294 A  
HETATM   20  N   UNL     1      -7.847  17.521  65.895  1.00  0.00    -0.546 NA 
HETATM   21  C   UNL     1      -8.675  18.492  66.412  1.00  0.00    -0.260 A  
HETATM   22  C   UNL     1      -8.574  19.885  66.438  1.00  0.00    -0.341 A  
HETATM   23  N   UNL     1      -9.524  20.594  67.092  1.00  0.00    -0.403 NA 
HETATM   24  N   UNL     1      -7.526  20.552  65.823  1.00  0.00    -0.526 NA 
HETATM   25  C   UNL     1     -10.548  19.917  67.645  1.00  0.00    -0.343 A  
HETATM   26  H1  UNL     1      -7.452  21.569  65.842  1.00  0.00     0.000 HD 
HETATM   27  H2  UNL     1      -7.495  20.254  64.848  1.00  0.00     0.000 HD 
HETATM   28  N   UNL     1     -10.776  18.585  67.654  1.00  0.00    -0.412 NA 
HETATM   29  C   UNL     1      -9.789  17.941  67.012  1.00  0.00    -0.314 A  
ENDBRANCH  17  18
ENDBRANCH  15  17
ENDBRANCH  14  15
ENDBRANCH  13  14
ENDBRANCH  11  13
BRANCH  11  30
HETATM   30  O   UNL     1     -10.837  11.317  67.458  1.00  0.00    -0.213 OA 
BRANCH  30  31
HETATM   31  C   UNL     1     -11.010  11.639  66.123  1.00  0.00    -0.288 A  
HETATM   32  C   UNL     1     -12.021  12.553  65.822  1.00  0.00    -0.482 A  
HETATM   33  C   UNL     1     -10.519  11.440  63.756  1.00  0.00    -0.456 A  
HETATM   34  C   UNL     1     -10.252  11.087  65.086  1.00  0.00    -0.352 A  
HETATM   35  C   UNL     1     -11.543  12.337  63.459  1.00  0.00    -0.570 A  
HETATM   36  C   UNL     1     -12.293  12.892  64.492  1.00  0.00    -0.483 A  
ENDBRANCH  30  31
ENDBRANCH  11  30
ENDBRANCH   9  11
ENDBRANCH   7   9
ENDBRANCH   5   7
ENDBRANCH   4   5
ENDBRANCH   2   4
TORSDOF 12
ENDMDL
MODEL       59
REMARK 921   NORMALIZED FREE ENERGY PREDICTED BY IDOCK:   -6.02 KCAL/MOL
REMARK 922        TOTAL FREE ENERGY PREDICTED BY IDOCK:  -11.96 KCAL/MOL
REMARK 923 INTER-LIGAND FREE ENERGY PREDICTED BY IDOCK:  -10.54 KCAL/MOL
REMARK 924 INTRA-LIGAND FREE ENERGY PREDICTED BY IDOCK:   -1.41 KCAL/MOL
REMARK 927      BINDING AFFINITY PREDICTED BY RF-SCORE:    0.00 PKD
ROOT
HETATM    1  C   UNL     1      -6.888   9.366  66.474  1.00  0.00    -0.083 C  
HETATM    2  C   UNL     1      -7.829  10.018  65.459  1.00  0.00    -0.134 C  
HETATM    3  C   UNL     1      -7.259   9.910  64.038  1.00  0.00    -0.133 C  
ENDROOT
BRANCH   2   4
HETATM    4  O   UNL     1      -9.222   9.595  65.632  1.00  0.00    -0.181 OA 
BRANCH   4   5
HETATM    5  C   UNL     1     -10.197  10.531  65.733  1.00  0.00    -0.243 C  
HETATM    6  O   UNL     1     -10.727  11.055  64.751  1.00  0.00    -0.309 OA 
BRANCH   5   7
HETATM    7  C   UNL     1     -10.626  10.947  67.170  1.00  0.00    -0.255 C  
HETATM    8  C   UNL     1     -10.578   9.722  68.083  1.00  0.00    -0.276 C  
BRANCH   7   9
HETATM    9  N   UNL     1     -11.906  11.731  67.368  1.00  0.00    -0.624 NA 
HETATM   10  H   UNL     1     -12.564  11.223  67.959  1.00  0.00     0.000 HD 
BRANCH   9  11
HETATM   11  P   UNL     1     -11.599  13.347  67.996  1.00  0.00    -0.366 P  
HETATM   12  O   UNL     1     -11.525  13.994  66.591  1.00  0.00    -0.335 OA 
BRANCH  11  13
HETATM   13  C   UNL     1      -9.735  13.709  68.224  1.00  0.00    -0.231 C  
BRANCH  13  14
HETATM   14  O   UNL     1      -9.357  15.081  67.824  1.00  0.00    -0.184 OA 
BRANCH  14  15
HETATM   15  C   UNL     1      -8.997  16.078  68.818  1.00  0.00    -0.226 C  
HETATM   16  C   UNL     1     -10.077  17.165  68.882  1.00  0.00    -0.322 C  
BRANCH  15  17
HETATM   17  C   UNL     1      -7.575  16.609  68.706  1.00  0.00    -0.227 C  
BRANCH  17  18
HETATM   18  N   UNL     1      -7.318  17.443  67.564  1.00  0.00    -0.169 NA 
HETATM   19  C   UNL     1      -7.379  17.096  66.241  1.00  0.00    -0.291 A  
HETATM   20  N   UNL     1      -7.167  18.130  65.457  1.00  0.00    -0.533 NA 
HETATM   21  C   UNL     1      -6.940  19.176  66.323  1.00  0.00    -0.228 A  
HETATM   22  C   UNL     1      -6.672  20.529  66.099  1.00  0.00    -0.228 A  
HETATM   23  N   UNL     1      -6.417  21.326  67.163  1.00  0.00    -0.480 NA 
HETATM   24  N   UNL     1      -6.652  21.067  64.822  1.00  0.00    -0.519 NA 
HETATM   25  C   UNL     1      -6.482  20.780  68.392  1.00  0.00    -0.232 A  
HETATM   26  H1  UNL     1      -6.456  22.055  64.658  1.00  0.00     0.000 HD 
HETATM   27  H2  UNL     1      -7.543  20.847  64.376  1.00  0.00     0.000 HD 
HETATM   28  N   UNL     1      -6.767  19.504  68.737  1.00  0.00    -0.292 NA 
HETATM   29  C   UNL     1      -6.986  18.764  67.639  1.00  0.00    -0.206 A  
ENDBRANCH  17  18
ENDBRANCH  15  17
ENDBRANCH  14  15
ENDBRANCH  13  14
ENDBRANCH  11  13
BRANCH  11  30
HETATM   30  O   UNL     1     -11.682  12.625  69.567  1.00  0.00    -0.291 OA 
BRANCH  30  31
HETATM   31  C   UNL     1     -12.404  13.315  70.525  1.00  0.00    -0.316 A  
HETATM   32  C   UNL     1     -12.491  14.699  70.371  1.00  0.00    -0.410 A  
HETATM   33  C   UNL     1     -13.696  13.486  72.571  1.00  0.00    -0.664 A  
HETATM   34  C   UNL     1     -13.016  12.707  71.625  1.00  0.00    -0.400 A  
HETATM   35  C   UNL     1     -13.763  14.870  72.424  1.00  0.00    -0.576 A  
HETATM   36  C   UNL     1     -13.160  15.475  71.325  1.00  0.00    -0.581 A  
ENDBRANCH  30  31
ENDBRANCH  11  30
ENDBRANCH   9  11
ENDBRANCH   7   9
ENDBRANCH   5   7
ENDBRANCH   4   5
ENDBRANCH   2   4
TORSDOF 12
ENDMDL
MODEL       60
REMARK 921   NORMALIZED FREE ENERGY PREDICTED BY IDOCK:   -6.02 KCAL/MOL
REMARK 922        TOTAL FREE ENERGY PREDICTED BY IDOCK:  -11.96 KCAL/MOL
REMARK 923 INTER-LIGAND FREE ENERGY PREDICTED BY IDOCK:  -10.80 KCAL/MOL
REMARK 924 INTRA-LIGAND FREE ENERGY PREDICTED BY IDOCK:   -1.15 KCAL/MOL
REMARK 927      BINDING AFFINITY PREDICTED BY RF-SCORE:    0.00 PKD
ROOT
HETATM    1  C   UNL     1      -6.281   9.103  67.479  1.00  0.00    -0.058 C  
HETATM    2  C   UNL     1      -7.751   8.683  67.394  1.00  0.00    -0.098 C  
HETATM    3  C   UNL     1      -7.922   7.480  66.455  1.00  0.00    -0.107 C  
ENDROOT
BRANCH   2   4
HETATM    4  O   UNL     1      -8.380   8.572  68.713  1.00  0.00    -0.120 OA 
BRANCH   4   5
HETATM    5  C   UNL     1      -9.656   8.997  68.883  1.00  0.00    -0.156 C  
HETATM    6  O   UNL     1     -10.635   8.345  68.512  1.00  0.00    -0.191 OA 
BRANCH   5   7
HETATM    7  C   UNL     1      -9.849  10.381  69.566  1.00  0.00    -0.184 C  
HETATM    8  C   UNL     1     -10.978  10.284  70.591  1.00  0.00    -0.287 C  
BRANCH   7   9
HETATM    9  N   UNL     1      -9.990  11.621  68.708  1.00  0.00    -0.345 NA 
HETATM   10  H   UNL     1      -9.684  11.446  67.751  1.00  0.00     0.000 HD 
BRANCH   9  11
HETATM   11  P   UNL     1     -11.628  12.268  68.747  1.00  0.00    -0.349 P  
HETATM   12  O   UNL     1     -12.243  11.039  68.034  1.00  0.00    -0.520 OA 
BRANCH  11  13
HETATM   13  C   UNL     1     -12.040  13.324  67.206  1.00  0.00    -0.289 C  
BRANCH  13  14
HETATM   14  O   UNL     1     -12.348  12.512  66.011  1.00  0.00    -0.615 OA 
BRANCH  14  15
HETATM   15  C   UNL     1     -11.937  12.946  64.686  1.00  0.00    -0.392 C  
HETATM   16  C   UNL     1     -12.047  11.778  63.698  1.00  0.00    -0.486 C  
BRANCH  15  17
HETATM   17  C   UNL     1     -10.609  13.688  64.638  1.00  0.00    -0.430 C  
BRANCH  17  18
HETATM   18  N   UNL     1     -10.694  15.112  64.807  1.00  0.00    -0.379 NA 
HETATM   19  C   UNL     1     -11.511  15.989  64.147  1.00  0.00    -0.011 A  
HETATM   20  N   UNL     1     -11.388  17.213  64.612  1.00  0.00    -0.838 NA 
HETATM   21  C   UNL     1     -10.433  17.111  65.598  1.00  0.00    -0.197 A  
HETATM   22  C   UNL     1      -9.883  18.060  66.464  1.00  0.00    -0.353 A  
HETATM   23  N   UNL     1      -8.889  17.678  67.300  1.00  0.00    -0.233 NA 
HETATM   24  N   UNL     1     -10.322  19.375  66.479  1.00  0.00    -0.430 NA 
HETATM   25  C   UNL     1      -8.513  16.386  67.286  1.00  0.00    -0.175 A  
HETATM   26  H1  UNL     1      -9.921  20.068  67.111  1.00  0.00     0.000 HD 
HETATM   27  H2  UNL     1     -11.332  19.365  66.626  1.00  0.00     0.000 HD 
HETATM   28  N   UNL     1      -8.992  15.373  66.529  1.00  0.00    -0.288 NA 
HETATM   29  C   UNL     1      -9.955  15.821  65.709  1.00  0.00    -0.358 A  
ENDBRANCH  17  18
ENDBRANCH  15  17
ENDBRANCH  14  15
ENDBRANCH  13  14
ENDBRANCH  11  13
BRANCH  11  30
HETATM   30  O   UNL     1     -10.941  13.642  69.543  1.00  0.00    -0.143 OA 
BRANCH  30  31
HETATM   31  C   UNL     1     -11.705  14.223  70.540  1.00  0.00    -0.243 A  
HETATM   32  C   UNL     1     -11.274  15.458  71.025  1.00  0.00    -0.408 A  
HETATM   33  C   UNL     1     -13.546  14.272  72.119  1.00  0.00    -0.546 A  
HETATM   34  C   UNL     1     -12.850  13.633  71.084  1.00  0.00    -0.399 A  
HETATM   35  C   UNL     1     -13.099  15.496  72.615  1.00  0.00    -0.553 A  
HETATM   36  C   UNL     1     -11.964  16.087  72.068  1.00  0.00    -0.622 A  
ENDBRANCH  30  31
ENDBRANCH  11  30
ENDBRANCH   9  11
ENDBRANCH   7   9
ENDBRANCH   5   7
ENDBRANCH   4   5
ENDBRANCH   2   4
TORSDOF 12
ENDMDL
MODEL       61
REMARK 921   NORMALIZED FREE ENERGY PREDICTED BY IDOCK:   -6.02 KCAL/MOL
REMARK 922        TOTAL FREE ENERGY PREDICTED BY IDOCK:  -11.95 KCAL/MOL
REMARK 923 INTER-LIGAND FREE ENERGY PREDICTED BY IDOCK:  -10.39 KCAL/MOL
REMARK 924 INTRA-LIGAND FREE ENERGY PREDICTED BY IDOCK:   -1.56 KCAL/MOL
REMARK 927      BINDING AFFINITY PREDICTED BY RF-SCORE:    0.00 PKD
ROOT
HETATM    1  C   UNL     1      -8.399  19.956  67.233  1.00  0.00    -0.366 C  
HETATM    2  C   UNL     1      -9.420  19.044  66.550  1.00  0.00    -0.345 C  
HETATM    3  C   UNL     1     -10.519  19.870  65.867  1.00  0.00    -0.567 C  
ENDROOT
BRANCH   2   4
HETATM    4  O   UNL     1      -8.787  18.005  65.733  1.00  0.00    -0.476 OA 
BRANCH   4   5
HETATM    5  C   UNL     1      -8.510  16.798  66.284  1.00  0.00    -0.307 C  
HETATM    6  O   UNL     1      -7.366  16.437  66.567  1.00  0.00    -0.229 OA 
BRANCH   5   7
HETATM    7  C   UNL     1      -9.716  15.849  66.537  1.00  0.00    -0.266 C  
HETATM    8  C   UNL     1     -10.668  15.915  65.343  1.00  0.00    -0.415 C  
BRANCH   7   9
HETATM    9  N   UNL     1     -10.470  15.936  67.847  1.00  0.00    -0.279 NA 
HETATM   10  H   UNL     1     -11.371  16.400  67.726  1.00  0.00     0.000 HD 
BRANCH   9  11
HETATM   11  P   UNL     1     -10.662  14.358  68.605  1.00  0.00    -0.264 P  
HETATM   12  O   UNL     1      -9.305  13.826  68.085  1.00  0.00    -0.199 OA 
BRANCH  11  13
HETATM   13  C   UNL     1     -11.551  13.099  67.473  1.00  0.00    -0.352 C  
BRANCH  13  14
HETATM   14  O   UNL     1     -10.618  12.258  66.695  1.00  0.00    -0.223 OA 
BRANCH  14  15
HETATM   15  C   UNL     1     -10.756  12.124  65.254  1.00  0.00    -0.288 C  
HETATM   16  C   UNL     1     -12.155  12.578  64.820  1.00  0.00    -0.497 C  
BRANCH  15  17
HETATM   17  C   UNL     1     -10.330  10.774  64.693  1.00  0.00    -0.324 C  
BRANCH  17  18
HETATM   18  N   UNL     1      -9.283  10.109  65.418  1.00  0.00    -0.185 NA 
HETATM   19  C   UNL     1      -7.940  10.370  65.381  1.00  0.00    -0.147 A  
HETATM   20  N   UNL     1      -7.276   9.626  66.238  1.00  0.00    -0.092 NA 
HETATM   21  C   UNL     1      -8.241   8.842  66.830  1.00  0.00    -0.108 A  
HETATM   22  C   UNL     1      -8.165   7.865  67.827  1.00  0.00    -0.129 A  
HETATM   23  N   UNL     1      -9.290   7.195  68.168  1.00  0.00    -0.130 NA 
HETATM   24  N   UNL     1      -6.970   7.564  68.463  1.00  0.00    -0.076 NA 
HETATM   25  C   UNL     1     -10.440   7.539  67.557  1.00  0.00    -0.271 A  
HETATM   26  H1  UNL     1      -6.914   6.850  69.190  1.00  0.00     0.000 HD 
HETATM   27  H2  UNL     1      -6.592   8.430  68.845  1.00  0.00     0.000 HD 
HETATM   28  N   UNL     1     -10.647   8.485  66.614  1.00  0.00    -0.185 NA 
HETATM   29  C   UNL     1      -9.492   9.094  66.306  1.00  0.00    -0.237 A  
ENDBRANCH  17  18
ENDBRANCH  15  17
ENDBRANCH  14  15
ENDBRANCH  13  14
ENDBRANCH  11  13
BRANCH  11  30
HETATM   30  O   UNL     1     -12.179  14.953  69.188  1.00  0.00    -0.250 OA 
BRANCH  30  31
HETATM   31  C   UNL     1     -12.328  15.020  70.562  1.00  0.00    -0.356 A  
HETATM   32  C   UNL     1     -13.053  13.993  71.168  1.00  0.00    -0.373 A  
HETATM   33  C   UNL     1     -12.045  16.066  72.732  1.00  0.00    -0.635 A  
HETATM   34  C   UNL     1     -11.816  16.055  71.349  1.00  0.00    -0.531 A  
HETATM   35  C   UNL     1     -12.788  15.049  73.330  1.00  0.00    -0.647 A  
HETATM   36  C   UNL     1     -13.291  14.014  72.547  1.00  0.00    -0.639 A  
ENDBRANCH  30  31
ENDBRANCH  11  30
ENDBRANCH   9  11
ENDBRANCH   7   9
ENDBRANCH   5   7
ENDBRANCH   4   5
ENDBRANCH   2   4
TORSDOF 12
ENDMDL
MODEL       62
REMARK 921   NORMALIZED FREE ENERGY PREDICTED BY IDOCK:   -5.99 KCAL/MOL
REMARK 922        TOTAL FREE ENERGY PREDICTED BY IDOCK:  -11.90 KCAL/MOL
REMARK 923 INTER-LIGAND FREE ENERGY PREDICTED BY IDOCK:  -10.33 KCAL/MOL
REMARK 924 INTRA-LIGAND FREE ENERGY PREDICTED BY IDOCK:   -1.58 KCAL/MOL
REMARK 927      BINDING AFFINITY PREDICTED BY RF-SCORE:    0.00 PKD
ROOT
HETATM    1  C   UNL     1     -14.199  15.342  72.185  1.00  0.00    -0.667 C  
HETATM    2  C   UNL     1     -12.783  15.789  72.556  1.00  0.00    -0.451 C  
HETATM    3  C   UNL     1     -12.579  15.750  74.077  1.00  0.00    -0.758 C  
ENDROOT
BRANCH   2   4
HETATM    4  O   UNL     1     -11.756  15.130  71.746  1.00  0.00    -0.361 OA 
BRANCH   4   5
HETATM    5  C   UNL     1     -11.543  15.540  70.471  1.00  0.00    -0.346 C  
HETATM    6  O   UNL     1     -11.285  16.708  70.177  1.00  0.00    -0.258 OA 
BRANCH   5   7
HETATM    7  C   UNL     1     -11.655  14.458  69.359  1.00  0.00    -0.304 C  
HETATM    8  C   UNL     1     -12.019  13.117  69.995  1.00  0.00    -0.391 C  
BRANCH   7   9
HETATM    9  N   UNL     1     -10.533  14.304  68.354  1.00  0.00    -0.242 NA 
HETATM   10  H   UNL     1     -10.228  13.333  68.286  1.00  0.00     0.000 HD 
BRANCH   9  11
HETATM   11  P   UNL     1     -10.968  14.950  66.774  1.00  0.00    -0.323 P  
HETATM   12  O   UNL     1     -12.294  14.155  66.697  1.00  0.00    -0.455 OA 
BRANCH  11  13
HETATM   13  C   UNL     1     -10.289  13.892  65.332  1.00  0.00    -0.348 C  
BRANCH  13  14
HETATM   14  O   UNL     1      -9.704  12.611  65.778  1.00  0.00    -0.247 OA 
BRANCH  14  15
HETATM   15  C   UNL     1      -9.624  11.471  64.879  1.00  0.00    -0.186 C  
HETATM   16  C   UNL     1     -10.315  11.805  63.552  1.00  0.00    -0.490 C  
BRANCH  15  17
HETATM   17  C   UNL     1     -10.044  10.142  65.491  1.00  0.00    -0.268 C  
BRANCH  17  18
HETATM   18  N   UNL     1     -10.016  10.090  66.927  1.00  0.00    -0.199 NA 
HETATM   19  C   UNL     1     -11.025  10.398  67.799  1.00  0.00    -0.309 A  
HETATM   20  N   UNL     1     -10.683  10.155  69.045  1.00  0.00    -0.211 NA 
HETATM   21  C   UNL     1      -9.389   9.691  68.961  1.00  0.00    -0.159 A  
HETATM   22  C   UNL     1      -8.490   9.255  69.938  1.00  0.00    -0.163 A  
HETATM   23  N   UNL     1      -7.235   8.916  69.563  1.00  0.00    -0.062 NA 
HETATM   24  N   UNL     1      -8.851   9.173  71.275  1.00  0.00    -0.309 NA 
HETATM   25  C   UNL     1      -6.931   8.972  68.252  1.00  0.00    -0.076 A  
HETATM   26  H1  UNL     1      -8.195   8.854  71.988  1.00  0.00     0.000 HD 
HETATM   27  H2  UNL     1      -9.687   8.592  71.337  1.00  0.00     0.000 HD 
HETATM   28  N   UNL     1      -7.718   9.338  67.216  1.00  0.00    -0.095 NA 
HETATM   29  C   UNL     1      -8.937   9.683  67.657  1.00  0.00    -0.125 A  
ENDBRANCH  17  18
ENDBRANCH  15  17
ENDBRANCH  14  15
ENDBRANCH  13  14
ENDBRANCH  11  13
BRANCH  11  30
HETATM   30  O   UNL     1      -9.485  15.839  66.860  1.00  0.00    -0.216 OA 
BRANCH  30  31
HETATM   31  C   UNL     1      -9.596  17.208  67.028  1.00  0.00    -0.260 A  
HETATM   32  C   UNL     1      -8.796  17.788  68.013  1.00  0.00    -0.259 A  
HETATM   33  C   UNL     1     -10.548  19.388  66.551  1.00  0.00    -0.554 A  
HETATM   34  C   UNL     1     -10.469  18.013  66.290  1.00  0.00    -0.340 A  
HETATM   35  C   UNL     1      -9.761  19.960  67.550  1.00  0.00    -0.521 A  
HETATM   36  C   UNL     1      -8.887  19.159  68.279  1.00  0.00    -0.377 A  
ENDBRANCH  30  31
ENDBRANCH  11  30
ENDBRANCH   9  11
ENDBRANCH   7   9
ENDBRANCH   5   7
ENDBRANCH   4   5
ENDBRANCH   2   4
TORSDOF 12
ENDMDL
MODEL       63
REMARK 921   NORMALIZED FREE ENERGY PREDICTED BY IDOCK:   -5.97 KCAL/MOL
REMARK 922        TOTAL FREE ENERGY PREDICTED BY IDOCK:  -11.87 KCAL/MOL
REMARK 923 INTER-LIGAND FREE ENERGY PREDICTED BY IDOCK:  -10.54 KCAL/MOL
REMARK 924 INTRA-LIGAND FREE ENERGY PREDICTED BY IDOCK:   -1.33 KCAL/MOL
REMARK 927      BINDING AFFINITY PREDICTED BY RF-SCORE:    0.00 PKD
ROOT
HETATM    1  C   UNL     1      -7.114  18.838  67.661  1.00  0.00    -0.223 C  
HETATM    2  C   UNL     1      -7.735  18.739  66.266  1.00  0.00    -0.272 C  
HETATM    3  C   UNL     1      -6.654  18.836  65.179  1.00  0.00    -0.173 C  
ENDROOT
BRANCH   2   4
HETATM    4  O   UNL     1      -8.675  17.621  66.148  1.00  0.00    -0.445 OA 
BRANCH   4   5
HETATM    5  C   UNL     1     -10.008  17.860  66.197  1.00  0.00    -0.283 C  
HETATM    6  O   UNL     1     -10.695  18.039  65.189  1.00  0.00    -0.612 OA 
BRANCH   5   7
HETATM    7  C   UNL     1     -10.659  17.919  67.609  1.00  0.00    -0.387 C  
HETATM    8  C   UNL     1     -10.860  19.380  68.009  1.00  0.00    -0.213 C  
BRANCH   7   9
HETATM    9  N   UNL     1     -10.054  17.117  68.742  1.00  0.00    -0.311 NA 
HETATM   10  H   UNL     1     -10.248  17.548  69.645  1.00  0.00     0.000 HD 
BRANCH   9  11
HETATM   11  P   UNL     1     -10.574  15.434  68.711  1.00  0.00    -0.259 P  
HETATM   12  O   UNL     1      -9.220  14.916  68.167  1.00  0.00    -0.178 OA 
BRANCH  11  13
HETATM   13  C   UNL     1     -11.390  14.945  67.051  1.00  0.00    -0.342 C  
BRANCH  13  14
HETATM   14  O   UNL     1     -10.588  13.977  66.274  1.00  0.00    -0.276 OA 
BRANCH  14  15
HETATM   15  C   UNL     1     -11.088  12.640  66.000  1.00  0.00    -0.287 C  
HETATM   16  C   UNL     1     -12.236  12.711  64.984  1.00  0.00    -0.535 C  
BRANCH  15  17
HETATM   17  C   UNL     1     -11.392  11.805  67.236  1.00  0.00    -0.315 C  
BRANCH  17  18
HETATM   18  N   UNL     1     -10.793  10.499  67.258  1.00  0.00    -0.286 NA 
HETATM   19  C   UNL     1     -10.198   9.830  66.222  1.00  0.00    -0.212 A  
HETATM   20  N   UNL     1      -9.678   8.689  66.616  1.00  0.00    -0.224 NA 
HETATM   21  C   UNL     1      -9.975   8.621  67.959  1.00  0.00    -0.182 A  
HETATM   22  C   UNL     1      -9.680   7.661  68.931  1.00  0.00    -0.156 A  
HETATM   23  N   UNL     1     -10.172   7.829  70.181  1.00  0.00    -0.201 NA 
HETATM   24  N   UNL     1      -8.908   6.546  68.644  1.00  0.00    -0.122 NA 
HETATM   25  C   UNL     1     -10.885   8.942  70.435  1.00  0.00    -0.236 A  
HETATM   26  H1  UNL     1      -8.693   5.845  69.353  1.00  0.00     0.000 HD 
HETATM   27  H2  UNL     1      -8.027   6.869  68.246  1.00  0.00     0.000 HD 
HETATM   28  N   UNL     1     -11.203   9.954  69.596  1.00  0.00    -0.232 NA 
HETATM   29  C   UNL     1     -10.706   9.716  68.372  1.00  0.00    -0.209 A  
ENDBRANCH  17  18
ENDBRANCH  15  17
ENDBRANCH  14  15
ENDBRANCH  13  14
ENDBRANCH  11  13
BRANCH  11  30
HETATM   30  O   UNL     1     -12.087  16.014  69.319  1.00  0.00    -0.290 OA 
BRANCH  30  31
HETATM   31  C   UNL     1     -12.413  15.645  70.612  1.00  0.00    -0.417 A  
HETATM   32  C   UNL     1     -11.460  15.901  71.599  1.00  0.00    -0.473 A  
HETATM   33  C   UNL     1     -13.849  14.646  72.293  1.00  0.00    -0.583 A  
HETATM   34  C   UNL     1     -13.615  15.023  70.963  1.00  0.00    -0.442 A  
HETATM   35  C   UNL     1     -12.886  14.885  73.271  1.00  0.00    -0.646 A  
HETATM   36  C   UNL     1     -11.693  15.512  72.923  1.00  0.00    -0.521 A  
ENDBRANCH  30  31
ENDBRANCH  11  30
ENDBRANCH   9  11
ENDBRANCH   7   9
ENDBRANCH   5   7
ENDBRANCH   4   5
ENDBRANCH   2   4
TORSDOF 12
ENDMDL
MODEL       64
REMARK 921   NORMALIZED FREE ENERGY PREDICTED BY IDOCK:   -5.97 KCAL/MOL
REMARK 922        TOTAL FREE ENERGY PREDICTED BY IDOCK:  -11.87 KCAL/MOL
REMARK 923 INTER-LIGAND FREE ENERGY PREDICTED BY IDOCK:  -10.48 KCAL/MOL
REMARK 924 INTRA-LIGAND FREE ENERGY PREDICTED BY IDOCK:   -1.39 KCAL/MOL
REMARK 927      BINDING AFFINITY PREDICTED BY RF-SCORE:    0.00 PKD
ROOT
HETATM    1  C   UNL     1     -10.722  19.465  67.013  1.00  0.00    -0.582 C  
HETATM    2  C   UNL     1      -9.977  18.214  67.484  1.00  0.00    -0.332 C  
HETATM    3  C   UNL     1      -8.858  18.582  68.468  1.00  0.00    -0.351 C  
ENDROOT
BRANCH   2   4
HETATM    4  O   UNL     1     -10.886  17.144  67.905  1.00  0.00    -0.363 OA 
BRANCH   4   5
HETATM    5  C   UNL     1     -10.541  15.851  67.694  1.00  0.00    -0.307 C  
HETATM    6  O   UNL     1     -10.050  15.452  66.636  1.00  0.00    -0.252 OA 
BRANCH   5   7
HETATM    7  C   UNL     1     -10.807  14.855  68.859  1.00  0.00    -0.250 C  
HETATM    8  C   UNL     1     -10.730  15.603  70.189  1.00  0.00    -0.355 C  
BRANCH   7   9
HETATM    9  N   UNL     1     -10.038  13.552  68.915  1.00  0.00    -0.425 NA 
HETATM   10  H   UNL     1      -9.548  13.449  69.804  1.00  0.00     0.000 HD 
BRANCH   9  11
HETATM   11  P   UNL     1     -11.069  12.161  68.591  1.00  0.00    -0.289 P  
HETATM   12  O   UNL     1     -11.930  12.370  69.861  1.00  0.00    -0.322 OA 
BRANCH  11  13
HETATM   13  C   UNL     1     -10.391  10.545  69.357  1.00  0.00    -0.234 C  
BRANCH  13  14
HETATM   14  O   UNL     1     -11.455   9.606  69.768  1.00  0.00    -0.176 OA 
BRANCH  14  15
HETATM   15  C   UNL     1     -11.405   8.934  71.055  1.00  0.00    -0.291 C  
HETATM   16  C   UNL     1      -9.968   8.947  71.594  1.00  0.00    -0.397 C  
BRANCH  15  17
HETATM   17  C   UNL     1     -12.078   7.569  71.092  1.00  0.00    -0.307 C  
BRANCH  17  18
HETATM   18  N   UNL     1     -11.213   6.449  70.846  1.00  0.00    -0.308 NA 
HETATM   19  C   UNL     1     -10.639   5.613  71.766  1.00  0.00    -0.238 A  
HETATM   20  N   UNL     1      -9.972   4.638  71.187  1.00  0.00    -0.196 NA 
HETATM   21  C   UNL     1     -10.111   4.880  69.839  1.00  0.00    -0.262 A  
HETATM   22  C   UNL     1      -9.645   4.191  68.716  1.00  0.00    -0.140 A  
HETATM   23  N   UNL     1      -9.881   4.712  67.489  1.00  0.00    -0.169 NA 
HETATM   24  N   UNL     1      -8.943   3.001  68.830  1.00  0.00    -0.115 NA 
HETATM   25  C   UNL     1     -10.598   5.849  67.413  1.00  0.00    -0.282 A  
HETATM   26  H1  UNL     1      -8.603   2.498  68.010  1.00  0.00     0.000 HD 
HETATM   27  H2  UNL     1      -9.510   2.355  69.380  1.00  0.00     0.000 HD 
HETATM   28  N   UNL     1     -11.132   6.582  68.416  1.00  0.00    -0.285 NA 
HETATM   29  C   UNL     1     -10.843   6.026  69.602  1.00  0.00    -0.369 A  
ENDBRANCH  17  18
ENDBRANCH  15  17
ENDBRANCH  14  15
ENDBRANCH  13  14
ENDBRANCH  11  13
BRANCH  11  30
HETATM   30  O   UNL     1     -10.107  11.928  67.171  1.00  0.00    -0.202 OA 
BRANCH  30  31
HETATM   31  C   UNL     1     -10.773  11.987  65.959  1.00  0.00    -0.279 A  
HETATM   32  C   UNL     1     -11.985  12.680  65.941  1.00  0.00    -0.497 A  
HETATM   33  C   UNL     1     -11.067  11.459  63.610  1.00  0.00    -0.411 A  
HETATM   34  C   UNL     1     -10.310  11.382  64.787  1.00  0.00    -0.349 A  
HETATM   35  C   UNL     1     -12.287  12.134  63.601  1.00  0.00    -0.673 A  
HETATM   36  C   UNL     1     -12.744  12.743  64.766  1.00  0.00    -0.469 A  
ENDBRANCH  30  31
ENDBRANCH  11  30
ENDBRANCH   9  11
ENDBRANCH   7   9
ENDBRANCH   5   7
ENDBRANCH   4   5
ENDBRANCH   2   4
TORSDOF 12
ENDMDL
MODEL       65
REMARK 921   NORMALIZED FREE ENERGY PREDICTED BY IDOCK:   -5.97 KCAL/MOL
REMARK 922        TOTAL FREE ENERGY PREDICTED BY IDOCK:  -11.87 KCAL/MOL
REMARK 923 INTER-LIGAND FREE ENERGY PREDICTED BY IDOCK:  -10.90 KCAL/MOL
REMARK 924 INTRA-LIGAND FREE ENERGY PREDICTED BY IDOCK:   -0.97 KCAL/MOL
REMARK 927      BINDING AFFINITY PREDICTED BY RF-SCORE:    0.00 PKD
ROOT
HETATM    1  C   UNL     1      -9.763  20.783  67.145  1.00  0.00    -0.457 C  
HETATM    2  C   UNL     1      -9.645  19.608  66.172  1.00  0.00    -0.386 C  
HETATM    3  C   UNL     1      -8.203  19.081  66.124  1.00  0.00    -0.246 C  
ENDROOT
BRANCH   2   4
HETATM    4  O   UNL     1     -10.695  18.606  66.371  1.00  0.00    -0.362 OA 
BRANCH   4   5
HETATM    5  C   UNL     1     -10.403  17.291  66.223  1.00  0.00    -0.322 C  
HETATM    6  O   UNL     1     -10.100  16.790  65.138  1.00  0.00    -0.534 OA 
BRANCH   5   7
HETATM    7  C   UNL     1     -10.481  16.406  67.500  1.00  0.00    -0.304 C  
HETATM    8  C   UNL     1      -9.245  16.657  68.363  1.00  0.00    -0.225 C  
BRANCH   7   9
HETATM    9  N   UNL     1     -10.765  14.925  67.364  1.00  0.00    -0.285 NA 
HETATM   10  H   UNL     1     -10.104  14.478  66.730  1.00  0.00     0.000 HD 
BRANCH   9  11
HETATM   11  P   UNL     1     -10.802  14.113  68.926  1.00  0.00    -0.235 P  
HETATM   12  O   UNL     1      -9.510  13.303  68.654  1.00  0.00    -0.141 OA 
BRANCH  11  13
HETATM   13  C   UNL     1     -11.794  12.478  68.886  1.00  0.00    -0.301 C  
BRANCH  13  14
HETATM   14  O   UNL     1     -12.010  11.897  70.227  1.00  0.00    -0.344 OA 
BRANCH  14  15
HETATM   15  C   UNL     1     -12.019  10.457  70.425  1.00  0.00    -0.320 C  
HETATM   16  C   UNL     1     -12.843  10.108  71.671  1.00  0.00    -0.559 C  
BRANCH  15  17
HETATM   17  C   UNL     1     -10.649   9.795  70.371  1.00  0.00    -0.304 C  
BRANCH  17  18
HETATM   18  N   UNL     1     -10.610   8.425  70.803  1.00  0.00    -0.203 NA 
HETATM   19  C   UNL     1     -11.227   7.346  70.230  1.00  0.00    -0.247 A  
HETATM   20  N   UNL     1     -10.908   6.224  70.837  1.00  0.00    -0.258 NA 
HETATM   21  C   UNL     1     -10.066   6.613  71.855  1.00  0.00    -0.181 A  
HETATM   22  C   UNL     1      -9.388   5.881  72.833  1.00  0.00    -0.147 A  
HETATM   23  N   UNL     1      -8.673   6.550  73.767  1.00  0.00    -0.123 NA 
HETATM   24  N   UNL     1      -9.439   4.496  72.874  1.00  0.00    -0.129 NA 
HETATM   25  C   UNL     1      -8.614   7.892  73.676  1.00  0.00    -0.258 A  
HETATM   26  H1  UNL     1      -8.943   3.961  73.588  1.00  0.00     0.000 HD 
HETATM   27  H2  UNL     1      -9.146   4.146  71.961  1.00  0.00     0.000 HD 
HETATM   28  N   UNL     1      -9.190   8.704  72.761  1.00  0.00    -0.306 NA 
HETATM   29  C   UNL     1      -9.900   7.982  71.881  1.00  0.00    -0.191 A  
ENDBRANCH  17  18
ENDBRANCH  15  17
ENDBRANCH  14  15
ENDBRANCH  13  14
ENDBRANCH  11  13
BRANCH  11  30
HETATM   30  O   UNL     1     -12.245  15.018  69.231  1.00  0.00    -0.261 OA 
BRANCH  30  31
HETATM   31  C   UNL     1     -12.507  15.332  70.553  1.00  0.00    -0.405 A  
HETATM   32  C   UNL     1     -13.804  15.093  71.011  1.00  0.00    -0.423 A  
HETATM   33  C   UNL     1     -11.923  16.209  72.739  1.00  0.00    -0.638 A  
HETATM   34  C   UNL     1     -11.562  15.884  71.423  1.00  0.00    -0.529 A  
HETATM   35  C   UNL     1     -13.224  15.987  73.185  1.00  0.00    -0.633 A  
HETATM   36  C   UNL     1     -14.163  15.430  72.321  1.00  0.00    -0.639 A  
ENDBRANCH  30  31
ENDBRANCH  11  30
ENDBRANCH   9  11
ENDBRANCH   7   9
ENDBRANCH   5   7
ENDBRANCH   4   5
ENDBRANCH   2   4
TORSDOF 12
ENDMDL
MODEL       66
REMARK 921   NORMALIZED FREE ENERGY PREDICTED BY IDOCK:   -5.96 KCAL/MOL
REMARK 922        TOTAL FREE ENERGY PREDICTED BY IDOCK:  -11.85 KCAL/MOL
REMARK 923 INTER-LIGAND FREE ENERGY PREDICTED BY IDOCK:   -9.81 KCAL/MOL
REMARK 924 INTRA-LIGAND FREE ENERGY PREDICTED BY IDOCK:   -2.04 KCAL/MOL
REMARK 927      BINDING AFFINITY PREDICTED BY RF-SCORE:    0.00 PKD
ROOT
HETATM    1  C   UNL     1      -9.798   4.659  68.926  1.00  0.00    -0.211 C  
HETATM    2  C   UNL     1      -9.503   5.940  68.142  1.00  0.00    -0.115 C  
HETATM    3  C   UNL     1     -10.105   5.869  66.732  1.00  0.00    -0.235 C  
ENDROOT
BRANCH   2   4
HETATM    4  O   UNL     1      -9.798   7.150  68.914  1.00  0.00    -0.152 OA 
BRANCH   4   5
HETATM    5  C   UNL     1      -8.810   8.046  69.158  1.00  0.00    -0.145 C  
HETATM    6  O   UNL     1      -7.754   7.743  69.716  1.00  0.00    -0.093 OA 
BRANCH   5   7
HETATM    7  C   UNL     1      -9.068   9.514  68.713  1.00  0.00    -0.133 C  
HETATM    8  C   UNL     1      -7.819  10.058  68.021  1.00  0.00    -0.089 C  
BRANCH   7   9
HETATM    9  N   UNL     1      -9.620  10.509  69.713  1.00  0.00    -0.423 NA 
HETATM   10  H   UNL     1      -9.305  11.456  69.505  1.00  0.00     0.000 HD 
BRANCH   9  11
HETATM   11  P   UNL     1     -11.376  10.429  69.823  1.00  0.00    -0.299 P  
HETATM   12  O   UNL     1     -11.590  10.756  68.325  1.00  0.00    -0.401 OA 
BRANCH  11  13
HETATM   13  C   UNL     1     -12.165  12.114  70.268  1.00  0.00    -0.264 C  
BRANCH  13  14
HETATM   14  O   UNL     1     -12.114  13.089  69.159  1.00  0.00    -0.276 OA 
BRANCH  14  15
HETATM   15  C   UNL     1     -11.099  14.129  69.122  1.00  0.00    -0.262 C  
HETATM   16  C   UNL     1     -11.401  15.191  70.186  1.00  0.00    -0.300 C  
BRANCH  15  17
HETATM   17  C   UNL     1     -10.807  14.690  67.737  1.00  0.00    -0.267 C  
BRANCH  17  18
HETATM   18  N   UNL     1     -11.492  14.040  66.653  1.00  0.00    -0.348 NA 
HETATM   19  C   UNL     1     -12.749  14.302  66.178  1.00  0.00    -0.131 A  
HETATM   20  N   UNL     1     -13.029  13.575  65.118  1.00  0.00    -0.734 NA 
HETATM   21  C   UNL     1     -11.905  12.802  64.926  1.00  0.00    -0.379 A  
HETATM   22  C   UNL     1     -11.587  11.845  63.958  1.00  0.00    -0.389 A  
HETATM   23  N   UNL     1     -10.413  11.181  64.063  1.00  0.00    -0.362 NA 
HETATM   24  N   UNL     1     -12.445  11.558  62.908  1.00  0.00    -0.867 NA 
HETATM   25  C   UNL     1      -9.587  11.512  65.073  1.00  0.00    -0.197 A  
HETATM   26  H1  UNL     1     -12.213  10.859  62.201  1.00  0.00     0.000 HD 
HETATM   27  H2  UNL     1     -12.654  12.432  62.427  1.00  0.00     0.000 HD 
HETATM   28  N   UNL     1      -9.763  12.439  66.041  1.00  0.00    -0.253 NA 
HETATM   29  C   UNL     1     -10.953  13.043  65.895  1.00  0.00    -0.271 A  
ENDBRANCH  17  18
ENDBRANCH  15  17
ENDBRANCH  14  15
ENDBRANCH  13  14
ENDBRANCH  11  13
BRANCH  11  30
HETATM   30  O   UNL     1     -11.137  10.064  71.498  1.00  0.00    -0.192 OA 
BRANCH  30  31
HETATM   31  C   UNL     1     -11.196   8.727  71.851  1.00  0.00    -0.368 A  
HETATM   32  C   UNL     1     -12.334   8.022  71.455  1.00  0.00    -0.328 A  
HETATM   33  C   UNL     1     -10.362   6.725  72.936  1.00  0.00    -0.245 A  
HETATM   34  C   UNL     1     -10.204   8.073  72.587  1.00  0.00    -0.385 A  
HETATM   35  C   UNL     1     -11.509   6.030  72.556  1.00  0.00    -0.336 A  
HETATM   36  C   UNL     1     -12.493   6.679  71.817  1.00  0.00    -0.360 A  
ENDBRANCH  30  31
ENDBRANCH  11  30
ENDBRANCH   9  11
ENDBRANCH   7   9
ENDBRANCH   5   7
ENDBRANCH   4   5
ENDBRANCH   2   4
TORSDOF 12
ENDMDL
MODEL       67
REMARK 921   NORMALIZED FREE ENERGY PREDICTED BY IDOCK:   -5.95 KCAL/MOL
REMARK 922        TOTAL FREE ENERGY PREDICTED BY IDOCK:  -11.84 KCAL/MOL
REMARK 923 INTER-LIGAND FREE ENERGY PREDICTED BY IDOCK:  -10.37 KCAL/MOL
REMARK 924 INTRA-LIGAND FREE ENERGY PREDICTED BY IDOCK:   -1.47 KCAL/MOL
REMARK 927      BINDING AFFINITY PREDICTED BY RF-SCORE:    0.00 PKD
ROOT
HETATM    1  C   UNL     1      -7.549   6.375  67.406  1.00  0.00    -0.100 C  
HETATM    2  C   UNL     1      -7.809   7.863  67.158  1.00  0.00    -0.109 C  
HETATM    3  C   UNL     1      -6.488   8.634  67.028  1.00  0.00    -0.057 C  
ENDROOT
BRANCH   2   4
HETATM    4  O   UNL     1      -8.801   8.091  66.105  1.00  0.00    -0.151 OA 
BRANCH   4   5
HETATM    5  C   UNL     1     -10.010   8.615  66.425  1.00  0.00    -0.260 C  
HETATM    6  O   UNL     1     -10.900   7.960  66.970  1.00  0.00    -0.305 OA 
BRANCH   5   7
HETATM    7  C   UNL     1     -10.248  10.107  66.057  1.00  0.00    -0.218 C  
HETATM    8  C   UNL     1      -9.542  10.418  64.738  1.00  0.00    -0.352 C  
BRANCH   7   9
HETATM    9  N   UNL     1      -9.982  11.181  67.090  1.00  0.00    -0.183 NA 
HETATM   10  H   UNL     1      -9.480  11.971  66.683  1.00  0.00     0.000 HD 
BRANCH   9  11
HETATM   11  P   UNL     1     -11.459  11.708  67.892  1.00  0.00    -0.281 P  
HETATM   12  O   UNL     1     -12.207  11.979  66.563  1.00  0.00    -0.548 OA 
BRANCH  11  13
HETATM   13  C   UNL     1     -11.477  13.587  68.247  1.00  0.00    -0.310 C  
BRANCH  13  14
HETATM   14  O   UNL     1     -11.821  14.399  67.061  1.00  0.00    -0.391 OA 
BRANCH  14  15
HETATM   15  C   UNL     1     -10.862  15.327  66.486  1.00  0.00    -0.311 C  
HETATM   16  C   UNL     1     -10.366  14.796  65.135  1.00  0.00    -0.439 C  
BRANCH  15  17
HETATM   17  C   UNL     1      -9.755  15.772  67.432  1.00  0.00    -0.223 C  
BRANCH  17  18
HETATM   18  N   UNL     1      -9.532  17.190  67.495  1.00  0.00    -0.245 NA 
HETATM   19  C   UNL     1     -10.242  18.121  68.203  1.00  0.00    -0.388 A  
HETATM   20  N   UNL     1      -9.711  19.319  68.100  1.00  0.00    -0.340 NA 
HETATM   21  C   UNL     1      -8.625  19.144  67.271  1.00  0.00    -0.282 A  
HETATM   22  C   UNL     1      -7.659  20.036  66.799  1.00  0.00    -0.275 A  
HETATM   23  N   UNL     1      -6.732  19.586  65.922  1.00  0.00    -0.233 NA 
HETATM   24  N   UNL     1      -7.636  21.363  67.199  1.00  0.00    -0.763 NA 
HETATM   25  C   UNL     1      -6.761  18.283  65.585  1.00  0.00    -0.256 A  
HETATM   26  H1  UNL     1      -6.930  22.015  66.855  1.00  0.00     0.000 HD 
HETATM   27  H2  UNL     1      -7.608  21.382  68.219  1.00  0.00     0.000 HD 
HETATM   28  N   UNL     1      -7.614  17.320  66.000  1.00  0.00    -0.444 NA 
HETATM   29  C   UNL     1      -8.519  17.835  66.847  1.00  0.00    -0.243 A  
ENDBRANCH  17  18
ENDBRANCH  15  17
ENDBRANCH  14  15
ENDBRANCH  13  14
ENDBRANCH  11  13
BRANCH  11  30
HETATM   30  O   UNL     1     -10.624  11.403  69.376  1.00  0.00    -0.168 OA 
BRANCH  30  31
HETATM   31  C   UNL     1     -11.254  10.563  70.277  1.00  0.00    -0.313 A  
HETATM   32  C   UNL     1     -12.545  10.917  70.671  1.00  0.00    -0.435 A  
HETATM   33  C   UNL     1     -11.359   8.639  71.751  1.00  0.00    -0.393 A  
HETATM   34  C   UNL     1     -10.663   9.415  70.813  1.00  0.00    -0.373 A  
HETATM   35  C   UNL     1     -12.640   9.009  72.157  1.00  0.00    -0.461 A  
HETATM   36  C   UNL     1     -13.231  10.147  71.617  1.00  0.00    -0.518 A  
ENDBRANCH  30  31
ENDBRANCH  11  30
ENDBRANCH   9  11
ENDBRANCH   7   9
ENDBRANCH   5   7
ENDBRANCH   4   5
ENDBRANCH   2   4
TORSDOF 12
ENDMDL
MODEL       68
REMARK 921   NORMALIZED FREE ENERGY PREDICTED BY IDOCK:   -5.94 KCAL/MOL
REMARK 922        TOTAL FREE ENERGY PREDICTED BY IDOCK:  -11.83 KCAL/MOL
REMARK 923 INTER-LIGAND FREE ENERGY PREDICTED BY IDOCK:  -11.48 KCAL/MOL
REMARK 924 INTRA-LIGAND FREE ENERGY PREDICTED BY IDOCK:   -0.35 KCAL/MOL
REMARK 927      BINDING AFFINITY PREDICTED BY RF-SCORE:    0.00 PKD
ROOT
HETATM    1  C   UNL     1     -12.809  15.015  73.531  1.00  0.00    -0.636 C  
HETATM    2  C   UNL     1     -13.166  14.375  72.187  1.00  0.00    -0.384 C  
HETATM    3  C   UNL     1     -14.404  15.045  71.575  1.00  0.00    -0.651 C  
ENDROOT
BRANCH   2   4
HETATM    4  O   UNL     1     -12.003  14.233  71.307  1.00  0.00    -0.334 OA 
BRANCH   4   5
HETATM    5  C   UNL     1     -11.457  15.335  70.736  1.00  0.00    -0.325 C  
HETATM    6  O   UNL     1     -11.578  16.466  71.211  1.00  0.00    -0.414 OA 
BRANCH   5   7
HETATM    7  C   UNL     1     -10.666  15.120  69.414  1.00  0.00    -0.265 C  
HETATM    8  C   UNL     1      -9.168  15.139  69.715  1.00  0.00     0.005 C  
BRANCH   7   9
HETATM    9  N   UNL     1     -10.995  15.969  68.203  1.00  0.00    -0.328 NA 
HETATM   10  H   UNL     1     -10.373  16.775  68.137  1.00  0.00     0.000 HD 
BRANCH   9  11
HETATM   11  P   UNL     1     -10.982  15.029  66.714  1.00  0.00    -0.299 P  
HETATM   12  O   UNL     1     -12.241  14.211  67.096  1.00  0.00    -0.421 OA 
BRANCH  11  13
HETATM   13  C   UNL     1      -9.942  13.431  66.859  1.00  0.00    -0.252 C  
BRANCH  13  14
HETATM   14  O   UNL     1     -10.751  12.239  67.188  1.00  0.00    -0.224 OA 
BRANCH  14  15
HETATM   15  C   UNL     1     -10.119  10.993  67.590  1.00  0.00    -0.182 C  
HETATM   16  C   UNL     1     -10.887   9.804  66.998  1.00  0.00    -0.165 C  
BRANCH  15  17
HETATM   17  C   UNL     1      -9.827  10.875  69.079  1.00  0.00    -0.180 C  
BRANCH  17  18
HETATM   18  N   UNL     1     -10.974  10.655  69.916  1.00  0.00    -0.281 NA 
HETATM   19  C   UNL     1     -12.176  11.311  69.882  1.00  0.00    -0.288 A  
HETATM   20  N   UNL     1     -13.034  10.796  70.735  1.00  0.00    -0.312 NA 
HETATM   21  C   UNL     1     -12.339   9.780  71.351  1.00  0.00    -0.388 A  
HETATM   22  C   UNL     1     -12.710   8.860  72.335  1.00  0.00    -0.368 A  
HETATM   23  N   UNL     1     -11.776   8.004  72.811  1.00  0.00    -0.368 NA 
HETATM   24  N   UNL     1     -14.002   8.812  72.837  1.00  0.00    -1.011 NA 
HETATM   25  C   UNL     1     -10.542   8.053  72.275  1.00  0.00    -0.291 A  
HETATM   26  H1  UNL     1     -14.273   8.140  73.556  1.00  0.00     0.000 HD 
HETATM   27  H2  UNL     1     -14.640   8.702  72.049  1.00  0.00     0.000 HD 
HETATM   28  N   UNL     1     -10.075   8.865  71.300  1.00  0.00    -0.267 NA 
HETATM   29  C   UNL     1     -11.041   9.701  70.889  1.00  0.00    -0.352 A  
ENDBRANCH  17  18
ENDBRANCH  15  17
ENDBRANCH  14  15
ENDBRANCH  13  14
ENDBRANCH  11  13
BRANCH  11  30
HETATM   30  O   UNL     1      -9.576  15.943  66.287  1.00  0.00    -0.267 OA 
BRANCH  30  31
HETATM   31  C   UNL     1      -9.645  17.310  66.491  1.00  0.00    -0.273 A  
HETATM   32  C   UNL     1      -8.760  17.851  67.425  1.00  0.00    -0.237 A  
HETATM   33  C   UNL     1     -10.581  19.519  66.133  1.00  0.00    -0.585 A  
HETATM   34  C   UNL     1     -10.553  18.149  65.838  1.00  0.00    -0.247 A  
HETATM   35  C   UNL     1      -9.709  20.052  67.081  1.00  0.00    -0.545 A  
HETATM   36  C   UNL     1      -8.800  19.218  67.726  1.00  0.00    -0.348 A  
ENDBRANCH  30  31
ENDBRANCH  11  30
ENDBRANCH   9  11
ENDBRANCH   7   9
ENDBRANCH   5   7
ENDBRANCH   4   5
ENDBRANCH   2   4
TORSDOF 12
ENDMDL
MODEL       69
REMARK 921   NORMALIZED FREE ENERGY PREDICTED BY IDOCK:   -5.94 KCAL/MOL
REMARK 922        TOTAL FREE ENERGY PREDICTED BY IDOCK:  -11.83 KCAL/MOL
REMARK 923 INTER-LIGAND FREE ENERGY PREDICTED BY IDOCK:   -9.86 KCAL/MOL
REMARK 924 INTRA-LIGAND FREE ENERGY PREDICTED BY IDOCK:   -1.97 KCAL/MOL
REMARK 927      BINDING AFFINITY PREDICTED BY RF-SCORE:    0.00 PKD
ROOT
HETATM    1  C   UNL     1      -9.308   3.392  70.533  1.00  0.00    -0.231 C  
HETATM    2  C   UNL     1      -9.265   4.862  70.110  1.00  0.00    -0.130 C  
HETATM    3  C   UNL     1      -7.832   5.408  70.176  1.00  0.00    -0.081 C  
ENDROOT
BRANCH   2   4
HETATM    4  O   UNL     1      -9.996   5.109  68.864  1.00  0.00    -0.159 OA 
BRANCH   4   5
HETATM    5  C   UNL     1     -10.673   6.273  68.705  1.00  0.00    -0.297 C  
HETATM    6  O   UNL     1     -11.697   6.545  69.336  1.00  0.00    -0.295 OA 
BRANCH   5   7
HETATM    7  C   UNL     1     -10.108   7.276  67.659  1.00  0.00    -0.181 C  
HETATM    8  C   UNL     1      -9.233   6.520  66.659  1.00  0.00    -0.172 C  
BRANCH   7   9
HETATM    9  N   UNL     1      -9.431   8.545  68.132  1.00  0.00    -0.140 NA 
HETATM   10  H   UNL     1      -8.622   8.771  67.554  1.00  0.00     0.000 HD 
BRANCH   9  11
HETATM   11  P   UNL     1     -10.554   9.899  68.219  1.00  0.00    -0.225 P  
HETATM   12  O   UNL     1     -11.157   9.625  66.820  1.00  0.00     0.046 OA 
BRANCH  11  13
HETATM   13  C   UNL     1      -9.804  11.523  67.541  1.00  0.00    -0.190 C  
BRANCH  13  14
HETATM   14  O   UNL     1     -10.816  12.434  66.967  1.00  0.00    -0.235 OA 
BRANCH  14  15
HETATM   15  C   UNL     1     -11.362  13.533  67.747  1.00  0.00    -0.296 C  
HETATM   16  C   UNL     1     -11.966  14.587  66.811  1.00  0.00    -0.364 C  
BRANCH  15  17
HETATM   17  C   UNL     1     -10.423  14.095  68.805  1.00  0.00    -0.247 C  
BRANCH  17  18
HETATM   18  N   UNL     1     -11.062  14.797  69.884  1.00  0.00    -0.253 NA 
HETATM   19  C   UNL     1     -10.926  16.117  70.223  1.00  0.00    -0.340 A  
HETATM   20  N   UNL     1     -11.724  16.448  71.214  1.00  0.00    -0.337 NA 
HETATM   21  C   UNL     1     -12.381  15.281  71.531  1.00  0.00    -0.352 A  
HETATM   22  C   UNL     1     -13.362  14.993  72.484  1.00  0.00    -0.424 A  
HETATM   23  N   UNL     1     -13.781  13.713  72.620  1.00  0.00    -0.730 NA 
HETATM   24  N   UNL     1     -13.903  15.979  73.294  1.00  0.00    -0.744 NA 
HETATM   25  C   UNL     1     -13.262  12.787  71.791  1.00  0.00    -0.374 A  
HETATM   26  H1  UNL     1     -14.618  15.769  73.991  1.00  0.00     0.000 HD 
HETATM   27  H2  UNL     1     -14.262  16.718  72.690  1.00  0.00     0.000 HD 
HETATM   28  N   UNL     1     -12.344  12.947  70.812  1.00  0.00    -0.359 NA 
HETATM   29  C   UNL     1     -11.955  14.230  70.745  1.00  0.00    -0.320 A  
ENDBRANCH  17  18
ENDBRANCH  15  17
ENDBRANCH  14  15
ENDBRANCH  13  14
ENDBRANCH  11  13
BRANCH  11  30
HETATM   30  O   UNL     1      -9.880  10.205  69.784  1.00  0.00    -0.232 OA 
BRANCH  30  31
HETATM   31  C   UNL     1     -10.373   9.442  70.827  1.00  0.00    -0.298 A  
HETATM   32  C   UNL     1      -9.450   8.674  71.537  1.00  0.00    -0.320 A  
HETATM   33  C   UNL     1     -12.147   8.558  72.227  1.00  0.00    -0.455 A  
HETATM   34  C   UNL     1     -11.725   9.389  71.179  1.00  0.00    -0.418 A  
HETATM   35  C   UNL     1     -11.224   7.778  72.920  1.00  0.00    -0.434 A  
HETATM   36  C   UNL     1      -9.877   7.836  72.574  1.00  0.00    -0.271 A  
ENDBRANCH  30  31
ENDBRANCH  11  30
ENDBRANCH   9  11
ENDBRANCH   7   9
ENDBRANCH   5   7
ENDBRANCH   4   5
ENDBRANCH   2   4
TORSDOF 12
ENDMDL
MODEL       70
REMARK 921   NORMALIZED FREE ENERGY PREDICTED BY IDOCK:   -5.94 KCAL/MOL
REMARK 922        TOTAL FREE ENERGY PREDICTED BY IDOCK:  -11.82 KCAL/MOL
REMARK 923 INTER-LIGAND FREE ENERGY PREDICTED BY IDOCK:  -10.15 KCAL/MOL
REMARK 924 INTRA-LIGAND FREE ENERGY PREDICTED BY IDOCK:   -1.67 KCAL/MOL
REMARK 927      BINDING AFFINITY PREDICTED BY RF-SCORE:    0.00 PKD
ROOT
HETATM    1  C   UNL     1     -12.294  11.683  63.354  1.00  0.00    -0.334 C  
HETATM    2  C   UNL     1     -10.933  11.967  63.994  1.00  0.00    -0.381 C  
HETATM    3  C   UNL     1      -9.864  11.006  63.454  1.00  0.00    -0.404 C  
ENDROOT
BRANCH   2   4
HETATM    4  O   UNL     1     -10.591  13.392  63.978  1.00  0.00    -0.335 OA 
BRANCH   4   5
HETATM    5  C   UNL     1     -11.463  14.295  64.490  1.00  0.00    -0.355 C  
HETATM    6  O   UNL     1     -12.536  14.571  63.950  1.00  0.00    -0.827 OA 
BRANCH   5   7
HETATM    7  C   UNL     1     -11.045  15.004  65.810  1.00  0.00    -0.346 C  
HETATM    8  C   UNL     1     -10.411  16.353  65.477  1.00  0.00    -0.336 C  
BRANCH   7   9
HETATM    9  N   UNL     1     -10.224  14.248  66.833  1.00  0.00    -0.263 NA 
HETATM   10  H   UNL     1      -9.895  14.866  67.574  1.00  0.00     0.000 HD 
BRANCH   9  11
HETATM   11  P   UNL     1     -11.099  12.869  67.494  1.00  0.00    -0.299 P  
HETATM   12  O   UNL     1     -12.488  13.529  67.311  1.00  0.00    -0.215 OA 
BRANCH  11  13
HETATM   13  C   UNL     1     -11.331  12.982  69.389  1.00  0.00    -0.206 C  
BRANCH  13  14
HETATM   14  O   UNL     1     -11.999  14.228  69.818  1.00  0.00    -0.298 OA 
BRANCH  14  15
HETATM   15  C   UNL     1     -11.226  15.388  70.231  1.00  0.00    -0.309 C  
HETATM   16  C   UNL     1     -11.672  15.843  71.626  1.00  0.00    -0.563 C  
BRANCH  15  17
HETATM   17  C   UNL     1     -11.148  16.505  69.200  1.00  0.00    -0.270 C  
BRANCH  17  18
HETATM   18  N   UNL     1      -9.823  16.975  68.901  1.00  0.00    -0.274 NA 
HETATM   19  C   UNL     1      -8.639  16.310  69.068  1.00  0.00    -0.247 A  
HETATM   20  N   UNL     1      -7.621  17.006  68.610  1.00  0.00    -0.228 NA 
HETATM   21  C   UNL     1      -8.185  18.175  68.151  1.00  0.00    -0.276 A  
HETATM   22  C   UNL     1      -7.626  19.302  67.542  1.00  0.00    -0.237 A  
HETATM   23  N   UNL     1      -8.430  20.352  67.255  1.00  0.00    -0.347 NA 
HETATM   24  N   UNL     1      -6.275  19.370  67.235  1.00  0.00    -0.186 NA 
HETATM   25  C   UNL     1      -9.742  20.237  67.532  1.00  0.00    -0.435 A  
HETATM   26  H1  UNL     1      -5.867  20.193  66.790  1.00  0.00     0.000 HD 
HETATM   27  H2  UNL     1      -6.043  18.558  66.664  1.00  0.00     0.000 HD 
HETATM   28  N   UNL     1     -10.403  19.193  68.080  1.00  0.00    -0.388 NA 
HETATM   29  C   UNL     1      -9.548  18.197  68.360  1.00  0.00    -0.337 A  
ENDBRANCH  17  18
ENDBRANCH  15  17
ENDBRANCH  14  15
ENDBRANCH  13  14
ENDBRANCH  11  13
BRANCH  11  30
HETATM   30  O   UNL     1      -9.547  12.131  67.697  1.00  0.00    -0.182 OA 
BRANCH  30  31
HETATM   31  C   UNL     1      -9.414  10.837  67.227  1.00  0.00    -0.159 A  
HETATM   32  C   UNL     1     -10.567  10.051  67.210  1.00  0.00    -0.319 A  
HETATM   33  C   UNL     1      -8.148   8.951  66.372  1.00  0.00    -0.110 A  
HETATM   34  C   UNL     1      -8.202  10.286  66.798  1.00  0.00    -0.124 A  
HETATM   35  C   UNL     1      -9.299   8.165  66.377  1.00  0.00    -0.269 A  
HETATM   36  C   UNL     1     -10.507   8.715  66.797  1.00  0.00    -0.298 A  
ENDBRANCH  30  31
ENDBRANCH  11  30
ENDBRANCH   9  11
ENDBRANCH   7   9
ENDBRANCH   5   7
ENDBRANCH   4   5
ENDBRANCH   2   4
TORSDOF 12
ENDMDL
MODEL       71
REMARK 921   NORMALIZED FREE ENERGY PREDICTED BY IDOCK:   -5.94 KCAL/MOL
REMARK 922        TOTAL FREE ENERGY PREDICTED BY IDOCK:  -11.82 KCAL/MOL
REMARK 923 INTER-LIGAND FREE ENERGY PREDICTED BY IDOCK:  -10.26 KCAL/MOL
REMARK 924 INTRA-LIGAND FREE ENERGY PREDICTED BY IDOCK:   -1.56 KCAL/MOL
REMARK 927      BINDING AFFINITY PREDICTED BY RF-SCORE:    0.00 PKD
ROOT
HETATM    1  C   UNL     1      -5.409  17.748  66.879  1.00  0.00    -0.172 C  
HETATM    2  C   UNL     1      -6.331  18.507  65.922  1.00  0.00    -0.238 C  
HETATM    3  C   UNL     1      -5.553  19.011  64.698  1.00  0.00    -0.296 C  
ENDROOT
BRANCH   2   4
HETATM    4  O   UNL     1      -7.574  17.780  65.646  1.00  0.00    -0.541 OA 
BRANCH   4   5
HETATM    5  C   UNL     1      -8.734  18.202  66.207  1.00  0.00    -0.172 C  
HETATM    6  O   UNL     1      -9.227  19.307  65.976  1.00  0.00    -0.430 OA 
BRANCH   5   7
HETATM    7  C   UNL     1      -9.432  17.223  67.193  1.00  0.00    -0.256 C  
HETATM    8  C   UNL     1     -10.359  18.013  68.115  1.00  0.00    -0.398 C  
BRANCH   7   9
HETATM    9  N   UNL     1      -8.597  16.230  67.974  1.00  0.00    -0.174 NA 
HETATM   10  H   UNL     1      -8.399  16.570  68.915  1.00  0.00     0.000 HD 
BRANCH   9  11
HETATM   11  P   UNL     1      -9.337  14.632  68.015  1.00  0.00    -0.210 P  
HETATM   12  O   UNL     1      -9.335  14.555  69.561  1.00  0.00     0.096 OA 
BRANCH  11  13
HETATM   13  C   UNL     1      -8.047  13.220  67.977  1.00  0.00    -0.157 C  
BRANCH  13  14
HETATM   14  O   UNL     1      -8.652  11.885  67.789  1.00  0.00    -0.141 OA 
BRANCH  14  15
HETATM   15  C   UNL     1      -9.234  11.163  68.908  1.00  0.00    -0.096 C  
HETATM   16  C   UNL     1      -8.244  10.109  69.420  1.00  0.00    -0.171 C  
BRANCH  15  17
HETATM   17  C   UNL     1     -10.643  10.639  68.668  1.00  0.00    -0.203 C  
BRANCH  17  18
HETATM   18  N   UNL     1     -11.470  10.539  69.839  1.00  0.00    -0.286 NA 
HETATM   19  C   UNL     1     -12.104  11.551  70.508  1.00  0.00    -0.378 A  
HETATM   20  N   UNL     1     -12.849  11.093  71.490  1.00  0.00    -0.440 NA 
HETATM   21  C   UNL     1     -12.661   9.729  71.456  1.00  0.00    -0.398 A  
HETATM   22  C   UNL     1     -13.190   8.696  72.234  1.00  0.00    -0.372 A  
HETATM   23  N   UNL     1     -12.762   7.431  72.013  1.00  0.00    -0.252 NA 
HETATM   24  N   UNL     1     -14.130   8.937  73.224  1.00  0.00    -1.248 NA 
HETATM   25  C   UNL     1     -11.878   7.228  71.019  1.00  0.00    -0.318 A  
HETATM   26  H1  UNL     1     -14.517   8.182  73.792  1.00  0.00     0.000 HD 
HETATM   27  H2  UNL     1     -14.909   9.440  72.800  1.00  0.00     0.000 HD 
HETATM   28  N   UNL     1     -11.326   8.132  70.179  1.00  0.00    -0.144 NA 
HETATM   29  C   UNL     1     -11.773   9.365  70.465  1.00  0.00    -0.198 A  
ENDBRANCH  17  18
ENDBRANCH  15  17
ENDBRANCH  14  15
ENDBRANCH  13  14
ENDBRANCH  11  13
BRANCH  11  30
HETATM   30  O   UNL     1      -9.339  14.718  66.286  1.00  0.00    -0.286 OA 
BRANCH  30  31
HETATM   31  C   UNL     1     -10.382  14.078  65.639  1.00  0.00    -0.329 A  
HETATM   32  C   UNL     1     -11.669  14.547  65.903  1.00  0.00    -0.345 A  
HETATM   33  C   UNL     1     -11.325  12.379  64.187  1.00  0.00    -0.442 A  
HETATM   34  C   UNL     1     -10.210  12.995  64.771  1.00  0.00    -0.312 A  
HETATM   35  C   UNL     1     -12.610  12.838  64.470  1.00  0.00    -0.463 A  
HETATM   36  C   UNL     1     -12.781  13.921  65.328  1.00  0.00    -0.485 A  
ENDBRANCH  30  31
ENDBRANCH  11  30
ENDBRANCH   9  11
ENDBRANCH   7   9
ENDBRANCH   5   7
ENDBRANCH   4   5
ENDBRANCH   2   4
TORSDOF 12
ENDMDL
MODEL       72
REMARK 921   NORMALIZED FREE ENERGY PREDICTED BY IDOCK:   -5.93 KCAL/MOL
REMARK 922        TOTAL FREE ENERGY PREDICTED BY IDOCK:  -11.81 KCAL/MOL
REMARK 923 INTER-LIGAND FREE ENERGY PREDICTED BY IDOCK:   -9.86 KCAL/MOL
REMARK 924 INTRA-LIGAND FREE ENERGY PREDICTED BY IDOCK:   -1.94 KCAL/MOL
REMARK 927      BINDING AFFINITY PREDICTED BY RF-SCORE:    0.00 PKD
ROOT
HETATM    1  C   UNL     1     -12.203  12.294  63.424  1.00  0.00    -0.630 C  
HETATM    2  C   UNL     1     -10.788  12.288  64.009  1.00  0.00    -0.389 C  
HETATM    3  C   UNL     1      -9.820  11.530  63.089  1.00  0.00    -0.413 C  
ENDROOT
BRANCH   2   4
HETATM    4  O   UNL     1     -10.357  13.617  64.450  1.00  0.00    -0.428 OA 
BRANCH   4   5
HETATM    5  C   UNL     1     -10.583  14.003  65.730  1.00  0.00    -0.299 C  
HETATM    6  O   UNL     1     -10.833  15.169  66.044  1.00  0.00    -0.322 OA 
BRANCH   5   7
HETATM    7  C   UNL     1     -10.496  12.899  66.821  1.00  0.00    -0.254 C  
HETATM    8  C   UNL     1     -11.906  12.418  67.163  1.00  0.00    -0.361 C  
BRANCH   7   9
HETATM    9  N   UNL     1      -9.683  13.151  68.073  1.00  0.00    -0.218 NA 
HETATM   10  H   UNL     1      -9.979  12.542  68.836  1.00  0.00     0.000 HD 
BRANCH   9  11
HETATM   11  P   UNL     1      -7.952  13.007  67.776  1.00  0.00    -0.196 P  
HETATM   12  O   UNL     1      -8.101  11.739  66.900  1.00  0.00    -0.163 OA 
BRANCH  11  13
HETATM   13  C   UNL     1      -7.062  11.949  69.097  1.00  0.00    -0.053 C  
BRANCH  13  14
HETATM   14  O   UNL     1      -7.338  10.504  68.965  1.00  0.00    -0.084 OA 
BRANCH  14  15
HETATM   15  C   UNL     1      -8.301   9.843  69.830  1.00  0.00    -0.183 C  
HETATM   16  C   UNL     1      -7.574   8.901  70.797  1.00  0.00    -0.110 C  
BRANCH  15  17
HETATM   17  C   UNL     1      -9.484   9.214  69.107  1.00  0.00    -0.156 C  
BRANCH  17  18
HETATM   18  N   UNL     1     -10.604   8.872  69.941  1.00  0.00    -0.218 NA 
HETATM   19  C   UNL     1     -10.991   7.627  70.357  1.00  0.00    -0.247 A  
HETATM   20  N   UNL     1     -12.013   7.687  71.183  1.00  0.00    -0.299 NA 
HETATM   21  C   UNL     1     -12.299   9.031  71.277  1.00  0.00    -0.302 A  
HETATM   22  C   UNL     1     -13.264   9.729  72.009  1.00  0.00    -0.460 A  
HETATM   23  N   UNL     1     -13.359  11.069  71.848  1.00  0.00    -0.390 NA 
HETATM   24  N   UNL     1     -14.124   9.082  72.883  1.00  0.00    -1.110 NA 
HETATM   25  C   UNL     1     -12.483  11.669  71.020  1.00  0.00    -0.334 A  
HETATM   26  H1  UNL     1     -14.829   9.591  73.418  1.00  0.00     0.000 HD 
HETATM   27  H2  UNL     1     -13.558   8.548  73.542  1.00  0.00     0.000 HD 
HETATM   28  N   UNL     1     -11.489  11.113  70.292  1.00  0.00    -0.279 NA 
HETATM   29  C   UNL     1     -11.464   9.785  70.479  1.00  0.00    -0.300 A  
ENDBRANCH  17  18
ENDBRANCH  15  17
ENDBRANCH  14  15
ENDBRANCH  13  14
ENDBRANCH  11  13
BRANCH  11  30
HETATM   30  O   UNL     1      -7.786  14.425  68.754  1.00  0.00    -0.135 OA 
BRANCH  30  31
HETATM   31  C   UNL     1      -8.012  15.637  68.126  1.00  0.00    -0.128 A  
HETATM   32  C   UNL     1      -8.837  16.546  68.789  1.00  0.00    -0.255 A  
HETATM   33  C   UNL     1      -7.793  17.212  66.293  1.00  0.00    -0.351 A  
HETATM   34  C   UNL     1      -7.482  15.976  66.877  1.00  0.00    -0.253 A  
HETATM   35  C   UNL     1      -8.634  18.108  66.950  1.00  0.00    -0.268 A  
HETATM   36  C   UNL     1      -9.156  17.774  68.197  1.00  0.00    -0.274 A  
ENDBRANCH  30  31
ENDBRANCH  11  30
ENDBRANCH   9  11
ENDBRANCH   7   9
ENDBRANCH   5   7
ENDBRANCH   4   5
ENDBRANCH   2   4
TORSDOF 12
ENDMDL
MODEL       73
REMARK 921   NORMALIZED FREE ENERGY PREDICTED BY IDOCK:   -5.93 KCAL/MOL
REMARK 922        TOTAL FREE ENERGY PREDICTED BY IDOCK:  -11.80 KCAL/MOL
REMARK 923 INTER-LIGAND FREE ENERGY PREDICTED BY IDOCK:  -10.50 KCAL/MOL
REMARK 924 INTRA-LIGAND FREE ENERGY PREDICTED BY IDOCK:   -1.30 KCAL/MOL
REMARK 927      BINDING AFFINITY PREDICTED BY RF-SCORE:    0.00 PKD
ROOT
HETATM    1  C   UNL     1     -12.076  14.155  64.139  1.00  0.00    -0.437 C  
HETATM    2  C   UNL     1     -11.845  12.655  64.337  1.00  0.00    -0.387 C  
HETATM    3  C   UNL     1     -12.531  11.846  63.228  1.00  0.00    -0.506 C  
ENDROOT
BRANCH   2   4
HETATM    4  O   UNL     1     -10.440  12.334  64.601  1.00  0.00    -0.279 OA 
BRANCH   4   5
HETATM    5  C   UNL     1     -10.084  11.052  64.861  1.00  0.00    -0.300 C  
HETATM    6  O   UNL     1      -9.695  10.274  63.988  1.00  0.00    -0.306 OA 
BRANCH   5   7
HETATM    7  C   UNL     1     -10.203  10.577  66.338  1.00  0.00    -0.237 C  
HETATM    8  C   UNL     1     -10.116   9.052  66.384  1.00  0.00    -0.351 C  
BRANCH   7   9
HETATM    9  N   UNL     1     -11.340  11.090  67.195  1.00  0.00    -0.427 NA 
HETATM   10  H   UNL     1     -11.879  10.321  67.595  1.00  0.00     0.000 HD 
BRANCH   9  11
HETATM   11  P   UNL     1     -10.778  12.195  68.447  1.00  0.00    -0.245 P  
HETATM   12  O   UNL     1     -11.169  13.463  67.650  1.00  0.00    -0.257 OA 
BRANCH  11  13
HETATM   13  C   UNL     1      -8.937  12.671  68.237  1.00  0.00    -0.176 C  
BRANCH  13  14
HETATM   14  O   UNL     1      -8.671  14.096  68.523  1.00  0.00    -0.177 OA 
BRANCH  14  15
HETATM   15  C   UNL     1      -7.312  14.613  68.548  1.00  0.00    -0.117 C  
HETATM   16  C   UNL     1      -7.038  15.292  69.895  1.00  0.00    -0.102 C  
BRANCH  15  17
HETATM   17  C   UNL     1      -6.920  15.442  67.333  1.00  0.00    -0.189 C  
BRANCH  17  18
HETATM   18  N   UNL     1      -7.383  16.803  67.342  1.00  0.00    -0.151 NA 
HETATM   19  C   UNL     1      -6.761  17.898  67.880  1.00  0.00    -0.193 A  
HETATM   20  N   UNL     1      -7.426  19.005  67.632  1.00  0.00    -0.228 NA 
HETATM   21  C   UNL     1      -8.532  18.590  66.923  1.00  0.00    -0.273 A  
HETATM   22  C   UNL     1      -9.601  19.297  66.367  1.00  0.00    -0.371 A  
HETATM   23  N   UNL     1     -10.601  18.604  65.775  1.00  0.00    -0.580 NA 
HETATM   24  N   UNL     1      -9.664  20.681  66.417  1.00  0.00    -0.612 NA 
HETATM   25  C   UNL     1     -10.489  17.264  65.710  1.00  0.00    -0.229 A  
HETATM   26  H1  UNL     1     -10.444  21.198  66.011  1.00  0.00     0.000 HD 
HETATM   27  H2  UNL     1      -8.802  21.048  66.013  1.00  0.00     0.000 HD 
HETATM   28  N   UNL     1      -9.494  16.474  66.173  1.00  0.00    -0.343 NA 
HETATM   29  C   UNL     1      -8.549  17.219  66.768  1.00  0.00    -0.249 A  
ENDBRANCH  17  18
ENDBRANCH  15  17
ENDBRANCH  14  15
ENDBRANCH  13  14
ENDBRANCH  11  13
BRANCH  11  30
HETATM   30  O   UNL     1     -10.342  10.777  69.338  1.00  0.00    -0.218 OA 
BRANCH  30  31
HETATM   31  C   UNL     1     -11.207  10.393  70.347  1.00  0.00    -0.321 A  
HETATM   32  C   UNL     1     -10.935   9.181  70.982  1.00  0.00    -0.375 A  
HETATM   33  C   UNL     1     -13.175  10.654  71.742  1.00  0.00    -0.526 A  
HETATM   34  C   UNL     1     -12.327  11.136  70.735  1.00  0.00    -0.504 A  
HETATM   35  C   UNL     1     -12.910   9.433  72.360  1.00  0.00    -0.394 A  
HETATM   36  C   UNL     1     -11.791   8.698  71.979  1.00  0.00    -0.443 A  
ENDBRANCH  30  31
ENDBRANCH  11  30
ENDBRANCH   9  11
ENDBRANCH   7   9
ENDBRANCH   5   7
ENDBRANCH   4   5
ENDBRANCH   2   4
TORSDOF 12
ENDMDL
MODEL       74
REMARK 921   NORMALIZED FREE ENERGY PREDICTED BY IDOCK:   -5.91 KCAL/MOL
REMARK 922        TOTAL FREE ENERGY PREDICTED BY IDOCK:  -11.77 KCAL/MOL
REMARK 923 INTER-LIGAND FREE ENERGY PREDICTED BY IDOCK:   -9.51 KCAL/MOL
REMARK 924 INTRA-LIGAND FREE ENERGY PREDICTED BY IDOCK:   -2.26 KCAL/MOL
REMARK 927      BINDING AFFINITY PREDICTED BY RF-SCORE:    0.00 PKD
ROOT
HETATM    1  C   UNL     1      -7.517   8.320  69.540  1.00  0.00    -0.086 C  
HETATM    2  C   UNL     1      -7.036   9.682  70.046  1.00  0.00    -0.093 C  
HETATM    3  C   UNL     1      -6.160   9.522  71.296  1.00  0.00    -0.057 C  
ENDROOT
BRANCH   2   4
HETATM    4  O   UNL     1      -6.489  10.518  68.973  1.00  0.00    -0.050 OA 
BRANCH   4   5
HETATM    5  C   UNL     1      -6.722  11.853  68.981  1.00  0.00    -0.099 C  
HETATM    6  O   UNL     1      -6.031  12.650  69.618  1.00  0.00    -0.102 OA 
BRANCH   5   7
HETATM    7  C   UNL     1      -7.935  12.358  68.149  1.00  0.00    -0.153 C  
HETATM    8  C   UNL     1      -7.575  13.690  67.492  1.00  0.00    -0.180 C  
BRANCH   7   9
HETATM    9  N   UNL     1      -9.306  12.414  68.789  1.00  0.00    -0.404 NA 
HETATM   10  H   UNL     1      -9.817  13.247  68.499  1.00  0.00     0.000 HD 
BRANCH   9  11
HETATM   11  P   UNL     1     -10.239  10.952  68.481  1.00  0.00    -0.203 P  
HETATM   12  O   UNL     1      -9.335  10.496  67.309  1.00  0.00    -0.146 OA 
BRANCH  11  13
HETATM   13  C   UNL     1     -11.659  11.233  67.231  1.00  0.00    -0.086 C  
BRANCH  13  14
HETATM   14  O   UNL     1     -11.201  11.814  65.952  1.00  0.00    -0.324 OA 
BRANCH  14  15
HETATM   15  C   UNL     1     -12.149  12.366  64.999  1.00  0.00    -0.407 C  
HETATM   16  C   UNL     1     -11.602  12.215  63.574  1.00  0.00    -0.562 C  
BRANCH  15  17
HETATM   17  C   UNL     1     -12.655  13.762  65.334  1.00  0.00    -0.497 C  
BRANCH  17  18
HETATM   18  N   UNL     1     -11.642  14.711  65.707  1.00  0.00    -0.348 NA 
HETATM   19  C   UNL     1     -10.840  15.449  64.879  1.00  0.00    -0.425 A  
HETATM   20  N   UNL     1     -10.082  16.284  65.556  1.00  0.00    -0.536 NA 
HETATM   21  C   UNL     1     -10.403  16.048  66.874  1.00  0.00    -0.289 A  
HETATM   22  C   UNL     1      -9.949  16.627  68.062  1.00  0.00    -0.258 A  
HETATM   23  N   UNL     1     -10.400  16.136  69.239  1.00  0.00    -0.246 NA 
HETATM   24  N   UNL     1      -9.046  17.680  68.061  1.00  0.00    -0.261 NA 
HETATM   25  C   UNL     1     -11.305  15.139  69.203  1.00  0.00    -0.298 A  
HETATM   26  H1  UNL     1      -8.714  18.103  68.928  1.00  0.00     0.000 HD 
HETATM   27  H2  UNL     1      -9.433  18.423  67.479  1.00  0.00     0.000 HD 
HETATM   28  N   UNL     1     -11.846  14.526  68.126  1.00  0.00    -0.329 NA 
HETATM   29  C   UNL     1     -11.341  15.043  66.995  1.00  0.00    -0.318 A  
ENDBRANCH  17  18
ENDBRANCH  15  17
ENDBRANCH  14  15
ENDBRANCH  13  14
ENDBRANCH  11  13
BRANCH  11  30
HETATM   30  O   UNL     1     -11.249  11.461  69.791  1.00  0.00    -0.251 OA 
BRANCH  30  31
HETATM   31  C   UNL     1     -11.622  10.483  70.696  1.00  0.00    -0.352 A  
HETATM   32  C   UNL     1     -12.958  10.477  71.100  1.00  0.00    -0.506 A  
HETATM   33  C   UNL     1     -11.193   8.606  72.172  1.00  0.00    -0.438 A  
HETATM   34  C   UNL     1     -10.739   9.539  71.229  1.00  0.00    -0.386 A  
HETATM   35  C   UNL     1     -12.523   8.616  72.587  1.00  0.00    -0.283 A  
HETATM   36  C   UNL     1     -13.404   9.552  72.051  1.00  0.00    -0.535 A  
ENDBRANCH  30  31
ENDBRANCH  11  30
ENDBRANCH   9  11
ENDBRANCH   7   9
ENDBRANCH   5   7
ENDBRANCH   4   5
ENDBRANCH   2   4
TORSDOF 12
ENDMDL
MODEL       75
REMARK 921   NORMALIZED FREE ENERGY PREDICTED BY IDOCK:   -5.89 KCAL/MOL
REMARK 922        TOTAL FREE ENERGY PREDICTED BY IDOCK:  -11.73 KCAL/MOL
REMARK 923 INTER-LIGAND FREE ENERGY PREDICTED BY IDOCK:  -10.62 KCAL/MOL
REMARK 924 INTRA-LIGAND FREE ENERGY PREDICTED BY IDOCK:   -1.12 KCAL/MOL
REMARK 927      BINDING AFFINITY PREDICTED BY RF-SCORE:    0.00 PKD
ROOT
HETATM    1  C   UNL     1      -9.168   5.888  66.099  1.00  0.00    -0.164 C  
HETATM    2  C   UNL     1      -9.424   7.281  66.679  1.00  0.00    -0.177 C  
HETATM    3  C   UNL     1     -10.517   7.232  67.756  1.00  0.00    -0.292 C  
ENDROOT
BRANCH   2   4
HETATM    4  O   UNL     1      -8.186   7.974  67.042  1.00  0.00    -0.113 OA 
BRANCH   4   5
HETATM    5  C   UNL     1      -8.175   8.812  68.108  1.00  0.00    -0.114 C  
HETATM    6  O   UNL     1      -7.882   8.443  69.247  1.00  0.00    -0.099 OA 
BRANCH   5   7
HETATM    7  C   UNL     1      -8.574  10.291  67.842  1.00  0.00    -0.118 C  
HETATM    8  C   UNL     1      -7.321  11.096  67.501  1.00  0.00    -0.102 C  
BRANCH   7   9
HETATM    9  N   UNL     1      -9.441  11.021  68.847  1.00  0.00    -0.303 NA 
HETATM   10  H   UNL     1      -9.116  11.978  68.990  1.00  0.00     0.000 HD 
BRANCH   9  11
HETATM   11  P   UNL     1     -11.144  10.984  68.400  1.00  0.00    -0.304 P  
HETATM   12  O   UNL     1     -10.856  10.634  66.919  1.00  0.00    -0.255 OA 
BRANCH  11  13
HETATM   13  C   UNL     1     -11.796  12.691  67.835  1.00  0.00    -0.332 C  
BRANCH  13  14
HETATM   14  O   UNL     1     -11.670  12.907  66.378  1.00  0.00    -0.355 OA 
BRANCH  14  15
HETATM   15  C   UNL     1     -11.699  14.247  65.815  1.00  0.00    -0.359 C  
HETATM   16  C   UNL     1     -12.168  14.190  64.356  1.00  0.00    -0.466 C  
BRANCH  15  17
HETATM   17  C   UNL     1     -10.432  15.062  66.037  1.00  0.00    -0.315 C  
BRANCH  17  18
HETATM   18  N   UNL     1     -10.502  16.031  67.096  1.00  0.00    -0.305 NA 
HETATM   19  C   UNL     1     -10.606  15.799  68.441  1.00  0.00    -0.264 A  
HETATM   20  N   UNL     1     -10.559  16.917  69.132  1.00  0.00    -0.338 NA 
HETATM   21  C   UNL     1     -10.441  17.905  68.180  1.00  0.00    -0.372 A  
HETATM   22  C   UNL     1     -10.331  19.294  68.287  1.00  0.00    -0.380 A  
HETATM   23  N   UNL     1     -10.301  20.033  67.154  1.00  0.00    -0.430 NA 
HETATM   24  N   UNL     1     -10.263  19.927  69.519  1.00  0.00    -0.551 NA 
HETATM   25  C   UNL     1     -10.330  19.383  65.975  1.00  0.00    -0.497 A  
HETATM   26  H1  UNL     1     -10.183  20.941  69.597  1.00  0.00     0.000 HD 
HETATM   27  H2  UNL     1      -9.493  19.511  70.042  1.00  0.00     0.000 HD 
HETATM   28  N   UNL     1     -10.396  18.053  65.743  1.00  0.00    -0.618 NA 
HETATM   29  C   UNL     1     -10.447  17.381  66.903  1.00  0.00    -0.279 A  
ENDBRANCH  17  18
ENDBRANCH  15  17
ENDBRANCH  14  15
ENDBRANCH  13  14
ENDBRANCH  11  13
BRANCH  11  30
HETATM   30  O   UNL     1     -11.465  11.375  70.055  1.00  0.00    -0.288 OA 
BRANCH  30  31
HETATM   31  C   UNL     1     -11.844  10.325  70.873  1.00  0.00    -0.377 A  
HETATM   32  C   UNL     1     -13.210  10.182  71.121  1.00  0.00    -0.438 A  
HETATM   33  C   UNL     1     -11.409   8.423  72.314  1.00  0.00    -0.448 A  
HETATM   34  C   UNL     1     -10.942   9.437  71.466  1.00  0.00    -0.429 A  
HETATM   35  C   UNL     1     -12.772   8.297  72.575  1.00  0.00    -0.225 A  
HETATM   36  C   UNL     1     -13.671   9.177  71.979  1.00  0.00    -0.508 A  
ENDBRANCH  30  31
ENDBRANCH  11  30
ENDBRANCH   9  11
ENDBRANCH   7   9
ENDBRANCH   5   7
ENDBRANCH   4   5
ENDBRANCH   2   4
TORSDOF 12
ENDMDL
MODEL       76
REMARK 921   NORMALIZED FREE ENERGY PREDICTED BY IDOCK:   -5.89 KCAL/MOL
REMARK 922        TOTAL FREE ENERGY PREDICTED BY IDOCK:  -11.73 KCAL/MOL
REMARK 923 INTER-LIGAND FREE ENERGY PREDICTED BY IDOCK:  -10.23 KCAL/MOL
REMARK 924 INTRA-LIGAND FREE ENERGY PREDICTED BY IDOCK:   -1.50 KCAL/MOL
REMARK 927      BINDING AFFINITY PREDICTED BY RF-SCORE:    0.00 PKD
ROOT
HETATM    1  C   UNL     1      -9.849   4.823  69.902  1.00  0.00    -0.291 C  
HETATM    2  C   UNL     1      -9.292   6.068  69.208  1.00  0.00    -0.133 C  
HETATM    3  C   UNL     1      -7.963   6.499  69.843  1.00  0.00    -0.116 C  
ENDROOT
BRANCH   2   4
HETATM    4  O   UNL     1      -9.305   5.950  67.747  1.00  0.00    -0.109 OA 
BRANCH   4   5
HETATM    5  C   UNL     1     -10.006   6.847  67.010  1.00  0.00    -0.197 C  
HETATM    6  O   UNL     1     -11.224   6.766  66.836  1.00  0.00    -0.375 OA 
BRANCH   5   7
HETATM    7  C   UNL     1      -9.196   8.003  66.356  1.00  0.00    -0.194 C  
HETATM    8  C   UNL     1      -7.950   7.428  65.685  1.00  0.00    -0.118 C  
BRANCH   7   9
HETATM    9  N   UNL     1      -8.863   9.233  67.174  1.00  0.00    -0.127 NA 
HETATM   10  H   UNL     1      -8.018   9.689  66.829  1.00  0.00     0.000 HD 
BRANCH   9  11
HETATM   11  P   UNL     1     -10.213  10.362  67.249  1.00  0.00    -0.238 P  
HETATM   12  O   UNL     1     -10.655  10.094  65.790  1.00  0.00    -0.115 OA 
BRANCH  11  13
HETATM   13  C   UNL     1      -9.720  12.138  66.737  1.00  0.00    -0.207 C  
BRANCH  13  14
HETATM   14  O   UNL     1     -10.601  12.709  65.698  1.00  0.00    -0.264 OA 
BRANCH  14  15
HETATM   15  C   UNL     1     -11.418  13.879  65.971  1.00  0.00    -0.340 C  
HETATM   16  C   UNL     1     -12.775  13.744  65.267  1.00  0.00    -0.481 C  
BRANCH  15  17
HETATM   17  C   UNL     1     -10.722  15.213  65.743  1.00  0.00    -0.351 C  
BRANCH  17  18
HETATM   18  N   UNL     1     -10.747  16.119  66.858  1.00  0.00    -0.290 NA 
HETATM   19  C   UNL     1     -11.013  15.829  68.169  1.00  0.00    -0.330 A  
HETATM   20  N   UNL     1     -10.866  16.885  68.939  1.00  0.00    -0.307 NA 
HETATM   21  C   UNL     1     -10.511  17.895  68.074  1.00  0.00    -0.382 A  
HETATM   22  C   UNL     1     -10.206  19.242  68.289  1.00  0.00    -0.418 A  
HETATM   23  N   UNL     1      -9.957  20.031  67.218  1.00  0.00    -0.407 NA 
HETATM   24  N   UNL     1     -10.163  19.785  69.563  1.00  0.00    -0.573 NA 
HETATM   25  C   UNL     1      -9.970  19.463  65.997  1.00  0.00    -0.367 A  
HETATM   26  H1  UNL     1      -9.940  20.768  69.720  1.00  0.00     0.000 HD 
HETATM   27  H2  UNL     1      -9.516  19.225  70.120  1.00  0.00     0.000 HD 
HETATM   28  N   UNL     1     -10.212  18.174  65.666  1.00  0.00    -0.561 NA 
HETATM   29  C   UNL     1     -10.473  17.453  66.767  1.00  0.00    -0.257 A  
ENDBRANCH  17  18
ENDBRANCH  15  17
ENDBRANCH  14  15
ENDBRANCH  13  14
ENDBRANCH  11  13
BRANCH  11  30
HETATM   30  O   UNL     1      -9.719  10.661  68.880  1.00  0.00    -0.186 OA 
BRANCH  30  31
HETATM   31  C   UNL     1     -10.703  10.571  69.848  1.00  0.00    -0.247 A  
HETATM   32  C   UNL     1     -10.635   9.480  70.716  1.00  0.00    -0.387 A  
HETATM   33  C   UNL     1     -12.729  11.301  70.966  1.00  0.00    -0.457 A  
HETATM   34  C   UNL     1     -11.750  11.488  69.980  1.00  0.00    -0.414 A  
HETATM   35  C   UNL     1     -12.668  10.198  71.816  1.00  0.00    -0.534 A  
HETATM   36  C   UNL     1     -11.622   9.289  71.690  1.00  0.00    -0.463 A  
ENDBRANCH  30  31
ENDBRANCH  11  30
ENDBRANCH   9  11
ENDBRANCH   7   9
ENDBRANCH   5   7
ENDBRANCH   4   5
ENDBRANCH   2   4
TORSDOF 12
ENDMDL
MODEL       77
REMARK 921   NORMALIZED FREE ENERGY PREDICTED BY IDOCK:   -5.89 KCAL/MOL
REMARK 922        TOTAL FREE ENERGY PREDICTED BY IDOCK:  -11.73 KCAL/MOL
REMARK 923 INTER-LIGAND FREE ENERGY PREDICTED BY IDOCK:  -10.60 KCAL/MOL
REMARK 924 INTRA-LIGAND FREE ENERGY PREDICTED BY IDOCK:   -1.13 KCAL/MOL
REMARK 927      BINDING AFFINITY PREDICTED BY RF-SCORE:    0.00 PKD
ROOT
HETATM    1  C   UNL     1      -8.096   7.705  66.668  1.00  0.00    -0.119 C  
HETATM    2  C   UNL     1      -9.473   8.371  66.722  1.00  0.00    -0.197 C  
HETATM    3  C   UNL     1      -9.638   9.379  65.576  1.00  0.00    -0.328 C  
ENDROOT
BRANCH   2   4
HETATM    4  O   UNL     1     -10.559   7.402  66.895  1.00  0.00    -0.326 OA 
BRANCH   4   5
HETATM    5  C   UNL     1     -10.341   6.274  67.615  1.00  0.00    -0.195 C  
HETATM    6  O   UNL     1     -10.059   5.192  67.097  1.00  0.00    -0.176 OA 
BRANCH   5   7
HETATM    7  C   UNL     1     -10.480   6.391  69.160  1.00  0.00    -0.229 C  
HETATM    8  C   UNL     1     -10.214   5.027  69.794  1.00  0.00    -0.336 C  
BRANCH   7   9
HETATM    9  N   UNL     1     -11.715   7.040  69.749  1.00  0.00    -0.580 NA 
HETATM   10  H   UNL     1     -12.446   6.351  69.927  1.00  0.00     0.000 HD 
BRANCH   9  11
HETATM   11  P   UNL     1     -11.345   7.968  71.200  1.00  0.00    -0.271 P  
HETATM   12  O   UNL     1     -12.701   7.649  71.877  1.00  0.00    -0.312 OA 
BRANCH  11  13
HETATM   13  C   UNL     1     -11.884   9.799  71.062  1.00  0.00    -0.356 C  
BRANCH  13  14
HETATM   14  O   UNL     1     -11.008  10.596  70.178  1.00  0.00    -0.282 OA 
BRANCH  14  15
HETATM   15  C   UNL     1     -11.478  11.833  69.577  1.00  0.00    -0.295 C  
HETATM   16  C   UNL     1     -12.555  12.468  70.466  1.00  0.00    -0.177 C  
BRANCH  15  17
HETATM   17  C   UNL     1     -11.857  11.727  68.107  1.00  0.00    -0.254 C  
BRANCH  17  18
HETATM   18  N   UNL     1     -11.854  12.966  67.380  1.00  0.00    -0.374 NA 
HETATM   19  C   UNL     1     -11.614  14.224  67.865  1.00  0.00    -0.336 A  
HETATM   20  N   UNL     1     -11.607  15.122  66.905  1.00  0.00    -0.229 NA 
HETATM   21  C   UNL     1     -11.876  14.404  65.761  1.00  0.00    -0.364 A  
HETATM   22  C   UNL     1     -11.986  14.791  64.423  1.00  0.00    -0.417 A  
HETATM   23  N   UNL     1     -12.337  13.861  63.504  1.00  0.00    -0.765 NA 
HETATM   24  N   UNL     1     -11.755  16.097  64.020  1.00  0.00    -1.351 NA 
HETATM   25  C   UNL     1     -12.517  12.594  63.924  1.00  0.00    -0.407 A  
HETATM   26  H1  UNL     1     -11.835  16.379  63.043  1.00  0.00     0.000 HD 
HETATM   27  H2  UNL     1     -10.827  16.366  64.348  1.00  0.00     0.000 HD 
HETATM   28  N   UNL     1     -12.403  12.093  65.174  1.00  0.00    -0.469 NA 
HETATM   29  C   UNL     1     -12.077  13.067  66.037  1.00  0.00    -0.432 A  
ENDBRANCH  17  18
ENDBRANCH  15  17
ENDBRANCH  14  15
ENDBRANCH  13  14
ENDBRANCH  11  13
BRANCH  11  30
HETATM   30  O   UNL     1      -9.830   8.324  70.443  1.00  0.00    -0.184 OA 
BRANCH  30  31
HETATM   31  C   UNL     1      -8.718   8.333  71.266  1.00  0.00    -0.152 A  
HETATM   32  C   UNL     1      -7.473   8.421  70.641  1.00  0.00    -0.065 A  
HETATM   33  C   UNL     1      -7.602   8.216  73.418  1.00  0.00    -0.200 A  
HETATM   34  C   UNL     1      -8.782   8.239  72.660  1.00  0.00    -0.291 A  
HETATM   35  C   UNL     1      -6.361   8.283  72.788  1.00  0.00    -0.089 A  
HETATM   36  C   UNL     1      -6.298   8.385  71.401  1.00  0.00    -0.045 A  
ENDBRANCH  30  31
ENDBRANCH  11  30
ENDBRANCH   9  11
ENDBRANCH   7   9
ENDBRANCH   5   7
ENDBRANCH   4   5
ENDBRANCH   2   4
TORSDOF 12
ENDMDL
MODEL       78
REMARK 921   NORMALIZED FREE ENERGY PREDICTED BY IDOCK:   -5.88 KCAL/MOL
REMARK 922        TOTAL FREE ENERGY PREDICTED BY IDOCK:  -11.73 KCAL/MOL
REMARK 923 INTER-LIGAND FREE ENERGY PREDICTED BY IDOCK:  -10.11 KCAL/MOL
REMARK 924 INTRA-LIGAND FREE ENERGY PREDICTED BY IDOCK:   -1.62 KCAL/MOL
REMARK 927      BINDING AFFINITY PREDICTED BY RF-SCORE:    0.00 PKD
ROOT
HETATM    1  C   UNL     1      -9.354   3.967  70.136  1.00  0.00    -0.240 C  
HETATM    2  C   UNL     1     -10.243   5.184  70.405  1.00  0.00    -0.264 C  
HETATM    3  C   UNL     1     -10.573   5.300  71.900  1.00  0.00    -0.274 C  
ENDROOT
BRANCH   2   4
HETATM    4  O   UNL     1      -9.743   6.399  69.755  1.00  0.00    -0.153 OA 
BRANCH   4   5
HETATM    5  C   UNL     1      -9.888   6.549  68.416  1.00  0.00    -0.137 C  
HETATM    6  O   UNL     1     -10.783   5.998  67.773  1.00  0.00    -0.247 OA 
BRANCH   5   7
HETATM    7  C   UNL     1      -8.847   7.452  67.695  1.00  0.00    -0.127 C  
HETATM    8  C   UNL     1      -7.447   6.879  67.912  1.00  0.00    -0.099 C  
BRANCH   7   9
HETATM    9  N   UNL     1      -8.871   8.948  67.928  1.00  0.00    -0.132 NA 
HETATM   10  H   UNL     1      -8.249   9.434  67.281  1.00  0.00     0.000 HD 
BRANCH   9  11
HETATM   11  P   UNL     1     -10.505   9.602  67.855  1.00  0.00    -0.249 P  
HETATM   12  O   UNL     1     -10.754   9.101  66.412  1.00  0.00    -0.055 OA 
BRANCH  11  13
HETATM   13  C   UNL     1     -10.552  11.399  67.203  1.00  0.00    -0.243 C  
BRANCH  13  14
HETATM   14  O   UNL     1     -11.905  11.835  66.798  1.00  0.00    -0.586 OA 
BRANCH  14  15
HETATM   15  C   UNL     1     -12.145  12.405  65.483  1.00  0.00    -0.351 C  
HETATM   16  C   UNL     1     -10.935  12.149  64.575  1.00  0.00    -0.361 C  
BRANCH  15  17
HETATM   17  C   UNL     1     -12.633  13.847  65.489  1.00  0.00    -0.526 C  
BRANCH  17  18
HETATM   18  N   UNL     1     -11.640  14.831  65.823  1.00  0.00    -0.327 NA 
HETATM   19  C   UNL     1     -10.846  15.545  64.967  1.00  0.00    -0.450 A  
HETATM   20  N   UNL     1     -10.108  16.424  65.608  1.00  0.00    -0.523 NA 
HETATM   21  C   UNL     1     -10.434  16.244  66.934  1.00  0.00    -0.302 A  
HETATM   22  C   UNL     1      -9.998  16.886  68.096  1.00  0.00    -0.285 A  
HETATM   23  N   UNL     1     -10.448  16.441  69.293  1.00  0.00    -0.282 NA 
HETATM   24  N   UNL     1      -9.115  17.954  68.052  1.00  0.00    -0.261 NA 
HETATM   25  C   UNL     1     -11.333  15.427  69.297  1.00  0.00    -0.315 A  
HETATM   26  H1  UNL     1      -8.796  18.422  68.900  1.00  0.00     0.000 HD 
HETATM   27  H2  UNL     1      -9.511  18.661  67.433  1.00  0.00     0.000 HD 
HETATM   28  N   UNL     1     -11.856  14.755  68.247  1.00  0.00    -0.310 NA 
HETATM   29  C   UNL     1     -11.353  15.228  67.096  1.00  0.00    -0.247 A  
ENDBRANCH  17  18
ENDBRANCH  15  17
ENDBRANCH  14  15
ENDBRANCH  13  14
ENDBRANCH  11  13
BRANCH  11  30
HETATM   30  O   UNL     1     -10.226  10.162  69.469  1.00  0.00    -0.209 OA 
BRANCH  30  31
HETATM   31  C   UNL     1     -11.274  10.018  70.361  1.00  0.00    -0.323 A  
HETATM   32  C   UNL     1     -12.052  11.150  70.605  1.00  0.00    -0.477 A  
HETATM   33  C   UNL     1     -12.627   8.776  71.946  1.00  0.00    -0.428 A  
HETATM   34  C   UNL     1     -11.569   8.825  71.028  1.00  0.00    -0.337 A  
HETATM   35  C   UNL     1     -13.388   9.915  72.202  1.00  0.00    -0.498 A  
HETATM   36  C   UNL     1     -13.100  11.101  71.532  1.00  0.00    -0.489 A  
ENDBRANCH  30  31
ENDBRANCH  11  30
ENDBRANCH   9  11
ENDBRANCH   7   9
ENDBRANCH   5   7
ENDBRANCH   4   5
ENDBRANCH   2   4
TORSDOF 12
ENDMDL
MODEL       79
REMARK 921   NORMALIZED FREE ENERGY PREDICTED BY IDOCK:   -5.88 KCAL/MOL
REMARK 922        TOTAL FREE ENERGY PREDICTED BY IDOCK:  -11.71 KCAL/MOL
REMARK 923 INTER-LIGAND FREE ENERGY PREDICTED BY IDOCK:  -10.51 KCAL/MOL
REMARK 924 INTRA-LIGAND FREE ENERGY PREDICTED BY IDOCK:   -1.20 KCAL/MOL
REMARK 927      BINDING AFFINITY PREDICTED BY RF-SCORE:    0.00 PKD
ROOT
HETATM    1  C   UNL     1      -9.615   4.185  69.278  1.00  0.00    -0.256 C  
HETATM    2  C   UNL     1      -9.421   5.396  70.195  1.00  0.00    -0.161 C  
HETATM    3  C   UNL     1      -8.097   5.292  70.964  1.00  0.00    -0.112 C  
ENDROOT
BRANCH   2   4
HETATM    4  O   UNL     1      -9.676   6.665  69.510  1.00  0.00    -0.149 OA 
BRANCH   4   5
HETATM    5  C   UNL     1     -10.738   7.424  69.878  1.00  0.00    -0.243 C  
HETATM    6  O   UNL     1     -11.766   6.947  70.362  1.00  0.00    -0.342 OA 
BRANCH   5   7
HETATM    7  C   UNL     1     -10.618   8.957  69.648  1.00  0.00    -0.226 C  
HETATM    8  C   UNL     1     -10.879   9.686  70.965  1.00  0.00    -0.412 C  
BRANCH   7   9
HETATM    9  N   UNL     1     -11.375   9.600  68.505  1.00  0.00    -0.491 NA 
HETATM   10  H   UNL     1     -12.089  10.242  68.848  1.00  0.00     0.000 HD 
BRANCH   9  11
HETATM   11  P   UNL     1     -10.296  10.395  67.362  1.00  0.00    -0.262 P  
HETATM   12  O   UNL     1      -9.160   9.361  67.554  1.00  0.00    -0.124 OA 
BRANCH  11  13
HETATM   13  C   UNL     1      -9.188  11.716  68.191  1.00  0.00    -0.184 C  
BRANCH  13  14
HETATM   14  O   UNL     1      -9.959  12.788  68.853  1.00  0.00    -0.057 OA 
BRANCH  14  15
HETATM   15  C   UNL     1      -9.983  14.137  68.312  1.00  0.00    -0.241 C  
HETATM   16  C   UNL     1      -8.740  14.906  68.775  1.00  0.00    -0.182 C  
BRANCH  15  17
HETATM   17  C   UNL     1     -11.295  14.883  68.509  1.00  0.00    -0.298 C  
BRANCH  17  18
HETATM   18  N   UNL     1     -11.533  15.367  69.840  1.00  0.00    -0.286 NA 
HETATM   19  C   UNL     1     -11.120  16.552  70.389  1.00  0.00    -0.122 A  
HETATM   20  N   UNL     1     -11.588  16.712  71.607  1.00  0.00    -0.169 NA 
HETATM   21  C   UNL     1     -12.314  15.568  71.850  1.00  0.00    -0.395 A  
HETATM   22  C   UNL     1     -13.059  15.154  72.958  1.00  0.00    -0.502 A  
HETATM   23  N   UNL     1     -13.619  13.922  72.941  1.00  0.00    -0.647 NA 
HETATM   24  N   UNL     1     -13.227  15.968  74.068  1.00  0.00    -0.900 NA 
HETATM   25  C   UNL     1     -13.467  13.174  71.832  1.00  0.00    -0.424 A  
HETATM   26  H1  UNL     1     -13.770  15.666  74.877  1.00  0.00     0.000 HD 
HETATM   27  H2  UNL     1     -13.610  16.857  73.748  1.00  0.00     0.000 HD 
HETATM   28  N   UNL     1     -12.808  13.476  70.691  1.00  0.00    -0.179 NA 
HETATM   29  C   UNL     1     -12.259  14.697  70.781  1.00  0.00    -0.324 A  
ENDBRANCH  17  18
ENDBRANCH  15  17
ENDBRANCH  14  15
ENDBRANCH  13  14
ENDBRANCH  11  13
BRANCH  11  30
HETATM   30  O   UNL     1     -11.567  11.551  67.148  1.00  0.00    -0.516 OA 
BRANCH  30  31
HETATM   31  C   UNL     1     -11.688  12.106  65.886  1.00  0.00    -0.328 A  
HETATM   32  C   UNL     1     -12.522  13.218  65.765  1.00  0.00    -0.480 A  
HETATM   33  C   UNL     1     -11.255  12.202  63.501  1.00  0.00    -0.536 A  
HETATM   34  C   UNL     1     -11.046  11.602  64.750  1.00  0.00    -0.328 A  
HETATM   35  C   UNL     1     -12.104  13.300  63.381  1.00  0.00    -0.508 A  
HETATM   36  C   UNL     1     -12.737  13.806  64.513  1.00  0.00    -0.128 A  
ENDBRANCH  30  31
ENDBRANCH  11  30
ENDBRANCH   9  11
ENDBRANCH   7   9
ENDBRANCH   5   7
ENDBRANCH   4   5
ENDBRANCH   2   4
TORSDOF 12
ENDMDL
MODEL       80
REMARK 921   NORMALIZED FREE ENERGY PREDICTED BY IDOCK:   -5.87 KCAL/MOL
REMARK 922        TOTAL FREE ENERGY PREDICTED BY IDOCK:  -11.71 KCAL/MOL
REMARK 923 INTER-LIGAND FREE ENERGY PREDICTED BY IDOCK:  -10.37 KCAL/MOL
REMARK 924 INTRA-LIGAND FREE ENERGY PREDICTED BY IDOCK:   -1.34 KCAL/MOL
REMARK 927      BINDING AFFINITY PREDICTED BY RF-SCORE:    0.00 PKD
ROOT
HETATM    1  C   UNL     1      -6.981   7.726  66.528  1.00  0.00    -0.067 C  
HETATM    2  C   UNL     1      -7.780   8.680  65.637  1.00  0.00    -0.091 C  
HETATM    3  C   UNL     1      -7.268   8.634  64.191  1.00  0.00    -0.092 C  
ENDROOT
BRANCH   2   4
HETATM    4  O   UNL     1      -9.227   8.539  65.819  1.00  0.00    -0.198 OA 
BRANCH   4   5
HETATM    5  C   UNL     1     -10.007   9.646  65.866  1.00  0.00    -0.281 C  
HETATM    6  O   UNL     1     -10.383  10.245  64.856  1.00  0.00    -0.283 OA 
BRANCH   5   7
HETATM    7  C   UNL     1     -10.409  10.162  67.277  1.00  0.00    -0.237 C  
HETATM    8  C   UNL     1     -10.130   9.070  68.310  1.00  0.00    -0.223 C  
BRANCH   7   9
HETATM    9  N   UNL     1     -11.777  10.777  67.484  1.00  0.00    -0.564 NA 
HETATM   10  H   UNL     1     -12.196  10.464  68.359  1.00  0.00     0.000 HD 
BRANCH   9  11
HETATM   11  P   UNL     1     -11.731  12.536  67.390  1.00  0.00    -0.245 P  
HETATM   12  O   UNL     1     -12.379  12.583  65.985  1.00  0.00    -0.615 OA 
BRANCH  11  13
HETATM   13  C   UNL     1     -10.105  13.192  66.626  1.00  0.00    -0.264 C  
BRANCH  13  14
HETATM   14  O   UNL     1      -9.780  14.570  67.047  1.00  0.00    -0.233 OA 
BRANCH  14  15
HETATM   15  C   UNL     1     -10.722  15.657  66.840  1.00  0.00    -0.307 C  
HETATM   16  C   UNL     1     -10.884  15.928  65.338  1.00  0.00    -0.361 C  
BRANCH  15  17
HETATM   17  C   UNL     1     -10.460  16.900  67.678  1.00  0.00    -0.332 C  
BRANCH  17  18
HETATM   18  N   UNL     1      -9.896  18.014  66.968  1.00  0.00    -0.305 NA 
HETATM   19  C   UNL     1     -10.542  19.129  66.505  1.00  0.00    -0.435 A  
HETATM   20  N   UNL     1      -9.703  19.991  65.973  1.00  0.00    -0.411 NA 
HETATM   21  C   UNL     1      -8.471  19.385  66.085  1.00  0.00    -0.291 A  
HETATM   22  C   UNL     1      -7.190  19.805  65.717  1.00  0.00    -0.318 A  
HETATM   23  N   UNL     1      -6.153  18.952  65.888  1.00  0.00    -0.175 NA 
HETATM   24  N   UNL     1      -6.961  21.061  65.177  1.00  0.00    -0.468 NA 
HETATM   25  C   UNL     1      -6.405  17.755  66.451  1.00  0.00    -0.217 A  
HETATM   26  H1  UNL     1      -6.026  21.367  64.908  1.00  0.00     0.000 HD 
HETATM   27  H2  UNL     1      -7.344  21.753  65.821  1.00  0.00     0.000 HD 
HETATM   28  N   UNL     1      -7.584  17.254  66.880  1.00  0.00    -0.195 NA 
HETATM   29  C   UNL     1      -8.571  18.136  66.662  1.00  0.00    -0.267 A  
ENDBRANCH  17  18
ENDBRANCH  15  17
ENDBRANCH  14  15
ENDBRANCH  13  14
ENDBRANCH  11  13
BRANCH  11  30
HETATM   30  O   UNL     1     -11.007  12.483  68.962  1.00  0.00    -0.233 OA 
BRANCH  30  31
HETATM   31  C   UNL     1     -11.814  12.850  70.024  1.00  0.00    -0.286 A  
HETATM   32  C   UNL     1     -12.309  11.819  70.825  1.00  0.00    -0.433 A  
HETATM   33  C   UNL     1     -13.021  14.453  71.387  1.00  0.00    -0.405 A  
HETATM   34  C   UNL     1     -12.166  14.172  70.312  1.00  0.00    -0.416 A  
HETATM   35  C   UNL     1     -13.529  13.419  72.171  1.00  0.00    -0.646 A  
HETATM   36  C   UNL     1     -13.173  12.103  71.888  1.00  0.00    -0.474 A  
ENDBRANCH  30  31
ENDBRANCH  11  30
ENDBRANCH   9  11
ENDBRANCH   7   9
ENDBRANCH   5   7
ENDBRANCH   4   5
ENDBRANCH   2   4
TORSDOF 12
ENDMDL
MODEL       81
REMARK 921   NORMALIZED FREE ENERGY PREDICTED BY IDOCK:   -5.87 KCAL/MOL
REMARK 922        TOTAL FREE ENERGY PREDICTED BY IDOCK:  -11.70 KCAL/MOL
REMARK 923 INTER-LIGAND FREE ENERGY PREDICTED BY IDOCK:  -10.63 KCAL/MOL
REMARK 924 INTRA-LIGAND FREE ENERGY PREDICTED BY IDOCK:   -1.07 KCAL/MOL
REMARK 927      BINDING AFFINITY PREDICTED BY RF-SCORE:    0.00 PKD
ROOT
HETATM    1  C   UNL     1      -9.237   9.994  62.443  1.00  0.00    -0.319 C  
HETATM    2  C   UNL     1      -9.488  10.820  63.707  1.00  0.00    -0.283 C  
HETATM    3  C   UNL     1     -10.555  11.895  63.454  1.00  0.00    -0.485 C  
ENDROOT
BRANCH   2   4
HETATM    4  O   UNL     1      -9.677   9.985  64.895  1.00  0.00    -0.296 OA 
BRANCH   4   5
HETATM    5  C   UNL     1      -8.813  10.094  65.935  1.00  0.00    -0.149 C  
HETATM    6  O   UNL     1      -7.589  10.113  65.790  1.00  0.00    -0.121 OA 
BRANCH   5   7
HETATM    7  C   UNL     1      -9.435  10.179  67.358  1.00  0.00    -0.153 C  
HETATM    8  C   UNL     1     -10.653   9.259  67.430  1.00  0.00    -0.324 C  
BRANCH   7   9
HETATM    9  N   UNL     1      -9.734  11.536  67.960  1.00  0.00    -0.180 NA 
HETATM   10  H   UNL     1      -9.474  12.289  67.324  1.00  0.00     0.000 HD 
BRANCH   9  11
HETATM   11  P   UNL     1     -11.415  11.678  68.466  1.00  0.00    -0.343 P  
HETATM   12  O   UNL     1     -11.938  11.905  67.026  1.00  0.00    -0.615 OA 
BRANCH  11  13
HETATM   13  C   UNL     1     -11.907  13.476  68.893  1.00  0.00    -0.345 C  
BRANCH  13  14
HETATM   14  O   UNL     1     -11.968  14.358  67.708  1.00  0.00    -0.370 OA 
BRANCH  14  15
HETATM   15  C   UNL     1     -10.901  15.304  67.425  1.00  0.00    -0.304 C  
HETATM   16  C   UNL     1     -10.023  14.773  66.285  1.00  0.00    -0.308 C  
BRANCH  15  17
HETATM   17  C   UNL     1     -10.127  15.781  68.645  1.00  0.00    -0.211 C  
BRANCH  17  18
HETATM   18  N   UNL     1      -9.225  16.875  68.413  1.00  0.00    -0.245 NA 
HETATM   19  C   UNL     1      -7.879  16.921  68.662  1.00  0.00    -0.244 A  
HETATM   20  N   UNL     1      -7.347  18.050  68.248  1.00  0.00    -0.249 NA 
HETATM   21  C   UNL     1      -8.408  18.761  67.733  1.00  0.00    -0.271 A  
HETATM   22  C   UNL     1      -8.481  20.021  67.133  1.00  0.00    -0.334 A  
HETATM   23  N   UNL     1      -9.695  20.503  66.779  1.00  0.00    -0.387 NA 
HETATM   24  N   UNL     1      -7.347  20.786  66.902  1.00  0.00    -0.488 NA 
HETATM   25  C   UNL     1     -10.770  19.719  66.983  1.00  0.00    -0.418 A  
HETATM   26  H1  UNL     1      -7.401  21.706  66.464  1.00  0.00     0.000 HD 
HETATM   27  H2  UNL     1      -6.693  20.220  66.362  1.00  0.00     0.000 HD 
HETATM   28  N   UNL     1     -10.823  18.477  67.514  1.00  0.00    -0.376 NA 
HETATM   29  C   UNL     1      -9.594  18.068  67.863  1.00  0.00    -0.284 A  
ENDBRANCH  17  18
ENDBRANCH  15  17
ENDBRANCH  14  15
ENDBRANCH  13  14
ENDBRANCH  11  13
BRANCH  11  30
HETATM   30  O   UNL     1     -10.830  11.423  70.075  1.00  0.00     0.001 OA 
BRANCH  30  31
HETATM   31  C   UNL     1     -11.445  10.420  70.802  1.00  0.00    -0.332 A  
HETATM   32  C   UNL     1     -12.833  10.495  70.930  1.00  0.00    -0.485 A  
HETATM   33  C   UNL     1     -11.452   8.416  72.169  1.00  0.00    -0.442 A  
HETATM   34  C   UNL     1     -10.754   9.371  71.417  1.00  0.00    -0.407 A  
HETATM   35  C   UNL     1     -12.835   8.507  72.312  1.00  0.00    -0.404 A  
HETATM   36  C   UNL     1     -13.524   9.546  71.693  1.00  0.00    -0.463 A  
ENDBRANCH  30  31
ENDBRANCH  11  30
ENDBRANCH   9  11
ENDBRANCH   7   9
ENDBRANCH   5   7
ENDBRANCH   4   5
ENDBRANCH   2   4
TORSDOF 12
ENDMDL
MODEL       82
REMARK 921   NORMALIZED FREE ENERGY PREDICTED BY IDOCK:   -5.85 KCAL/MOL
REMARK 922        TOTAL FREE ENERGY PREDICTED BY IDOCK:  -11.66 KCAL/MOL
REMARK 923 INTER-LIGAND FREE ENERGY PREDICTED BY IDOCK:  -10.20 KCAL/MOL
REMARK 924 INTRA-LIGAND FREE ENERGY PREDICTED BY IDOCK:   -1.46 KCAL/MOL
REMARK 927      BINDING AFFINITY PREDICTED BY RF-SCORE:    0.00 PKD
ROOT
HETATM    1  C   UNL     1      -7.719   8.453  63.671  1.00  0.00    -0.144 C  
HETATM    2  C   UNL     1      -7.716   9.980  63.777  1.00  0.00    -0.148 C  
HETATM    3  C   UNL     1      -9.130  10.543  63.582  1.00  0.00    -0.259 C  
ENDROOT
BRANCH   2   4
HETATM    4  O   UNL     1      -6.982  10.459  64.951  1.00  0.00    -0.122 OA 
BRANCH   4   5
HETATM    5  C   UNL     1      -7.352  10.044  66.187  1.00  0.00    -0.109 C  
HETATM    6  O   UNL     1      -6.909   9.019  66.710  1.00  0.00    -0.078 OA 
BRANCH   5   7
HETATM    7  C   UNL     1      -8.396  10.918  66.938  1.00  0.00    -0.133 C  
HETATM    8  C   UNL     1      -7.792  12.293  67.220  1.00  0.00    -0.171 C  
BRANCH   7   9
HETATM    9  N   UNL     1      -9.092  10.361  68.162  1.00  0.00    -0.139 NA 
HETATM   10  H   UNL     1      -8.734  10.787  69.017  1.00  0.00     0.000 HD 
BRANCH   9  11
HETATM   11  P   UNL     1     -10.843  10.516  68.055  1.00  0.00    -0.295 P  
HETATM   12  O   UNL     1     -10.894  10.097  66.565  1.00  0.00    -0.108 OA 
BRANCH  11  13
HETATM   13  C   UNL     1     -11.398  12.274  67.545  1.00  0.00    -0.325 C  
BRANCH  13  14
HETATM   14  O   UNL     1     -12.257  12.285  66.342  1.00  0.00    -0.613 OA 
BRANCH  14  15
HETATM   15  C   UNL     1     -11.945  13.139  65.208  1.00  0.00    -0.398 C  
HETATM   16  C   UNL     1     -12.182  12.375  63.900  1.00  0.00    -0.603 C  
BRANCH  15  17
HETATM   17  C   UNL     1     -10.600  13.846  65.290  1.00  0.00    -0.361 C  
BRANCH  17  18
HETATM   18  N   UNL     1     -10.657  15.282  65.273  1.00  0.00    -0.386 NA 
HETATM   19  C   UNL     1     -11.275  16.087  64.354  1.00  0.00    -0.205 A  
HETATM   20  N   UNL     1     -11.202  17.355  64.693  1.00  0.00    -0.824 NA 
HETATM   21  C   UNL     1     -10.486  17.356  65.869  1.00  0.00    -0.252 A  
HETATM   22  C   UNL     1     -10.094  18.393  66.721  1.00  0.00    -0.373 A  
HETATM   23  N   UNL     1      -9.320  18.097  67.791  1.00  0.00    -0.264 NA 
HETATM   24  N   UNL     1     -10.469  19.707  66.489  1.00  0.00    -0.471 NA 
HETATM   25  C   UNL     1      -9.006  16.806  68.007  1.00  0.00    -0.217 A  
HETATM   26  H1  UNL     1     -10.182  20.464  67.111  1.00  0.00     0.000 HD 
HETATM   27  H2  UNL     1     -11.486  19.733  66.412  1.00  0.00     0.000 HD 
HETATM   28  N   UNL     1      -9.354  15.718  67.284  1.00  0.00    -0.209 NA 
HETATM   29  C   UNL     1     -10.099  16.081  66.228  1.00  0.00    -0.313 A  
ENDBRANCH  17  18
ENDBRANCH  15  17
ENDBRANCH  14  15
ENDBRANCH  13  14
ENDBRANCH  11  13
BRANCH  11  30
HETATM   30  O   UNL     1     -10.785  10.984  69.720  1.00  0.00    -0.197 OA 
BRANCH  30  31
HETATM   31  C   UNL     1     -11.517  10.209  70.603  1.00  0.00    -0.349 A  
HETATM   32  C   UNL     1     -10.945   9.001  71.004  1.00  0.00    -0.352 A  
HETATM   33  C   UNL     1     -13.473   9.700  71.946  1.00  0.00    -0.496 A  
HETATM   34  C   UNL     1     -12.782  10.563  71.083  1.00  0.00    -0.518 A  
HETATM   35  C   UNL     1     -12.906   8.486  72.327  1.00  0.00    -0.404 A  
HETATM   36  C   UNL     1     -11.643   8.137  71.856  1.00  0.00    -0.361 A  
ENDBRANCH  30  31
ENDBRANCH  11  30
ENDBRANCH   9  11
ENDBRANCH   7   9
ENDBRANCH   5   7
ENDBRANCH   4   5
ENDBRANCH   2   4
TORSDOF 12
ENDMDL
MODEL       83
REMARK 921   NORMALIZED FREE ENERGY PREDICTED BY IDOCK:   -5.83 KCAL/MOL
REMARK 922        TOTAL FREE ENERGY PREDICTED BY IDOCK:  -11.63 KCAL/MOL
REMARK 923 INTER-LIGAND FREE ENERGY PREDICTED BY IDOCK:  -10.21 KCAL/MOL
REMARK 924 INTRA-LIGAND FREE ENERGY PREDICTED BY IDOCK:   -1.42 KCAL/MOL
REMARK 927      BINDING AFFINITY PREDICTED BY RF-SCORE:    0.00 PKD
ROOT
HETATM    1  C   UNL     1      -9.003   7.167  66.190  1.00  0.00    -0.168 C  
HETATM    2  C   UNL     1      -9.370   7.681  67.584  1.00  0.00    -0.142 C  
HETATM    3  C   UNL     1     -10.512   6.852  68.189  1.00  0.00    -0.243 C  
ENDROOT
BRANCH   2   4
HETATM    4  O   UNL     1      -8.194   7.884  68.435  1.00  0.00    -0.121 OA 
BRANCH   4   5
HETATM    5  C   UNL     1      -8.015   9.076  69.056  1.00  0.00    -0.102 C  
HETATM    6  O   UNL     1      -7.555   9.176  70.195  1.00  0.00    -0.069 OA 
BRANCH   5   7
HETATM    7  C   UNL     1      -8.438  10.348  68.267  1.00  0.00    -0.123 C  
HETATM    8  C   UNL     1      -7.187  11.122  67.853  1.00  0.00    -0.090 C  
BRANCH   7   9
HETATM    9  N   UNL     1      -9.488  11.271  68.849  1.00  0.00    -0.364 NA 
HETATM   10  H   UNL     1      -9.225  12.250  68.736  1.00  0.00     0.000 HD 
BRANCH   9  11
HETATM   11  P   UNL     1     -11.087  10.958  68.178  1.00  0.00    -0.318 P  
HETATM   12  O   UNL     1     -10.537  10.513  66.801  1.00  0.00    -0.247 OA 
BRANCH  11  13
HETATM   13  C   UNL     1     -11.849  12.498  67.339  1.00  0.00    -0.312 C  
BRANCH  13  14
HETATM   14  O   UNL     1     -12.407  12.213  66.001  1.00  0.00    -0.550 OA 
BRANCH  14  15
HETATM   15  C   UNL     1     -11.932  12.925  64.825  1.00  0.00    -0.396 C  
HETATM   16  C   UNL     1     -12.062  12.030  63.586  1.00  0.00    -0.627 C  
BRANCH  15  17
HETATM   17  C   UNL     1     -10.570  13.586  64.984  1.00  0.00    -0.372 C  
BRANCH  17  18
HETATM   18  N   UNL     1     -10.580  15.023  64.990  1.00  0.00    -0.410 NA 
HETATM   19  C   UNL     1     -11.462  15.858  64.360  1.00  0.00    -0.264 A  
HETATM   20  N   UNL     1     -11.228  17.120  64.648  1.00  0.00    -0.959 NA 
HETATM   21  C   UNL     1     -10.134  17.083  65.483  1.00  0.00    -0.010 A  
HETATM   22  C   UNL     1      -9.424  18.096  66.133  1.00  0.00    -0.153 A  
HETATM   23  N   UNL     1      -8.324  17.763  66.849  1.00  0.00    -0.230 NA 
HETATM   24  N   UNL     1      -9.812  19.425  66.054  1.00  0.00    -0.425 NA 
HETATM   25  C   UNL     1      -7.997  16.460  66.935  1.00  0.00    -0.234 A  
HETATM   26  H1  UNL     1      -9.294  20.165  66.529  1.00  0.00     0.000 HD 
HETATM   27  H2  UNL     1     -10.786  19.484  66.353  1.00  0.00     0.000 HD 
HETATM   28  N   UNL     1      -8.621  15.393  66.388  1.00  0.00    -0.268 NA 
HETATM   29  C   UNL     1      -9.686  15.792  65.676  1.00  0.00    -0.297 A  
ENDBRANCH  17  18
ENDBRANCH  15  17
ENDBRANCH  14  15
ENDBRANCH  13  14
ENDBRANCH  11  13
BRANCH  11  30
HETATM   30  O   UNL     1     -11.701  11.454  69.718  1.00  0.00    -0.287 OA 
BRANCH  30  31
HETATM   31  C   UNL     1     -11.966  10.447  70.630  1.00  0.00    -0.351 A  
HETATM   32  C   UNL     1     -13.168  10.535  71.332  1.00  0.00    -0.441 A  
HETATM   33  C   UNL     1     -11.424   8.425  71.857  1.00  0.00    -0.384 A  
HETATM   34  C   UNL     1     -11.095   9.384  70.888  1.00  0.00    -0.389 A  
HETATM   35  C   UNL     1     -12.617   8.528  72.571  1.00  0.00    -0.346 A  
HETATM   36  C   UNL     1     -13.487   9.583  72.308  1.00  0.00    -0.521 A  
ENDBRANCH  30  31
ENDBRANCH  11  30
ENDBRANCH   9  11
ENDBRANCH   7   9
ENDBRANCH   5   7
ENDBRANCH   4   5
ENDBRANCH   2   4
TORSDOF 12
ENDMDL
MODEL       84
REMARK 921   NORMALIZED FREE ENERGY PREDICTED BY IDOCK:   -5.83 KCAL/MOL
REMARK 922        TOTAL FREE ENERGY PREDICTED BY IDOCK:  -11.63 KCAL/MOL
REMARK 923 INTER-LIGAND FREE ENERGY PREDICTED BY IDOCK:  -10.09 KCAL/MOL
REMARK 924 INTRA-LIGAND FREE ENERGY PREDICTED BY IDOCK:   -1.54 KCAL/MOL
REMARK 927      BINDING AFFINITY PREDICTED BY RF-SCORE:    0.00 PKD
ROOT
HETATM    1  C   UNL     1     -12.513   6.700  71.780  1.00  0.00    -0.360 C  
HETATM    2  C   UNL     1     -12.475   8.208  71.522  1.00  0.00    -0.307 C  
HETATM    3  C   UNL     1     -13.565   8.928  72.329  1.00  0.00    -0.513 C  
ENDROOT
BRANCH   2   4
HETATM    4  O   UNL     1     -11.122   8.761  71.622  1.00  0.00    -0.278 OA 
BRANCH   4   5
HETATM    5  C   UNL     1     -10.252   8.591  70.596  1.00  0.00    -0.197 C  
HETATM    6  O   UNL     1      -9.371   7.728  70.600  1.00  0.00    -0.161 OA 
BRANCH   5   7
HETATM    7  C   UNL     1     -10.395   9.559  69.387  1.00  0.00    -0.214 C  
HETATM    8  C   UNL     1     -10.325   8.756  68.089  1.00  0.00    -0.266 C  
BRANCH   7   9
HETATM    9  N   UNL     1      -9.525  10.796  69.316  1.00  0.00    -0.388 NA 
HETATM   10  H   UNL     1      -8.750  10.742  69.978  1.00  0.00     0.000 HD 
BRANCH   9  11
HETATM   11  P   UNL     1      -8.949  11.106  67.681  1.00  0.00    -0.145 P  
HETATM   12  O   UNL     1      -7.581  10.421  67.920  1.00  0.00    -0.087 OA 
BRANCH  11  13
HETATM   13  C   UNL     1      -8.043  12.783  67.524  1.00  0.00    -0.180 C  
BRANCH  13  14
HETATM   14  O   UNL     1      -8.497  13.783  68.512  1.00  0.00    -0.160 OA 
BRANCH  14  15
HETATM   15  C   UNL     1      -9.066  15.051  68.087  1.00  0.00    -0.178 C  
HETATM   16  C   UNL     1      -8.381  16.205  68.830  1.00  0.00    -0.231 C  
BRANCH  15  17
HETATM   17  C   UNL     1     -10.587  15.108  68.101  1.00  0.00    -0.246 C  
BRANCH  17  18
HETATM   18  N   UNL     1     -11.186  15.226  69.402  1.00  0.00    -0.265 NA 
HETATM   19  C   UNL     1     -11.273  16.344  70.188  1.00  0.00    -0.250 A  
HETATM   20  N   UNL     1     -11.963  16.115  71.283  1.00  0.00    -0.413 NA 
HETATM   21  C   UNL     1     -12.310  14.785  71.199  1.00  0.00    -0.331 A  
HETATM   22  C   UNL     1     -13.054  13.961  72.048  1.00  0.00    -0.393 A  
HETATM   23  N   UNL     1     -13.175  12.649  71.738  1.00  0.00    -0.418 NA 
HETATM   24  N   UNL     1     -13.657  14.451  73.196  1.00  0.00    -0.516 NA 
HETATM   25  C   UNL     1     -12.609  12.214  70.596  1.00  0.00    -0.169 A  
HETATM   26  H1  UNL     1     -14.200  13.849  73.816  1.00  0.00     0.000 HD 
HETATM   27  H2  UNL     1     -14.248  15.238  72.927  1.00  0.00     0.000 HD 
HETATM   28  N   UNL     1     -11.904  12.916  69.681  1.00  0.00    -0.326 NA 
HETATM   29  C   UNL     1     -11.801  14.199  70.058  1.00  0.00    -0.323 A  
ENDBRANCH  17  18
ENDBRANCH  15  17
ENDBRANCH  14  15
ENDBRANCH  13  14
ENDBRANCH  11  13
BRANCH  11  30
HETATM   30  O   UNL     1     -10.478  11.871  67.414  1.00  0.00    -0.210 OA 
BRANCH  30  31
HETATM   31  C   UNL     1     -10.945  11.875  66.111  1.00  0.00    -0.308 A  
HETATM   32  C   UNL     1     -10.199  11.161  65.173  1.00  0.00    -0.347 A  
HETATM   33  C   UNL     1     -12.474  12.544  64.350  1.00  0.00    -0.530 A  
HETATM   34  C   UNL     1     -12.092  12.561  65.699  1.00  0.00    -0.464 A  
HETATM   35  C   UNL     1     -11.714  11.847  63.413  1.00  0.00    -0.500 A  
HETATM   36  C   UNL     1     -10.577  11.157  63.825  1.00  0.00    -0.422 A  
ENDBRANCH  30  31
ENDBRANCH  11  30
ENDBRANCH   9  11
ENDBRANCH   7   9
ENDBRANCH   5   7
ENDBRANCH   4   5
ENDBRANCH   2   4
TORSDOF 12
ENDMDL
MODEL       85
REMARK 921   NORMALIZED FREE ENERGY PREDICTED BY IDOCK:   -5.81 KCAL/MOL
REMARK 922        TOTAL FREE ENERGY PREDICTED BY IDOCK:  -11.60 KCAL/MOL
REMARK 923 INTER-LIGAND FREE ENERGY PREDICTED BY IDOCK:  -10.51 KCAL/MOL
REMARK 924 INTRA-LIGAND FREE ENERGY PREDICTED BY IDOCK:   -1.10 KCAL/MOL
REMARK 927      BINDING AFFINITY PREDICTED BY RF-SCORE:    0.00 PKD
ROOT
HETATM    1  C   UNL     1     -11.980  12.954  63.283  1.00  0.00    -0.516 C  
HETATM    2  C   UNL     1     -11.812  11.855  64.335  1.00  0.00    -0.251 C  
HETATM    3  C   UNL     1     -10.363  11.351  64.372  1.00  0.00    -0.375 C  
ENDROOT
BRANCH   2   4
HETATM    4  O   UNL     1     -12.406  12.218  65.625  1.00  0.00    -0.619 OA 
BRANCH   4   5
HETATM    5  C   UNL     1     -12.491  13.524  65.979  1.00  0.00    -0.399 C  
HETATM    6  O   UNL     1     -13.264  14.316  65.436  1.00  0.00    -0.688 OA 
BRANCH   5   7
HETATM    7  C   UNL     1     -11.541  14.007  67.112  1.00  0.00    -0.372 C  
HETATM    8  C   UNL     1     -12.262  13.894  68.455  1.00  0.00    -0.194 C  
BRANCH   7   9
HETATM    9  N   UNL     1     -10.837  15.340  66.976  1.00  0.00    -0.318 NA 
HETATM   10  H   UNL     1     -11.197  16.020  67.646  1.00  0.00     0.000 HD 
BRANCH   9  11
HETATM   11  P   UNL     1      -9.088  15.180  67.106  1.00  0.00    -0.238 P  
HETATM   12  O   UNL     1      -9.003  14.079  66.020  1.00  0.00     0.065 OA 
BRANCH  11  13
HETATM   13  C   UNL     1      -8.561  13.885  68.411  1.00  0.00    -0.169 C  
BRANCH  13  14
HETATM   14  O   UNL     1      -7.803  12.756  67.835  1.00  0.00    -0.129 OA 
BRANCH  14  15
HETATM   15  C   UNL     1      -8.193  11.380  68.100  1.00  0.00    -0.143 C  
HETATM   16  C   UNL     1      -7.743  10.479  66.943  1.00  0.00    -0.114 C  
BRANCH  15  17
HETATM   17  C   UNL     1      -9.646  11.195  68.515  1.00  0.00    -0.193 C  
BRANCH  17  18
HETATM   18  N   UNL     1      -9.873  10.213  69.538  1.00  0.00    -0.227 NA 
HETATM   19  C   UNL     1      -9.021   9.229  69.961  1.00  0.00    -0.198 A  
HETATM   20  N   UNL     1      -9.518   8.560  70.978  1.00  0.00    -0.172 NA 
HETATM   21  C   UNL     1     -10.751   9.133  71.196  1.00  0.00    -0.310 A  
HETATM   22  C   UNL     1     -11.746   8.871  72.143  1.00  0.00    -0.341 A  
HETATM   23  N   UNL     1     -12.908   9.561  72.071  1.00  0.00    -0.403 NA 
HETATM   24  N   UNL     1     -11.573   7.922  73.138  1.00  0.00    -0.599 NA 
HETATM   25  C   UNL     1     -13.027  10.501  71.116  1.00  0.00    -0.411 A  
HETATM   26  H1  UNL     1     -12.299   7.731  73.829  1.00  0.00     0.000 HD 
HETATM   27  H2  UNL     1     -10.715   8.149  73.641  1.00  0.00     0.000 HD 
HETATM   28  N   UNL     1     -12.130  10.870  70.175  1.00  0.00    -0.320 NA 
HETATM   29  C   UNL     1     -11.012  10.135  70.285  1.00  0.00    -0.317 A  
ENDBRANCH  17  18
ENDBRANCH  15  17
ENDBRANCH  14  15
ENDBRANCH  13  14
ENDBRANCH  11  13
BRANCH  11  30
HETATM   30  O   UNL     1      -9.183  16.411  68.319  1.00  0.00    -0.199 OA 
BRANCH  30  31
HETATM   31  C   UNL     1      -9.252  17.717  67.867  1.00  0.00    -0.267 A  
HETATM   32  C   UNL     1     -10.316  18.489  68.335  1.00  0.00    -0.359 A  
HETATM   33  C   UNL     1      -8.505  19.599  66.531  1.00  0.00    -0.374 A  
HETATM   34  C   UNL     1      -8.340  18.277  66.968  1.00  0.00    -0.256 A  
HETATM   35  C   UNL     1      -9.580  20.360  66.985  1.00  0.00    -0.571 A  
HETATM   36  C   UNL     1     -10.484  19.804  67.886  1.00  0.00    -0.531 A  
ENDBRANCH  30  31
ENDBRANCH  11  30
ENDBRANCH   9  11
ENDBRANCH   7   9
ENDBRANCH   5   7
ENDBRANCH   4   5
ENDBRANCH   2   4
TORSDOF 12
ENDMDL
MODEL       86
REMARK 921   NORMALIZED FREE ENERGY PREDICTED BY IDOCK:   -5.81 KCAL/MOL
REMARK 922        TOTAL FREE ENERGY PREDICTED BY IDOCK:  -11.60 KCAL/MOL
REMARK 923 INTER-LIGAND FREE ENERGY PREDICTED BY IDOCK:  -10.08 KCAL/MOL
REMARK 924 INTRA-LIGAND FREE ENERGY PREDICTED BY IDOCK:   -1.52 KCAL/MOL
REMARK 927      BINDING AFFINITY PREDICTED BY RF-SCORE:    0.00 PKD
ROOT
HETATM    1  C   UNL     1     -11.017   6.351  67.446  1.00  0.00    -0.463 C  
HETATM    2  C   UNL     1     -10.669   5.864  68.855  1.00  0.00    -0.300 C  
HETATM    3  C   UNL     1      -9.760   4.628  68.796  1.00  0.00    -0.230 C  
ENDROOT
BRANCH   2   4
HETATM    4  O   UNL     1     -10.230   6.952  69.733  1.00  0.00    -0.188 OA 
BRANCH   4   5
HETATM    5  C   UNL     1     -11.151   7.774  70.292  1.00  0.00    -0.234 C  
HETATM    6  O   UNL     1     -12.006   7.380  71.087  1.00  0.00    -0.301 OA 
BRANCH   5   7
HETATM    7  C   UNL     1     -11.103   9.271  69.870  1.00  0.00    -0.181 C  
HETATM    8  C   UNL     1     -11.780  10.118  70.946  1.00  0.00    -0.468 C  
BRANCH   7   9
HETATM    9  N   UNL     1     -11.565   9.669  68.484  1.00  0.00    -0.263 NA 
HETATM   10  H   UNL     1     -12.447  10.179  68.520  1.00  0.00     0.000 HD 
BRANCH   9  11
HETATM   11  P   UNL     1     -10.334  10.581  67.615  1.00  0.00    -0.253 P  
HETATM   12  O   UNL     1      -9.221   9.540  67.885  1.00  0.00    -0.126 OA 
BRANCH  11  13
HETATM   13  C   UNL     1      -9.403  11.819  68.737  1.00  0.00    -0.009 C  
BRANCH  13  14
HETATM   14  O   UNL     1      -9.866  13.212  68.574  1.00  0.00    -0.218 OA 
BRANCH  14  15
HETATM   15  C   UNL     1      -8.994  14.229  68.009  1.00  0.00    -0.183 C  
HETATM   16  C   UNL     1      -7.703  13.581  67.494  1.00  0.00    -0.182 C  
BRANCH  15  17
HETATM   17  C   UNL     1      -8.777  15.449  68.893  1.00  0.00    -0.208 C  
BRANCH  17  18
HETATM   18  N   UNL     1      -9.312  16.682  68.383  1.00  0.00    -0.217 NA 
HETATM   19  C   UNL     1     -10.492  17.289  68.722  1.00  0.00    -0.340 A  
HETATM   20  N   UNL     1     -10.628  18.452  68.124  1.00  0.00    -0.324 NA 
HETATM   21  C   UNL     1      -9.493  18.578  67.354  1.00  0.00    -0.283 A  
HETATM   22  C   UNL     1      -9.052  19.597  66.506  1.00  0.00    -0.373 A  
HETATM   23  N   UNL     1      -7.905  19.412  65.810  1.00  0.00    -0.442 NA 
HETATM   24  N   UNL     1      -9.761  20.778  66.355  1.00  0.00    -0.557 NA 
HETATM   25  C   UNL     1      -7.222  18.269  66.010  1.00  0.00    -0.263 A  
HETATM   26  H1  UNL     1      -9.438  21.522  65.735  1.00  0.00     0.000 HD 
HETATM   27  H2  UNL     1      -9.898  21.181  67.282  1.00  0.00     0.000 HD 
HETATM   28  N   UNL     1      -7.524  17.234  66.826  1.00  0.00    -0.199 NA 
HETATM   29  C   UNL     1      -8.680  17.469  67.466  1.00  0.00    -0.225 A  
ENDBRANCH  17  18
ENDBRANCH  15  17
ENDBRANCH  14  15
ENDBRANCH  13  14
ENDBRANCH  11  13
BRANCH  11  30
HETATM   30  O   UNL     1     -11.579  11.745  67.311  1.00  0.00    -0.461 OA 
BRANCH  30  31
HETATM   31  C   UNL     1     -11.660  12.237  66.021  1.00  0.00    -0.393 A  
HETATM   32  C   UNL     1     -12.340  13.444  65.850  1.00  0.00    -0.493 A  
HETATM   33  C   UNL     1     -11.286  12.137  63.626  1.00  0.00    -0.540 A  
HETATM   34  C   UNL     1     -11.125  11.587  64.905  1.00  0.00    -0.282 A  
HETATM   35  C   UNL     1     -11.983  13.332  63.458  1.00  0.00    -0.537 A  
HETATM   36  C   UNL     1     -12.510  13.983  64.569  1.00  0.00    -0.342 A  
ENDBRANCH  30  31
ENDBRANCH  11  30
ENDBRANCH   9  11
ENDBRANCH   7   9
ENDBRANCH   5   7
ENDBRANCH   4   5
ENDBRANCH   2   4
TORSDOF 12
ENDMDL
MODEL       87
REMARK 921   NORMALIZED FREE ENERGY PREDICTED BY IDOCK:   -5.81 KCAL/MOL
REMARK 922        TOTAL FREE ENERGY PREDICTED BY IDOCK:  -11.60 KCAL/MOL
REMARK 923 INTER-LIGAND FREE ENERGY PREDICTED BY IDOCK:  -10.29 KCAL/MOL
REMARK 924 INTRA-LIGAND FREE ENERGY PREDICTED BY IDOCK:   -1.30 KCAL/MOL
REMARK 927      BINDING AFFINITY PREDICTED BY RF-SCORE:    0.00 PKD
ROOT
HETATM    1  C   UNL     1      -8.739  10.815  65.277  1.00  0.00    -0.183 C  
HETATM    2  C   UNL     1      -9.874  11.571  64.584  1.00  0.00    -0.246 C  
HETATM    3  C   UNL     1     -10.184  10.954  63.212  1.00  0.00    -0.317 C  
ENDROOT
BRANCH   2   4
HETATM    4  O   UNL     1     -11.021  11.797  65.468  1.00  0.00    -0.291 OA 
BRANCH   4   5
HETATM    5  C   UNL     1     -11.931  12.751  65.153  1.00  0.00    -0.424 C  
HETATM    6  O   UNL     1     -13.037  12.490  64.675  1.00  0.00    -0.845 OA 
BRANCH   5   7
HETATM    7  C   UNL     1     -11.515  14.228  65.407  1.00  0.00    -0.332 C  
HETATM    8  C   UNL     1     -12.161  15.122  64.349  1.00  0.00    -0.313 C  
BRANCH   7   9
HETATM    9  N   UNL     1     -10.052  14.568  65.596  1.00  0.00    -0.341 NA 
HETATM   10  H   UNL     1      -9.764  15.325  64.976  1.00  0.00     0.000 HD 
BRANCH   9  11
HETATM   11  P   UNL     1      -9.671  14.938  67.275  1.00  0.00    -0.236 P  
HETATM   12  O   UNL     1      -8.612  13.815  67.393  1.00  0.00    -0.181 OA 
BRANCH  11  13
HETATM   13  C   UNL     1     -10.774  13.981  68.510  1.00  0.00    -0.256 C  
BRANCH  13  14
HETATM   14  O   UNL     1     -10.588  12.517  68.441  1.00  0.00    -0.229 OA 
BRANCH  14  15
HETATM   15  C   UNL     1     -11.371  11.622  69.277  1.00  0.00    -0.290 C  
HETATM   16  C   UNL     1     -12.155  12.434  70.317  1.00  0.00    -0.377 C  
BRANCH  15  17
HETATM   17  C   UNL     1     -10.599  10.443  69.851  1.00  0.00    -0.251 C  
BRANCH  17  18
HETATM   18  N   UNL     1     -10.615   9.249  69.051  1.00  0.00    -0.219 NA 
HETATM   19  C   UNL     1     -10.608   9.154  67.685  1.00  0.00    -0.242 A  
HETATM   20  N   UNL     1     -10.540   7.903  67.285  1.00  0.00    -0.310 NA 
HETATM   21  C   UNL     1     -10.524   7.171  68.451  1.00  0.00    -0.197 A  
HETATM   22  C   UNL     1     -10.446   5.795  68.687  1.00  0.00    -0.229 A  
HETATM   23  N   UNL     1     -10.524   5.348  69.962  1.00  0.00    -0.301 NA 
HETATM   24  N   UNL     1     -10.302   4.886  67.650  1.00  0.00    -0.077 NA 
HETATM   25  C   UNL     1     -10.625   6.261  70.946  1.00  0.00    -0.241 A  
HETATM   26  H1  UNL     1     -10.245   3.881  67.822  1.00  0.00     0.000 HD 
HETATM   27  H2  UNL     1      -9.482   5.157  67.108  1.00  0.00     0.000 HD 
HETATM   28  N   UNL     1     -10.671   7.609  70.849  1.00  0.00    -0.232 NA 
HETATM   29  C   UNL     1     -10.613   7.984  69.562  1.00  0.00    -0.214 A  
ENDBRANCH  17  18
ENDBRANCH  15  17
ENDBRANCH  14  15
ENDBRANCH  13  14
ENDBRANCH  11  13
BRANCH  11  30
HETATM   30  O   UNL     1     -10.854  16.194  67.144  1.00  0.00    -0.302 OA 
BRANCH  30  31
HETATM   31  C   UNL     1     -10.387  17.493  67.243  1.00  0.00    -0.337 A  
HETATM   32  C   UNL     1     -10.489  18.287  66.100  1.00  0.00    -0.403 A  
HETATM   33  C   UNL     1      -9.330  19.342  68.404  1.00  0.00    -0.422 A  
HETATM   34  C   UNL     1      -9.813  18.026  68.401  1.00  0.00    -0.369 A  
HETATM   35  C   UNL     1      -9.414  20.125  67.254  1.00  0.00    -0.532 A  
HETATM   36  C   UNL     1      -9.993  19.596  66.104  1.00  0.00    -0.554 A  
ENDBRANCH  30  31
ENDBRANCH  11  30
ENDBRANCH   9  11
ENDBRANCH   7   9
ENDBRANCH   5   7
ENDBRANCH   4   5
ENDBRANCH   2   4
TORSDOF 12
ENDMDL
MODEL       88
REMARK 921   NORMALIZED FREE ENERGY PREDICTED BY IDOCK:   -5.77 KCAL/MOL
REMARK 922        TOTAL FREE ENERGY PREDICTED BY IDOCK:  -11.54 KCAL/MOL
REMARK 923 INTER-LIGAND FREE ENERGY PREDICTED BY IDOCK:   -9.08 KCAL/MOL
REMARK 924 INTRA-LIGAND FREE ENERGY PREDICTED BY IDOCK:   -2.46 KCAL/MOL
REMARK 927      BINDING AFFINITY PREDICTED BY RF-SCORE:    0.00 PKD
ROOT
HETATM    1  C   UNL     1      -6.291  10.598  66.387  1.00  0.00    -0.109 C  
HETATM    2  C   UNL     1      -7.633  11.143  66.883  1.00  0.00    -0.145 C  
HETATM    3  C   UNL     1      -7.425  12.362  67.791  1.00  0.00    -0.126 C  
ENDROOT
BRANCH   2   4
HETATM    4  O   UNL     1      -8.609  11.298  65.801  1.00  0.00    -0.160 OA 
BRANCH   4   5
HETATM    5  C   UNL     1      -9.588  10.374  65.645  1.00  0.00    -0.226 C  
HETATM    6  O   UNL     1     -10.160  10.178  64.571  1.00  0.00    -0.304 OA 
BRANCH   5   7
HETATM    7  C   UNL     1      -9.989   9.557  66.907  1.00  0.00    -0.216 C  
HETATM    8  C   UNL     1      -9.847   8.065  66.606  1.00  0.00    -0.322 C  
BRANCH   7   9
HETATM    9  N   UNL     1     -11.301   9.855  67.602  1.00  0.00    -0.494 NA 
HETATM   10  H   UNL     1     -11.693   9.017  68.030  1.00  0.00     0.000 HD 
BRANCH   9  11
HETATM   11  P   UNL     1     -11.144  11.159  68.776  1.00  0.00    -0.290 P  
HETATM   12  O   UNL     1     -10.124  10.389  69.651  1.00  0.00    -0.231 OA 
BRANCH  11  13
HETATM   13  C   UNL     1     -12.414  11.026  70.200  1.00  0.00    -0.269 C  
BRANCH  13  14
HETATM   14  O   UNL     1     -11.923  10.230  71.344  1.00  0.00    -0.368 OA 
BRANCH  14  15
HETATM   15  C   UNL     1     -12.552   8.971  71.705  1.00  0.00    -0.367 C  
HETATM   16  C   UNL     1     -13.905   9.238  72.378  1.00  0.00    -0.484 C  
BRANCH  15  17
HETATM   17  C   UNL     1     -11.655   8.000  72.460  1.00  0.00    -0.403 C  
BRANCH  17  18
HETATM   18  N   UNL     1     -10.355   7.789  71.885  1.00  0.00    -0.201 NA 
HETATM   19  C   UNL     1      -9.179   8.405  72.219  1.00  0.00    -0.259 A  
HETATM   20  N   UNL     1      -8.163   7.909  71.547  1.00  0.00    -0.103 NA 
HETATM   21  C   UNL     1      -8.724   6.949  70.735  1.00  0.00    -0.145 A  
HETATM   22  C   UNL     1      -8.161   6.071  69.805  1.00  0.00    -0.118 A  
HETATM   23  N   UNL     1      -8.983   5.270  69.087  1.00  0.00    -0.102 NA 
HETATM   24  N   UNL     1      -6.792   6.009  69.597  1.00  0.00    -0.062 NA 
HETATM   25  C   UNL     1     -10.304   5.329  69.342  1.00  0.00    -0.243 A  
HETATM   26  H1  UNL     1      -6.381   5.368  68.918  1.00  0.00     0.000 HD 
HETATM   27  H2  UNL     1      -6.346   5.839  70.498  1.00  0.00     0.000 HD 
HETATM   28  N   UNL     1     -10.959   6.103  70.236  1.00  0.00    -0.320 NA 
HETATM   29  C   UNL     1     -10.093   6.886  70.896  1.00  0.00    -0.194 A  
ENDBRANCH  17  18
ENDBRANCH  15  17
ENDBRANCH  14  15
ENDBRANCH  13  14
ENDBRANCH  11  13
BRANCH  11  30
HETATM   30  O   UNL     1     -12.283  12.019  67.798  1.00  0.00    -0.474 OA 
BRANCH  30  31
HETATM   31  C   UNL     1     -11.756  12.872  66.845  1.00  0.00    -0.382 A  
HETATM   32  C   UNL     1     -12.318  12.815  65.569  1.00  0.00    -0.495 A  
HETATM   33  C   UNL     1     -10.197  14.556  66.056  1.00  0.00    -0.329 A  
HETATM   34  C   UNL     1     -10.697  13.752  67.090  1.00  0.00    -0.283 A  
HETATM   35  C   UNL     1     -10.748  14.480  64.778  1.00  0.00    -0.414 A  
HETATM   36  C   UNL     1     -11.807  13.609  64.536  1.00  0.00    -0.445 A  
ENDBRANCH  30  31
ENDBRANCH  11  30
ENDBRANCH   9  11
ENDBRANCH   7   9
ENDBRANCH   5   7
ENDBRANCH   4   5
ENDBRANCH   2   4
TORSDOF 12
ENDMDL
MODEL       89
REMARK 921   NORMALIZED FREE ENERGY PREDICTED BY IDOCK:   -5.76 KCAL/MOL
REMARK 922        TOTAL FREE ENERGY PREDICTED BY IDOCK:  -11.51 KCAL/MOL
REMARK 923 INTER-LIGAND FREE ENERGY PREDICTED BY IDOCK:   -9.88 KCAL/MOL
REMARK 924 INTRA-LIGAND FREE ENERGY PREDICTED BY IDOCK:   -1.63 KCAL/MOL
REMARK 927      BINDING AFFINITY PREDICTED BY RF-SCORE:    0.00 PKD
ROOT
HETATM    1  C   UNL     1      -9.363   5.883  72.989  1.00  0.00    -0.140 C  
HETATM    2  C   UNL     1      -9.897   4.509  72.579  1.00  0.00    -0.161 C  
HETATM    3  C   UNL     1     -11.189   4.176  73.337  1.00  0.00    -0.339 C  
ENDROOT
BRANCH   2   4
HETATM    4  O   UNL     1      -9.935   4.333  71.124  1.00  0.00    -0.189 OA 
BRANCH   4   5
HETATM    5  C   UNL     1      -8.791   4.049  70.455  1.00  0.00    -0.083 C  
HETATM    6  O   UNL     1      -7.812   3.526  70.992  1.00  0.00    -0.050 OA 
BRANCH   5   7
HETATM    7  C   UNL     1      -8.746   4.432  68.948  1.00  0.00    -0.086 C  
HETATM    8  C   UNL     1      -7.621   3.656  68.264  1.00  0.00    -0.061 C  
BRANCH   7   9
HETATM    9  N   UNL     1      -8.727   5.893  68.551  1.00  0.00    -0.113 NA 
HETATM   10  H   UNL     1      -8.047   6.067  67.811  1.00  0.00     0.000 HD 
BRANCH   9  11
HETATM   11  P   UNL     1     -10.327   6.475  68.098  1.00  0.00    -0.239 P  
HETATM   12  O   UNL     1     -10.504   5.429  66.970  1.00  0.00    -0.238 OA 
BRANCH  11  13
HETATM   13  C   UNL     1     -10.263   7.848  66.768  1.00  0.00    -0.287 C  
BRANCH  13  14
HETATM   14  O   UNL     1     -10.905   9.106  67.201  1.00  0.00    -0.212 OA 
BRANCH  14  15
HETATM   15  C   UNL     1     -10.369  10.397  66.800  1.00  0.00    -0.235 C  
HETATM   16  C   UNL     1      -8.882  10.481  67.168  1.00  0.00    -0.140 C  
BRANCH  15  17
HETATM   17  C   UNL     1     -11.195  11.598  67.239  1.00  0.00    -0.304 C  
BRANCH  17  18
HETATM   18  N   UNL     1     -11.433  12.586  66.224  1.00  0.00    -0.348 NA 
HETATM   19  C   UNL     1     -12.264  12.492  65.139  1.00  0.00    -0.448 A  
HETATM   20  N   UNL     1     -12.305  13.617  64.460  1.00  0.00    -0.571 NA 
HETATM   21  C   UNL     1     -11.445  14.456  65.133  1.00  0.00    -0.362 A  
HETATM   22  C   UNL     1     -11.076  15.785  64.910  1.00  0.00    -0.399 A  
HETATM   23  N   UNL     1     -10.136  16.342  65.710  1.00  0.00    -0.420 NA 
HETATM   24  N   UNL     1     -11.640  16.537  63.891  1.00  0.00    -1.578 NA 
HETATM   25  C   UNL     1      -9.637  15.595  66.713  1.00  0.00    -0.240 A  
HETATM   26  H1  UNL     1     -11.370  17.508  63.728  1.00  0.00     0.000 HD 
HETATM   27  H2  UNL     1     -12.653  16.509  64.005  1.00  0.00     0.000 HD 
HETATM   28  N   UNL     1      -9.940  14.322  67.051  1.00  0.00    -0.254 NA 
HETATM   29  C   UNL     1     -10.857  13.823  66.209  1.00  0.00    -0.283 A  
ENDBRANCH  17  18
ENDBRANCH  15  17
ENDBRANCH  14  15
ENDBRANCH  13  14
ENDBRANCH  11  13
BRANCH  11  30
HETATM   30  O   UNL     1     -10.129   7.644  69.359  1.00  0.00    -0.186 OA 
BRANCH  30  31
HETATM   31  C   UNL     1     -11.216   7.840  70.193  1.00  0.00    -0.159 A  
HETATM   32  C   UNL     1     -11.995   6.720  70.485  1.00  0.00    -0.385 A  
HETATM   33  C   UNL     1     -12.713   9.201  71.531  1.00  0.00    -0.409 A  
HETATM   34  C   UNL     1     -11.572   9.083  70.725  1.00  0.00    -0.313 A  
HETATM   35  C   UNL     1     -13.500   8.083  71.804  1.00  0.00    -0.378 A  
HETATM   36  C   UNL     1     -13.140   6.845  71.280  1.00  0.00    -0.273 A  
ENDBRANCH  30  31
ENDBRANCH  11  30
ENDBRANCH   9  11
ENDBRANCH   7   9
ENDBRANCH   5   7
ENDBRANCH   4   5
ENDBRANCH   2   4
TORSDOF 12
ENDMDL
MODEL       90
REMARK 921   NORMALIZED FREE ENERGY PREDICTED BY IDOCK:   -5.73 KCAL/MOL
REMARK 922        TOTAL FREE ENERGY PREDICTED BY IDOCK:  -11.46 KCAL/MOL
REMARK 923 INTER-LIGAND FREE ENERGY PREDICTED BY IDOCK:  -10.49 KCAL/MOL
REMARK 924 INTRA-LIGAND FREE ENERGY PREDICTED BY IDOCK:   -0.98 KCAL/MOL
REMARK 927      BINDING AFFINITY PREDICTED BY RF-SCORE:    0.00 PKD
ROOT
HETATM    1  C   UNL     1      -8.908   8.030  73.461  1.00  0.00    -0.333 C  
HETATM    2  C   UNL     1      -9.921   6.895  73.296  1.00  0.00    -0.215 C  
HETATM    3  C   UNL     1      -9.926   5.984  74.532  1.00  0.00    -0.321 C  
ENDROOT
BRANCH   2   4
HETATM    4  O   UNL     1     -11.228   7.371  72.836  1.00  0.00    -0.327 OA 
BRANCH   4   5
HETATM    5  C   UNL     1     -11.452   7.533  71.509  1.00  0.00    -0.265 C  
HETATM    6  O   UNL     1     -11.599   6.585  70.734  1.00  0.00    -0.343 OA 
BRANCH   5   7
HETATM    7  C   UNL     1     -11.501   8.994  70.978  1.00  0.00    -0.295 C  
HETATM    8  C   UNL     1     -12.649   9.738  71.659  1.00  0.00    -0.509 C  
BRANCH   7   9
HETATM    9  N   UNL     1     -11.492   9.244  69.484  1.00  0.00    -0.427 NA 
HETATM   10  H   UNL     1     -12.024  10.081  69.246  1.00  0.00     0.000 HD 
BRANCH   9  11
HETATM   11  P   UNL     1      -9.856   9.322  68.837  1.00  0.00    -0.177 P  
HETATM   12  O   UNL     1      -9.234   9.778  70.180  1.00  0.00    -0.234 OA 
BRANCH  11  13
HETATM   13  C   UNL     1      -9.435  11.035  68.099  1.00  0.00    -0.172 C  
BRANCH  13  14
HETATM   14  O   UNL     1     -10.091  12.151  68.811  1.00  0.00    -0.184 OA 
BRANCH  14  15
HETATM   15  C   UNL     1     -10.321  13.427  68.152  1.00  0.00    -0.247 C  
HETATM   16  C   UNL     1      -9.111  14.346  68.359  1.00  0.00    -0.193 C  
BRANCH  15  17
HETATM   17  C   UNL     1     -11.664  14.074  68.463  1.00  0.00    -0.352 C  
BRANCH  17  18
HETATM   18  N   UNL     1     -11.729  14.788  69.708  1.00  0.00    -0.292 NA 
HETATM   19  C   UNL     1     -11.263  16.046  69.979  1.00  0.00    -0.362 A  
HETATM   20  N   UNL     1     -11.567  16.424  71.202  1.00  0.00    -0.331 NA 
HETATM   21  C   UNL     1     -12.238  15.347  71.737  1.00  0.00    -0.379 A  
HETATM   22  C   UNL     1     -12.822  15.142  72.990  1.00  0.00    -0.468 A  
HETATM   23  N   UNL     1     -13.362  13.932  73.265  1.00  0.00    -0.366 NA 
HETATM   24  N   UNL     1     -12.853  16.140  73.952  1.00  0.00    -0.775 NA 
HETATM   25  C   UNL     1     -13.349  12.999  72.296  1.00  0.00    -0.506 A  
HETATM   26  H1  UNL     1     -13.279  15.991  74.866  1.00  0.00     0.000 HD 
HETATM   27  H2  UNL     1     -13.287  16.963  73.534  1.00  0.00     0.000 HD 
HETATM   28  N   UNL     1     -12.852  13.088  71.041  1.00  0.00    -0.250 NA 
HETATM   29  C   UNL     1     -12.313  14.300  70.841  1.00  0.00    -0.359 A  
ENDBRANCH  17  18
ENDBRANCH  15  17
ENDBRANCH  14  15
ENDBRANCH  13  14
ENDBRANCH  11  13
BRANCH  11  30
HETATM   30  O   UNL     1     -10.551   8.811  67.337  1.00  0.00    -0.279 OA 
BRANCH  30  31
HETATM   31  C   UNL     1     -10.156   7.571  66.866  1.00  0.00    -0.266 A  
HETATM   32  C   UNL     1      -8.890   7.492  66.284  1.00  0.00    -0.184 A  
HETATM   33  C   UNL     1     -10.495   5.216  66.390  1.00  0.00    -0.356 A  
HETATM   34  C   UNL     1     -10.957   6.426  66.926  1.00  0.00    -0.413 A  
HETATM   35  C   UNL     1      -9.238   5.148  65.791  1.00  0.00    -0.162 A  
HETATM   36  C   UNL     1      -8.438   6.286  65.738  1.00  0.00    -0.148 A  
ENDBRANCH  30  31
ENDBRANCH  11  30
ENDBRANCH   9  11
ENDBRANCH   7   9
ENDBRANCH   5   7
ENDBRANCH   4   5
ENDBRANCH   2   4
TORSDOF 12
ENDMDL
MODEL       91
REMARK 921   NORMALIZED FREE ENERGY PREDICTED BY IDOCK:   -5.72 KCAL/MOL
REMARK 922        TOTAL FREE ENERGY PREDICTED BY IDOCK:  -11.45 KCAL/MOL
REMARK 923 INTER-LIGAND FREE ENERGY PREDICTED BY IDOCK:   -9.14 KCAL/MOL
REMARK 924 INTRA-LIGAND FREE ENERGY PREDICTED BY IDOCK:   -2.31 KCAL/MOL
REMARK 927      BINDING AFFINITY PREDICTED BY RF-SCORE:    0.00 PKD
ROOT
HETATM    1  C   UNL     1      -7.688   6.644  67.485  1.00  0.00    -0.110 C  
HETATM    2  C   UNL     1      -6.507   7.603  67.320  1.00  0.00    -0.058 C  
HETATM    3  C   UNL     1      -5.415   6.979  66.439  1.00  0.00    -0.023 C  
ENDROOT
BRANCH   2   4
HETATM    4  O   UNL     1      -6.931   8.960  66.963  1.00  0.00    -0.073 OA 
BRANCH   4   5
HETATM    5  C   UNL     1      -7.594   9.714  67.874  1.00  0.00    -0.083 C  
HETATM    6  O   UNL     1      -7.051  10.191  68.872  1.00  0.00    -0.064 OA 
BRANCH   5   7
HETATM    7  C   UNL     1      -9.110   9.951  67.618  1.00  0.00    -0.131 C  
HETATM    8  C   UNL     1      -9.392   9.831  66.121  1.00  0.00    -0.243 C  
BRANCH   7   9
HETATM    9  N   UNL     1      -9.783  11.172  68.208  1.00  0.00    -0.181 NA 
HETATM   10  H   UNL     1      -9.944  11.886  67.498  1.00  0.00     0.000 HD 
BRANCH   9  11
HETATM   11  P   UNL     1     -11.275  10.761  69.050  1.00  0.00    -0.300 P  
HETATM   12  O   UNL     1     -12.180  11.459  68.005  1.00  0.00    -0.607 OA 
BRANCH  11  13
HETATM   13  C   UNL     1     -11.789  12.087  70.329  1.00  0.00    -0.270 C  
BRANCH  13  14
HETATM   14  O   UNL     1     -12.408  13.279  69.714  1.00  0.00    -0.240 OA 
BRANCH  14  15
HETATM   15  C   UNL     1     -11.788  14.589  69.831  1.00  0.00    -0.317 C  
HETATM   16  C   UNL     1     -12.436  15.371  70.980  1.00  0.00    -0.469 C  
BRANCH  15  17
HETATM   17  C   UNL     1     -11.678  15.364  68.525  1.00  0.00    -0.338 C  
BRANCH  17  18
HETATM   18  N   UNL     1     -10.858  14.754  67.515  1.00  0.00    -0.280 NA 
HETATM   19  C   UNL     1      -9.514  14.499  67.566  1.00  0.00    -0.203 A  
HETATM   20  N   UNL     1      -9.101  13.851  66.498  1.00  0.00    -0.196 NA 
HETATM   21  C   UNL     1     -10.232  13.707  65.726  1.00  0.00    -0.308 A  
HETATM   22  C   UNL     1     -10.443  13.094  64.488  1.00  0.00    -0.405 A  
HETATM   23  N   UNL     1     -11.672  13.170  63.926  1.00  0.00    -0.440 NA 
HETATM   24  N   UNL     1      -9.427  12.424  63.824  1.00  0.00    -0.551 NA 
HETATM   25  C   UNL     1     -12.644  13.795  64.615  1.00  0.00    -0.246 A  
HETATM   26  H1  UNL     1      -9.580  11.977  62.920  1.00  0.00     0.000 HD 
HETATM   27  H2  UNL     1      -9.047  11.723  64.460  1.00  0.00     0.000 HD 
HETATM   28  N   UNL     1     -12.575  14.389  65.828  1.00  0.00    -0.359 NA 
HETATM   29  C   UNL     1     -11.329  14.298  66.318  1.00  0.00    -0.346 A  
ENDBRANCH  17  18
ENDBRANCH  15  17
ENDBRANCH  14  15
ENDBRANCH  13  14
ENDBRANCH  11  13
BRANCH  11  30
HETATM   30  O   UNL     1     -10.263   9.982  70.218  1.00  0.00    -0.268 OA 
BRANCH  30  31
HETATM   31  C   UNL     1     -10.738   8.796  70.750  1.00  0.00    -0.228 A  
HETATM   32  C   UNL     1     -10.881   7.723  69.869  1.00  0.00    -0.228 A  
HETATM   33  C   UNL     1     -11.603   7.408  72.542  1.00  0.00    -0.319 A  
HETATM   34  C   UNL     1     -11.093   8.634  72.093  1.00  0.00    -0.434 A  
HETATM   35  C   UNL     1     -11.764   6.346  71.654  1.00  0.00    -0.367 A  
HETATM   36  C   UNL     1     -11.403   6.505  70.318  1.00  0.00    -0.456 A  
ENDBRANCH  30  31
ENDBRANCH  11  30
ENDBRANCH   9  11
ENDBRANCH   7   9
ENDBRANCH   5   7
ENDBRANCH   4   5
ENDBRANCH   2   4
TORSDOF 12
ENDMDL
MODEL       92
REMARK 921   NORMALIZED FREE ENERGY PREDICTED BY IDOCK:   -5.72 KCAL/MOL
REMARK 922        TOTAL FREE ENERGY PREDICTED BY IDOCK:  -11.45 KCAL/MOL
REMARK 923 INTER-LIGAND FREE ENERGY PREDICTED BY IDOCK:   -9.80 KCAL/MOL
REMARK 924 INTRA-LIGAND FREE ENERGY PREDICTED BY IDOCK:   -1.65 KCAL/MOL
REMARK 927      BINDING AFFINITY PREDICTED BY RF-SCORE:    0.00 PKD
ROOT
HETATM    1  C   UNL     1     -12.603  16.189  74.146  1.00  0.00    -0.669 C  
HETATM    2  C   UNL     1     -12.964  15.109  73.124  1.00  0.00    -0.518 C  
HETATM    3  C   UNL     1     -14.207  15.513  72.319  1.00  0.00    -0.617 C  
ENDROOT
BRANCH   2   4
HETATM    4  O   UNL     1     -11.805  14.661  72.346  1.00  0.00    -0.224 OA 
BRANCH   4   5
HETATM    5  C   UNL     1     -11.705  15.002  71.038  1.00  0.00    -0.332 C  
HETATM    6  O   UNL     1     -11.517  16.160  70.659  1.00  0.00    -0.379 OA 
BRANCH   5   7
HETATM    7  C   UNL     1     -11.858  13.853  70.000  1.00  0.00    -0.315 C  
HETATM    8  C   UNL     1     -12.523  12.653  70.673  1.00  0.00    -0.323 C  
BRANCH   7   9
HETATM    9  N   UNL     1     -10.660  13.428  69.178  1.00  0.00    -0.436 NA 
HETATM   10  H   UNL     1     -10.551  12.414  69.177  1.00  0.00     0.000 HD 
BRANCH   9  11
HETATM   11  P   UNL     1     -10.727  14.064  67.536  1.00  0.00    -0.273 P  
HETATM   12  O   UNL     1     -12.079  13.382  67.215  1.00  0.00    -0.361 OA 
BRANCH  11  13
HETATM   13  C   UNL     1      -9.882  12.913  66.264  1.00  0.00    -0.273 C  
BRANCH  13  14
HETATM   14  O   UNL     1      -8.862  12.030  66.867  1.00  0.00    -0.186 OA 
BRANCH  14  15
HETATM   15  C   UNL     1      -8.841  10.606  66.579  1.00  0.00    -0.151 C  
HETATM   16  C   UNL     1      -7.919  10.329  65.385  1.00  0.00    -0.148 C  
BRANCH  15  17
HETATM   17  C   UNL     1     -10.212   9.952  66.480  1.00  0.00    -0.222 C  
BRANCH  17  18
HETATM   18  N   UNL     1     -10.428   8.838  67.362  1.00  0.00    -0.280 NA 
HETATM   19  C   UNL     1     -10.579   7.519  67.026  1.00  0.00    -0.339 A  
HETATM   20  N   UNL     1     -10.673   6.754  68.092  1.00  0.00    -0.230 NA 
HETATM   21  C   UNL     1     -10.599   7.631  69.151  1.00  0.00    -0.186 A  
HETATM   22  C   UNL     1     -10.625   7.426  70.534  1.00  0.00    -0.224 A  
HETATM   23  N   UNL     1     -10.604   8.505  71.351  1.00  0.00    -0.227 NA 
HETATM   24  N   UNL     1     -10.681   6.154  71.081  1.00  0.00    -0.246 NA 
HETATM   25  C   UNL     1     -10.512   9.724  70.787  1.00  0.00    -0.269 A  
HETATM   26  H1  UNL     1     -10.700   6.005  72.090  1.00  0.00     0.000 HD 
HETATM   27  H2  UNL     1      -9.903   5.615  70.700  1.00  0.00     0.000 HD 
HETATM   28  N   UNL     1     -10.441  10.046  69.475  1.00  0.00    -0.222 NA 
HETATM   29  C   UNL     1     -10.489   8.938  68.721  1.00  0.00    -0.200 A  
ENDBRANCH  17  18
ENDBRANCH  15  17
ENDBRANCH  14  15
ENDBRANCH  13  14
ENDBRANCH  11  13
BRANCH  11  30
HETATM   30  O   UNL     1      -9.216  14.827  67.896  1.00  0.00    -0.185 OA 
BRANCH  30  31
HETATM   31  C   UNL     1      -9.194  16.209  67.836  1.00  0.00    -0.200 A  
HETATM   32  C   UNL     1     -10.331  16.835  67.324  1.00  0.00    -0.304 A  
HETATM   33  C   UNL     1      -8.149  18.383  68.106  1.00  0.00    -0.305 A  
HETATM   34  C   UNL     1      -8.103  16.987  68.236  1.00  0.00    -0.228 A  
HETATM   35  C   UNL     1      -9.279  19.002  67.574  1.00  0.00    -0.325 A  
HETATM   36  C   UNL     1     -10.368  18.227  67.183  1.00  0.00    -0.402 A  
ENDBRANCH  30  31
ENDBRANCH  11  30
ENDBRANCH   9  11
ENDBRANCH   7   9
ENDBRANCH   5   7
ENDBRANCH   4   5
ENDBRANCH   2   4
TORSDOF 12
ENDMDL
MODEL       93
REMARK 921   NORMALIZED FREE ENERGY PREDICTED BY IDOCK:   -5.71 KCAL/MOL
REMARK 922        TOTAL FREE ENERGY PREDICTED BY IDOCK:  -11.42 KCAL/MOL
REMARK 923 INTER-LIGAND FREE ENERGY PREDICTED BY IDOCK:  -10.38 KCAL/MOL
REMARK 924 INTRA-LIGAND FREE ENERGY PREDICTED BY IDOCK:   -1.05 KCAL/MOL
REMARK 927      BINDING AFFINITY PREDICTED BY RF-SCORE:    0.00 PKD
ROOT
HETATM    1  C   UNL     1     -10.933   6.359  69.317  1.00  0.00    -0.418 C  
HETATM    2  C   UNL     1     -10.209   7.081  68.179  1.00  0.00    -0.181 C  
HETATM    3  C   UNL     1     -10.435   6.360  66.843  1.00  0.00    -0.340 C  
ENDROOT
BRANCH   2   4
HETATM    4  O   UNL     1     -10.452   8.526  68.186  1.00  0.00    -0.217 OA 
BRANCH   4   5
HETATM    5  C   UNL     1      -9.622   9.348  67.498  1.00  0.00    -0.141 C  
HETATM    6  O   UNL     1      -8.395   9.305  67.606  1.00  0.00    -0.115 OA 
BRANCH   5   7
HETATM    7  C   UNL     1     -10.289  10.389  66.554  1.00  0.00    -0.224 C  
HETATM    8  C   UNL     1      -9.866  10.106  65.114  1.00  0.00    -0.394 C  
BRANCH   7   9
HETATM    9  N   UNL     1     -10.183  11.864  66.879  1.00  0.00    -0.206 NA 
HETATM   10  H   UNL     1      -9.782  12.387  66.101  1.00  0.00     0.000 HD 
BRANCH   9  11
HETATM   11  P   UNL     1     -11.730  12.544  67.375  1.00  0.00    -0.245 P  
HETATM   12  O   UNL     1     -12.387  12.332  65.989  1.00  0.00    -0.609 OA 
BRANCH  11  13
HETATM   13  C   UNL     1     -11.829  14.434  67.095  1.00  0.00    -0.410 C  
BRANCH  13  14
HETATM   14  O   UNL     1     -10.502  15.079  67.015  1.00  0.00    -0.269 OA 
BRANCH  14  15
HETATM   15  C   UNL     1     -10.234  16.118  66.035  1.00  0.00    -0.356 C  
HETATM   16  C   UNL     1     -10.939  15.784  64.714  1.00  0.00    -0.410 C  
BRANCH  15  17
HETATM   17  C   UNL     1      -8.766  16.494  65.886  1.00  0.00    -0.083 C  
BRANCH  17  18
HETATM   18  N   UNL     1      -8.270  17.430  66.857  1.00  0.00    -0.219 NA 
HETATM   19  C   UNL     1      -8.392  17.370  68.219  1.00  0.00    -0.248 A  
HETATM   20  N   UNL     1      -7.743  18.350  68.809  1.00  0.00    -0.292 NA 
HETATM   21  C   UNL     1      -7.202  19.077  67.771  1.00  0.00    -0.236 A  
HETATM   22  C   UNL     1      -6.399  20.220  67.754  1.00  0.00    -0.237 A  
HETATM   23  N   UNL     1      -6.070  20.766  66.560  1.00  0.00    -0.217 NA 
HETATM   24  N   UNL     1      -5.943  20.808  68.924  1.00  0.00    -0.350 NA 
HETATM   25  C   UNL     1      -6.498  20.147  65.443  1.00  0.00    -0.265 A  
HETATM   26  H1  UNL     1      -5.356  21.643  68.911  1.00  0.00     0.000 HD 
HETATM   27  H2  UNL     1      -5.457  20.093  69.465  1.00  0.00     0.000 HD 
HETATM   28  N   UNL     1      -7.242  19.024  65.330  1.00  0.00    -0.472 NA 
HETATM   29  C   UNL     1      -7.552  18.548  66.546  1.00  0.00    -0.246 A  
ENDBRANCH  17  18
ENDBRANCH  15  17
ENDBRANCH  14  15
ENDBRANCH  13  14
ENDBRANCH  11  13
BRANCH  11  30
HETATM   30  O   UNL     1     -10.996  12.781  68.925  1.00  0.00    -0.245 OA 
BRANCH  30  31
HETATM   31  C   UNL     1     -11.836  12.709  70.022  1.00  0.00    -0.285 A  
HETATM   32  C   UNL     1     -12.334  13.917  70.513  1.00  0.00    -0.439 A  
HETATM   33  C   UNL     1     -13.011  11.534  71.789  1.00  0.00    -0.500 A  
HETATM   34  C   UNL     1     -12.183  11.513  70.658  1.00  0.00    -0.473 A  
HETATM   35  C   UNL     1     -13.489  12.744  72.289  1.00  0.00    -0.591 A  
HETATM   36  C   UNL     1     -13.149  13.933  71.651  1.00  0.00    -0.446 A  
ENDBRANCH  30  31
ENDBRANCH  11  30
ENDBRANCH   9  11
ENDBRANCH   7   9
ENDBRANCH   5   7
ENDBRANCH   4   5
ENDBRANCH   2   4
TORSDOF 12
ENDMDL
MODEL       94
REMARK 921   NORMALIZED FREE ENERGY PREDICTED BY IDOCK:   -5.69 KCAL/MOL
REMARK 922        TOTAL FREE ENERGY PREDICTED BY IDOCK:  -11.40 KCAL/MOL
REMARK 923 INTER-LIGAND FREE ENERGY PREDICTED BY IDOCK:   -9.84 KCAL/MOL
REMARK 924 INTRA-LIGAND FREE ENERGY PREDICTED BY IDOCK:   -1.57 KCAL/MOL
REMARK 927      BINDING AFFINITY PREDICTED BY RF-SCORE:    0.00 PKD
ROOT
HETATM    1  C   UNL     1     -13.492   8.961  72.170  1.00  0.00    -0.497 C  
HETATM    2  C   UNL     1     -12.238   8.088  72.089  1.00  0.00    -0.331 C  
HETATM    3  C   UNL     1     -12.596   6.654  71.676  1.00  0.00    -0.315 C  
ENDROOT
BRANCH   2   4
HETATM    4  O   UNL     1     -11.156   8.729  71.336  1.00  0.00    -0.249 OA 
BRANCH   4   5
HETATM    5  C   UNL     1     -10.250   7.961  70.682  1.00  0.00    -0.196 C  
HETATM    6  O   UNL     1      -9.371   7.320  71.262  1.00  0.00    -0.155 OA 
BRANCH   5   7
HETATM    7  C   UNL     1     -10.349   7.928  69.130  1.00  0.00    -0.219 C  
HETATM    8  C   UNL     1     -10.562   6.487  68.670  1.00  0.00    -0.289 C  
BRANCH   7   9
HETATM    9  N   UNL     1      -9.286   8.619  68.302  1.00  0.00    -0.137 NA 
HETATM   10  H   UNL     1      -9.046   8.071  67.476  1.00  0.00     0.000 HD 
BRANCH   9  11
HETATM   11  P   UNL     1      -9.752  10.260  67.865  1.00  0.00    -0.151 P  
HETATM   12  O   UNL     1      -9.166  10.883  69.156  1.00  0.00    -0.157 OA 
BRANCH  11  13
HETATM   13  C   UNL     1     -11.505  10.718  68.481  1.00  0.00    -0.292 C  
BRANCH  13  14
HETATM   14  O   UNL     1     -11.799  12.162  68.374  1.00  0.00    -0.319 OA 
BRANCH  14  15
HETATM   15  C   UNL     1     -11.804  13.013  69.552  1.00  0.00    -0.323 C  
HETATM   16  C   UNL     1     -12.327  12.228  70.761  1.00  0.00    -0.383 C  
BRANCH  15  17
HETATM   17  C   UNL     1     -12.457  14.374  69.355  1.00  0.00    -0.078 C  
BRANCH  17  18
HETATM   18  N   UNL     1     -11.599  15.397  68.824  1.00  0.00    -0.351 NA 
HETATM   19  C   UNL     1     -10.954  16.392  69.510  1.00  0.00    -0.317 A  
HETATM   20  N   UNL     1     -10.180  17.104  68.720  1.00  0.00    -0.314 NA 
HETATM   21  C   UNL     1     -10.360  16.549  67.473  1.00  0.00    -0.294 A  
HETATM   22  C   UNL     1      -9.802  16.854  66.228  1.00  0.00    -0.302 A  
HETATM   23  N   UNL     1     -10.227  16.171  65.140  1.00  0.00    -0.542 NA 
HETATM   24  N   UNL     1      -8.838  17.840  66.084  1.00  0.00    -0.489 NA 
HETATM   25  C   UNL     1     -11.136  15.194  65.322  1.00  0.00    -0.383 A  
HETATM   26  H1  UNL     1      -8.431  18.064  65.175  1.00  0.00     0.000 HD 
HETATM   27  H2  UNL     1      -8.074  17.627  66.725  1.00  0.00     0.000 HD 
HETATM   28  N   UNL     1     -11.717  14.782  66.472  1.00  0.00    -0.319 NA 
HETATM   29  C   UNL     1     -11.271  15.513  67.505  1.00  0.00    -0.272 A  
ENDBRANCH  17  18
ENDBRANCH  15  17
ENDBRANCH  14  15
ENDBRANCH  13  14
ENDBRANCH  11  13
BRANCH  11  30
HETATM   30  O   UNL     1     -10.407   9.565  66.422  1.00  0.00    -0.240 OA 
BRANCH  30  31
HETATM   31  C   UNL     1      -9.920  10.059  65.225  1.00  0.00    -0.298 A  
HETATM   32  C   UNL     1     -10.559  11.183  64.701  1.00  0.00    -0.386 A  
HETATM   33  C   UNL     1      -8.451  10.025  63.294  1.00  0.00    -0.183 A  
HETATM   34  C   UNL     1      -8.857   9.484  64.522  1.00  0.00    -0.249 A  
HETATM   35  C   UNL     1      -9.106  11.136  62.765  1.00  0.00    -0.353 A  
HETATM   36  C   UNL     1     -10.159  11.713  63.469  1.00  0.00    -0.455 A  
ENDBRANCH  30  31
ENDBRANCH  11  30
ENDBRANCH   9  11
ENDBRANCH   7   9
ENDBRANCH   5   7
ENDBRANCH   4   5
ENDBRANCH   2   4
TORSDOF 12
ENDMDL
MODEL       95
REMARK 921   NORMALIZED FREE ENERGY PREDICTED BY IDOCK:   -5.69 KCAL/MOL
REMARK 922        TOTAL FREE ENERGY PREDICTED BY IDOCK:  -11.40 KCAL/MOL
REMARK 923 INTER-LIGAND FREE ENERGY PREDICTED BY IDOCK:  -10.04 KCAL/MOL
REMARK 924 INTRA-LIGAND FREE ENERGY PREDICTED BY IDOCK:   -1.36 KCAL/MOL
REMARK 927      BINDING AFFINITY PREDICTED BY RF-SCORE:    0.00 PKD
ROOT
HETATM    1  C   UNL     1      -8.352  10.365  67.833  1.00  0.00    -0.114 C  
HETATM    2  C   UNL     1      -8.446  11.886  67.975  1.00  0.00    -0.162 C  
HETATM    3  C   UNL     1      -7.136  12.465  68.527  1.00  0.00    -0.100 C  
ENDROOT
BRANCH   2   4
HETATM    4  O   UNL     1      -8.984  12.529  66.773  1.00  0.00    -0.209 OA 
BRANCH   4   5
HETATM    5  C   UNL     1     -10.326  12.574  66.582  1.00  0.00    -0.227 C  
HETATM    6  O   UNL     1     -10.955  11.667  66.033  1.00  0.00    -0.289 OA 
BRANCH   5   7
HETATM    7  C   UNL     1     -11.063  13.851  67.077  1.00  0.00    -0.301 C  
HETATM    8  C   UNL     1     -12.384  13.993  66.324  1.00  0.00    -0.482 C  
BRANCH   7   9
HETATM    9  N   UNL     1     -10.316  15.167  67.133  1.00  0.00    -0.259 NA 
HETATM   10  H   UNL     1     -10.609  15.791  66.381  1.00  0.00     0.000 HD 
BRANCH   9  11
HETATM   11  P   UNL     1     -10.467  15.947  68.705  1.00  0.00    -0.270 P  
HETATM   12  O   UNL     1      -9.972  14.705  69.486  1.00  0.00    -0.090 OA 
BRANCH  11  13
HETATM   13  C   UNL     1     -12.197  15.705  69.485  1.00  0.00    -0.207 C  
BRANCH  13  14
HETATM   14  O   UNL     1     -12.180  14.827  70.673  1.00  0.00    -0.278 OA 
BRANCH  14  15
HETATM   15  C   UNL     1     -13.385  14.147  71.119  1.00  0.00    -0.265 C  
HETATM   16  C   UNL     1     -14.313  15.142  71.827  1.00  0.00    -0.696 C  
BRANCH  15  17
HETATM   17  C   UNL     1     -13.145  12.855  71.886  1.00  0.00    -0.373 C  
BRANCH  17  18
HETATM   18  N   UNL     1     -12.599  11.773  71.114  1.00  0.00    -0.361 NA 
HETATM   19  C   UNL     1     -11.841  11.853  69.977  1.00  0.00    -0.328 A  
HETATM   20  N   UNL     1     -11.437  10.666  69.578  1.00  0.00    -0.269 NA 
HETATM   21  C   UNL     1     -11.982   9.793  70.493  1.00  0.00    -0.206 A  
HETATM   22  C   UNL     1     -11.902   8.403  70.616  1.00  0.00    -0.092 A  
HETATM   23  N   UNL     1     -12.614   7.795  71.593  1.00  0.00    -0.324 NA 
HETATM   24  N   UNL     1     -11.124   7.639  69.760  1.00  0.00    -0.421 NA 
HETATM   25  C   UNL     1     -13.329   8.571  72.430  1.00  0.00    -0.282 A  
HETATM   26  H1  UNL     1     -11.066   6.624  69.849  1.00  0.00     0.000 HD 
HETATM   27  H2  UNL     1     -10.174   8.011  69.785  1.00  0.00     0.000 HD 
HETATM   28  N   UNL     1     -13.454   9.917  72.437  1.00  0.00    -0.323 NA 
HETATM   29  C   UNL     1     -12.745  10.455  71.433  1.00  0.00    -0.446 A  
ENDBRANCH  17  18
ENDBRANCH  15  17
ENDBRANCH  14  15
ENDBRANCH  13  14
ENDBRANCH  11  13
BRANCH  11  30
HETATM   30  O   UNL     1     -11.021  17.335  67.832  1.00  0.00    -0.336 OA 
BRANCH  30  31
HETATM   31  C   UNL     1     -10.082  18.320  67.582  1.00  0.00    -0.356 A  
HETATM   32  C   UNL     1     -10.555  19.629  67.477  1.00  0.00    -0.577 A  
HETATM   33  C   UNL     1      -7.838  19.120  67.124  1.00  0.00    -0.269 A  
HETATM   34  C   UNL     1      -8.717  18.067  67.413  1.00  0.00    -0.248 A  
HETATM   35  C   UNL     1      -8.318  20.423  66.999  1.00  0.00    -0.349 A  
HETATM   36  C   UNL     1      -9.676  20.675  67.175  1.00  0.00    -0.530 A  
ENDBRANCH  30  31
ENDBRANCH  11  30
ENDBRANCH   9  11
ENDBRANCH   7   9
ENDBRANCH   5   7
ENDBRANCH   4   5
ENDBRANCH   2   4
TORSDOF 12
ENDMDL
MODEL       96
REMARK 921   NORMALIZED FREE ENERGY PREDICTED BY IDOCK:   -5.68 KCAL/MOL
REMARK 922        TOTAL FREE ENERGY PREDICTED BY IDOCK:  -11.38 KCAL/MOL
REMARK 923 INTER-LIGAND FREE ENERGY PREDICTED BY IDOCK:   -9.67 KCAL/MOL
REMARK 924 INTRA-LIGAND FREE ENERGY PREDICTED BY IDOCK:   -1.71 KCAL/MOL
REMARK 927      BINDING AFFINITY PREDICTED BY RF-SCORE:    0.00 PKD
ROOT
HETATM    1  C   UNL     1      -5.201  15.862  70.612  1.00  0.00    -0.168 C  
HETATM    2  C   UNL     1      -6.414  15.548  69.734  1.00  0.00    -0.167 C  
HETATM    3  C   UNL     1      -6.978  16.828  69.102  1.00  0.00    -0.231 C  
ENDROOT
BRANCH   2   4
HETATM    4  O   UNL     1      -6.173  14.426  68.823  1.00  0.00    -0.080 OA 
BRANCH   4   5
HETATM    5  C   UNL     1      -6.776  13.234  69.053  1.00  0.00    -0.107 C  
HETATM    6  O   UNL     1      -6.393  12.445  69.919  1.00  0.00    -0.124 OA 
BRANCH   5   7
HETATM    7  C   UNL     1      -7.992  12.878  68.152  1.00  0.00    -0.153 C  
HETATM    8  C   UNL     1      -8.094  13.897  67.018  1.00  0.00    -0.016 C  
BRANCH   7   9
HETATM    9  N   UNL     1      -9.343  12.626  68.789  1.00  0.00    -0.405 NA 
HETATM   10  H   UNL     1     -10.029  13.318  68.488  1.00  0.00     0.000 HD 
BRANCH   9  11
HETATM   11  P   UNL     1      -9.917  10.987  68.493  1.00  0.00    -0.202 P  
HETATM   12  O   UNL     1      -8.682  10.594  67.647  1.00  0.00    -0.121 OA 
BRANCH  11  13
HETATM   13  C   UNL     1     -10.995  10.856  66.918  1.00  0.00    -0.223 C  
BRANCH  13  14
HETATM   14  O   UNL     1     -10.491  11.680  65.800  1.00  0.00    -0.246 OA 
BRANCH  14  15
HETATM   15  C   UNL     1     -11.403  12.433  64.955  1.00  0.00    -0.320 C  
HETATM   16  C   UNL     1     -11.503  11.771  63.575  1.00  0.00    -0.489 C  
BRANCH  15  17
HETATM   17  C   UNL     1     -11.149  13.934  64.916  1.00  0.00    -0.369 C  
BRANCH  17  18
HETATM   18  N   UNL     1     -11.260  14.609  66.180  1.00  0.00    -0.338 NA 
HETATM   19  C   UNL     1     -11.837  14.146  67.332  1.00  0.00    -0.413 A  
HETATM   20  N   UNL     1     -11.686  14.993  68.326  1.00  0.00    -0.330 NA 
HETATM   21  C   UNL     1     -11.000  16.052  67.773  1.00  0.00    -0.307 A  
HETATM   22  C   UNL     1     -10.533  17.248  68.324  1.00  0.00    -0.385 A  
HETATM   23  N   UNL     1      -9.941  18.152  67.508  1.00  0.00    -0.318 NA 
HETATM   24  N   UNL     1     -10.669  17.532  69.674  1.00  0.00    -0.196 NA 
HETATM   25  C   UNL     1      -9.791  17.828  66.210  1.00  0.00    -0.294 A  
HETATM   26  H1  UNL     1     -10.328  18.405  70.076  1.00  0.00     0.000 HD 
HETATM   27  H2  UNL     1     -10.253  16.762  70.199  1.00  0.00     0.000 HD 
HETATM   28  N   UNL     1     -10.163  16.696  65.572  1.00  0.00    -0.596 NA 
HETATM   29  C   UNL     1     -10.761  15.855  66.429  1.00  0.00    -0.256 A  
ENDBRANCH  17  18
ENDBRANCH  15  17
ENDBRANCH  14  15
ENDBRANCH  13  14
ENDBRANCH  11  13
BRANCH  11  30
HETATM   30  O   UNL     1     -11.299  11.427  69.439  1.00  0.00    -0.253 OA 
BRANCH  30  31
HETATM   31  C   UNL     1     -11.689  10.526  70.414  1.00  0.00    -0.344 A  
HETATM   32  C   UNL     1     -10.717   9.636  70.874  1.00  0.00    -0.402 A  
HETATM   33  C   UNL     1     -13.307   9.486  71.892  1.00  0.00    -0.518 A  
HETATM   34  C   UNL     1     -12.986  10.455  70.932  1.00  0.00    -0.475 A  
HETATM   35  C   UNL     1     -12.339   8.585  72.333  1.00  0.00    -0.424 A  
HETATM   36  C   UNL     1     -11.046   8.661  71.823  1.00  0.00    -0.396 A  
ENDBRANCH  30  31
ENDBRANCH  11  30
ENDBRANCH   9  11
ENDBRANCH   7   9
ENDBRANCH   5   7
ENDBRANCH   4   5
ENDBRANCH   2   4
TORSDOF 12
ENDMDL
MODEL       97
REMARK 921   NORMALIZED FREE ENERGY PREDICTED BY IDOCK:   -5.66 KCAL/MOL
REMARK 922        TOTAL FREE ENERGY PREDICTED BY IDOCK:  -11.35 KCAL/MOL
REMARK 923 INTER-LIGAND FREE ENERGY PREDICTED BY IDOCK:  -10.70 KCAL/MOL
REMARK 924 INTRA-LIGAND FREE ENERGY PREDICTED BY IDOCK:   -0.65 KCAL/MOL
REMARK 927      BINDING AFFINITY PREDICTED BY RF-SCORE:    0.00 PKD
ROOT
HETATM    1  C   UNL     1     -14.133   8.620  71.716  1.00  0.00    -0.499 C  
HETATM    2  C   UNL     1     -12.677   8.360  72.109  1.00  0.00    -0.356 C  
HETATM    3  C   UNL     1     -12.227   6.967  71.648  1.00  0.00    -0.403 C  
ENDROOT
BRANCH   2   4
HETATM    4  O   UNL     1     -11.794   9.476  71.760  1.00  0.00    -0.377 OA 
BRANCH   4   5
HETATM    5  C   UNL     1     -10.837   9.302  70.815  1.00  0.00    -0.284 C  
HETATM    6  O   UNL     1      -9.654   9.094  71.089  1.00  0.00    -0.267 OA 
BRANCH   5   7
HETATM    7  C   UNL     1     -11.293   9.394  69.330  1.00  0.00     0.110 C  
HETATM    8  C   UNL     1     -10.068   9.301  68.421  1.00  0.00    -0.215 C  
BRANCH   7   9
HETATM    9  N   UNL     1     -12.212  10.519  68.902  1.00  0.00    -0.773 NA 
HETATM   10  H   UNL     1     -12.882  10.750  69.636  1.00  0.00     0.000 HD 
BRANCH   9  11
HETATM   11  P   UNL     1     -11.315  11.944  68.385  1.00  0.00    -0.332 P  
HETATM   12  O   UNL     1     -10.450  11.995  69.668  1.00  0.00     0.250 OA 
BRANCH  11  13
HETATM   13  C   UNL     1     -12.151  13.578  68.925  1.00  0.00    -0.279 C  
BRANCH  13  14
HETATM   14  O   UNL     1     -11.611  14.115  70.192  1.00  0.00    -0.266 OA 
BRANCH  14  15
HETATM   15  C   UNL     1     -11.266  15.521  70.322  1.00  0.00    -0.326 C  
HETATM   16  C   UNL     1     -11.866  16.087  71.616  1.00  0.00    -0.582 C  
BRANCH  15  17
HETATM   17  C   UNL     1     -11.535  16.363  69.083  1.00  0.00    -0.188 C  
BRANCH  17  18
HETATM   18  N   UNL     1     -10.422  16.510  68.186  1.00  0.00    -0.298 NA 
HETATM   19  C   UNL     1      -9.873  15.560  67.366  1.00  0.00    -0.224 A  
HETATM   20  N   UNL     1      -8.917  16.061  66.615  1.00  0.00    -0.234 NA 
HETATM   21  C   UNL     1      -8.842  17.383  66.990  1.00  0.00    -0.234 A  
HETATM   22  C   UNL     1      -8.034  18.434  66.546  1.00  0.00    -0.271 A  
HETATM   23  N   UNL     1      -8.135  19.635  67.160  1.00  0.00    -0.273 NA 
HETATM   24  N   UNL     1      -7.133  18.270  65.505  1.00  0.00    -0.545 NA 
HETATM   25  C   UNL     1      -9.046  19.770  68.141  1.00  0.00    -0.314 A  
HETATM   26  H1  UNL     1      -6.543  19.037  65.181  1.00  0.00     0.000 HD 
HETATM   27  H2  UNL     1      -7.646  17.908  64.701  1.00  0.00     0.000 HD 
HETATM   28  N   UNL     1      -9.905  18.847  68.630  1.00  0.00    -0.390 NA 
HETATM   29  C   UNL     1      -9.739  17.676  67.997  1.00  0.00    -0.301 A  
ENDBRANCH  17  18
ENDBRANCH  15  17
ENDBRANCH  14  15
ENDBRANCH  13  14
ENDBRANCH  11  13
BRANCH  11  30
HETATM   30  O   UNL     1     -12.282  11.887  66.951  1.00  0.00    -0.493 OA 
BRANCH  30  31
HETATM   31  C   UNL     1     -11.599  11.862  65.748  1.00  0.00    -0.215 A  
HETATM   32  C   UNL     1     -12.215  12.484  64.661  1.00  0.00    -0.524 A  
HETATM   33  C   UNL     1      -9.753  11.227  64.307  1.00  0.00    -0.295 A  
HETATM   34  C   UNL     1     -10.360  11.239  65.571  1.00  0.00    -0.321 A  
HETATM   35  C   UNL     1     -10.382  11.832  63.220  1.00  0.00    -0.446 A  
HETATM   36  C   UNL     1     -11.612  12.459  63.398  1.00  0.00    -0.541 A  
ENDBRANCH  30  31
ENDBRANCH  11  30
ENDBRANCH   9  11
ENDBRANCH   7   9
ENDBRANCH   5   7
ENDBRANCH   4   5
ENDBRANCH   2   4
TORSDOF 12
ENDMDL
MODEL       98
REMARK 921   NORMALIZED FREE ENERGY PREDICTED BY IDOCK:   -5.66 KCAL/MOL
REMARK 922        TOTAL FREE ENERGY PREDICTED BY IDOCK:  -11.34 KCAL/MOL
REMARK 923 INTER-LIGAND FREE ENERGY PREDICTED BY IDOCK:   -9.77 KCAL/MOL
REMARK 924 INTRA-LIGAND FREE ENERGY PREDICTED BY IDOCK:   -1.57 KCAL/MOL
REMARK 927      BINDING AFFINITY PREDICTED BY RF-SCORE:    0.00 PKD
ROOT
HETATM    1  C   UNL     1     -13.568   9.005  71.767  1.00  0.00    -0.468 C  
HETATM    2  C   UNL     1     -12.183   8.356  71.838  1.00  0.00    -0.343 C  
HETATM    3  C   UNL     1     -12.088   7.165  70.874  1.00  0.00    -0.368 C  
ENDROOT
BRANCH   2   4
HETATM    4  O   UNL     1     -11.098   9.338  71.765  1.00  0.00    -0.364 OA 
BRANCH   4   5
HETATM    5  C   UNL     1      -9.824   8.915  71.577  1.00  0.00    -0.314 C  
HETATM    6  O   UNL     1      -9.205   8.259  72.418  1.00  0.00    -0.206 OA 
BRANCH   5   7
HETATM    7  C   UNL     1      -9.144   9.310  70.235  1.00  0.00    -0.237 C  
HETATM    8  C   UNL     1      -7.636   9.430  70.452  1.00  0.00    -0.152 C  
BRANCH   7   9
HETATM    9  N   UNL     1      -9.682  10.485  69.446  1.00  0.00    -0.349 NA 
HETATM   10  H   UNL     1      -9.179  11.344  69.671  1.00  0.00     0.000 HD 
BRANCH   9  11
HETATM   11  P   UNL     1      -9.673  10.176  67.712  1.00  0.00    -0.160 P  
HETATM   12  O   UNL     1      -9.031  11.541  67.365  1.00  0.00    -0.151 OA 
BRANCH  11  13
HETATM   13  C   UNL     1     -11.281  10.751  66.852  1.00  0.00    -0.032 C  
BRANCH  13  14
HETATM   14  O   UNL     1     -11.131  12.038  66.140  1.00  0.00    -0.296 OA 
BRANCH  14  15
HETATM   15  C   UNL     1     -12.228  12.601  65.372  1.00  0.00    -0.459 C  
HETATM   16  C   UNL     1     -12.096  12.192  63.899  1.00  0.00    -0.584 C  
BRANCH  15  17
HETATM   17  C   UNL     1     -12.469  14.087  65.594  1.00  0.00    -0.504 C  
BRANCH  17  18
HETATM   18  N   UNL     1     -11.303  14.855  65.935  1.00  0.00    -0.332 NA 
HETATM   19  C   UNL     1     -10.300  15.273  65.102  1.00  0.00    -0.381 A  
HETATM   20  N   UNL     1      -9.429  16.030  65.733  1.00  0.00    -0.400 NA 
HETATM   21  C   UNL     1      -9.891  16.077  67.029  1.00  0.00    -0.236 A  
HETATM   22  C   UNL     1      -9.409  16.732  68.166  1.00  0.00    -0.234 A  
HETATM   23  N   UNL     1     -10.042  16.535  69.346  1.00  0.00    -0.255 NA 
HETATM   24  N   UNL     1      -8.300  17.563  68.114  1.00  0.00    -0.241 NA 
HETATM   25  C   UNL     1     -11.137  15.752  69.354  1.00  0.00    -0.314 A  
HETATM   26  H1  UNL     1      -7.948  18.040  68.945  1.00  0.00     0.000 HD 
HETATM   27  H2  UNL     1      -8.471  18.267  67.397  1.00  0.00     0.000 HD 
HETATM   28  N   UNL     1     -11.719  15.101  68.321  1.00  0.00    -0.338 NA 
HETATM   29  C   UNL     1     -11.032  15.318  67.189  1.00  0.00    -0.331 A  
ENDBRANCH  17  18
ENDBRANCH  15  17
ENDBRANCH  14  15
ENDBRANCH  13  14
ENDBRANCH  11  13
BRANCH  11  30
HETATM   30  O   UNL     1     -10.390   8.649  68.100  1.00  0.00    -0.211 OA 
BRANCH  30  31
HETATM   31  C   UNL     1     -10.040   7.581  67.293  1.00  0.00    -0.231 A  
HETATM   32  C   UNL     1     -10.924   6.502  67.257  1.00  0.00    -0.475 A  
HETATM   33  C   UNL     1      -8.562   6.387  65.784  1.00  0.00    -0.152 A  
HETATM   34  C   UNL     1      -8.858   7.526  66.547  1.00  0.00    -0.167 A  
HETATM   35  C   UNL     1      -9.438   5.304  65.768  1.00  0.00    -0.132 A  
HETATM   36  C   UNL     1     -10.618   5.363  66.505  1.00  0.00    -0.353 A  
ENDBRANCH  30  31
ENDBRANCH  11  30
ENDBRANCH   9  11
ENDBRANCH   7   9
ENDBRANCH   5   7
ENDBRANCH   4   5
ENDBRANCH   2   4
TORSDOF 12
ENDMDL
MODEL       99
REMARK 921   NORMALIZED FREE ENERGY PREDICTED BY IDOCK:   -5.65 KCAL/MOL
REMARK 922        TOTAL FREE ENERGY PREDICTED BY IDOCK:  -11.33 KCAL/MOL
REMARK 923 INTER-LIGAND FREE ENERGY PREDICTED BY IDOCK:   -9.79 KCAL/MOL
REMARK 924 INTRA-LIGAND FREE ENERGY PREDICTED BY IDOCK:   -1.54 KCAL/MOL
REMARK 927      BINDING AFFINITY PREDICTED BY RF-SCORE:    0.00 PKD
ROOT
HETATM    1  C   UNL     1      -8.259   7.303  69.872  1.00  0.00    -0.133 C  
HETATM    2  C   UNL     1      -9.436   6.480  69.344  1.00  0.00    -0.145 C  
HETATM    3  C   UNL     1      -9.789   5.345  70.315  1.00  0.00    -0.272 C  
ENDROOT
BRANCH   2   4
HETATM    4  O   UNL     1     -10.550   7.319  68.894  1.00  0.00    -0.208 OA 
BRANCH   4   5
HETATM    5  C   UNL     1     -10.709   7.567  67.570  1.00  0.00    -0.226 C  
HETATM    6  O   UNL     1     -11.090   6.710  66.769  1.00  0.00    -0.354 OA 
BRANCH   5   7
HETATM    7  C   UNL     1     -10.369   9.003  67.079  1.00  0.00    -0.269 C  
HETATM    8  C   UNL     1      -9.366   8.917  65.930  1.00  0.00    -0.301 C  
BRANCH   7   9
HETATM    9  N   UNL     1      -9.962  10.057  68.087  1.00  0.00    -0.149 NA 
HETATM   10  H   UNL     1      -9.178  10.613  67.745  1.00  0.00     0.000 HD 
BRANCH   9  11
HETATM   11  P   UNL     1     -11.316  11.083  68.554  1.00  0.00    -0.315 P  
HETATM   12  O   UNL     1     -11.779  11.316  67.095  1.00  0.00    -0.533 OA 
BRANCH  11  13
HETATM   13  C   UNL     1     -10.839  12.931  68.662  1.00  0.00    -0.258 C  
BRANCH  13  14
HETATM   14  O   UNL     1     -10.739  13.584  67.340  1.00  0.00    -0.259 OA 
BRANCH  14  15
HETATM   15  C   UNL     1     -11.392  14.857  67.082  1.00  0.00    -0.343 C  
HETATM   16  C   UNL     1     -10.877  15.450  65.765  1.00  0.00    -0.349 C  
BRANCH  15  17
HETATM   17  C   UNL     1     -11.386  15.828  68.255  1.00  0.00    -0.354 C  
BRANCH  17  18
HETATM   18  N   UNL     1     -10.410  16.879  68.178  1.00  0.00    -0.318 NA 
HETATM   19  C   UNL     1     -10.598  18.171  67.765  1.00  0.00    -0.389 A  
HETATM   20  N   UNL     1      -9.505  18.889  67.904  1.00  0.00    -0.297 NA 
HETATM   21  C   UNL     1      -8.576  18.006  68.407  1.00  0.00    -0.290 A  
HETATM   22  C   UNL     1      -7.238  18.172  68.777  1.00  0.00    -0.279 A  
HETATM   23  N   UNL     1      -6.537  17.088  69.181  1.00  0.00    -0.219 NA 
HETATM   24  N   UNL     1      -6.617  19.411  68.729  1.00  0.00    -0.274 NA 
HETATM   25  C   UNL     1      -7.181  15.908  69.252  1.00  0.00    -0.217 A  
HETATM   26  H1  UNL     1      -5.640  19.532  68.998  1.00  0.00     0.000 HD 
HETATM   27  H2  UNL     1      -7.177  20.063  69.279  1.00  0.00     0.000 HD 
HETATM   28  N   UNL     1      -8.472  15.630  68.961  1.00  0.00    -0.212 NA 
HETATM   29  C   UNL     1      -9.104  16.739  68.546  1.00  0.00    -0.241 A  
ENDBRANCH  17  18
ENDBRANCH  15  17
ENDBRANCH  14  15
ENDBRANCH  13  14
ENDBRANCH  11  13
BRANCH  11  30
HETATM   30  O   UNL     1     -10.799  10.821  70.185  1.00  0.00    -0.234 OA 
BRANCH  30  31
HETATM   31  C   UNL     1     -11.615  10.026  70.969  1.00  0.00    -0.393 A  
HETATM   32  C   UNL     1     -10.998   8.987  71.668  1.00  0.00    -0.435 A  
HETATM   33  C   UNL     1     -13.757   9.320  71.863  1.00  0.00    -0.464 A  
HETATM   34  C   UNL     1     -12.999  10.196  71.074  1.00  0.00    -0.473 A  
HETATM   35  C   UNL     1     -13.139   8.272  72.542  1.00  0.00    -0.129 A  
HETATM   36  C   UNL     1     -11.760   8.107  72.444  1.00  0.00    -0.461 A  
ENDBRANCH  30  31
ENDBRANCH  11  30
ENDBRANCH   9  11
ENDBRANCH   7   9
ENDBRANCH   5   7
ENDBRANCH   4   5
ENDBRANCH   2   4
TORSDOF 12
ENDMDL
MODEL      100
REMARK 921   NORMALIZED FREE ENERGY PREDICTED BY IDOCK:   -5.63 KCAL/MOL
REMARK 922        TOTAL FREE ENERGY PREDICTED BY IDOCK:  -11.29 KCAL/MOL
REMARK 923 INTER-LIGAND FREE ENERGY PREDICTED BY IDOCK:   -9.52 KCAL/MOL
REMARK 924 INTRA-LIGAND FREE ENERGY PREDICTED BY IDOCK:   -1.78 KCAL/MOL
REMARK 927      BINDING AFFINITY PREDICTED BY RF-SCORE:    0.00 PKD
ROOT
HETATM    1  C   UNL     1      -9.757  10.701  62.978  1.00  0.00    -0.362 C  
HETATM    2  C   UNL     1     -10.442  11.611  64.001  1.00  0.00    -0.367 C  
HETATM    3  C   UNL     1     -11.848  12.005  63.527  1.00  0.00    -0.587 C  
ENDROOT
BRANCH   2   4
HETATM    4  O   UNL     1     -10.339  11.094  65.368  1.00  0.00    -0.255 OA 
BRANCH   4   5
HETATM    5  C   UNL     1      -9.602  11.768  66.285  1.00  0.00    -0.225 C  
HETATM    6  O   UNL     1      -9.163  12.903  66.089  1.00  0.00    -0.154 OA 
BRANCH   5   7
HETATM    7  C   UNL     1      -9.304  11.033  67.623  1.00  0.00    -0.157 C  
HETATM    8  C   UNL     1      -9.603   9.544  67.457  1.00  0.00    -0.176 C  
BRANCH   7   9
HETATM    9  N   UNL     1      -9.888  11.571  68.913  1.00  0.00    -0.384 NA 
HETATM   10  H   UNL     1     -10.090  12.568  68.841  1.00  0.00     0.000 HD 
BRANCH   9  11
HETATM   11  P   UNL     1     -11.310  10.665  69.423  1.00  0.00    -0.305 P  
HETATM   12  O   UNL     1     -12.257  11.396  68.441  1.00  0.00    -0.571 OA 
BRANCH  11  13
HETATM   13  C   UNL     1     -12.231  11.496  70.878  1.00  0.00    -0.322 C  
BRANCH  13  14
HETATM   14  O   UNL     1     -12.896  12.760  70.498  1.00  0.00    -0.047 OA 
BRANCH  14  15
HETATM   15  C   UNL     1     -12.227  14.038  70.669  1.00  0.00    -0.372 C  
HETATM   16  C   UNL     1     -12.858  14.805  71.838  1.00  0.00    -0.395 C  
BRANCH  15  17
HETATM   17  C   UNL     1     -12.069  14.854  69.393  1.00  0.00    -0.262 C  
BRANCH  17  18
HETATM   18  N   UNL     1     -10.728  15.270  69.090  1.00  0.00    -0.239 NA 
HETATM   19  C   UNL     1      -9.654  15.321  69.938  1.00  0.00    -0.047 A  
HETATM   20  N   UNL     1      -8.554  15.669  69.307  1.00  0.00    -0.252 NA 
HETATM   21  C   UNL     1      -8.953  15.869  68.004  1.00  0.00    -0.182 A  
HETATM   22  C   UNL     1      -8.243  16.235  66.858  1.00  0.00    -0.226 A  
HETATM   23  N   UNL     1      -8.925  16.429  65.705  1.00  0.00    -0.373 NA 
HETATM   24  N   UNL     1      -6.868  16.413  66.878  1.00  0.00    -0.211 NA 
HETATM   25  C   UNL     1     -10.253  16.211  65.712  1.00  0.00    -0.374 A  
HETATM   26  H1  UNL     1      -6.350  16.680  66.041  1.00  0.00     0.000 HD 
HETATM   27  H2  UNL     1      -6.448  15.559  67.246  1.00  0.00     0.000 HD 
HETATM   28  N   UNL     1     -11.041  15.820  66.739  1.00  0.00    -0.192 NA 
HETATM   29  C   UNL     1     -10.310  15.668  67.854  1.00  0.00    -0.259 A  
ENDBRANCH  17  18
ENDBRANCH  15  17
ENDBRANCH  14  15
ENDBRANCH  13  14
ENDBRANCH  11  13
BRANCH  11  30
HETATM   30  O   UNL     1     -10.250   9.847  70.520  1.00  0.00    -0.278 OA 
BRANCH  30  31
HETATM   31  C   UNL     1     -10.706   8.648  71.038  1.00  0.00    -0.228 A  
HETATM   32  C   UNL     1     -10.500   8.431  72.401  1.00  0.00    -0.402 A  
HETATM   33  C   UNL     1     -11.727   6.453  70.869  1.00  0.00    -0.366 A  
HETATM   34  C   UNL     1     -11.330   7.658  70.272  1.00  0.00    -0.197 A  
HETATM   35  C   UNL     1     -11.500   6.233  72.227  1.00  0.00    -0.351 A  
HETATM   36  C   UNL     1     -10.887   7.222  72.990  1.00  0.00    -0.399 A  
ENDBRANCH  30  31
ENDBRANCH  11  30
ENDBRANCH   9  11
ENDBRANCH   7   9
ENDBRANCH   5   7
ENDBRANCH   4   5
ENDBRANCH   2   4
TORSDOF 12
ENDMDL
MODEL      101
REMARK 921   NORMALIZED FREE ENERGY PREDICTED BY IDOCK:   -5.62 KCAL/MOL
REMARK 922        TOTAL FREE ENERGY PREDICTED BY IDOCK:  -11.27 KCAL/MOL
REMARK 923 INTER-LIGAND FREE ENERGY PREDICTED BY IDOCK:   -9.77 KCAL/MOL
REMARK 924 INTRA-LIGAND FREE ENERGY PREDICTED BY IDOCK:   -1.50 KCAL/MOL
REMARK 927      BINDING AFFINITY PREDICTED BY RF-SCORE:    0.00 PKD
ROOT
HETATM    1  C   UNL     1      -8.528   5.823  69.077  1.00  0.00    -0.104 C  
HETATM    2  C   UNL     1      -8.997   6.339  70.440  1.00  0.00    -0.154 C  
HETATM    3  C   UNL     1      -9.625   5.207  71.265  1.00  0.00    -0.218 C  
ENDROOT
BRANCH   2   4
HETATM    4  O   UNL     1      -7.978   7.147  71.115  1.00  0.00    -0.100 OA 
BRANCH   4   5
HETATM    5  C   UNL     1      -8.220   8.457  71.364  1.00  0.00    -0.139 C  
HETATM    6  O   UNL     1      -8.670   8.864  72.436  1.00  0.00    -0.400 OA 
BRANCH   5   7
HETATM    7  C   UNL     1      -7.917   9.457  70.211  1.00  0.00    -0.161 C  
HETATM    8  C   UNL     1      -6.516  10.036  70.402  1.00  0.00    -0.125 C  
BRANCH   7   9
HETATM    9  N   UNL     1      -8.921  10.542  69.883  1.00  0.00    -0.343 NA 
HETATM   10  H   UNL     1      -8.499  11.280  69.320  1.00  0.00     0.000 HD 
BRANCH   9  11
HETATM   11  P   UNL     1     -10.365   9.894  69.108  1.00  0.00    -0.237 P  
HETATM   12  O   UNL     1      -9.635   9.574  67.781  1.00  0.00    -0.131 OA 
BRANCH  11  13
HETATM   13  C   UNL     1     -11.374  11.235  68.191  1.00  0.00    -0.303 C  
BRANCH  13  14
HETATM   14  O   UNL     1     -10.652  11.821  67.043  1.00  0.00    -0.217 OA 
BRANCH  14  15
HETATM   15  C   UNL     1     -11.338  12.107  65.794  1.00  0.00    -0.354 C  
HETATM   16  C   UNL     1     -10.328  12.145  64.641  1.00  0.00    -0.328 C  
BRANCH  15  17
HETATM   17  C   UNL     1     -12.285  13.298  65.841  1.00  0.00    -0.441 C  
BRANCH  17  18
HETATM   18  N   UNL     1     -11.679  14.576  65.586  1.00  0.00    -0.347 NA 
HETATM   19  C   UNL     1     -11.551  15.219  64.385  1.00  0.00    -0.263 A  
HETATM   20  N   UNL     1     -11.021  16.414  64.527  1.00  0.00    -0.788 NA 
HETATM   21  C   UNL     1     -10.782  16.524  65.879  1.00  0.00    -0.190 A  
HETATM   22  C   UNL     1     -10.246  17.560  66.649  1.00  0.00    -0.332 A  
HETATM   23  N   UNL     1     -10.060  17.357  67.974  1.00  0.00    -0.308 NA 
HETATM   24  N   UNL     1      -9.895  18.779  66.088  1.00  0.00    -0.478 NA 
HETATM   25  C   UNL     1     -10.447  16.176  68.492  1.00  0.00    -0.269 A  
HETATM   26  H1  UNL     1      -9.504  19.535  66.650  1.00  0.00     0.000 HD 
HETATM   27  H2  UNL     1     -10.712  19.144  65.597  1.00  0.00     0.000 HD 
HETATM   28  N   UNL     1     -11.008  15.119  67.863  1.00  0.00    -0.292 NA 
HETATM   29  C   UNL     1     -11.143  15.376  66.553  1.00  0.00    -0.227 A  
ENDBRANCH  17  18
ENDBRANCH  15  17
ENDBRANCH  14  15
ENDBRANCH  13  14
ENDBRANCH  11  13
BRANCH  11  30
HETATM   30  O   UNL     1     -11.179  10.252  70.593  1.00  0.00    -0.315 OA 
BRANCH  30  31
HETATM   31  C   UNL     1     -12.144   9.348  71.000  1.00  0.00    -0.298 A  
HETATM   32  C   UNL     1     -13.316   9.878  71.540  1.00  0.00    -0.462 A  
HETATM   33  C   UNL     1     -13.005   7.113  71.388  1.00  0.00    -0.419 A  
HETATM   34  C   UNL     1     -11.992   7.960  70.916  1.00  0.00    -0.211 A  
HETATM   35  C   UNL     1     -14.165   7.647  71.946  1.00  0.00    -0.492 A  
HETATM   36  C   UNL     1     -14.319   9.028  72.021  1.00  0.00    -0.327 A  
ENDBRANCH  30  31
ENDBRANCH  11  30
ENDBRANCH   9  11
ENDBRANCH   7   9
ENDBRANCH   5   7
ENDBRANCH   4   5
ENDBRANCH   2   4
TORSDOF 12
ENDMDL
MODEL      102
REMARK 921   NORMALIZED FREE ENERGY PREDICTED BY IDOCK:   -5.61 KCAL/MOL
REMARK 922        TOTAL FREE ENERGY PREDICTED BY IDOCK:  -11.27 KCAL/MOL
REMARK 923 INTER-LIGAND FREE ENERGY PREDICTED BY IDOCK:   -9.53 KCAL/MOL
REMARK 924 INTRA-LIGAND FREE ENERGY PREDICTED BY IDOCK:   -1.73 KCAL/MOL
REMARK 927      BINDING AFFINITY PREDICTED BY RF-SCORE:    0.00 PKD
ROOT
HETATM    1  C   UNL     1      -8.752   7.316  65.993  1.00  0.00    -0.168 C  
HETATM    2  C   UNL     1      -9.695   7.413  67.195  1.00  0.00    -0.171 C  
HETATM    3  C   UNL     1     -10.817   6.369  67.093  1.00  0.00    -0.467 C  
ENDROOT
BRANCH   2   4
HETATM    4  O   UNL     1      -8.976   7.470  68.470  1.00  0.00    -0.130 OA 
BRANCH   4   5
HETATM    5  C   UNL     1      -8.212   8.552  68.759  1.00  0.00    -0.122 C  
HETATM    6  O   UNL     1      -6.992   8.488  68.918  1.00  0.00    -0.060 OA 
BRANCH   5   7
HETATM    7  C   UNL     1      -8.950   9.914  68.905  1.00  0.00    -0.153 C  
HETATM    8  C   UNL     1      -8.006  11.044  68.499  1.00  0.00    -0.137 C  
BRANCH   7   9
HETATM    9  N   UNL     1      -9.669  10.236  70.198  1.00  0.00    -0.387 NA 
HETATM   10  H   UNL     1      -9.528  11.209  70.468  1.00  0.00     0.000 HD 
BRANCH   9  11
HETATM   11  P   UNL     1     -11.383   9.838  70.118  1.00  0.00    -0.200 P  
HETATM   12  O   UNL     1     -11.523  10.276  68.639  1.00  0.00    -0.212 OA 
BRANCH  11  13
HETATM   13  C   UNL     1     -12.505  11.302  70.623  1.00  0.00    -0.348 C  
BRANCH  13  14
HETATM   14  O   UNL     1     -12.004  12.608  70.146  1.00  0.00    -0.346 OA 
BRANCH  14  15
HETATM   15  C   UNL     1     -12.242  13.823  70.908  1.00  0.00    -0.349 C  
HETATM   16  C   UNL     1     -13.116  13.511  72.129  1.00  0.00    -0.487 C  
BRANCH  15  17
HETATM   17  C   UNL     1     -12.715  15.013  70.083  1.00  0.00    -0.224 C  
BRANCH  17  18
HETATM   18  N   UNL     1     -11.711  15.630  69.262  1.00  0.00    -0.358 NA 
HETATM   19  C   UNL     1     -10.834  16.623  69.610  1.00  0.00    -0.282 A  
HETATM   20  N   UNL     1      -9.993  16.892  68.636  1.00  0.00    -0.264 NA 
HETATM   21  C   UNL     1     -10.366  16.045  67.616  1.00  0.00    -0.284 A  
HETATM   22  C   UNL     1      -9.848  15.847  66.334  1.00  0.00    -0.282 A  
HETATM   23  N   UNL     1     -10.476  14.980  65.506  1.00  0.00    -0.335 NA 
HETATM   24  N   UNL     1      -8.720  16.521  65.891  1.00  0.00    -0.467 NA 
HETATM   25  C   UNL     1     -11.545  14.314  65.981  1.00  0.00    -0.360 A  
HETATM   26  H1  UNL     1      -8.342  16.377  64.954  1.00  0.00     0.000 HD 
HETATM   27  H2  UNL     1      -7.971  16.350  66.561  1.00  0.00     0.000 HD 
HETATM   28  N   UNL     1     -12.114  14.390  67.205  1.00  0.00    -0.385 NA 
HETATM   29  C   UNL     1     -11.460  15.281  67.967  1.00  0.00    -0.341 A  
ENDBRANCH  17  18
ENDBRANCH  15  17
ENDBRANCH  14  15
ENDBRANCH  13  14
ENDBRANCH  11  13
BRANCH  11  30
HETATM   30  O   UNL     1     -11.227   9.348  71.770  1.00  0.00    -0.376 OA 
BRANCH  30  31
HETATM   31  C   UNL     1     -11.028   7.997  71.996  1.00  0.00    -0.282 A  
HETATM   32  C   UNL     1     -11.232   7.141  70.913  1.00  0.00    -0.305 A  
HETATM   33  C   UNL     1     -10.520   6.075  73.387  1.00  0.00    -0.264 A  
HETATM   34  C   UNL     1     -10.663   7.462  73.235  1.00  0.00    -0.441 A  
HETATM   35  C   UNL     1     -10.745   5.223  72.307  1.00  0.00    -0.282 A  
HETATM   36  C   UNL     1     -11.101   5.757  71.072  1.00  0.00    -0.264 A  
ENDBRANCH  30  31
ENDBRANCH  11  30
ENDBRANCH   9  11
ENDBRANCH   7   9
ENDBRANCH   5   7
ENDBRANCH   4   5
ENDBRANCH   2   4
TORSDOF 12
ENDMDL
MODEL      103
REMARK 921   NORMALIZED FREE ENERGY PREDICTED BY IDOCK:   -5.61 KCAL/MOL
REMARK 922        TOTAL FREE ENERGY PREDICTED BY IDOCK:  -11.26 KCAL/MOL
REMARK 923 INTER-LIGAND FREE ENERGY PREDICTED BY IDOCK:   -9.17 KCAL/MOL
REMARK 924 INTRA-LIGAND FREE ENERGY PREDICTED BY IDOCK:   -2.10 KCAL/MOL
REMARK 927      BINDING AFFINITY PREDICTED BY RF-SCORE:    0.00 PKD
ROOT
HETATM    1  C   UNL     1      -6.798   9.263  68.001  1.00  0.00    -0.068 C  
HETATM    2  C   UNL     1      -6.577  10.754  67.741  1.00  0.00    -0.064 C  
HETATM    3  C   UNL     1      -6.637  11.061  66.238  1.00  0.00    -0.105 C  
ENDROOT
BRANCH   2   4
HETATM    4  O   UNL     1      -7.396  11.604  68.610  1.00  0.00    -0.098 OA 
BRANCH   4   5
HETATM    5  C   UNL     1      -6.792  12.455  69.475  1.00  0.00     0.082 C  
HETATM    6  O   UNL     1      -6.204  12.075  70.489  1.00  0.00    -0.234 OA 
BRANCH   5   7
HETATM    7  C   UNL     1      -6.885  13.973  69.144  1.00  0.00    -0.112 C  
HETATM    8  C   UNL     1      -5.487  14.586  69.202  1.00  0.00    -0.084 C  
BRANCH   7   9
HETATM    9  N   UNL     1      -7.894  14.833  69.875  1.00  0.00    -0.393 NA 
HETATM   10  H   UNL     1      -7.434  15.566  70.415  1.00  0.00     0.000 HD 
BRANCH   9  11
HETATM   11  P   UNL     1      -9.100  15.508  68.782  1.00  0.00    -0.240 P  
HETATM   12  O   UNL     1      -9.874  14.174  68.643  1.00  0.00    -0.225 OA 
BRANCH  11  13
HETATM   13  C   UNL     1      -8.592  15.366  66.944  1.00  0.00    -0.259 C  
BRANCH  13  14
HETATM   14  O   UNL     1      -9.389  14.372  66.196  1.00  0.00    -0.269 OA 
BRANCH  14  15
HETATM   15  C   UNL     1     -10.211  14.770  65.065  1.00  0.00    -0.344 C  
HETATM   16  C   UNL     1     -10.774  16.177  65.299  1.00  0.00    -0.386 C  
BRANCH  15  17
HETATM   17  C   UNL     1     -11.247  13.741  64.633  1.00  0.00    -0.378 C  
BRANCH  17  18
HETATM   18  N   UNL     1     -10.767  12.391  64.528  1.00  0.00    -0.302 NA 
HETATM   19  C   UNL     1     -10.252  11.768  63.423  1.00  0.00    -0.449 A  
HETATM   20  N   UNL     1      -9.830  10.554  63.703  1.00  0.00    -0.320 NA 
HETATM   21  C   UNL     1     -10.109  10.394  65.042  1.00  0.00    -0.309 A  
HETATM   22  C   UNL     1      -9.884   9.329  65.919  1.00  0.00    -0.265 A  
HETATM   23  N   UNL     1     -10.338   9.428  67.190  1.00  0.00    -0.251 NA 
HETATM   24  N   UNL     1      -9.221   8.180  65.516  1.00  0.00    -0.412 NA 
HETATM   25  C   UNL     1     -10.944  10.573  67.558  1.00  0.00    -0.303 A  
HETATM   26  H1  UNL     1      -9.057   7.403  66.157  1.00  0.00     0.000 HD 
HETATM   27  H2  UNL     1      -8.321   8.459  65.126  1.00  0.00     0.000 HD 
HETATM   28  N   UNL     1     -11.184  11.679  66.818  1.00  0.00    -0.310 NA 
HETATM   29  C   UNL     1     -10.732  11.507  65.567  1.00  0.00    -0.272 A  
ENDBRANCH  17  18
ENDBRANCH  15  17
ENDBRANCH  14  15
ENDBRANCH  13  14
ENDBRANCH  11  13
BRANCH  11  30
HETATM   30  O   UNL     1      -8.235  16.999  68.938  1.00  0.00    -0.254 OA 
BRANCH  30  31
HETATM   31  C   UNL     1      -8.798  18.105  68.324  1.00  0.00    -0.283 A  
HETATM   32  C   UNL     1      -7.918  19.010  67.729  1.00  0.00    -0.292 A  
HETATM   33  C   UNL     1     -10.656  19.526  67.682  1.00  0.00    -0.566 A  
HETATM   34  C   UNL     1     -10.172  18.361  68.293  1.00  0.00    -0.412 A  
HETATM   35  C   UNL     1      -9.772  20.437  67.107  1.00  0.00    -0.601 A  
HETATM   36  C   UNL     1      -8.405  20.178  67.132  1.00  0.00    -0.391 A  
ENDBRANCH  30  31
ENDBRANCH  11  30
ENDBRANCH   9  11
ENDBRANCH   7   9
ENDBRANCH   5   7
ENDBRANCH   4   5
ENDBRANCH   2   4
TORSDOF 12
ENDMDL
MODEL      104
REMARK 921   NORMALIZED FREE ENERGY PREDICTED BY IDOCK:   -5.60 KCAL/MOL
REMARK 922        TOTAL FREE ENERGY PREDICTED BY IDOCK:  -11.25 KCAL/MOL
REMARK 923 INTER-LIGAND FREE ENERGY PREDICTED BY IDOCK:   -9.70 KCAL/MOL
REMARK 924 INTRA-LIGAND FREE ENERGY PREDICTED BY IDOCK:   -1.55 KCAL/MOL
REMARK 927      BINDING AFFINITY PREDICTED BY RF-SCORE:    0.00 PKD
ROOT
HETATM    1  C   UNL     1     -10.190  17.327  65.915  1.00  0.00    -0.273 C  
HETATM    2  C   UNL     1     -10.084  17.915  67.324  1.00  0.00    -0.343 C  
HETATM    3  C   UNL     1     -10.338  19.429  67.305  1.00  0.00    -0.554 C  
ENDROOT
BRANCH   2   4
HETATM    4  O   UNL     1     -10.840  17.142  68.313  1.00  0.00    -0.369 OA 
BRANCH   4   5
HETATM    5  C   UNL     1     -10.208  16.195  69.049  1.00  0.00    -0.250 C  
HETATM    6  O   UNL     1      -8.991  16.199  69.241  1.00  0.00    -0.246 OA 
BRANCH   5   7
HETATM    7  C   UNL     1     -11.093  15.063  69.645  1.00  0.00    -0.273 C  
HETATM    8  C   UNL     1     -11.602  15.493  71.020  1.00  0.00    -0.424 C  
BRANCH   7   9
HETATM    9  N   UNL     1     -10.567  13.644  69.672  1.00  0.00    -0.346 NA 
HETATM   10  H   UNL     1     -10.375  13.338  70.626  1.00  0.00     0.000 HD 
BRANCH   9  11
HETATM   11  P   UNL     1     -11.646  12.523  68.846  1.00  0.00    -0.331 P  
HETATM   12  O   UNL     1     -12.627  12.423  70.041  1.00  0.00    -0.012 OA 
BRANCH  11  13
HETATM   13  C   UNL     1     -11.167  10.693  69.130  1.00  0.00    -0.265 C  
BRANCH  13  14
HETATM   14  O   UNL     1      -9.709  10.462  69.088  1.00  0.00    -0.201 OA 
BRANCH  14  15
HETATM   15  C   UNL     1      -9.143   9.400  68.273  1.00  0.00    -0.128 C  
HETATM   16  C   UNL     1     -10.116   9.033  67.145  1.00  0.00    -0.309 C  
BRANCH  15  17
HETATM   17  C   UNL     1      -8.607   8.209  69.055  1.00  0.00    -0.133 C  
BRANCH  17  18
HETATM   18  N   UNL     1      -9.592   7.461  69.787  1.00  0.00    -0.163 NA 
HETATM   19  C   UNL     1     -10.472   6.531  69.302  1.00  0.00    -0.219 A  
HETATM   20  N   UNL     1     -11.174   5.978  70.266  1.00  0.00    -0.350 NA 
HETATM   21  C   UNL     1     -10.734   6.600  71.412  1.00  0.00    -0.229 A  
HETATM   22  C   UNL     1     -11.086   6.437  72.755  1.00  0.00    -0.248 A  
HETATM   23  N   UNL     1     -10.527   7.254  73.678  1.00  0.00    -0.370 NA 
HETATM   24  N   UNL     1     -11.995   5.471  73.158  1.00  0.00    -0.474 NA 
HETATM   25  C   UNL     1      -9.619   8.155  73.257  1.00  0.00    -0.191 A  
HETATM   26  H1  UNL     1     -12.252   5.351  74.138  1.00  0.00     0.000 HD 
HETATM   27  H2  UNL     1     -11.669   4.570  72.808  1.00  0.00     0.000 HD 
HETATM   28  N   UNL     1      -9.171   8.382  72.001  1.00  0.00    -0.211 NA 
HETATM   29  C   UNL     1      -9.780   7.557  71.135  1.00  0.00    -0.162 A  
ENDBRANCH  17  18
ENDBRANCH  15  17
ENDBRANCH  14  15
ENDBRANCH  13  14
ENDBRANCH  11  13
BRANCH  11  30
HETATM   30  O   UNL     1     -10.551  12.636  67.511  1.00  0.00    -0.218 OA 
BRANCH  30  31
HETATM   31  C   UNL     1     -11.119  12.814  66.262  1.00  0.00    -0.288 A  
HETATM   32  C   UNL     1     -11.947  13.925  66.100  1.00  0.00    -0.449 A  
HETATM   33  C   UNL     1     -11.568  12.175  63.965  1.00  0.00    -0.504 A  
HETATM   34  C   UNL     1     -10.923  11.941  65.188  1.00  0.00    -0.365 A  
HETATM   35  C   UNL     1     -12.410  13.275  63.814  1.00  0.00    -0.440 A  
HETATM   36  C   UNL     1     -12.599  14.148  64.882  1.00  0.00    -0.362 A  
ENDBRANCH  30  31
ENDBRANCH  11  30
ENDBRANCH   9  11
ENDBRANCH   7   9
ENDBRANCH   5   7
ENDBRANCH   4   5
ENDBRANCH   2   4
TORSDOF 12
ENDMDL
MODEL      105
REMARK 921   NORMALIZED FREE ENERGY PREDICTED BY IDOCK:   -5.58 KCAL/MOL
REMARK 922        TOTAL FREE ENERGY PREDICTED BY IDOCK:  -11.22 KCAL/MOL
REMARK 923 INTER-LIGAND FREE ENERGY PREDICTED BY IDOCK:   -9.75 KCAL/MOL
REMARK 924 INTRA-LIGAND FREE ENERGY PREDICTED BY IDOCK:   -1.47 KCAL/MOL
REMARK 927      BINDING AFFINITY PREDICTED BY RF-SCORE:    0.00 PKD
ROOT
HETATM    1  C   UNL     1      -9.314   3.397  69.052  1.00  0.00    -0.239 C  
HETATM    2  C   UNL     1      -9.468   4.538  68.044  1.00  0.00    -0.148 C  
HETATM    3  C   UNL     1      -9.927   4.004  66.680  1.00  0.00    -0.084 C  
ENDROOT
BRANCH   2   4
HETATM    4  O   UNL     1     -10.226   5.668  68.587  1.00  0.00    -0.168 OA 
BRANCH   4   5
HETATM    5  C   UNL     1      -9.567   6.773  69.015  1.00  0.00    -0.135 C  
HETATM    6  O   UNL     1      -8.359   6.942  68.839  1.00  0.00    -0.120 OA 
BRANCH   5   7
HETATM    7  C   UNL     1     -10.406   7.842  69.771  1.00  0.00    -0.219 C  
HETATM    8  C   UNL     1     -11.266   7.151  70.829  1.00  0.00    -0.309 C  
BRANCH   7   9
HETATM    9  N   UNL     1     -11.213   8.851  68.981  1.00  0.00    -0.403 NA 
HETATM   10  H   UNL     1     -12.021   9.177  69.511  1.00  0.00     0.000 HD 
BRANCH   9  11
HETATM   11  P   UNL     1     -10.224  10.201  68.430  1.00  0.00    -0.191 P  
HETATM   12  O   UNL     1      -9.605  10.454  69.826  1.00  0.00    -0.165 OA 
BRANCH  11  13
HETATM   13  C   UNL     1     -11.128  11.881  68.563  1.00  0.00    -0.243 C  
BRANCH  13  14
HETATM   14  O   UNL     1     -12.137  12.083  67.503  1.00  0.00    -0.555 OA 
BRANCH  14  15
HETATM   15  C   UNL     1     -12.074  13.236  66.620  1.00  0.00    -0.361 C  
HETATM   16  C   UNL     1     -12.733  12.900  65.276  1.00  0.00    -0.389 C  
BRANCH  15  17
HETATM   17  C   UNL     1     -10.699  13.878  66.503  1.00  0.00    -0.277 C  
BRANCH  17  18
HETATM   18  N   UNL     1     -10.691  15.232  66.021  1.00  0.00    -0.312 NA 
HETATM   19  C   UNL     1     -10.970  15.673  64.755  1.00  0.00    -0.400 A  
HETATM   20  N   UNL     1     -10.952  16.986  64.684  1.00  0.00    -0.964 NA 
HETATM   21  C   UNL     1     -10.627  17.395  65.958  1.00  0.00    -0.210 A  
HETATM   22  C   UNL     1     -10.470  18.666  66.517  1.00  0.00    -0.420 A  
HETATM   23  N   UNL     1     -10.070  18.764  67.806  1.00  0.00    -0.349 NA 
HETATM   24  N   UNL     1     -10.705  19.819  65.784  1.00  0.00    -0.468 NA 
HETATM   25  C   UNL     1      -9.888  17.625  68.500  1.00  0.00    -0.346 A  
HETATM   26  H1  UNL     1     -10.591  20.747  66.192  1.00  0.00     0.000 HD 
HETATM   27  H2  UNL     1     -11.649  19.760  65.402  1.00  0.00     0.000 HD 
HETATM   28  N   UNL     1     -10.043  16.347  68.085  1.00  0.00    -0.244 NA 
HETATM   29  C   UNL     1     -10.418  16.320  66.797  1.00  0.00    -0.287 A  
ENDBRANCH  17  18
ENDBRANCH  15  17
ENDBRANCH  14  15
ENDBRANCH  13  14
ENDBRANCH  11  13
BRANCH  11  30
HETATM   30  O   UNL     1     -10.916   9.917  66.869  1.00  0.00    -0.134 OA 
BRANCH  30  31
HETATM   31  C   UNL     1     -10.027   9.666  65.838  1.00  0.00    -0.281 A  
HETATM   32  C   UNL     1     -10.096  10.509  64.728  1.00  0.00    -0.406 A  
HETATM   33  C   UNL     1      -8.263   8.410  64.744  1.00  0.00    -0.162 A  
HETATM   34  C   UNL     1      -9.102   8.618  65.848  1.00  0.00    -0.259 A  
HETATM   35  C   UNL     1      -8.350   9.242  63.629  1.00  0.00    -0.185 A  
HETATM   36  C   UNL     1      -9.266  10.290  63.622  1.00  0.00    -0.315 A  
ENDBRANCH  30  31
ENDBRANCH  11  30
ENDBRANCH   9  11
ENDBRANCH   7   9
ENDBRANCH   5   7
ENDBRANCH   4   5
ENDBRANCH   2   4
TORSDOF 12
ENDMDL
MODEL      106
REMARK 921   NORMALIZED FREE ENERGY PREDICTED BY IDOCK:   -5.58 KCAL/MOL
REMARK 922        TOTAL FREE ENERGY PREDICTED BY IDOCK:  -11.21 KCAL/MOL
REMARK 923 INTER-LIGAND FREE ENERGY PREDICTED BY IDOCK:   -9.45 KCAL/MOL
REMARK 924 INTRA-LIGAND FREE ENERGY PREDICTED BY IDOCK:   -1.76 KCAL/MOL
REMARK 927      BINDING AFFINITY PREDICTED BY RF-SCORE:    0.00 PKD
ROOT
HETATM    1  C   UNL     1      -9.939   4.303  71.363  1.00  0.00    -0.238 C  
HETATM    2  C   UNL     1      -9.521   5.769  71.494  1.00  0.00    -0.150 C  
HETATM    3  C   UNL     1      -8.620   6.187  70.324  1.00  0.00    -0.140 C  
ENDROOT
BRANCH   2   4
HETATM    4  O   UNL     1     -10.653   6.651  71.789  1.00  0.00    -0.212 OA 
BRANCH   4   5
HETATM    5  C   UNL     1     -11.354   7.204  70.769  1.00  0.00    -0.289 C  
HETATM    6  O   UNL     1     -11.983   6.533  69.948  1.00  0.00    -0.319 OA 
BRANCH   5   7
HETATM    7  C   UNL     1     -11.323   8.755  70.655  1.00  0.00    -0.254 C  
HETATM    8  C   UNL     1     -12.305   9.353  71.662  1.00  0.00    -0.465 C  
BRANCH   7   9
HETATM    9  N   UNL     1     -11.465   9.405  69.295  1.00  0.00    -0.423 NA 
HETATM   10  H   UNL     1     -11.799  10.365  69.376  1.00  0.00     0.000 HD 
BRANCH   9  11
HETATM   11  P   UNL     1      -9.971   9.325  68.365  1.00  0.00    -0.189 P  
HETATM   12  O   UNL     1      -9.189  10.233  69.347  1.00  0.00    -0.197 OA 
BRANCH  11  13
HETATM   13  C   UNL     1      -9.849  10.704  67.046  1.00  0.00    -0.185 C  
BRANCH  13  14
HETATM   14  O   UNL     1     -11.140  10.995  66.389  1.00  0.00    -0.201 OA 
BRANCH  14  15
HETATM   15  C   UNL     1     -11.678  12.345  66.360  1.00  0.00    -0.391 C  
HETATM   16  C   UNL     1     -12.474  12.562  65.067  1.00  0.00    -0.494 C  
BRANCH  15  17
HETATM   17  C   UNL     1     -10.669  13.443  66.670  1.00  0.00    -0.282 C  
BRANCH  17  18
HETATM   18  N   UNL     1     -11.038  14.334  67.735  1.00  0.00    -0.271 NA 
HETATM   19  C   UNL     1     -10.988  15.702  67.740  1.00  0.00    -0.316 A  
HETATM   20  N   UNL     1     -11.482  16.202  68.851  1.00  0.00    -0.352 NA 
HETATM   21  C   UNL     1     -11.843  15.100  69.593  1.00  0.00    -0.334 A  
HETATM   22  C   UNL     1     -12.434  14.978  70.854  1.00  0.00    -0.345 A  
HETATM   23  N   UNL     1     -12.611  13.741  71.372  1.00  0.00    -0.358 NA 
HETATM   24  N   UNL     1     -12.832  16.089  71.582  1.00  0.00    -0.507 NA 
HETATM   25  C   UNL     1     -12.248  12.683  70.622  1.00  0.00    -0.285 A  
HETATM   26  H1  UNL     1     -13.264  16.000  72.503  1.00  0.00     0.000 HD 
HETATM   27  H2  UNL     1     -13.458  16.640  70.995  1.00  0.00     0.000 HD 
HETATM   28  N   UNL     1     -11.706  12.671  69.383  1.00  0.00    -0.314 NA 
HETATM   29  C   UNL     1     -11.536  13.925  68.938  1.00  0.00    -0.316 A  
ENDBRANCH  17  18
ENDBRANCH  15  17
ENDBRANCH  14  15
ENDBRANCH  13  14
ENDBRANCH  11  13
BRANCH  11  30
HETATM   30  O   UNL     1     -10.845   8.311  67.269  1.00  0.00    -0.232 OA 
BRANCH  30  31
HETATM   31  C   UNL     1     -10.198   7.164  66.843  1.00  0.00    -0.260 A  
HETATM   32  C   UNL     1      -8.911   7.322  66.327  1.00  0.00    -0.185 A  
HETATM   33  C   UNL     1     -10.059   4.783  66.396  1.00  0.00    -0.291 A  
HETATM   34  C   UNL     1     -10.770   5.888  66.885  1.00  0.00    -0.395 A  
HETATM   35  C   UNL     1      -8.782   4.949  65.862  1.00  0.00    -0.127 A  
HETATM   36  C   UNL     1      -8.210   6.218  65.828  1.00  0.00    -0.136 A  
ENDBRANCH  30  31
ENDBRANCH  11  30
ENDBRANCH   9  11
ENDBRANCH   7   9
ENDBRANCH   5   7
ENDBRANCH   4   5
ENDBRANCH   2   4
TORSDOF 12
ENDMDL
MODEL      107
REMARK 921   NORMALIZED FREE ENERGY PREDICTED BY IDOCK:   -5.58 KCAL/MOL
REMARK 922        TOTAL FREE ENERGY PREDICTED BY IDOCK:  -11.21 KCAL/MOL
REMARK 923 INTER-LIGAND FREE ENERGY PREDICTED BY IDOCK:   -9.34 KCAL/MOL
REMARK 924 INTRA-LIGAND FREE ENERGY PREDICTED BY IDOCK:   -1.87 KCAL/MOL
REMARK 927      BINDING AFFINITY PREDICTED BY RF-SCORE:    0.00 PKD
ROOT
HETATM    1  C   UNL     1     -13.745   8.679  72.121  1.00  0.00    -0.462 C  
HETATM    2  C   UNL     1     -12.314   8.148  72.008  1.00  0.00    -0.338 C  
HETATM    3  C   UNL     1     -12.248   6.961  71.036  1.00  0.00    -0.427 C  
ENDROOT
BRANCH   2   4
HETATM    4  O   UNL     1     -11.334   9.216  71.794  1.00  0.00    -0.350 OA 
BRANCH   4   5
HETATM    5  C   UNL     1     -10.017   8.907  71.701  1.00  0.00    -0.327 C  
HETATM    6  O   UNL     1      -9.340   8.558  72.670  1.00  0.00    -0.269 OA 
BRANCH   5   7
HETATM    7  C   UNL     1      -9.366   9.028  70.293  1.00  0.00    -0.198 C  
HETATM    8  C   UNL     1      -7.929   8.513  70.357  1.00  0.00    -0.099 C  
BRANCH   7   9
HETATM    9  N   UNL     1      -9.447  10.343  69.546  1.00  0.00    -0.366 NA 
HETATM   10  H   UNL     1      -8.982  11.090  70.061  1.00  0.00     0.000 HD 
BRANCH   9  11
HETATM   11  P   UNL     1      -8.819  10.210  67.906  1.00  0.00    -0.125 P  
HETATM   12  O   UNL     1      -7.588  11.105  68.192  1.00  0.00    -0.095 OA 
BRANCH  11  13
HETATM   13  C   UNL     1      -9.495  11.570  66.744  1.00  0.00    -0.189 C  
BRANCH  13  14
HETATM   14  O   UNL     1      -9.218  12.938  67.230  1.00  0.00    -0.193 OA 
BRANCH  14  15
HETATM   15  C   UNL     1      -9.804  14.097  66.575  1.00  0.00    -0.290 C  
HETATM   16  C   UNL     1      -8.937  15.336  66.836  1.00  0.00    -0.274 C  
BRANCH  15  17
HETATM   17  C   UNL     1     -11.289  14.300  66.841  1.00  0.00    -0.343 C  
BRANCH  17  18
HETATM   18  N   UNL     1     -11.636  14.586  68.206  1.00  0.00    -0.312 NA 
HETATM   19  C   UNL     1     -11.694  15.809  68.819  1.00  0.00    -0.378 A  
HETATM   20  N   UNL     1     -12.131  15.712  70.056  1.00  0.00    -0.370 NA 
HETATM   21  C   UNL     1     -12.339  14.364  70.242  1.00  0.00    -0.348 A  
HETATM   22  C   UNL     1     -12.811  13.637  71.338  1.00  0.00    -0.360 A  
HETATM   23  N   UNL     1     -12.845  12.286  71.256  1.00  0.00    -0.312 NA 
HETATM   24  N   UNL     1     -13.233  14.263  72.501  1.00  0.00    -0.454 NA 
HETATM   25  C   UNL     1     -12.464  11.713  70.099  1.00  0.00    -0.134 A  
HETATM   26  H1  UNL     1     -13.577  13.732  73.301  1.00  0.00     0.000 HD 
HETATM   27  H2  UNL     1     -13.947  14.945  72.247  1.00  0.00     0.000 HD 
HETATM   28  N   UNL     1     -12.029  12.306  68.964  1.00  0.00    -0.284 NA 
HETATM   29  C   UNL     1     -11.997  13.638  69.119  1.00  0.00    -0.351 A  
ENDBRANCH  17  18
ENDBRANCH  15  17
ENDBRANCH  14  15
ENDBRANCH  13  14
ENDBRANCH  11  13
BRANCH  11  30
HETATM   30  O   UNL     1     -10.194   9.209  67.586  1.00  0.00    -0.205 OA 
BRANCH  30  31
HETATM   31  C   UNL     1      -9.934   7.951  67.072  1.00  0.00    -0.252 A  
HETATM   32  C   UNL     1     -10.902   6.970  67.290  1.00  0.00    -0.403 A  
HETATM   33  C   UNL     1      -8.564   6.310  65.924  1.00  0.00    -0.150 A  
HETATM   34  C   UNL     1      -8.765   7.621  66.379  1.00  0.00    -0.166 A  
HETATM   35  C   UNL     1      -9.524   5.328  66.163  1.00  0.00    -0.170 A  
HETATM   36  C   UNL     1     -10.691   5.659  66.846  1.00  0.00    -0.350 A  
ENDBRANCH  30  31
ENDBRANCH  11  30
ENDBRANCH   9  11
ENDBRANCH   7   9
ENDBRANCH   5   7
ENDBRANCH   4   5
ENDBRANCH   2   4
TORSDOF 12
ENDMDL
MODEL      108
REMARK 921   NORMALIZED FREE ENERGY PREDICTED BY IDOCK:   -5.57 KCAL/MOL
REMARK 922        TOTAL FREE ENERGY PREDICTED BY IDOCK:  -11.19 KCAL/MOL
REMARK 923 INTER-LIGAND FREE ENERGY PREDICTED BY IDOCK:   -9.85 KCAL/MOL
REMARK 924 INTRA-LIGAND FREE ENERGY PREDICTED BY IDOCK:   -1.34 KCAL/MOL
REMARK 927      BINDING AFFINITY PREDICTED BY RF-SCORE:    0.00 PKD
ROOT
HETATM    1  C   UNL     1     -12.769  15.871  73.308  1.00  0.00    -0.650 C  
HETATM    2  C   UNL     1     -13.156  14.753  72.336  1.00  0.00    -0.377 C  
HETATM    3  C   UNL     1     -14.403  15.139  71.529  1.00  0.00    -0.660 C  
ENDROOT
BRANCH   2   4
HETATM    4  O   UNL     1     -12.012  14.259  71.566  1.00  0.00    -0.314 OA 
BRANCH   4   5
HETATM    5  C   UNL     1     -12.204  13.788  70.309  1.00  0.00    -0.359 C  
HETATM    6  O   UNL     1     -12.390  14.526  69.339  1.00  0.00    -0.276 OA 
BRANCH   5   7
HETATM    7  C   UNL     1     -12.201  12.243  70.130  1.00  0.00    -0.226 C  
HETATM    8  C   UNL     1     -12.808  11.592  71.371  1.00  0.00    -0.489 C  
BRANCH   7   9
HETATM    9  N   UNL     1     -10.924  11.545  69.711  1.00  0.00    -0.461 NA 
HETATM   10  H   UNL     1     -10.861  10.612  70.118  1.00  0.00     0.000 HD 
BRANCH   9  11
HETATM   11  P   UNL     1     -10.744  11.491  67.960  1.00  0.00    -0.234 P  
HETATM   12  O   UNL     1     -11.969  10.565  67.757  1.00  0.00    -0.226 OA 
BRANCH  11  13
HETATM   13  C   UNL     1      -9.611  10.065  67.378  1.00  0.00    -0.154 C  
BRANCH  13  14
HETATM   14  O   UNL     1     -10.361   8.907  66.848  1.00  0.00    -0.262 OA 
BRANCH  14  15
HETATM   15  C   UNL     1      -9.881   7.549  67.048  1.00  0.00    -0.214 C  
HETATM   16  C   UNL     1     -11.057   6.567  66.989  1.00  0.00    -0.411 C  
BRANCH  15  17
HETATM   17  C   UNL     1      -8.966   7.365  68.251  1.00  0.00    -0.130 C  
BRANCH  17  18
HETATM   18  N   UNL     1      -9.517   6.592  69.330  1.00  0.00    -0.142 NA 
HETATM   19  C   UNL     1      -9.389   5.247  69.549  1.00  0.00    -0.130 A  
HETATM   20  N   UNL     1      -9.951   4.884  70.681  1.00  0.00    -0.220 NA 
HETATM   21  C   UNL     1     -10.477   6.049  71.192  1.00  0.00    -0.230 A  
HETATM   22  C   UNL     1     -11.178   6.316  72.372  1.00  0.00    -0.280 A  
HETATM   23  N   UNL     1     -11.643   7.570  72.582  1.00  0.00    -0.307 NA 
HETATM   24  N   UNL     1     -11.413   5.332  73.319  1.00  0.00    -0.508 NA 
HETATM   25  C   UNL     1     -11.364   8.510  71.660  1.00  0.00    -0.295 A  
HETATM   26  H1  UNL     1     -11.924   5.527  74.180  1.00  0.00     0.000 HD 
HETATM   27  H2  UNL     1     -10.514   4.923  73.575  1.00  0.00     0.000 HD 
HETATM   28  N   UNL     1     -10.669   8.385  70.507  1.00  0.00    -0.223 NA 
HETATM   29  C   UNL     1     -10.257   7.118  70.348  1.00  0.00    -0.193 A  
ENDBRANCH  17  18
ENDBRANCH  15  17
ENDBRANCH  14  15
ENDBRANCH  13  14
ENDBRANCH  11  13
BRANCH  11  30
HETATM   30  O   UNL     1      -9.377  12.527  68.186  1.00  0.00    -0.202 OA 
BRANCH  30  31
HETATM   31  C   UNL     1      -9.376  13.711  67.470  1.00  0.00    -0.223 A  
HETATM   32  C   UNL     1     -10.304  13.821  66.434  1.00  0.00    -0.290 A  
HETATM   33  C   UNL     1      -8.535  15.919  66.917  1.00  0.00    -0.275 A  
HETATM   34  C   UNL     1      -8.494  14.768  67.717  1.00  0.00    -0.169 A  
HETATM   35  C   UNL     1      -9.450  16.015  65.871  1.00  0.00    -0.351 A  
HETATM   36  C   UNL     1     -10.333  14.966  65.630  1.00  0.00    -0.370 A  
ENDBRANCH  30  31
ENDBRANCH  11  30
ENDBRANCH   9  11
ENDBRANCH   7   9
ENDBRANCH   5   7
ENDBRANCH   4   5
ENDBRANCH   2   4
TORSDOF 12
ENDMDL
MODEL      109
REMARK 921   NORMALIZED FREE ENERGY PREDICTED BY IDOCK:   -5.56 KCAL/MOL
REMARK 922        TOTAL FREE ENERGY PREDICTED BY IDOCK:  -11.18 KCAL/MOL
REMARK 923 INTER-LIGAND FREE ENERGY PREDICTED BY IDOCK:  -10.23 KCAL/MOL
REMARK 924 INTRA-LIGAND FREE ENERGY PREDICTED BY IDOCK:   -0.95 KCAL/MOL
REMARK 927      BINDING AFFINITY PREDICTED BY RF-SCORE:    0.00 PKD
ROOT
HETATM    1  C   UNL     1      -6.470   9.328  66.836  1.00  0.00    -0.067 C  
HETATM    2  C   UNL     1      -7.750   8.491  66.777  1.00  0.00    -0.091 C  
HETATM    3  C   UNL     1      -7.448   7.064  66.297  1.00  0.00    -0.080 C  
ENDROOT
BRANCH   2   4
HETATM    4  O   UNL     1      -8.554   8.608  67.997  1.00  0.00    -0.135 OA 
BRANCH   4   5
HETATM    5  C   UNL     1      -9.774   9.197  67.940  1.00  0.00    -0.154 C  
HETATM    6  O   UNL     1     -10.673   8.806  67.193  1.00  0.00    -0.271 OA 
BRANCH   5   7
HETATM    7  C   UNL     1     -10.002  10.428  68.863  1.00  0.00    -0.199 C  
HETATM    8  C   UNL     1     -11.236  10.185  69.731  1.00  0.00    -0.325 C  
BRANCH   7   9
HETATM    9  N   UNL     1     -10.019  11.818  68.261  1.00  0.00    -0.195 NA 
HETATM   10  H   UNL     1      -9.584  11.827  67.338  1.00  0.00     0.000 HD 
BRANCH   9  11
HETATM   11  P   UNL     1     -11.644  12.495  68.207  1.00  0.00    -0.340 P  
HETATM   12  O   UNL     1     -12.087  11.609  67.017  1.00  0.00    -0.547 OA 
BRANCH  11  13
HETATM   13  C   UNL     1     -11.768  14.027  67.069  1.00  0.00    -0.398 C  
BRANCH  13  14
HETATM   14  O   UNL     1     -10.851  13.966  65.912  1.00  0.00    -0.283 OA 
BRANCH  14  15
HETATM   15  C   UNL     1      -9.816  14.968  65.723  1.00  0.00    -0.353 C  
HETATM   16  C   UNL     1      -8.674  14.732  66.720  1.00  0.00    -0.255 C  
BRANCH  15  17
HETATM   17  C   UNL     1     -10.317  16.404  65.670  1.00  0.00    -0.350 C  
BRANCH  17  18
HETATM   18  N   UNL     1      -9.893  17.245  66.755  1.00  0.00    -0.281 NA 
HETATM   19  C   UNL     1     -10.513  17.436  67.961  1.00  0.00    -0.383 A  
HETATM   20  N   UNL     1      -9.804  18.208  68.755  1.00  0.00    -0.359 NA 
HETATM   21  C   UNL     1      -8.694  18.538  68.011  1.00  0.00    -0.295 A  
HETATM   22  C   UNL     1      -7.572  19.317  68.307  1.00  0.00    -0.304 A  
HETATM   23  N   UNL     1      -6.653  19.529  67.336  1.00  0.00    -0.196 NA 
HETATM   24  N   UNL     1      -7.385  19.879  69.561  1.00  0.00    -0.162 NA 
HETATM   25  C   UNL     1      -6.846  18.937  66.143  1.00  0.00    -0.238 A  
HETATM   26  H1  UNL     1      -6.566  20.448  69.777  1.00  0.00     0.000 HD 
HETATM   27  H2  UNL     1      -7.437  19.130  70.251  1.00  0.00     0.000 HD 
HETATM   28  N   UNL     1      -7.863  18.137  65.750  1.00  0.00    -0.531 NA 
HETATM   29  C   UNL     1      -8.747  17.986  66.748  1.00  0.00    -0.255 A  
ENDBRANCH  17  18
ENDBRANCH  15  17
ENDBRANCH  14  15
ENDBRANCH  13  14
ENDBRANCH  11  13
BRANCH  11  30
HETATM   30  O   UNL     1     -11.149  13.484  69.538  1.00  0.00    -0.175 OA 
BRANCH  30  31
HETATM   31  C   UNL     1     -12.127  13.812  70.459  1.00  0.00    -0.345 A  
HETATM   32  C   UNL     1     -12.453  15.164  70.578  1.00  0.00    -0.429 A  
HETATM   33  C   UNL     1     -13.728  13.298  72.209  1.00  0.00    -0.686 A  
HETATM   34  C   UNL     1     -12.774  12.876  71.272  1.00  0.00    -0.371 A  
HETATM   35  C   UNL     1     -14.034  14.652  72.338  1.00  0.00    -0.578 A  
HETATM   36  C   UNL     1     -13.396  15.583  71.523  1.00  0.00    -0.593 A  
ENDBRANCH  30  31
ENDBRANCH  11  30
ENDBRANCH   9  11
ENDBRANCH   7   9
ENDBRANCH   5   7
ENDBRANCH   4   5
ENDBRANCH   2   4
TORSDOF 12
ENDMDL
MODEL      110
REMARK 921   NORMALIZED FREE ENERGY PREDICTED BY IDOCK:   -5.55 KCAL/MOL
REMARK 922        TOTAL FREE ENERGY PREDICTED BY IDOCK:  -11.16 KCAL/MOL
REMARK 923 INTER-LIGAND FREE ENERGY PREDICTED BY IDOCK:  -10.44 KCAL/MOL
REMARK 924 INTRA-LIGAND FREE ENERGY PREDICTED BY IDOCK:   -0.73 KCAL/MOL
REMARK 927      BINDING AFFINITY PREDICTED BY RF-SCORE:    0.00 PKD
ROOT
HETATM    1  C   UNL     1     -11.735  15.618  71.685  1.00  0.00    -0.521 C  
HETATM    2  C   UNL     1     -12.811  14.552  71.907  1.00  0.00    -0.338 C  
HETATM    3  C   UNL     1     -14.202  15.098  71.555  1.00  0.00    -0.647 C  
ENDROOT
BRANCH   2   4
HETATM    4  O   UNL     1     -12.452  13.261  71.314  1.00  0.00    -0.343 OA 
BRANCH   4   5
HETATM    5  C   UNL     1     -12.246  13.172  69.977  1.00  0.00    -0.253 C  
HETATM    6  O   UNL     1     -12.547  14.073  69.191  1.00  0.00    -0.108 OA 
BRANCH   5   7
HETATM    7  C   UNL     1     -11.615  11.851  69.450  1.00  0.00    -0.325 C  
HETATM    8  C   UNL     1     -12.270  10.665  70.155  1.00  0.00    -0.398 C  
BRANCH   7   9
HETATM    9  N   UNL     1     -10.108  11.707  69.417  1.00  0.00    -0.390 NA 
HETATM   10  H   UNL     1      -9.812  10.815  69.812  1.00  0.00     0.000 HD 
BRANCH   9  11
HETATM   11  P   UNL     1      -9.459  11.935  67.795  1.00  0.00    -0.195 P  
HETATM   12  O   UNL     1      -7.989  11.989  68.277  1.00  0.00    -0.135 OA 
BRANCH  11  13
HETATM   13  C   UNL     1      -9.330  13.779  67.304  1.00  0.00    -0.239 C  
BRANCH  13  14
HETATM   14  O   UNL     1      -9.200  14.681  68.466  1.00  0.00    -0.184 OA 
BRANCH  14  15
HETATM   15  C   UNL     1      -9.879  15.967  68.495  1.00  0.00    -0.210 C  
HETATM   16  C   UNL     1     -10.640  16.184  67.181  1.00  0.00    -0.294 C  
BRANCH  15  17
HETATM   17  C   UNL     1      -9.007  17.141  68.918  1.00  0.00    -0.189 C  
BRANCH  17  18
HETATM   18  N   UNL     1      -8.795  18.144  67.912  1.00  0.00    -0.263 NA 
HETATM   19  C   UNL     1      -9.585  19.225  67.625  1.00  0.00    -0.315 A  
HETATM   20  N   UNL     1      -9.047  19.988  66.698  1.00  0.00    -0.360 NA 
HETATM   21  C   UNL     1      -7.873  19.349  66.367  1.00  0.00    -0.302 A  
HETATM   22  C   UNL     1      -6.860  19.673  65.461  1.00  0.00    -0.294 A  
HETATM   23  N   UNL     1      -5.836  18.804  65.292  1.00  0.00    -0.225 NA 
HETATM   24  N   UNL     1      -6.886  20.850  64.729  1.00  0.00    -0.532 NA 
HETATM   25  C   UNL     1      -5.823  17.689  66.046  1.00  0.00    -0.185 A  
HETATM   26  H1  UNL     1      -6.146  21.086  64.066  1.00  0.00     0.000 HD 
HETATM   27  H2  UNL     1      -6.976  21.625  65.386  1.00  0.00     0.000 HD 
HETATM   28  N   UNL     1      -6.717  17.286  66.977  1.00  0.00    -0.168 NA 
HETATM   29  C   UNL     1      -7.715  18.177  67.079  1.00  0.00    -0.220 A  
ENDBRANCH  17  18
ENDBRANCH  15  17
ENDBRANCH  14  15
ENDBRANCH  13  14
ENDBRANCH  11  13
BRANCH  11  30
HETATM   30  O   UNL     1     -11.102  11.873  67.256  1.00  0.00    -0.254 OA 
BRANCH  30  31
HETATM   31  C   UNL     1     -11.334  12.241  65.942  1.00  0.00    -0.360 A  
HETATM   32  C   UNL     1     -12.280  13.244  65.727  1.00  0.00    -0.510 A  
HETATM   33  C   UNL     1     -11.017  12.059  63.544  1.00  0.00    -0.514 A  
HETATM   34  C   UNL     1     -10.695  11.653  64.847  1.00  0.00    -0.352 A  
HETATM   35  C   UNL     1     -11.977  13.046  63.333  1.00  0.00    -0.592 A  
HETATM   36  C   UNL     1     -12.608  13.637  64.424  1.00  0.00    -0.220 A  
ENDBRANCH  30  31
ENDBRANCH  11  30
ENDBRANCH   9  11
ENDBRANCH   7   9
ENDBRANCH   5   7
ENDBRANCH   4   5
ENDBRANCH   2   4
TORSDOF 12
ENDMDL
MODEL      111
REMARK 921   NORMALIZED FREE ENERGY PREDICTED BY IDOCK:   -5.55 KCAL/MOL
REMARK 922        TOTAL FREE ENERGY PREDICTED BY IDOCK:  -11.15 KCAL/MOL
REMARK 923 INTER-LIGAND FREE ENERGY PREDICTED BY IDOCK:   -9.83 KCAL/MOL
REMARK 924 INTRA-LIGAND FREE ENERGY PREDICTED BY IDOCK:   -1.32 KCAL/MOL
REMARK 927      BINDING AFFINITY PREDICTED BY RF-SCORE:    0.00 PKD
ROOT
HETATM    1  C   UNL     1      -9.224   2.144  64.900  1.00  0.00    -0.120 C  
HETATM    2  C   UNL     1      -9.586   3.489  64.264  1.00  0.00    -0.160 C  
HETATM    3  C   UNL     1     -10.673   3.312  63.194  1.00  0.00    -0.224 C  
ENDROOT
BRANCH   2   4
HETATM    4  O   UNL     1      -9.821   4.536  65.261  1.00  0.00    -0.181 OA 
BRANCH   4   5
HETATM    5  C   UNL     1      -8.871   5.479  65.479  1.00  0.00    -0.144 C  
HETATM    6  O   UNL     1      -8.281   6.058  64.566  1.00  0.00    -0.133 OA 
BRANCH   5   7
HETATM    7  C   UNL     1      -8.530   5.800  66.962  1.00  0.00    -0.107 C  
HETATM    8  C   UNL     1      -9.590   5.177  67.869  1.00  0.00    -0.167 C  
BRANCH   7   9
HETATM    9  N   UNL     1      -8.232   7.230  67.364  1.00  0.00    -0.115 NA 
HETATM   10  H   UNL     1      -7.774   7.739  66.609  1.00  0.00     0.000 HD 
BRANCH   9  11
HETATM   11  P   UNL     1      -9.675   8.073  67.921  1.00  0.00    -0.175 P  
HETATM   12  O   UNL     1     -10.255   8.241  66.495  1.00  0.00    -0.288 OA 
BRANCH  11  13
HETATM   13  C   UNL     1      -9.433   9.968  68.010  1.00  0.00    -0.137 C  
BRANCH  13  14
HETATM   14  O   UNL     1     -10.053  10.577  69.206  1.00  0.00    -0.213 OA 
BRANCH  14  15
HETATM   15  C   UNL     1     -11.256  11.384  69.096  1.00  0.00    -0.272 C  
HETATM   16  C   UNL     1     -12.221  11.041  70.238  1.00  0.00    -0.447 C  
BRANCH  15  17
HETATM   17  C   UNL     1     -11.896  11.396  67.714  1.00  0.00    -0.120 C  
BRANCH  17  18
HETATM   18  N   UNL     1     -11.923  12.674  67.059  1.00  0.00    -0.491 NA 
HETATM   19  C   UNL     1     -11.709  13.907  67.615  1.00  0.00    -0.368 A  
HETATM   20  N   UNL     1     -11.725  14.858  66.708  1.00  0.00    -0.293 NA 
HETATM   21  C   UNL     1     -11.982  14.201  65.525  1.00  0.00    -0.391 A  
HETATM   22  C   UNL     1     -12.105  14.661  64.211  1.00  0.00    -0.415 A  
HETATM   23  N   UNL     1     -12.438  13.777  63.242  1.00  0.00    -0.762 NA 
HETATM   24  N   UNL     1     -11.904  15.993  63.884  1.00  0.00    -1.338 NA 
HETATM   25  C   UNL     1     -12.588  12.485  63.589  1.00  0.00    -0.392 A  
HETATM   26  H1  UNL     1     -11.994  16.329  62.924  1.00  0.00     0.000 HD 
HETATM   27  H2  UNL     1     -10.982  16.263  64.225  1.00  0.00     0.000 HD 
HETATM   28  N   UNL     1     -12.459  11.916  64.808  1.00  0.00    -0.261 NA 
HETATM   29  C   UNL     1     -12.152  12.846  65.725  1.00  0.00    -0.457 A  
ENDBRANCH  17  18
ENDBRANCH  15  17
ENDBRANCH  14  15
ENDBRANCH  13  14
ENDBRANCH  11  13
BRANCH  11  30
HETATM   30  O   UNL     1      -9.027   7.884  69.515  1.00  0.00    -0.141 OA 
BRANCH  30  31
HETATM   31  C   UNL     1      -9.900   7.422  70.484  1.00  0.00    -0.180 A  
HETATM   32  C   UNL     1     -11.224   7.215  70.091  1.00  0.00    -0.295 A  
HETATM   33  C   UNL     1     -10.490   6.750  72.739  1.00  0.00    -0.247 A  
HETATM   34  C   UNL     1      -9.532   7.180  71.810  1.00  0.00    -0.160 A  
HETATM   35  C   UNL     1     -11.815   6.564  72.347  1.00  0.00    -0.235 A  
HETATM   36  C   UNL     1     -12.180   6.797  71.024  1.00  0.00    -0.405 A  
ENDBRANCH  30  31
ENDBRANCH  11  30
ENDBRANCH   9  11
ENDBRANCH   7   9
ENDBRANCH   5   7
ENDBRANCH   4   5
ENDBRANCH   2   4
TORSDOF 12
ENDMDL
MODEL      112
REMARK 921   NORMALIZED FREE ENERGY PREDICTED BY IDOCK:   -5.55 KCAL/MOL
REMARK 922        TOTAL FREE ENERGY PREDICTED BY IDOCK:  -11.15 KCAL/MOL
REMARK 923 INTER-LIGAND FREE ENERGY PREDICTED BY IDOCK:   -9.52 KCAL/MOL
REMARK 924 INTRA-LIGAND FREE ENERGY PREDICTED BY IDOCK:   -1.64 KCAL/MOL
REMARK 927      BINDING AFFINITY PREDICTED BY RF-SCORE:    0.00 PKD
ROOT
HETATM    1  C   UNL     1      -9.110   7.814  73.626  1.00  0.00    -0.345 C  
HETATM    2  C   UNL     1      -8.460   6.637  72.895  1.00  0.00    -0.118 C  
HETATM    3  C   UNL     1      -9.452   5.476  72.739  1.00  0.00    -0.160 C  
ENDROOT
BRANCH   2   4
HETATM    4  O   UNL     1      -7.751   7.052  71.682  1.00  0.00    -0.092 OA 
BRANCH   4   5
HETATM    5  C   UNL     1      -6.876   8.086  71.738  1.00  0.00    -0.067 C  
HETATM    6  O   UNL     1      -5.990   8.168  72.592  1.00  0.00    -0.050 OA 
BRANCH   5   7
HETATM    7  C   UNL     1      -7.042   9.205  70.671  1.00  0.00    -0.099 C  
HETATM    8  C   UNL     1      -5.788  10.079  70.659  1.00  0.00    -0.087 C  
BRANCH   7   9
HETATM    9  N   UNL     1      -8.300  10.047  70.665  1.00  0.00    -0.345 NA 
HETATM   10  H   UNL     1      -8.080  11.040  70.583  1.00  0.00     0.000 HD 
BRANCH   9  11
HETATM   11  P   UNL     1      -9.430   9.537  69.414  1.00  0.00    -0.201 P  
HETATM   12  O   UNL     1      -8.315   9.064  68.451  1.00  0.00    -0.122 OA 
BRANCH  11  13
HETATM   13  C   UNL     1      -9.851  10.940  68.184  1.00  0.00    -0.175 C  
BRANCH  13  14
HETATM   14  O   UNL     1     -10.536  12.085  68.820  1.00  0.00    -0.222 OA 
BRANCH  14  15
HETATM   15  C   UNL     1     -10.615  13.374  68.154  1.00  0.00    -0.245 C  
HETATM   16  C   UNL     1      -9.301  14.142  68.345  1.00  0.00    -0.208 C  
BRANCH  15  17
HETATM   17  C   UNL     1     -11.867  14.181  68.468  1.00  0.00    -0.355 C  
BRANCH  17  18
HETATM   18  N   UNL     1     -11.836  14.908  69.706  1.00  0.00    -0.296 NA 
HETATM   19  C   UNL     1     -11.247  16.119  69.953  1.00  0.00    -0.349 A  
HETATM   20  N   UNL     1     -11.485  16.534  71.178  1.00  0.00    -0.220 NA 
HETATM   21  C   UNL     1     -12.242  15.530  71.740  1.00  0.00    -0.394 A  
HETATM   22  C   UNL     1     -12.814  15.393  73.007  1.00  0.00    -0.463 A  
HETATM   23  N   UNL     1     -13.459  14.241  73.308  1.00  0.00    -0.408 NA 
HETATM   24  N   UNL     1     -12.727  16.397  73.959  1.00  0.00    -0.722 NA 
HETATM   25  C   UNL     1     -13.557  13.302  72.348  1.00  0.00    -0.594 A  
HETATM   26  H1  UNL     1     -13.145  16.297  74.885  1.00  0.00     0.000 HD 
HETATM   27  H2  UNL     1     -13.092  17.254  73.543  1.00  0.00     0.000 HD 
HETATM   28  N   UNL     1     -13.083  13.334  71.082  1.00  0.00    -0.206 NA 
HETATM   29  C   UNL     1     -12.437  14.488  70.857  1.00  0.00    -0.345 A  
ENDBRANCH  17  18
ENDBRANCH  15  17
ENDBRANCH  14  15
ENDBRANCH  13  14
ENDBRANCH  11  13
BRANCH  11  30
HETATM   30  O   UNL     1     -10.678  10.066  70.492  1.00  0.00    -0.294 OA 
BRANCH  30  31
HETATM   31  C   UNL     1     -11.630   9.124  70.841  1.00  0.00    -0.291 A  
HETATM   32  C   UNL     1     -12.807   9.603  71.416  1.00  0.00    -0.471 A  
HETATM   33  C   UNL     1     -12.461   6.858  71.085  1.00  0.00    -0.398 A  
HETATM   34  C   UNL     1     -11.460   7.747  70.668  1.00  0.00    -0.259 A  
HETATM   35  C   UNL     1     -13.626   7.340  71.678  1.00  0.00    -0.435 A  
HETATM   36  C   UNL     1     -13.798   8.711  71.843  1.00  0.00    -0.481 A  
ENDBRANCH  30  31
ENDBRANCH  11  30
ENDBRANCH   9  11
ENDBRANCH   7   9
ENDBRANCH   5   7
ENDBRANCH   4   5
ENDBRANCH   2   4
TORSDOF 12
ENDMDL
MODEL      113
REMARK 921   NORMALIZED FREE ENERGY PREDICTED BY IDOCK:   -5.53 KCAL/MOL
REMARK 922        TOTAL FREE ENERGY PREDICTED BY IDOCK:  -11.13 KCAL/MOL
REMARK 923 INTER-LIGAND FREE ENERGY PREDICTED BY IDOCK:   -9.22 KCAL/MOL
REMARK 924 INTRA-LIGAND FREE ENERGY PREDICTED BY IDOCK:   -1.91 KCAL/MOL
REMARK 927      BINDING AFFINITY PREDICTED BY RF-SCORE:    0.00 PKD
ROOT
HETATM    1  C   UNL     1     -10.297  12.813  64.967  1.00  0.00    -0.323 C  
HETATM    2  C   UNL     1     -11.798  13.079  64.836  1.00  0.00    -0.361 C  
HETATM    3  C   UNL     1     -12.419  12.184  63.754  1.00  0.00    -0.620 C  
ENDROOT
BRANCH   2   4
HETATM    4  O   UNL     1     -12.481  13.098  66.132  1.00  0.00    -0.400 OA 
BRANCH   4   5
HETATM    5  C   UNL     1     -12.025  13.911  67.117  1.00  0.00    -0.420 C  
HETATM    6  O   UNL     1     -11.796  15.110  66.943  1.00  0.00    -0.189 OA 
BRANCH   5   7
HETATM    7  C   UNL     1     -11.778  13.260  68.507  1.00  0.00    -0.352 C  
HETATM    8  C   UNL     1     -11.867  14.335  69.589  1.00  0.00    -0.370 C  
BRANCH   7   9
HETATM    9  N   UNL     1     -10.568  12.373  68.710  1.00  0.00    -0.328 NA 
HETATM   10  H   UNL     1     -10.000  12.695  69.493  1.00  0.00     0.000 HD 
BRANCH   9  11
HETATM   11  P   UNL     1     -11.014  10.679  68.898  1.00  0.00    -0.291 P  
HETATM   12  O   UNL     1     -12.518  10.988  69.095  1.00  0.00    -0.432 OA 
BRANCH  11  13
HETATM   13  C   UNL     1     -10.931  10.092  70.716  1.00  0.00    -0.305 C  
BRANCH  13  14
HETATM   14  O   UNL     1     -11.929   9.050  71.035  1.00  0.00    -0.287 OA 
BRANCH  14  15
HETATM   15  C   UNL     1     -11.696   8.093  72.104  1.00  0.00    -0.359 C  
HETATM   16  C   UNL     1     -10.247   8.203  72.595  1.00  0.00    -0.388 C  
BRANCH  15  17
HETATM   17  C   UNL     1     -12.152   6.672  71.802  1.00  0.00    -0.353 C  
BRANCH  17  18
HETATM   18  N   UNL     1     -11.154   5.815  71.224  1.00  0.00    -0.238 NA 
HETATM   19  C   UNL     1     -10.365   4.896  71.862  1.00  0.00    -0.190 A  
HETATM   20  N   UNL     1      -9.619   4.223  71.013  1.00  0.00    -0.169 NA 
HETATM   21  C   UNL     1      -9.934   4.756  69.783  1.00  0.00    -0.238 A  
HETATM   22  C   UNL     1      -9.486   4.453  68.494  1.00  0.00    -0.156 A  
HETATM   23  N   UNL     1      -9.926   5.205  67.459  1.00  0.00    -0.169 NA 
HETATM   24  N   UNL     1      -8.601   3.413  68.256  1.00  0.00    -0.089 NA 
HETATM   25  C   UNL     1     -10.814   6.183  67.721  1.00  0.00    -0.325 A  
HETATM   26  H1  UNL     1      -8.273   3.191  67.315  1.00  0.00     0.000 HD 
HETATM   27  H2  UNL     1      -9.001   2.564  68.656  1.00  0.00     0.000 HD 
HETATM   28  N   UNL     1     -11.348   6.545  68.909  1.00  0.00    -0.259 NA 
HETATM   29  C   UNL     1     -10.855   5.778  69.893  1.00  0.00    -0.347 A  
ENDBRANCH  17  18
ENDBRANCH  15  17
ENDBRANCH  14  15
ENDBRANCH  13  14
ENDBRANCH  11  13
BRANCH  11  30
HETATM   30  O   UNL     1      -9.332  10.334  68.677  1.00  0.00    -0.148 OA 
BRANCH  30  31
HETATM   31  C   UNL     1      -8.918  10.095  67.378  1.00  0.00    -0.134 A  
HETATM   32  C   UNL     1      -7.671  10.603  67.012  1.00  0.00    -0.117 A  
HETATM   33  C   UNL     1      -9.203   9.240  65.126  1.00  0.00    -0.264 A  
HETATM   34  C   UNL     1      -9.682   9.404  66.434  1.00  0.00    -0.315 A  
HETATM   35  C   UNL     1      -7.966   9.767  64.760  1.00  0.00    -0.138 A  
HETATM   36  C   UNL     1      -7.202  10.448  65.702  1.00  0.00    -0.146 A  
ENDBRANCH  30  31
ENDBRANCH  11  30
ENDBRANCH   9  11
ENDBRANCH   7   9
ENDBRANCH   5   7
ENDBRANCH   4   5
ENDBRANCH   2   4
TORSDOF 12
ENDMDL
MODEL      114
REMARK 921   NORMALIZED FREE ENERGY PREDICTED BY IDOCK:   -5.52 KCAL/MOL
REMARK 922        TOTAL FREE ENERGY PREDICTED BY IDOCK:  -11.10 KCAL/MOL
REMARK 923 INTER-LIGAND FREE ENERGY PREDICTED BY IDOCK:  -10.01 KCAL/MOL
REMARK 924 INTRA-LIGAND FREE ENERGY PREDICTED BY IDOCK:   -1.09 KCAL/MOL
REMARK 927      BINDING AFFINITY PREDICTED BY RF-SCORE:    0.00 PKD
ROOT
HETATM    1  C   UNL     1     -12.239  12.451  63.342  1.00  0.00    -0.623 C  
HETATM    2  C   UNL     1     -11.551  13.302  64.413  1.00  0.00    -0.382 C  
HETATM    3  C   UNL     1     -12.277  14.642  64.596  1.00  0.00    -0.447 C  
ENDROOT
BRANCH   2   4
HETATM    4  O   UNL     1     -11.269  12.544  65.635  1.00  0.00    -0.295 OA 
BRANCH   4   5
HETATM    5  C   UNL     1     -10.030  12.596  66.183  1.00  0.00    -0.261 C  
HETATM    6  O   UNL     1      -9.526  13.639  66.603  1.00  0.00    -0.267 OA 
BRANCH   5   7
HETATM    7  C   UNL     1      -9.237  11.259  66.250  1.00  0.00    -0.200 C  
HETATM    8  C   UNL     1      -9.938  10.214  65.384  1.00  0.00    -0.377 C  
BRANCH   7   9
HETATM    9  N   UNL     1      -8.854  10.688  67.599  1.00  0.00    -0.131 NA 
HETATM   10  H   UNL     1      -8.610  11.427  68.258  1.00  0.00     0.000 HD 
BRANCH   9  11
HETATM   11  P   UNL     1     -10.108   9.638  68.252  1.00  0.00    -0.195 P  
HETATM   12  O   UNL     1     -11.195  10.739  68.218  1.00  0.00    -0.254 OA 
BRANCH  11  13
HETATM   13  C   UNL     1     -10.179   9.674  70.163  1.00  0.00    -0.264 C  
BRANCH  13  14
HETATM   14  O   UNL     1     -11.479   9.225  70.705  1.00  0.00    -0.266 OA 
BRANCH  14  15
HETATM   15  C   UNL     1     -12.308  10.117  71.497  1.00  0.00    -0.408 C  
HETATM   16  C   UNL     1     -13.252   9.299  72.387  1.00  0.00    -0.501 C  
BRANCH  15  17
HETATM   17  C   UNL     1     -12.989  11.227  70.709  1.00  0.00    -0.085 C  
BRANCH  17  18
HETATM   18  N   UNL     1     -12.947  12.528  71.317  1.00  0.00    -0.280 NA 
HETATM   19  C   UNL     1     -13.530  12.927  72.490  1.00  0.00    -0.352 A  
HETATM   20  N   UNL     1     -13.216  14.168  72.791  1.00  0.00    -0.515 NA 
HETATM   21  C   UNL     1     -12.414  14.582  71.751  1.00  0.00    -0.348 A  
HETATM   22  C   UNL     1     -11.760  15.791  71.504  1.00  0.00    -0.453 A  
HETATM   23  N   UNL     1     -11.085  15.939  70.340  1.00  0.00    -0.349 NA 
HETATM   24  N   UNL     1     -11.793  16.837  72.413  1.00  0.00    -0.488 NA 
HETATM   25  C   UNL     1     -11.041  14.890  69.497  1.00  0.00    -0.281 A  
HETATM   26  H1  UNL     1     -11.315  17.721  72.233  1.00  0.00     0.000 HD 
HETATM   27  H2  UNL     1     -11.465  16.482  73.311  1.00  0.00     0.000 HD 
HETATM   28  N   UNL     1     -11.597  13.666  69.640  1.00  0.00    -0.285 NA 
HETATM   29  C   UNL     1     -12.268  13.593  70.800  1.00  0.00    -0.347 A  
ENDBRANCH  17  18
ENDBRANCH  15  17
ENDBRANCH  14  15
ENDBRANCH  13  14
ENDBRANCH  11  13
BRANCH  11  30
HETATM   30  O   UNL     1      -8.892   8.406  68.290  1.00  0.00    -0.138 OA 
BRANCH  30  31
HETATM   31  C   UNL     1      -9.210   7.209  67.674  1.00  0.00    -0.125 A  
HETATM   32  C   UNL     1      -8.194   6.255  67.590  1.00  0.00    -0.117 A  
HETATM   33  C   UNL     1     -10.691   5.699  66.485  1.00  0.00    -0.296 A  
HETATM   34  C   UNL     1     -10.465   6.925  67.126  1.00  0.00    -0.373 A  
HETATM   35  C   UNL     1      -9.667   4.759  66.385  1.00  0.00    -0.206 A  
HETATM   36  C   UNL     1      -8.420   5.038  66.937  1.00  0.00    -0.106 A  
ENDBRANCH  30  31
ENDBRANCH  11  30
ENDBRANCH   9  11
ENDBRANCH   7   9
ENDBRANCH   5   7
ENDBRANCH   4   5
ENDBRANCH   2   4
TORSDOF 12
ENDMDL
MODEL      115
REMARK 921   NORMALIZED FREE ENERGY PREDICTED BY IDOCK:   -5.50 KCAL/MOL
REMARK 922        TOTAL FREE ENERGY PREDICTED BY IDOCK:  -11.07 KCAL/MOL
REMARK 923 INTER-LIGAND FREE ENERGY PREDICTED BY IDOCK:  -10.17 KCAL/MOL
REMARK 924 INTRA-LIGAND FREE ENERGY PREDICTED BY IDOCK:   -0.91 KCAL/MOL
REMARK 927      BINDING AFFINITY PREDICTED BY RF-SCORE:    0.00 PKD
ROOT
HETATM    1  C   UNL     1     -13.918   7.734  71.534  1.00  0.00    -0.468 C  
HETATM    2  C   UNL     1     -12.857   8.830  71.405  1.00  0.00    -0.280 C  
HETATM    3  C   UNL     1     -13.381  10.164  71.954  1.00  0.00    -0.505 C  
ENDROOT
BRANCH   2   4
HETATM    4  O   UNL     1     -11.544   8.399  71.892  1.00  0.00    -0.287 OA 
BRANCH   4   5
HETATM    5  C   UNL     1     -10.422   8.940  71.357  1.00  0.00    -0.305 C  
HETATM    6  O   UNL     1      -9.347   8.985  71.959  1.00  0.00    -0.358 OA 
BRANCH   5   7
HETATM    7  C   UNL     1     -10.544   9.535  69.925  1.00  0.00    -0.241 C  
HETATM    8  C   UNL     1     -10.107   8.485  68.905  1.00  0.00    -0.213 C  
BRANCH   7   9
HETATM    9  N   UNL     1      -9.926  10.885  69.624  1.00  0.00    -0.434 NA 
HETATM   10  H   UNL     1      -9.202  11.120  70.303  1.00  0.00     0.000 HD 
BRANCH   9  11
HETATM   11  P   UNL     1      -9.310  10.976  67.976  1.00  0.00    -0.174 P  
HETATM   12  O   UNL     1      -7.886  10.512  68.370  1.00  0.00    -0.101 OA 
BRANCH  11  13
HETATM   13  C   UNL     1      -8.594  12.698  67.551  1.00  0.00    -0.185 C  
BRANCH  13  14
HETATM   14  O   UNL     1      -7.757  13.262  68.631  1.00  0.00    -0.129 OA 
BRANCH  14  15
HETATM   15  C   UNL     1      -7.273  14.631  68.565  1.00  0.00    -0.118 C  
HETATM   16  C   UNL     1      -5.744  14.649  68.683  1.00  0.00    -0.092 C  
BRANCH  15  17
HETATM   17  C   UNL     1      -7.987  15.608  69.489  1.00  0.00    -0.174 C  
BRANCH  17  18
HETATM   18  N   UNL     1      -8.662  16.693  68.833  1.00  0.00    -0.254 NA 
HETATM   19  C   UNL     1      -9.990  16.786  68.515  1.00  0.00    -0.271 A  
HETATM   20  N   UNL     1     -10.285  17.958  67.995  1.00  0.00    -0.357 NA 
HETATM   21  C   UNL     1      -9.084  18.630  67.963  1.00  0.00    -0.305 A  
HETATM   22  C   UNL     1      -8.748  19.918  67.536  1.00  0.00    -0.338 A  
HETATM   23  N   UNL     1      -7.448  20.292  67.557  1.00  0.00    -0.299 NA 
HETATM   24  N   UNL     1      -9.710  20.810  67.087  1.00  0.00    -0.652 NA 
HETATM   25  C   UNL     1      -6.546  19.414  68.035  1.00  0.00    -0.235 A  
HETATM   26  H1  UNL     1      -9.465  21.751  66.775  1.00  0.00     0.000 HD 
HETATM   27  H2  UNL     1     -10.420  20.897  67.813  1.00  0.00     0.000 HD 
HETATM   28  N   UNL     1      -6.749  18.165  68.509  1.00  0.00    -0.222 NA 
HETATM   29  C   UNL     1      -8.052  17.848  68.440  1.00  0.00    -0.299 A  
ENDBRANCH  17  18
ENDBRANCH  15  17
ENDBRANCH  14  15
ENDBRANCH  13  14
ENDBRANCH  11  13
BRANCH  11  30
HETATM   30  O   UNL     1     -10.901  11.495  67.536  1.00  0.00    -0.211 OA 
BRANCH  30  31
HETATM   31  C   UNL     1     -11.115  11.754  66.193  1.00  0.00    -0.307 A  
HETATM   32  C   UNL     1     -12.021  12.769  65.885  1.00  0.00    -0.506 A  
HETATM   33  C   UNL     1     -10.799  11.349  63.822  1.00  0.00    -0.468 A  
HETATM   34  C   UNL     1     -10.496  11.047  65.158  1.00  0.00    -0.329 A  
HETATM   35  C   UNL     1     -11.720  12.349  63.519  1.00  0.00    -0.592 A  
HETATM   36  C   UNL     1     -12.331  13.058  64.550  1.00  0.00    -0.461 A  
ENDBRANCH  30  31
ENDBRANCH  11  30
ENDBRANCH   9  11
ENDBRANCH   7   9
ENDBRANCH   5   7
ENDBRANCH   4   5
ENDBRANCH   2   4
TORSDOF 12
ENDMDL
MODEL      116
REMARK 921   NORMALIZED FREE ENERGY PREDICTED BY IDOCK:   -5.49 KCAL/MOL
REMARK 922        TOTAL FREE ENERGY PREDICTED BY IDOCK:  -11.06 KCAL/MOL
REMARK 923 INTER-LIGAND FREE ENERGY PREDICTED BY IDOCK:   -9.74 KCAL/MOL
REMARK 924 INTRA-LIGAND FREE ENERGY PREDICTED BY IDOCK:   -1.32 KCAL/MOL
REMARK 927      BINDING AFFINITY PREDICTED BY RF-SCORE:    0.00 PKD
ROOT
HETATM    1  C   UNL     1      -9.085   7.142  66.310  1.00  0.00    -0.182 C  
HETATM    2  C   UNL     1     -10.055   7.330  67.479  1.00  0.00    -0.193 C  
HETATM    3  C   UNL     1     -11.015   6.137  67.588  1.00  0.00    -0.400 C  
ENDROOT
BRANCH   2   4
HETATM    4  O   UNL     1      -9.376   7.732  68.713  1.00  0.00    -0.146 OA 
BRANCH   4   5
HETATM    5  C   UNL     1      -8.840   8.974  68.808  1.00  0.00    -0.137 C  
HETATM    6  O   UNL     1      -7.669   9.175  69.137  1.00  0.00    -0.078 OA 
BRANCH   5   7
HETATM    7  C   UNL     1      -9.783  10.171  68.496  1.00  0.00    -0.154 C  
HETATM    8  C   UNL     1      -9.261  10.915  67.268  1.00  0.00    -0.160 C  
BRANCH   7   9
HETATM    9  N   UNL     1     -10.157  11.133  69.604  1.00  0.00    -0.401 NA 
HETATM   10  H   UNL     1      -9.765  12.060  69.438  1.00  0.00     0.000 HD 
BRANCH   9  11
HETATM   11  P   UNL     1     -11.899  11.210  69.851  1.00  0.00    -0.409 P  
HETATM   12  O   UNL     1     -12.183  11.757  68.431  1.00  0.00    -0.467 OA 
BRANCH  11  13
HETATM   13  C   UNL     1     -12.468  12.887  70.574  1.00  0.00    -0.217 C  
BRANCH  13  14
HETATM   14  O   UNL     1     -12.400  13.993  69.597  1.00  0.00    -0.334 OA 
BRANCH  14  15
HETATM   15  C   UNL     1     -11.722  15.238  69.922  1.00  0.00    -0.323 C  
HETATM   16  C   UNL     1     -12.196  15.748  71.289  1.00  0.00    -0.491 C  
BRANCH  15  17
HETATM   17  C   UNL     1     -11.743  16.285  68.817  1.00  0.00    -0.138 C  
BRANCH  17  18
HETATM   18  N   UNL     1     -10.480  16.528  68.177  1.00  0.00    -0.298 NA 
HETATM   19  C   UNL     1      -9.415  15.675  68.070  1.00  0.00    -0.194 A  
HETATM   20  N   UNL     1      -8.449  16.192  67.343  1.00  0.00    -0.165 NA 
HETATM   21  C   UNL     1      -8.915  17.438  66.989  1.00  0.00    -0.242 A  
HETATM   22  C   UNL     1      -8.356  18.456  66.212  1.00  0.00    -0.207 A  
HETATM   23  N   UNL     1      -9.026  19.626  66.092  1.00  0.00    -0.367 NA 
HETATM   24  N   UNL     1      -7.134  18.299  65.574  1.00  0.00    -0.545 NA 
HETATM   25  C   UNL     1     -10.226  19.730  66.693  1.00  0.00    -0.478 A  
HETATM   26  H1  UNL     1      -6.726  19.042  65.007  1.00  0.00     0.000 HD 
HETATM   27  H2  UNL     1      -7.189  17.459  64.998  1.00  0.00     0.000 HD 
HETATM   28  N   UNL     1     -10.885  18.811  67.434  1.00  0.00    -0.423 NA 
HETATM   29  C   UNL     1     -10.159  17.687  67.533  1.00  0.00    -0.337 A  
ENDBRANCH  17  18
ENDBRANCH  15  17
ENDBRANCH  14  15
ENDBRANCH  13  14
ENDBRANCH  11  13
BRANCH  11  30
HETATM   30  O   UNL     1     -11.582  10.598  71.439  1.00  0.00    -0.116 OA 
BRANCH  30  31
HETATM   31  C   UNL     1     -11.838   9.253  71.643  1.00  0.00    -0.383 A  
HETATM   32  C   UNL     1     -10.748   8.449  71.978  1.00  0.00    -0.387 A  
HETATM   33  C   UNL     1     -13.269   7.295  71.698  1.00  0.00    -0.421 A  
HETATM   34  C   UNL     1     -13.104   8.674  71.511  1.00  0.00    -0.339 A  
HETATM   35  C   UNL     1     -12.173   6.492  72.012  1.00  0.00    -0.343 A  
HETATM   36  C   UNL     1     -10.915   7.070  72.151  1.00  0.00    -0.267 A  
ENDBRANCH  30  31
ENDBRANCH  11  30
ENDBRANCH   9  11
ENDBRANCH   7   9
ENDBRANCH   5   7
ENDBRANCH   4   5
ENDBRANCH   2   4
TORSDOF 12
ENDMDL
MODEL      117
REMARK 921   NORMALIZED FREE ENERGY PREDICTED BY IDOCK:   -5.49 KCAL/MOL
REMARK 922        TOTAL FREE ENERGY PREDICTED BY IDOCK:  -11.05 KCAL/MOL
REMARK 923 INTER-LIGAND FREE ENERGY PREDICTED BY IDOCK:   -9.61 KCAL/MOL
REMARK 924 INTRA-LIGAND FREE ENERGY PREDICTED BY IDOCK:   -1.44 KCAL/MOL
REMARK 927      BINDING AFFINITY PREDICTED BY RF-SCORE:    0.00 PKD
ROOT
HETATM    1  C   UNL     1      -8.760   4.289  70.023  1.00  0.00    -0.114 C  
HETATM    2  C   UNL     1      -7.802   4.517  71.195  1.00  0.00    -0.077 C  
HETATM    3  C   UNL     1      -6.918   5.747  70.945  1.00  0.00    -0.066 C  
ENDROOT
BRANCH   2   4
HETATM    4  O   UNL     1      -8.479   4.458  72.493  1.00  0.00    -0.106 OA 
BRANCH   4   5
HETATM    5  C   UNL     1      -9.718   4.993  72.627  1.00  0.00    -0.153 C  
HETATM    6  O   UNL     1     -10.747   4.314  72.609  1.00  0.00    -0.167 OA 
BRANCH   5   7
HETATM    7  C   UNL     1      -9.801   6.537  72.790  1.00  0.00    -0.169 C  
HETATM    8  C   UNL     1     -10.025   6.876  74.263  1.00  0.00    -0.308 C  
BRANCH   7   9
HETATM    9  N   UNL     1     -10.730   7.332  71.896  1.00  0.00    -0.214 NA 
HETATM   10  H   UNL     1     -11.370   7.906  72.444  1.00  0.00     0.000 HD 
BRANCH   9  11
HETATM   11  P   UNL     1      -9.845   8.303  70.723  1.00  0.00    -0.188 P  
HETATM   12  O   UNL     1      -8.901   8.917  71.785  1.00  0.00    -0.308 OA 
BRANCH  11  13
HETATM   13  C   UNL     1     -10.620  10.032  70.462  1.00  0.00    -0.246 C  
BRANCH  13  14
HETATM   14  O   UNL     1      -9.942  10.820  69.412  1.00  0.00    -0.198 OA 
BRANCH  14  15
HETATM   15  C   UNL     1     -10.597  11.098  68.145  1.00  0.00    -0.193 C  
HETATM   16  C   UNL     1      -9.555  11.515  67.100  1.00  0.00    -0.189 C  
BRANCH  15  17
HETATM   17  C   UNL     1     -11.802  12.025  68.236  1.00  0.00    -0.287 C  
BRANCH  17  18
HETATM   18  N   UNL     1     -11.708  13.234  67.466  1.00  0.00    -0.348 NA 
HETATM   19  C   UNL     1     -11.248  14.456  67.875  1.00  0.00    -0.286 A  
HETATM   20  N   UNL     1     -11.221  15.322  66.886  1.00  0.00    -0.298 NA 
HETATM   21  C   UNL     1     -11.707  14.622  65.804  1.00  0.00    -0.302 A  
HETATM   22  C   UNL     1     -11.906  14.988  64.470  1.00  0.00    -0.371 A  
HETATM   23  N   UNL     1     -12.477  14.095  63.629  1.00  0.00    -0.797 NA 
HETATM   24  N   UNL     1     -11.543  16.239  63.996  1.00  0.00    -1.504 NA 
HETATM   25  C   UNL     1     -12.782  12.876  64.113  1.00  0.00    -0.171 A  
HETATM   26  H1  UNL     1     -11.689  16.507  63.022  1.00  0.00     0.000 HD 
HETATM   27  H2  UNL     1     -10.558  16.383  64.216  1.00  0.00     0.000 HD 
HETATM   28  N   UNL     1     -12.605  12.394  65.364  1.00  0.00    -0.557 NA 
HETATM   29  C   UNL     1     -12.058  13.333  66.151  1.00  0.00    -0.421 A  
ENDBRANCH  17  18
ENDBRANCH  15  17
ENDBRANCH  14  15
ENDBRANCH  13  14
ENDBRANCH  11  13
BRANCH  11  30
HETATM   30  O   UNL     1     -10.900   7.617  69.535  1.00  0.00    -0.234 OA 
BRANCH  30  31
HETATM   31  C   UNL     1     -10.298   7.102  68.400  1.00  0.00    -0.194 A  
HETATM   32  C   UNL     1     -11.032   6.170  67.666  1.00  0.00    -0.400 A  
HETATM   33  C   UNL     1      -8.460   6.850  66.837  1.00  0.00    -0.115 A  
HETATM   34  C   UNL     1      -9.011   7.449  67.979  1.00  0.00    -0.132 A  
HETATM   35  C   UNL     1      -9.189   5.904  66.118  1.00  0.00    -0.164 A  
HETATM   36  C   UNL     1     -10.474   5.565  66.534  1.00  0.00    -0.331 A  
ENDBRANCH  30  31
ENDBRANCH  11  30
ENDBRANCH   9  11
ENDBRANCH   7   9
ENDBRANCH   5   7
ENDBRANCH   4   5
ENDBRANCH   2   4
TORSDOF 12
ENDMDL
MODEL      118
REMARK 921   NORMALIZED FREE ENERGY PREDICTED BY IDOCK:   -5.48 KCAL/MOL
REMARK 922        TOTAL FREE ENERGY PREDICTED BY IDOCK:  -11.04 KCAL/MOL
REMARK 923 INTER-LIGAND FREE ENERGY PREDICTED BY IDOCK:   -9.01 KCAL/MOL
REMARK 924 INTRA-LIGAND FREE ENERGY PREDICTED BY IDOCK:   -2.03 KCAL/MOL
REMARK 927      BINDING AFFINITY PREDICTED BY RF-SCORE:    0.00 PKD
ROOT
HETATM    1  C   UNL     1      -9.930  16.413  66.487  1.00  0.00    -0.294 C  
HETATM    2  C   UNL     1     -10.494  16.990  67.787  1.00  0.00    -0.349 C  
HETATM    3  C   UNL     1     -10.668  18.511  67.679  1.00  0.00    -0.405 C  
ENDROOT
BRANCH   2   4
HETATM    4  O   UNL     1     -11.652  16.238  68.279  1.00  0.00    -0.301 OA 
BRANCH   4   5
HETATM    5  C   UNL     1     -11.656  15.775  69.553  1.00  0.00    -0.363 C  
HETATM    6  O   UNL     1     -11.202  16.418  70.502  1.00  0.00    -0.369 OA 
BRANCH   5   7
HETATM    7  C   UNL     1     -12.255  14.357  69.782  1.00  0.00    -0.321 C  
HETATM    8  C   UNL     1     -13.349  14.439  70.845  1.00  0.00    -0.294 C  
BRANCH   7   9
HETATM    9  N   UNL     1     -11.326  13.189  70.037  1.00  0.00    -0.504 NA 
HETATM   10  H   UNL     1     -11.433  12.831  70.986  1.00  0.00     0.000 HD 
BRANCH   9  11
HETATM   11  P   UNL     1     -11.531  11.910  68.844  1.00  0.00    -0.352 P  
HETATM   12  O   UNL     1     -12.408  11.038  69.775  1.00  0.00    -0.321 OA 
BRANCH  11  13
HETATM   13  C   UNL     1     -10.160  10.579  68.946  1.00  0.00    -0.202 C  
BRANCH  13  14
HETATM   14  O   UNL     1     -10.688   9.218  69.175  1.00  0.00    -0.224 OA 
BRANCH  14  15
HETATM   15  C   UNL     1      -9.980   8.274  70.023  1.00  0.00    -0.188 C  
HETATM   16  C   UNL     1      -9.902   8.817  71.456  1.00  0.00    -0.371 C  
BRANCH  15  17
HETATM   17  C   UNL     1      -8.653   7.781  69.464  1.00  0.00    -0.135 C  
BRANCH  17  18
HETATM   18  N   UNL     1      -8.688   7.337  68.098  1.00  0.00    -0.128 NA 
HETATM   19  C   UNL     1      -9.328   6.239  67.588  1.00  0.00    -0.116 A  
HETATM   20  N   UNL     1      -9.222   6.180  66.278  1.00  0.00    -0.154 NA 
HETATM   21  C   UNL     1      -8.462   7.279  65.945  1.00  0.00    -0.144 A  
HETATM   22  C   UNL     1      -8.022   7.768  64.712  1.00  0.00    -0.142 A  
HETATM   23  N   UNL     1      -7.213   8.853  64.694  1.00  0.00    -0.094 NA 
HETATM   24  N   UNL     1      -8.385   7.165  63.517  1.00  0.00    -0.355 NA 
HETATM   25  C   UNL     1      -6.912   9.436  65.870  1.00  0.00    -0.090 A  
HETATM   26  H1  UNL     1      -8.063   7.522  62.617  1.00  0.00     0.000 HD 
HETATM   27  H2  UNL     1      -9.403   7.116  63.489  1.00  0.00     0.000 HD 
HETATM   28  N   UNL     1      -7.304   9.083  67.115  1.00  0.00    -0.086 NA 
HETATM   29  C   UNL     1      -8.082   7.991  67.064  1.00  0.00    -0.116 A  
ENDBRANCH  17  18
ENDBRANCH  15  17
ENDBRANCH  14  15
ENDBRANCH  13  14
ENDBRANCH  11  13
BRANCH  11  30
HETATM   30  O   UNL     1     -10.550  12.885  67.803  1.00  0.00    -0.216 OA 
BRANCH  30  31
HETATM   31  C   UNL     1     -10.904  12.906  66.466  1.00  0.00    -0.271 A  
HETATM   32  C   UNL     1     -12.257  13.083  66.175  1.00  0.00    -0.428 A  
HETATM   33  C   UNL     1     -10.442  12.737  64.090  1.00  0.00    -0.437 A  
HETATM   34  C   UNL     1      -9.993  12.741  65.418  1.00  0.00    -0.215 A  
HETATM   35  C   UNL     1     -11.797  12.893  63.806  1.00  0.00    -0.571 A  
HETATM   36  C   UNL     1     -12.703  13.065  64.849  1.00  0.00    -0.456 A  
ENDBRANCH  30  31
ENDBRANCH  11  30
ENDBRANCH   9  11
ENDBRANCH   7   9
ENDBRANCH   5   7
ENDBRANCH   4   5
ENDBRANCH   2   4
TORSDOF 12
ENDMDL
MODEL      119
REMARK 921   NORMALIZED FREE ENERGY PREDICTED BY IDOCK:   -5.48 KCAL/MOL
REMARK 922        TOTAL FREE ENERGY PREDICTED BY IDOCK:  -11.04 KCAL/MOL
REMARK 923 INTER-LIGAND FREE ENERGY PREDICTED BY IDOCK:   -9.91 KCAL/MOL
REMARK 924 INTRA-LIGAND FREE ENERGY PREDICTED BY IDOCK:   -1.13 KCAL/MOL
REMARK 927      BINDING AFFINITY PREDICTED BY RF-SCORE:    0.00 PKD
ROOT
HETATM    1  C   UNL     1     -10.016   4.221  70.489  1.00  0.00    -0.219 C  
HETATM    2  C   UNL     1     -10.116   5.337  69.446  1.00  0.00    -0.241 C  
HETATM    3  C   UNL     1      -9.686   4.831  68.062  1.00  0.00    -0.202 C  
ENDROOT
BRANCH   2   4
HETATM    4  O   UNL     1     -11.395   6.050  69.508  1.00  0.00    -0.405 OA 
BRANCH   4   5
HETATM    5  C   UNL     1     -11.540   7.091  70.365  1.00  0.00    -0.295 C  
HETATM    6  O   UNL     1     -12.381   7.105  71.265  1.00  0.00    -0.344 OA 
BRANCH   5   7
HETATM    7  C   UNL     1     -10.595   8.308  70.156  1.00  0.00    -0.233 C  
HETATM    8  C   UNL     1     -10.352   8.993  71.500  1.00  0.00    -0.412 C  
BRANCH   7   9
HETATM    9  N   UNL     1     -10.910   9.319  69.073  1.00  0.00    -0.386 NA 
HETATM   10  H   UNL     1     -11.027  10.254  69.462  1.00  0.00     0.000 HD 
BRANCH   9  11
HETATM   11  P   UNL     1      -9.705   9.308  67.789  1.00  0.00    -0.165 P  
HETATM   12  O   UNL     1      -8.768   8.325  68.533  1.00  0.00    -0.132 OA 
BRANCH  11  13
HETATM   13  C   UNL     1      -8.385  10.675  68.004  1.00  0.00    -0.118 C  
BRANCH  13  14
HETATM   14  O   UNL     1      -8.899  11.874  68.699  1.00  0.00    -0.139 OA 
BRANCH  14  15
HETATM   15  C   UNL     1      -9.198  13.093  67.967  1.00  0.00    -0.211 C  
HETATM   16  C   UNL     1      -7.906  13.878  67.711  1.00  0.00    -0.172 C  
BRANCH  15  17
HETATM   17  C   UNL     1     -10.336  13.924  68.545  1.00  0.00    -0.244 C  
BRANCH  17  18
HETATM   18  N   UNL     1     -10.361  15.301  68.135  1.00  0.00    -0.239 NA 
HETATM   19  C   UNL     1     -10.053  16.405  68.884  1.00  0.00    -0.255 A  
HETATM   20  N   UNL     1     -10.101  17.506  68.167  1.00  0.00    -0.321 NA 
HETATM   21  C   UNL     1     -10.477  17.083  66.912  1.00  0.00    -0.268 A  
HETATM   22  C   UNL     1     -10.684  17.778  65.717  1.00  0.00    -0.098 A  
HETATM   23  N   UNL     1     -11.128  17.096  64.636  1.00  0.00    -1.007 NA 
HETATM   24  N   UNL     1     -10.454  19.142  65.619  1.00  0.00    -0.541 NA 
HETATM   25  C   UNL     1     -11.304  15.766  64.757  1.00  0.00    -0.314 A  
HETATM   26  H1  UNL     1     -10.605  19.650  64.746  1.00  0.00     0.000 HD 
HETATM   27  H2  UNL     1      -9.497  19.321  65.923  1.00  0.00     0.000 HD 
HETATM   28  N   UNL     1     -11.103  14.981  65.839  1.00  0.00    -0.339 NA 
HETATM   29  C   UNL     1     -10.687  15.720  66.878  1.00  0.00    -0.299 A  
ENDBRANCH  17  18
ENDBRANCH  15  17
ENDBRANCH  14  15
ENDBRANCH  13  14
ENDBRANCH  11  13
BRANCH  11  30
HETATM   30  O   UNL     1     -10.752  10.406  66.957  1.00  0.00    -0.261 OA 
BRANCH  30  31
HETATM   31  C   UNL     1     -10.441  10.672  65.635  1.00  0.00    -0.165 A  
HETATM   32  C   UNL     1      -9.563   9.789  65.005  1.00  0.00    -0.333 A  
HETATM   33  C   UNL     1     -10.540  11.988  63.600  1.00  0.00    -0.503 A  
HETATM   34  C   UNL     1     -10.937  11.771  64.926  1.00  0.00    -0.358 A  
HETATM   35  C   UNL     1      -9.647  11.115  62.981  1.00  0.00    -0.389 A  
HETATM   36  C   UNL     1      -9.159  10.018  63.685  1.00  0.00    -0.301 A  
ENDBRANCH  30  31
ENDBRANCH  11  30
ENDBRANCH   9  11
ENDBRANCH   7   9
ENDBRANCH   5   7
ENDBRANCH   4   5
ENDBRANCH   2   4
TORSDOF 12
ENDMDL
MODEL      120
REMARK 921   NORMALIZED FREE ENERGY PREDICTED BY IDOCK:   -5.47 KCAL/MOL
REMARK 922        TOTAL FREE ENERGY PREDICTED BY IDOCK:  -11.02 KCAL/MOL
REMARK 923 INTER-LIGAND FREE ENERGY PREDICTED BY IDOCK:   -9.50 KCAL/MOL
REMARK 924 INTRA-LIGAND FREE ENERGY PREDICTED BY IDOCK:   -1.53 KCAL/MOL
REMARK 927      BINDING AFFINITY PREDICTED BY RF-SCORE:    0.00 PKD
ROOT
HETATM    1  C   UNL     1     -13.055  11.027  71.587  1.00  0.00    -0.543 C  
HETATM    2  C   UNL     1     -12.927   9.563  72.015  1.00  0.00    -0.426 C  
HETATM    3  C   UNL     1     -14.295   8.867  71.996  1.00  0.00    -0.406 C  
ENDROOT
BRANCH   2   4
HETATM    4  O   UNL     1     -11.836   8.870  71.324  1.00  0.00    -0.285 OA 
BRANCH   4   5
HETATM    5  C   UNL     1     -11.189   7.855  71.947  1.00  0.00    -0.271 C  
HETATM    6  O   UNL     1     -11.167   7.725  73.172  1.00  0.00    -0.402 OA 
BRANCH   5   7
HETATM    7  C   UNL     1     -10.438   6.840  71.038  1.00  0.00    -0.212 C  
HETATM    8  C   UNL     1     -10.810   5.418  71.456  1.00  0.00    -0.218 C  
BRANCH   7   9
HETATM    9  N   UNL     1      -8.943   6.982  70.840  1.00  0.00    -0.151 NA 
HETATM   10  H   UNL     1      -8.477   6.076  70.876  1.00  0.00     0.000 HD 
BRANCH   9  11
HETATM   11  P   UNL     1      -8.553   7.842  69.353  1.00  0.00    -0.135 P  
HETATM   12  O   UNL     1      -8.697   9.241  70.000  1.00  0.00    -0.158 OA 
BRANCH  11  13
HETATM   13  C   UNL     1     -10.098   8.213  68.288  1.00  0.00    -0.197 C  
BRANCH  13  14
HETATM   14  O   UNL     1     -10.283   9.653  68.016  1.00  0.00    -0.173 OA 
BRANCH  14  15
HETATM   15  C   UNL     1     -10.114  10.190  66.676  1.00  0.00    -0.223 C  
HETATM   16  C   UNL     1      -9.421   9.154  65.783  1.00  0.00    -0.322 C  
BRANCH  15  17
HETATM   17  C   UNL     1      -9.502  11.583  66.617  1.00  0.00    -0.193 C  
BRANCH  17  18
HETATM   18  N   UNL     1     -10.130  12.492  65.699  1.00  0.00    -0.268 NA 
HETATM   19  C   UNL     1     -10.937  12.188  64.636  1.00  0.00    -0.312 A  
HETATM   20  N   UNL     1     -11.410  13.272  64.060  1.00  0.00    -0.381 NA 
HETATM   21  C   UNL     1     -10.860  14.310  64.778  1.00  0.00    -0.405 A  
HETATM   22  C   UNL     1     -10.994  15.697  64.662  1.00  0.00    -0.325 A  
HETATM   23  N   UNL     1     -10.263  16.491  65.478  1.00  0.00    -0.578 NA 
HETATM   24  N   UNL     1     -11.844  16.271  63.729  1.00  0.00    -1.413 NA 
HETATM   25  C   UNL     1      -9.477  15.899  66.397  1.00  0.00    -0.295 A  
HETATM   26  H1  UNL     1     -11.942  17.283  63.644  1.00  0.00     0.000 HD 
HETATM   27  H2  UNL     1     -12.775  15.878  63.871  1.00  0.00     0.000 HD 
HETATM   28  N   UNL     1      -9.293  14.581  66.631  1.00  0.00    -0.269 NA 
HETATM   29  C   UNL     1     -10.026  13.851  65.776  1.00  0.00    -0.284 A  
ENDBRANCH  17  18
ENDBRANCH  15  17
ENDBRANCH  14  15
ENDBRANCH  13  14
ENDBRANCH  11  13
BRANCH  11  30
HETATM   30  O   UNL     1      -8.391   6.278  68.630  1.00  0.00    -0.111 OA 
BRANCH  30  31
HETATM   31  C   UNL     1      -7.950   6.248  67.319  1.00  0.00    -0.109 A  
HETATM   32  C   UNL     1      -8.702   5.491  66.419  1.00  0.00    -0.123 A  
HETATM   33  C   UNL     1      -6.404   6.793  65.530  1.00  0.00    -0.042 A  
HETATM   34  C   UNL     1      -6.802   6.907  66.870  1.00  0.00    -0.065 A  
HETATM   35  C   UNL     1      -7.146   6.019  64.640  1.00  0.00    -0.057 A  
HETATM   36  C   UNL     1      -8.294   5.369  65.086  1.00  0.00    -0.144 A  
ENDBRANCH  30  31
ENDBRANCH  11  30
ENDBRANCH   9  11
ENDBRANCH   7   9
ENDBRANCH   5   7
ENDBRANCH   4   5
ENDBRANCH   2   4
TORSDOF 12
ENDMDL
MODEL      121
REMARK 921   NORMALIZED FREE ENERGY PREDICTED BY IDOCK:   -5.46 KCAL/MOL
REMARK 922        TOTAL FREE ENERGY PREDICTED BY IDOCK:  -11.01 KCAL/MOL
REMARK 923 INTER-LIGAND FREE ENERGY PREDICTED BY IDOCK:   -9.24 KCAL/MOL
REMARK 924 INTRA-LIGAND FREE ENERGY PREDICTED BY IDOCK:   -1.77 KCAL/MOL
REMARK 927      BINDING AFFINITY PREDICTED BY RF-SCORE:    0.00 PKD
ROOT
HETATM    1  C   UNL     1     -12.004  11.165  69.393  1.00  0.00    -0.420 C  
HETATM    2  C   UNL     1     -11.021   9.996  69.287  1.00  0.00    -0.228 C  
HETATM    3  C   UNL     1     -10.841   9.566  67.824  1.00  0.00    -0.258 C  
ENDROOT
BRANCH   2   4
HETATM    4  O   UNL     1      -9.793  10.225  70.052  1.00  0.00    -0.191 OA 
BRANCH   4   5
HETATM    5  C   UNL     1      -8.596   9.882  69.515  1.00  0.00    -0.185 C  
HETATM    6  O   UNL     1      -8.090   8.768  69.662  1.00  0.00    -0.096 OA 
BRANCH   5   7
HETATM    7  C   UNL     1      -7.854  10.979  68.699  1.00  0.00    -0.136 C  
HETATM    8  C   UNL     1      -6.347  10.743  68.793  1.00  0.00    -0.044 C  
BRANCH   7   9
HETATM    9  N   UNL     1      -8.198  12.436  68.925  1.00  0.00    -0.343 NA 
HETATM   10  H   UNL     1      -7.559  12.868  69.593  1.00  0.00     0.000 HD 
BRANCH   9  11
HETATM   11  P   UNL     1      -8.255  13.343  67.416  1.00  0.00    -0.136 P  
HETATM   12  O   UNL     1      -6.725  13.578  67.378  1.00  0.00    -0.180 OA 
BRANCH  11  13
HETATM   13  C   UNL     1      -8.502  15.220  67.693  1.00  0.00    -0.161 C  
BRANCH  13  14
HETATM   14  O   UNL     1      -9.915  15.640  67.595  1.00  0.00    -0.233 OA 
BRANCH  14  15
HETATM   15  C   UNL     1     -10.573  16.316  68.700  1.00  0.00    -0.297 C  
HETATM   16  C   UNL     1     -11.759  15.477  69.193  1.00  0.00    -0.380 C  
BRANCH  15  17
HETATM   17  C   UNL     1     -10.900  17.782  68.451  1.00  0.00    -0.078 C  
BRANCH  17  18
HETATM   18  N   UNL     1     -10.112  18.423  67.435  1.00  0.00    -0.335 NA 
HETATM   19  C   UNL     1     -10.464  18.678  66.137  1.00  0.00    -0.430 A  
HETATM   20  N   UNL     1      -9.532  19.359  65.506  1.00  0.00    -0.088 NA 
HETATM   21  C   UNL     1      -8.536  19.525  66.442  1.00  0.00    -0.352 A  
HETATM   22  C   UNL     1      -7.300  20.175  66.381  1.00  0.00    -0.281 A  
HETATM   23  N   UNL     1      -6.480  20.115  67.456  1.00  0.00    -0.207 NA 
HETATM   24  N   UNL     1      -6.895  20.867  65.249  1.00  0.00    -0.527 NA 
HETATM   25  C   UNL     1      -6.921  19.468  68.551  1.00  0.00    -0.305 A  
HETATM   26  H1  UNL     1      -5.993  21.341  65.205  1.00  0.00     0.000 HD 
HETATM   27  H2  UNL     1      -7.619  21.549  65.024  1.00  0.00     0.000 HD 
HETATM   28  N   UNL     1      -8.102  18.838  68.744  1.00  0.00    -0.323 NA 
HETATM   29  C   UNL     1      -8.855  18.915  67.637  1.00  0.00    -0.288 A  
ENDBRANCH  17  18
ENDBRANCH  15  17
ENDBRANCH  14  15
ENDBRANCH  13  14
ENDBRANCH  11  13
BRANCH  11  30
HETATM   30  O   UNL     1      -9.965  13.080  67.459  1.00  0.00    -0.207 OA 
BRANCH  30  31
HETATM   31  C   UNL     1     -10.569  12.761  66.256  1.00  0.00    -0.257 A  
HETATM   32  C   UNL     1     -11.917  13.096  66.121  1.00  0.00    -0.478 A  
HETATM   33  C   UNL     1     -10.611  11.794  64.032  1.00  0.00    -0.425 A  
HETATM   34  C   UNL     1      -9.913  12.115  65.204  1.00  0.00    -0.251 A  
HETATM   35  C   UNL     1     -11.963  12.112  63.909  1.00  0.00    -0.581 A  
HETATM   36  C   UNL     1     -12.614  12.762  64.954  1.00  0.00    -0.541 A  
ENDBRANCH  30  31
ENDBRANCH  11  30
ENDBRANCH   9  11
ENDBRANCH   7   9
ENDBRANCH   5   7
ENDBRANCH   4   5
ENDBRANCH   2   4
TORSDOF 12
ENDMDL
MODEL      122
REMARK 921   NORMALIZED FREE ENERGY PREDICTED BY IDOCK:   -5.46 KCAL/MOL
REMARK 922        TOTAL FREE ENERGY PREDICTED BY IDOCK:  -11.01 KCAL/MOL
REMARK 923 INTER-LIGAND FREE ENERGY PREDICTED BY IDOCK:   -9.26 KCAL/MOL
REMARK 924 INTRA-LIGAND FREE ENERGY PREDICTED BY IDOCK:   -1.75 KCAL/MOL
REMARK 927      BINDING AFFINITY PREDICTED BY RF-SCORE:    0.00 PKD
ROOT
HETATM    1  C   UNL     1     -12.203  12.960  63.339  1.00  0.00    -0.574 C  
HETATM    2  C   UNL     1     -11.064  12.481  64.241  1.00  0.00    -0.356 C  
HETATM    3  C   UNL     1     -10.535  11.117  63.774  1.00  0.00    -0.444 C  
ENDROOT
BRANCH   2   4
HETATM    4  O   UNL     1     -10.059  13.520  64.476  1.00  0.00    -0.347 OA 
BRANCH   4   5
HETATM    5  C   UNL     1     -10.244  14.416  65.477  1.00  0.00    -0.363 C  
HETATM    6  O   UNL     1     -10.065  15.627  65.335  1.00  0.00    -0.355 OA 
BRANCH   5   7
HETATM    7  C   UNL     1     -10.686  13.846  66.856  1.00  0.00    -0.284 C  
HETATM    8  C   UNL     1     -10.853  14.997  67.846  1.00  0.00    -0.280 C  
BRANCH   7   9
HETATM    9  N   UNL     1      -9.911  12.700  67.471  1.00  0.00    -0.200 NA 
HETATM   10  H   UNL     1      -9.337  13.018  68.251  1.00  0.00     0.000 HD 
BRANCH   9  11
HETATM   11  P   UNL     1     -10.964  11.372  67.951  1.00  0.00    -0.286 P  
HETATM   12  O   UNL     1     -12.263  12.133  67.588  1.00  0.00    -0.462 OA 
BRANCH  11  13
HETATM   13  C   UNL     1     -11.468  11.460  69.794  1.00  0.00    -0.300 C  
BRANCH  13  14
HETATM   14  O   UNL     1     -11.766  10.136  70.378  1.00  0.00    -0.271 OA 
BRANCH  14  15
HETATM   15  C   UNL     1     -12.996   9.903  71.116  1.00  0.00    -0.369 C  
HETATM   16  C   UNL     1     -13.309  11.116  72.002  1.00  0.00    -0.384 C  
BRANCH  15  17
HETATM   17  C   UNL     1     -13.067   8.563  71.836  1.00  0.00    -0.362 C  
BRANCH  17  18
HETATM   18  N   UNL     1     -12.104   7.585  71.411  1.00  0.00    -0.314 NA 
HETATM   19  C   UNL     1     -12.123   6.828  70.271  1.00  0.00    -0.152 A  
HETATM   20  N   UNL     1     -11.037   6.095  70.157  1.00  0.00    -0.355 NA 
HETATM   21  C   UNL     1     -10.306   6.385  71.287  1.00  0.00    -0.207 A  
HETATM   22  C   UNL     1      -9.060   5.936  71.731  1.00  0.00    -0.142 A  
HETATM   23  N   UNL     1      -8.614   6.346  72.941  1.00  0.00    -0.124 NA 
HETATM   24  N   UNL     1      -8.280   5.078  70.970  1.00  0.00    -0.107 NA 
HETATM   25  C   UNL     1      -9.379   7.208  73.637  1.00  0.00    -0.212 A  
HETATM   26  H1  UNL     1      -7.370   4.750  71.294  1.00  0.00     0.000 HD 
HETATM   27  H2  UNL     1      -8.150   5.505  70.053  1.00  0.00     0.000 HD 
HETATM   28  N   UNL     1     -10.575   7.741  73.300  1.00  0.00    -0.350 NA 
HETATM   29  C   UNL     1     -10.970   7.277  72.104  1.00  0.00    -0.239 A  
ENDBRANCH  17  18
ENDBRANCH  15  17
ENDBRANCH  14  15
ENDBRANCH  13  14
ENDBRANCH  11  13
BRANCH  11  30
HETATM   30  O   UNL     1      -9.512  10.522  68.356  1.00  0.00    -0.147 OA 
BRANCH  30  31
HETATM   31  C   UNL     1      -9.445   9.197  67.963  1.00  0.00    -0.141 A  
HETATM   32  C   UNL     1     -10.532   8.697  67.245  1.00  0.00    -0.360 A  
HETATM   33  C   UNL     1      -8.402   7.009  67.861  1.00  0.00    -0.118 A  
HETATM   34  C   UNL     1      -8.373   8.351  68.264  1.00  0.00    -0.131 A  
HETATM   35  C   UNL     1      -9.500   6.509  67.162  1.00  0.00    -0.150 A  
HETATM   36  C   UNL     1     -10.563   7.353  66.855  1.00  0.00    -0.375 A  
ENDBRANCH  30  31
ENDBRANCH  11  30
ENDBRANCH   9  11
ENDBRANCH   7   9
ENDBRANCH   5   7
ENDBRANCH   4   5
ENDBRANCH   2   4
TORSDOF 12
ENDMDL
MODEL      123
REMARK 921   NORMALIZED FREE ENERGY PREDICTED BY IDOCK:   -5.44 KCAL/MOL
REMARK 922        TOTAL FREE ENERGY PREDICTED BY IDOCK:  -10.96 KCAL/MOL
REMARK 923 INTER-LIGAND FREE ENERGY PREDICTED BY IDOCK:   -9.55 KCAL/MOL
REMARK 924 INTRA-LIGAND FREE ENERGY PREDICTED BY IDOCK:   -1.41 KCAL/MOL
REMARK 927      BINDING AFFINITY PREDICTED BY RF-SCORE:    0.00 PKD
ROOT
HETATM    1  C   UNL     1     -13.144  11.282  71.730  1.00  0.00    -0.527 C  
HETATM    2  C   UNL     1     -12.880   9.789  71.941  1.00  0.00    -0.427 C  
HETATM    3  C   UNL     1     -14.177   9.050  72.299  1.00  0.00    -0.432 C  
ENDROOT
BRANCH   2   4
HETATM    4  O   UNL     1     -12.075   9.204  70.866  1.00  0.00    -0.283 OA 
BRANCH   4   5
HETATM    5  C   UNL     1     -10.900   8.596  71.163  1.00  0.00    -0.259 C  
HETATM    6  O   UNL     1     -10.202   8.922  72.125  1.00  0.00    -0.321 OA 
BRANCH   5   7
HETATM    7  C   UNL     1     -10.441   7.453  70.213  1.00  0.00    -0.221 C  
HETATM    8  C   UNL     1     -11.516   6.368  70.177  1.00  0.00    -0.484 C  
BRANCH   7   9
HETATM    9  N   UNL     1      -9.061   6.855  70.381  1.00  0.00    -0.156 NA 
HETATM   10  H   UNL     1      -9.094   5.835  70.361  1.00  0.00     0.000 HD 
BRANCH   9  11
HETATM   11  P   UNL     1      -7.921   7.481  69.194  1.00  0.00    -0.124 P  
HETATM   12  O   UNL     1      -6.846   7.829  70.253  1.00  0.00    -0.045 OA 
BRANCH  11  13
HETATM   13  C   UNL     1      -8.152   9.351  68.864  1.00  0.00    -0.103 C  
BRANCH  13  14
HETATM   14  O   UNL     1      -8.451   9.658  67.450  1.00  0.00    -0.124 OA 
BRANCH  14  15
HETATM   15  C   UNL     1      -8.460  11.029  66.968  1.00  0.00    -0.141 C  
HETATM   16  C   UNL     1      -7.023  11.558  66.872  1.00  0.00    -0.134 C  
BRANCH  15  17
HETATM   17  C   UNL     1      -9.425  11.956  67.693  1.00  0.00    -0.182 C  
BRANCH  17  18
HETATM   18  N   UNL     1      -9.782  13.152  66.981  1.00  0.00    -0.234 NA 
HETATM   19  C   UNL     1      -9.191  14.385  67.060  1.00  0.00    -0.234 A  
HETATM   20  N   UNL     1      -9.719  15.232  66.204  1.00  0.00    -0.291 NA 
HETATM   21  C   UNL     1     -10.703  14.510  65.568  1.00  0.00    -0.341 A  
HETATM   22  C   UNL     1     -11.599  14.851  64.551  1.00  0.00    -0.352 A  
HETATM   23  N   UNL     1     -12.522  13.939  64.165  1.00  0.00    -0.693 NA 
HETATM   24  N   UNL     1     -11.570  16.095  63.941  1.00  0.00    -1.469 NA 
HETATM   25  C   UNL     1     -12.497  12.727  64.752  1.00  0.00    -0.472 A  
HETATM   26  H1  UNL     1     -12.224  16.344  63.199  1.00  0.00     0.000 HD 
HETATM   27  H2  UNL     1     -10.625  16.249  63.590  1.00  0.00     0.000 HD 
HETATM   28  N   UNL     1     -11.662  12.269  65.711  1.00  0.00    -0.426 NA 
HETATM   29  C   UNL     1     -10.791  13.225  66.065  1.00  0.00    -0.273 A  
ENDBRANCH  17  18
ENDBRANCH  15  17
ENDBRANCH  14  15
ENDBRANCH  13  14
ENDBRANCH  11  13
BRANCH  11  30
HETATM   30  O   UNL     1      -9.121   7.092  68.010  1.00  0.00    -0.129 OA 
BRANCH  30  31
HETATM   31  C   UNL     1      -8.858   6.000  67.202  1.00  0.00    -0.108 A  
HETATM   32  C   UNL     1      -7.712   5.260  67.497  1.00  0.00    -0.096 A  
HETATM   33  C   UNL     1      -9.296   4.526  65.325  1.00  0.00    -0.160 A  
HETATM   34  C   UNL     1      -9.657   5.625  66.117  1.00  0.00    -0.142 A  
HETATM   35  C   UNL     1      -8.139   3.803  65.611  1.00  0.00    -0.093 A  
HETATM   36  C   UNL     1      -7.349   4.171  66.696  1.00  0.00    -0.076 A  
ENDBRANCH  30  31
ENDBRANCH  11  30
ENDBRANCH   9  11
ENDBRANCH   7   9
ENDBRANCH   5   7
ENDBRANCH   4   5
ENDBRANCH   2   4
TORSDOF 12
ENDMDL
MODEL      124
REMARK 921   NORMALIZED FREE ENERGY PREDICTED BY IDOCK:   -5.42 KCAL/MOL
REMARK 922        TOTAL FREE ENERGY PREDICTED BY IDOCK:  -10.94 KCAL/MOL
REMARK 923 INTER-LIGAND FREE ENERGY PREDICTED BY IDOCK:  -11.02 KCAL/MOL
REMARK 924 INTRA-LIGAND FREE ENERGY PREDICTED BY IDOCK:    0.08 KCAL/MOL
REMARK 927      BINDING AFFINITY PREDICTED BY RF-SCORE:    0.00 PKD
ROOT
HETATM    1  C   UNL     1      -9.418  11.183  63.038  1.00  0.00    -0.386 C  
HETATM    2  C   UNL     1     -10.465  11.324  64.146  1.00  0.00    -0.369 C  
HETATM    3  C   UNL     1     -10.137  10.402  65.328  1.00  0.00    -0.370 C  
ENDROOT
BRANCH   2   4
HETATM    4  O   UNL     1     -10.750  12.723  64.474  1.00  0.00    -0.316 OA 
BRANCH   4   5
HETATM    5  C   UNL     1     -11.971  13.063  64.954  1.00  0.00    -0.396 C  
HETATM    6  O   UNL     1     -12.999  12.448  64.666  1.00  0.00    -0.793 OA 
BRANCH   5   7
HETATM    7  C   UNL     1     -12.036  14.301  65.895  1.00  0.00    -0.391 C  
HETATM    8  C   UNL     1     -10.701  15.043  65.842  1.00  0.00    -0.337 C  
BRANCH   7   9
HETATM    9  N   UNL     1     -12.514  14.128  67.321  1.00  0.00    -0.532 NA 
HETATM   10  H   UNL     1     -13.259  13.434  67.380  1.00  0.00     0.000 HD 
BRANCH   9  11
HETATM   11  P   UNL     1     -11.191  13.741  68.418  1.00  0.00    -0.313 P  
HETATM   12  O   UNL     1     -10.806  15.223  68.646  1.00  0.00    -0.237 OA 
BRANCH  11  13
HETATM   13  C   UNL     1      -9.529  13.484  67.508  1.00  0.00    -0.222 C  
BRANCH  13  14
HETATM   14  O   UNL     1      -8.362  13.948  68.288  1.00  0.00    -0.151 OA 
BRANCH  14  15
HETATM   15  C   UNL     1      -7.255  14.633  67.643  1.00  0.00    -0.186 C  
HETATM   16  C   UNL     1      -6.031  13.710  67.590  1.00  0.00    -0.085 C  
BRANCH  15  17
HETATM   17  C   UNL     1      -6.967  16.029  68.176  1.00  0.00    -0.122 C  
BRANCH  17  18
HETATM   18  N   UNL     1      -7.387  17.110  67.328  1.00  0.00    -0.148 NA 
HETATM   19  C   UNL     1      -6.835  17.507  66.139  1.00  0.00    -0.276 A  
HETATM   20  N   UNL     1      -7.525  18.480  65.585  1.00  0.00    -0.522 NA 
HETATM   21  C   UNL     1      -8.548  18.725  66.473  1.00  0.00    -0.305 A  
HETATM   22  C   UNL     1      -9.613  19.629  66.440  1.00  0.00    -0.401 A  
HETATM   23  N   UNL     1     -10.441  19.697  67.509  1.00  0.00    -0.448 NA 
HETATM   24  N   UNL     1      -9.833  20.458  65.350  1.00  0.00    -0.368 NA 
HETATM   25  C   UNL     1     -10.221  18.852  68.533  1.00  0.00    -0.347 A  
HETATM   26  H1  UNL     1     -10.611  21.118  65.326  1.00  0.00     0.000 HD 
HETATM   27  H2  UNL     1      -9.896  19.870  64.519  1.00  0.00     0.000 HD 
HETATM   28  N   UNL     1      -9.256  17.915  68.665  1.00  0.00    -0.285 NA 
HETATM   29  C   UNL     1      -8.459  17.915  67.586  1.00  0.00    -0.234 A  
ENDBRANCH  17  18
ENDBRANCH  15  17
ENDBRANCH  14  15
ENDBRANCH  13  14
ENDBRANCH  11  13
BRANCH  11  30
HETATM   30  O   UNL     1     -11.622  12.084  68.165  1.00  0.00    -0.298 OA 
BRANCH  30  31
HETATM   31  C   UNL     1     -11.591  11.262  69.277  1.00  0.00    -0.322 A  
HETATM   32  C   UNL     1     -10.420  10.532  69.488  1.00  0.00    -0.265 A  
HETATM   33  C   UNL     1     -12.559  10.231  71.249  1.00  0.00    -0.522 A  
HETATM   34  C   UNL     1     -12.660  11.116  70.166  1.00  0.00    -0.249 A  
HETATM   35  C   UNL     1     -11.395   9.489  71.443  1.00  0.00    -0.462 A  
HETATM   36  C   UNL     1     -10.328   9.640  70.563  1.00  0.00    -0.359 A  
ENDBRANCH  30  31
ENDBRANCH  11  30
ENDBRANCH   9  11
ENDBRANCH   7   9
ENDBRANCH   5   7
ENDBRANCH   4   5
ENDBRANCH   2   4
TORSDOF 12
ENDMDL
MODEL      125
REMARK 921   NORMALIZED FREE ENERGY PREDICTED BY IDOCK:   -5.41 KCAL/MOL
REMARK 922        TOTAL FREE ENERGY PREDICTED BY IDOCK:  -10.92 KCAL/MOL
REMARK 923 INTER-LIGAND FREE ENERGY PREDICTED BY IDOCK:   -9.54 KCAL/MOL
REMARK 924 INTRA-LIGAND FREE ENERGY PREDICTED BY IDOCK:   -1.39 KCAL/MOL
REMARK 927      BINDING AFFINITY PREDICTED BY RF-SCORE:    0.00 PKD
ROOT
HETATM    1  C   UNL     1      -7.861  16.136  66.974  1.00  0.00    -0.258 C  
HETATM    2  C   UNL     1      -9.324  16.428  66.633  1.00  0.00    -0.259 C  
HETATM    3  C   UNL     1      -9.768  17.770  67.230  1.00  0.00    -0.285 C  
ENDROOT
BRANCH   2   4
HETATM    4  O   UNL     1      -9.622  16.219  65.213  1.00  0.00    -0.383 OA 
BRANCH   4   5
HETATM    5  C   UNL     1     -10.784  15.622  64.854  1.00  0.00    -0.382 C  
HETATM    6  O   UNL     1     -11.694  16.219  64.275  1.00  0.00    -0.671 OA 
BRANCH   5   7
HETATM    7  C   UNL     1     -10.944  14.119  65.221  1.00  0.00    -0.337 C  
HETATM    8  C   UNL     1     -11.398  13.344  63.985  1.00  0.00    -0.356 C  
BRANCH   7   9
HETATM    9  N   UNL     1     -11.753  13.732  66.441  1.00  0.00    -0.359 NA 
HETATM   10  H   UNL     1     -12.590  13.210  66.180  1.00  0.00     0.000 HD 
BRANCH   9  11
HETATM   11  P   UNL     1     -10.790  12.846  67.620  1.00  0.00    -0.247 P  
HETATM   12  O   UNL     1      -9.546  12.769  66.701  1.00  0.00    -0.242 OA 
BRANCH  11  13
HETATM   13  C   UNL     1     -10.986  10.951  67.457  1.00  0.00    -0.293 C  
BRANCH  13  14
HETATM   14  O   UNL     1      -9.755  10.208  67.800  1.00  0.00    -0.150 OA 
BRANCH  14  15
HETATM   15  C   UNL     1      -9.368  10.000  69.185  1.00  0.00    -0.193 C  
HETATM   16  C   UNL     1      -8.253   8.950  69.263  1.00  0.00    -0.114 C  
BRANCH  15  17
HETATM   17  C   UNL     1     -10.525   9.761  70.145  1.00  0.00    -0.286 C  
BRANCH  17  18
HETATM   18  N   UNL     1     -10.733   8.393  70.530  1.00  0.00    -0.223 NA 
HETATM   19  C   UNL     1     -11.364   7.407  69.819  1.00  0.00    -0.017 A  
HETATM   20  N   UNL     1     -11.298   6.247  70.435  1.00  0.00    -0.369 NA 
HETATM   21  C   UNL     1     -10.612   6.513  71.598  1.00  0.00    -0.217 A  
HETATM   22  C   UNL     1     -10.215   5.690  72.655  1.00  0.00    -0.185 A  
HETATM   23  N   UNL     1      -9.603   6.253  73.723  1.00  0.00    -0.155 NA 
HETATM   24  N   UNL     1     -10.441   4.322  72.639  1.00  0.00    -0.184 NA 
HETATM   25  C   UNL     1      -9.365   7.577  73.690  1.00  0.00    -0.277 A  
HETATM   26  H1  UNL     1     -10.152   3.721  73.410  1.00  0.00     0.000 HD 
HETATM   27  H2  UNL     1     -10.035   3.949  71.781  1.00  0.00     0.000 HD 
HETATM   28  N   UNL     1      -9.664   8.466  72.716  1.00  0.00    -0.262 NA 
HETATM   29  C   UNL     1     -10.287   7.851  71.700  1.00  0.00    -0.204 A  
ENDBRANCH  17  18
ENDBRANCH  15  17
ENDBRANCH  14  15
ENDBRANCH  13  14
ENDBRANCH  11  13
BRANCH  11  30
HETATM   30  O   UNL     1     -12.180  12.933  68.646  1.00  0.00    -0.198 OA 
BRANCH  30  31
HETATM   31  C   UNL     1     -12.142  13.878  69.657  1.00  0.00    -0.349 A  
HETATM   32  C   UNL     1     -11.403  15.036  69.408  1.00  0.00    -0.314 A  
HETATM   33  C   UNL     1     -12.653  14.711  71.877  1.00  0.00    -0.409 A  
HETATM   34  C   UNL     1     -12.775  13.720  70.893  1.00  0.00    -0.394 A  
HETATM   35  C   UNL     1     -11.897  15.856  71.631  1.00  0.00    -0.565 A  
HETATM   36  C   UNL     1     -11.273  16.017  70.398  1.00  0.00    -0.401 A  
ENDBRANCH  30  31
ENDBRANCH  11  30
ENDBRANCH   9  11
ENDBRANCH   7   9
ENDBRANCH   5   7
ENDBRANCH   4   5
ENDBRANCH   2   4
TORSDOF 12
ENDMDL
MODEL      126
REMARK 921   NORMALIZED FREE ENERGY PREDICTED BY IDOCK:   -5.41 KCAL/MOL
REMARK 922        TOTAL FREE ENERGY PREDICTED BY IDOCK:  -10.92 KCAL/MOL
REMARK 923 INTER-LIGAND FREE ENERGY PREDICTED BY IDOCK:   -9.35 KCAL/MOL
REMARK 924 INTRA-LIGAND FREE ENERGY PREDICTED BY IDOCK:   -1.57 KCAL/MOL
REMARK 927      BINDING AFFINITY PREDICTED BY RF-SCORE:    0.00 PKD
ROOT
HETATM    1  C   UNL     1     -13.160  11.122  71.716  1.00  0.00    -0.536 C  
HETATM    2  C   UNL     1     -12.945   9.619  71.911  1.00  0.00    -0.435 C  
HETATM    3  C   UNL     1     -14.231   8.942  72.404  1.00  0.00    -0.452 C  
ENDROOT
BRANCH   2   4
HETATM    4  O   UNL     1     -12.281   8.995  70.764  1.00  0.00    -0.215 OA 
BRANCH   4   5
HETATM    5  C   UNL     1     -10.975   9.265  70.517  1.00  0.00    -0.265 C  
HETATM    6  O   UNL     1     -10.104   9.212  71.387  1.00  0.00    -0.305 OA 
BRANCH   5   7
HETATM    7  C   UNL     1     -10.606   9.673  69.062  1.00  0.00    -0.218 C  
HETATM    8  C   UNL     1     -11.237  11.028  68.745  1.00  0.00    -0.327 C  
BRANCH   7   9
HETATM    9  N   UNL     1     -10.825   8.687  67.934  1.00  0.00    -0.487 NA 
HETATM   10  H   UNL     1     -11.545   9.014  67.291  1.00  0.00     0.000 HD 
BRANCH   9  11
HETATM   11  P   UNL     1      -9.328   8.316  67.083  1.00  0.00    -0.172 P  
HETATM   12  O   UNL     1      -8.569   9.531  67.670  1.00  0.00    -0.122 OA 
BRANCH  11  13
HETATM   13  C   UNL     1      -9.238   9.136  65.357  1.00  0.00    -0.202 C  
BRANCH  13  14
HETATM   14  O   UNL     1      -9.988  10.407  65.279  1.00  0.00    -0.273 OA 
BRANCH  14  15
HETATM   15  C   UNL     1     -10.381  10.966  63.996  1.00  0.00    -0.349 C  
HETATM   16  C   UNL     1      -9.641  10.243  62.864  1.00  0.00    -0.290 C  
BRANCH  15  17
HETATM   17  C   UNL     1     -10.325  12.485  63.916  1.00  0.00    -0.409 C  
BRANCH  17  18
HETATM   18  N   UNL     1     -11.069  13.183  64.928  1.00  0.00    -0.303 NA 
HETATM   19  C   UNL     1     -12.398  13.509  64.918  1.00  0.00    -0.407 A  
HETATM   20  N   UNL     1     -12.769  14.072  66.047  1.00  0.00    -0.434 NA 
HETATM   21  C   UNL     1     -11.617  14.125  66.799  1.00  0.00    -0.391 A  
HETATM   22  C   UNL     1     -11.368  14.597  68.090  1.00  0.00    -0.302 A  
HETATM   23  N   UNL     1     -10.096  14.585  68.553  1.00  0.00    -0.236 NA 
HETATM   24  N   UNL     1     -12.386  15.082  68.898  1.00  0.00    -0.594 NA 
HETATM   25  C   UNL     1      -9.139  14.072  67.758  1.00  0.00    -0.192 A  
HETATM   26  H1  UNL     1     -12.204  15.428  69.841  1.00  0.00     0.000 HD 
HETATM   27  H2  UNL     1     -13.105  14.362  68.961  1.00  0.00     0.000 HD 
HETATM   28  N   UNL     1      -9.260  13.554  66.515  1.00  0.00    -0.217 NA 
HETATM   29  C   UNL     1     -10.537  13.616  66.107  1.00  0.00    -0.291 A  
ENDBRANCH  17  18
ENDBRANCH  15  17
ENDBRANCH  14  15
ENDBRANCH  13  14
ENDBRANCH  11  13
BRANCH  11  30
HETATM   30  O   UNL     1     -10.176   6.957  66.427  1.00  0.00    -0.093 OA 
BRANCH  30  31
HETATM   31  C   UNL     1      -9.487   5.758  66.395  1.00  0.00    -0.156 A  
HETATM   32  C   UNL     1      -8.216   5.746  66.971  1.00  0.00    -0.101 A  
HETATM   33  C   UNL     1      -9.204   3.427  65.785  1.00  0.00    -0.155 A  
HETATM   34  C   UNL     1      -9.985   4.591  65.807  1.00  0.00    -0.253 A  
HETATM   35  C   UNL     1      -7.927   3.426  66.343  1.00  0.00    -0.084 A  
HETATM   36  C   UNL     1      -7.435   4.586  66.935  1.00  0.00    -0.082 A  
ENDBRANCH  30  31
ENDBRANCH  11  30
ENDBRANCH   9  11
ENDBRANCH   7   9
ENDBRANCH   5   7
ENDBRANCH   4   5
ENDBRANCH   2   4
TORSDOF 12
ENDMDL
MODEL      127
REMARK 921   NORMALIZED FREE ENERGY PREDICTED BY IDOCK:   -5.41 KCAL/MOL
REMARK 922        TOTAL FREE ENERGY PREDICTED BY IDOCK:  -10.91 KCAL/MOL
REMARK 923 INTER-LIGAND FREE ENERGY PREDICTED BY IDOCK:   -9.07 KCAL/MOL
REMARK 924 INTRA-LIGAND FREE ENERGY PREDICTED BY IDOCK:   -1.84 KCAL/MOL
REMARK 927      BINDING AFFINITY PREDICTED BY RF-SCORE:    0.00 PKD
ROOT
HETATM    1  C   UNL     1     -11.812  15.719  64.138  1.00  0.00    -0.035 C  
HETATM    2  C   UNL     1     -11.418  14.602  65.107  1.00  0.00    -0.375 C  
HETATM    3  C   UNL     1     -12.658  13.846  65.603  1.00  0.00    -0.553 C  
ENDROOT
BRANCH   2   4
HETATM    4  O   UNL     1     -10.318  13.778  64.596  1.00  0.00    -0.426 OA 
BRANCH   4   5
HETATM    5  C   UNL     1     -10.522  12.458  64.366  1.00  0.00    -0.344 C  
HETATM    6  O   UNL     1     -11.086  12.033  63.356  1.00  0.00    -0.410 OA 
BRANCH   5   7
HETATM    7  C   UNL     1     -10.021  11.470  65.458  1.00  0.00    -0.242 C  
HETATM    8  C   UNL     1      -9.746  10.110  64.818  1.00  0.00    -0.389 C  
BRANCH   7   9
HETATM    9  N   UNL     1     -10.804  11.324  66.746  1.00  0.00    -0.276 NA 
HETATM   10  H   UNL     1     -11.214  10.394  66.827  1.00  0.00     0.000 HD 
BRANCH   9  11
HETATM   11  P   UNL     1      -9.830  11.718  68.160  1.00  0.00    -0.195 P  
HETATM   12  O   UNL     1      -9.860  13.241  67.886  1.00  0.00    -0.220 OA 
BRANCH  11  13
HETATM   13  C   UNL     1      -7.955  11.721  67.786  1.00  0.00    -0.141 C  
BRANCH  13  14
HETATM   14  O   UNL     1      -7.446  13.048  67.380  1.00  0.00    -0.155 OA 
BRANCH  14  15
HETATM   15  C   UNL     1      -6.429  13.730  68.162  1.00  0.00    -0.124 C  
HETATM   16  C   UNL     1      -5.792  12.752  69.157  1.00  0.00    -0.081 C  
BRANCH  15  17
HETATM   17  C   UNL     1      -6.872  15.051  68.776  1.00  0.00    -0.105 C  
BRANCH  17  18
HETATM   18  N   UNL     1      -7.478  15.981  67.863  1.00  0.00    -0.125 NA 
HETATM   19  C   UNL     1      -6.988  16.418  66.661  1.00  0.00    -0.097 A  
HETATM   20  N   UNL     1      -7.844  17.203  66.044  1.00  0.00    -0.474 NA 
HETATM   21  C   UNL     1      -8.917  17.284  66.904  1.00  0.00    -0.240 A  
HETATM   22  C   UNL     1     -10.140  17.953  66.807  1.00  0.00    -0.349 A  
HETATM   23  N   UNL     1     -10.990  17.909  67.859  1.00  0.00    -0.197 NA 
HETATM   24  N   UNL     1     -10.495  18.662  65.670  1.00  0.00    -0.594 NA 
HETATM   25  C   UNL     1     -10.631  17.180  68.932  1.00  0.00    -0.314 A  
HETATM   26  H1  UNL     1     -11.388  19.151  65.599  1.00  0.00     0.000 HD 
HETATM   27  H2  UNL     1     -10.419  18.032  64.871  1.00  0.00     0.000 HD 
HETATM   28  N   UNL     1      -9.502  16.463  69.128  1.00  0.00    -0.257 NA 
HETATM   29  C   UNL     1      -8.695  16.566  68.061  1.00  0.00    -0.189 A  
ENDBRANCH  17  18
ENDBRANCH  15  17
ENDBRANCH  14  15
ENDBRANCH  13  14
ENDBRANCH  11  13
BRANCH  11  30
HETATM   30  O   UNL     1      -9.798  10.015  68.466  1.00  0.00    -0.150 OA 
BRANCH  30  31
HETATM   31  C   UNL     1     -10.433   9.584  69.617  1.00  0.00    -0.223 A  
HETATM   32  C   UNL     1     -11.433  10.410  70.131  1.00  0.00    -0.396 A  
HETATM   33  C   UNL     1     -10.779   8.054  71.468  1.00  0.00    -0.274 A  
HETATM   34  C   UNL     1     -10.112   8.398  70.284  1.00  0.00    -0.196 A  
HETATM   35  C   UNL     1     -11.763   8.893  71.989  1.00  0.00    -0.438 A  
HETATM   36  C   UNL     1     -12.088  10.070  71.321  1.00  0.00    -0.487 A  
ENDBRANCH  30  31
ENDBRANCH  11  30
ENDBRANCH   9  11
ENDBRANCH   7   9
ENDBRANCH   5   7
ENDBRANCH   4   5
ENDBRANCH   2   4
TORSDOF 12
ENDMDL
MODEL      128
REMARK 921   NORMALIZED FREE ENERGY PREDICTED BY IDOCK:   -5.40 KCAL/MOL
REMARK 922        TOTAL FREE ENERGY PREDICTED BY IDOCK:  -10.91 KCAL/MOL
REMARK 923 INTER-LIGAND FREE ENERGY PREDICTED BY IDOCK:   -9.32 KCAL/MOL
REMARK 924 INTRA-LIGAND FREE ENERGY PREDICTED BY IDOCK:   -1.59 KCAL/MOL
REMARK 927      BINDING AFFINITY PREDICTED BY RF-SCORE:    0.00 PKD
ROOT
HETATM    1  C   UNL     1      -9.555  19.640  68.277  1.00  0.00    -0.478 C  
HETATM    2  C   UNL     1     -10.373  18.384  67.965  1.00  0.00    -0.384 C  
HETATM    3  C   UNL     1     -10.247  18.005  66.483  1.00  0.00    -0.383 C  
ENDROOT
BRANCH   2   4
HETATM    4  O   UNL     1     -10.139  17.308  68.932  1.00  0.00    -0.308 OA 
BRANCH   4   5
HETATM    5  C   UNL     1     -10.788  16.126  68.788  1.00  0.00    -0.310 C  
HETATM    6  O   UNL     1     -12.014  16.023  68.848  1.00  0.00    -0.348 OA 
BRANCH   5   7
HETATM    7  C   UNL     1      -9.906  14.866  68.553  1.00  0.00    -0.217 C  
HETATM    8  C   UNL     1      -8.442  15.223  68.806  1.00  0.00    -0.181 C  
BRANCH   7   9
HETATM    9  N   UNL     1     -10.066  14.072  67.274  1.00  0.00    -0.247 NA 
HETATM   10  H   UNL     1      -9.160  13.816  66.881  1.00  0.00     0.000 HD 
BRANCH   9  11
HETATM   11  P   UNL     1     -11.088  12.655  67.500  1.00  0.00    -0.307 P  
HETATM   12  O   UNL     1     -12.382  13.390  67.076  1.00  0.00    -0.311 OA 
BRANCH  11  13
HETATM   13  C   UNL     1     -11.784  12.523  69.276  1.00  0.00    -0.321 C  
BRANCH  13  14
HETATM   14  O   UNL     1     -12.454  11.233  69.543  1.00  0.00    -0.224 OA 
BRANCH  14  15
HETATM   15  C   UNL     1     -12.602  10.733  70.899  1.00  0.00    -0.401 C  
HETATM   16  C   UNL     1     -13.067  11.865  71.824  1.00  0.00    -0.465 C  
BRANCH  15  17
HETATM   17  C   UNL     1     -11.412   9.941  71.423  1.00  0.00    -0.321 C  
BRANCH  17  18
HETATM   18  N   UNL     1     -11.688   8.574  71.770  1.00  0.00    -0.304 NA 
HETATM   19  C   UNL     1     -12.757   7.810  71.386  1.00  0.00    -0.308 A  
HETATM   20  N   UNL     1     -12.649   6.572  71.818  1.00  0.00    -0.287 NA 
HETATM   21  C   UNL     1     -11.468   6.557  72.525  1.00  0.00    -0.239 A  
HETATM   22  C   UNL     1     -10.803   5.534  73.207  1.00  0.00    -0.293 A  
HETATM   23  N   UNL     1      -9.671   5.833  73.885  1.00  0.00    -0.158 NA 
HETATM   24  N   UNL     1     -11.279   4.232  73.211  1.00  0.00    -0.259 NA 
HETATM   25  C   UNL     1      -9.216   7.099  73.828  1.00  0.00    -0.214 A  
HETATM   26  H1  UNL     1     -10.794   3.484  73.708  1.00  0.00     0.000 HD 
HETATM   27  H2  UNL     1     -11.395   3.938  72.241  1.00  0.00     0.000 HD 
HETATM   28  N   UNL     1      -9.744   8.160  73.177  1.00  0.00    -0.265 NA 
HETATM   29  C   UNL     1     -10.873   7.802  72.546  1.00  0.00    -0.328 A  
ENDBRANCH  17  18
ENDBRANCH  15  17
ENDBRANCH  14  15
ENDBRANCH  13  14
ENDBRANCH  11  13
BRANCH  11  30
HETATM   30  O   UNL     1      -9.640  11.833  67.973  1.00  0.00    -0.175 OA 
BRANCH  30  31
HETATM   31  C   UNL     1      -9.684  10.450  67.958  1.00  0.00    -0.150 A  
HETATM   32  C   UNL     1      -8.910   9.785  68.910  1.00  0.00    -0.140 A  
HETATM   33  C   UNL     1     -10.392   8.305  67.072  1.00  0.00    -0.393 A  
HETATM   34  C   UNL     1     -10.433   9.706  67.041  1.00  0.00    -0.302 A  
HETATM   35  C   UNL     1      -9.601   7.646  68.011  1.00  0.00    -0.159 A  
HETATM   36  C   UNL     1      -8.861   8.386  68.929  1.00  0.00    -0.143 A  
ENDBRANCH  30  31
ENDBRANCH  11  30
ENDBRANCH   9  11
ENDBRANCH   7   9
ENDBRANCH   5   7
ENDBRANCH   4   5
ENDBRANCH   2   4
TORSDOF 12
ENDMDL
MODEL      129
REMARK 921   NORMALIZED FREE ENERGY PREDICTED BY IDOCK:   -5.38 KCAL/MOL
REMARK 922        TOTAL FREE ENERGY PREDICTED BY IDOCK:  -10.87 KCAL/MOL
REMARK 923 INTER-LIGAND FREE ENERGY PREDICTED BY IDOCK:   -8.63 KCAL/MOL
REMARK 924 INTRA-LIGAND FREE ENERGY PREDICTED BY IDOCK:   -2.24 KCAL/MOL
REMARK 927      BINDING AFFINITY PREDICTED BY RF-SCORE:    0.00 PKD
ROOT
HETATM    1  C   UNL     1     -11.998  14.005  64.101  1.00  0.00    -0.439 C  
HETATM    2  C   UNL     1     -12.279  13.190  65.365  1.00  0.00    -0.461 C  
HETATM    3  C   UNL     1     -11.284  12.029  65.499  1.00  0.00    -0.372 C  
ENDROOT
BRANCH   2   4
HETATM    4  O   UNL     1     -12.455  14.034  66.550  1.00  0.00    -0.442 OA 
BRANCH   4   5
HETATM    5  C   UNL     1     -11.480  14.075  67.492  1.00  0.00    -0.343 C  
HETATM    6  O   UNL     1     -10.436  14.713  67.348  1.00  0.00    -0.252 OA 
BRANCH   5   7
HETATM    7  C   UNL     1     -11.725  13.254  68.790  1.00  0.00    -0.329 C  
HETATM    8  C   UNL     1     -12.260  14.182  69.880  1.00  0.00    -0.416 C  
BRANCH   7   9
HETATM    9  N   UNL     1     -10.626  12.358  69.322  1.00  0.00    -0.432 NA 
HETATM   10  H   UNL     1     -10.315  12.661  70.245  1.00  0.00     0.000 HD 
BRANCH   9  11
HETATM   11  P   UNL     1     -11.105  10.663  69.335  1.00  0.00    -0.299 P  
HETATM   12  O   UNL     1     -12.595  10.973  69.047  1.00  0.00    -0.378 OA 
BRANCH  11  13
HETATM   13  C   UNL     1     -11.604  10.050  71.077  1.00  0.00    -0.393 C  
BRANCH  13  14
HETATM   14  O   UNL     1     -11.125   8.683  71.371  1.00  0.00    -0.241 OA 
BRANCH  14  15
HETATM   15  C   UNL     1     -11.754   7.523  70.763  1.00  0.00    -0.256 C  
HETATM   16  C   UNL     1     -12.905   7.030  71.650  1.00  0.00    -0.408 C  
BRANCH  15  17
HETATM   17  C   UNL     1     -10.791   6.431  70.318  1.00  0.00    -0.293 C  
BRANCH  17  18
HETATM   18  N   UNL     1     -10.757   6.179  68.904  1.00  0.00    -0.278 NA 
HETATM   19  C   UNL     1     -11.253   6.966  67.899  1.00  0.00    -0.019 A  
HETATM   20  N   UNL     1     -10.973   6.472  66.713  1.00  0.00    -0.327 NA 
HETATM   21  C   UNL     1     -10.288   5.308  66.978  1.00  0.00    -0.236 A  
HETATM   22  C   UNL     1      -9.717   4.350  66.136  1.00  0.00    -0.214 A  
HETATM   23  N   UNL     1      -9.157   3.249  66.689  1.00  0.00    -0.156 NA 
HETATM   24  N   UNL     1      -9.720   4.498  64.757  1.00  0.00    -0.315 NA 
HETATM   25  C   UNL     1      -9.137   3.157  68.032  1.00  0.00    -0.172 A  
HETATM   26  H1  UNL     1      -9.303   3.798  64.142  1.00  0.00     0.000 HD 
HETATM   27  H2  UNL     1      -9.297   5.399  64.538  1.00  0.00     0.000 HD 
HETATM   28  N   UNL     1      -9.619   4.028  68.947  1.00  0.00    -0.166 NA 
HETATM   29  C   UNL     1     -10.179   5.082  68.335  1.00  0.00    -0.072 A  
ENDBRANCH  17  18
ENDBRANCH  15  17
ENDBRANCH  14  15
ENDBRANCH  13  14
ENDBRANCH  11  13
BRANCH  11  30
HETATM   30  O   UNL     1      -9.440  10.316  69.655  1.00  0.00    -0.211 OA 
BRANCH  30  31
HETATM   31  C   UNL     1      -8.795   9.498  68.745  1.00  0.00    -0.132 A  
HETATM   32  C   UNL     1      -8.935   9.825  67.396  1.00  0.00    -0.144 A  
HETATM   33  C   UNL     1      -7.455   7.576  68.116  1.00  0.00    -0.105 A  
HETATM   34  C   UNL     1      -8.045   8.374  69.106  1.00  0.00    -0.119 A  
HETATM   35  C   UNL     1      -7.615   7.894  66.768  1.00  0.00    -0.098 A  
HETATM   36  C   UNL     1      -8.355   9.017  66.410  1.00  0.00    -0.117 A  
ENDBRANCH  30  31
ENDBRANCH  11  30
ENDBRANCH   9  11
ENDBRANCH   7   9
ENDBRANCH   5   7
ENDBRANCH   4   5
ENDBRANCH   2   4
TORSDOF 12
ENDMDL
MODEL      130
REMARK 921   NORMALIZED FREE ENERGY PREDICTED BY IDOCK:   -5.38 KCAL/MOL
REMARK 922        TOTAL FREE ENERGY PREDICTED BY IDOCK:  -10.86 KCAL/MOL
REMARK 923 INTER-LIGAND FREE ENERGY PREDICTED BY IDOCK:   -9.92 KCAL/MOL
REMARK 924 INTRA-LIGAND FREE ENERGY PREDICTED BY IDOCK:   -0.94 KCAL/MOL
REMARK 927      BINDING AFFINITY PREDICTED BY RF-SCORE:    0.00 PKD
ROOT
HETATM    1  C   UNL     1      -9.864  11.380  65.784  1.00  0.00    -0.270 C  
HETATM    2  C   UNL     1      -9.733  11.945  64.368  1.00  0.00    -0.109 C  
HETATM    3  C   UNL     1      -9.791  10.822  63.324  1.00  0.00    -0.394 C  
ENDROOT
BRANCH   2   4
HETATM    4  O   UNL     1     -10.616  13.092  64.137  1.00  0.00    -0.402 OA 
BRANCH   4   5
HETATM    5  C   UNL     1     -11.677  13.295  64.956  1.00  0.00    -0.333 C  
HETATM    6  O   UNL     1     -12.618  12.504  65.044  1.00  0.00    -0.592 OA 
BRANCH   5   7
HETATM    7  C   UNL     1     -11.675  14.606  65.793  1.00  0.00    -0.302 C  
HETATM    8  C   UNL     1     -10.283  15.234  65.743  1.00  0.00    -0.372 C  
BRANCH   7   9
HETATM    9  N   UNL     1     -12.221  14.589  67.206  1.00  0.00    -0.581 NA 
HETATM   10  H   UNL     1     -12.732  13.727  67.395  1.00  0.00     0.000 HD 
BRANCH   9  11
HETATM   11  P   UNL     1     -10.958  14.859  68.404  1.00  0.00    -0.288 P  
HETATM   12  O   UNL     1     -10.475  13.388  68.381  1.00  0.00    -0.239 OA 
BRANCH  11  13
HETATM   13  C   UNL     1     -11.573  14.593  70.196  1.00  0.00    -0.282 C  
BRANCH  13  14
HETATM   14  O   UNL     1     -11.671  13.167  70.570  1.00  0.00    -0.180 OA 
BRANCH  14  15
HETATM   15  C   UNL     1     -12.964  12.517  70.708  1.00  0.00     0.111 C  
HETATM   16  C   UNL     1     -13.499  12.719  72.131  1.00  0.00    -0.591 C  
BRANCH  15  17
HETATM   17  C   UNL     1     -13.012  11.077  70.216  1.00  0.00    -0.004 C  
BRANCH  17  18
HETATM   18  N   UNL     1     -12.305  10.125  71.027  1.00  0.00    -0.342 NA 
HETATM   19  C   UNL     1     -12.793   9.386  72.071  1.00  0.00    -0.414 A  
HETATM   20  N   UNL     1     -11.892   8.549  72.536  1.00  0.00    -0.368 NA 
HETATM   21  C   UNL     1     -10.775   8.784  71.766  1.00  0.00    -0.343 A  
HETATM   22  C   UNL     1      -9.504   8.202  71.766  1.00  0.00    -0.188 A  
HETATM   23  N   UNL     1      -8.564   8.694  70.926  1.00  0.00    -0.155 NA 
HETATM   24  N   UNL     1      -9.185   7.148  72.608  1.00  0.00    -0.137 NA 
HETATM   25  C   UNL     1      -8.919   9.693  70.096  1.00  0.00    -0.236 A  
HETATM   26  H1  UNL     1      -8.257   6.723  72.608  1.00  0.00     0.000 HD 
HETATM   27  H2  UNL     1      -9.868   6.406  72.453  1.00  0.00     0.000 HD 
HETATM   28  N   UNL     1     -10.117  10.308  69.976  1.00  0.00    -0.188 NA 
HETATM   29  C   UNL     1     -10.994   9.791  70.849  1.00  0.00    -0.341 A  
ENDBRANCH  17  18
ENDBRANCH  15  17
ENDBRANCH  14  15
ENDBRANCH  13  14
ENDBRANCH  11  13
BRANCH  11  30
HETATM   30  O   UNL     1     -11.498  16.503  68.430  1.00  0.00    -0.301 OA 
BRANCH  30  31
HETATM   31  C   UNL     1     -10.533  17.471  68.214  1.00  0.00    -0.383 A  
HETATM   32  C   UNL     1     -10.937  18.624  67.540  1.00  0.00    -0.238 A  
HETATM   33  C   UNL     1      -8.276  18.355  68.321  1.00  0.00    -0.317 A  
HETATM   34  C   UNL     1      -9.199  17.341  68.613  1.00  0.00    -0.266 A  
HETATM   35  C   UNL     1      -8.680  19.495  67.628  1.00  0.00    -0.361 A  
HETATM   36  C   UNL     1     -10.010  19.628  67.238  1.00  0.00    -0.518 A  
ENDBRANCH  30  31
ENDBRANCH  11  30
ENDBRANCH   9  11
ENDBRANCH   7   9
ENDBRANCH   5   7
ENDBRANCH   4   5
ENDBRANCH   2   4
TORSDOF 12
ENDMDL
MODEL      131
REMARK 921   NORMALIZED FREE ENERGY PREDICTED BY IDOCK:   -5.38 KCAL/MOL
REMARK 922        TOTAL FREE ENERGY PREDICTED BY IDOCK:  -10.86 KCAL/MOL
REMARK 923 INTER-LIGAND FREE ENERGY PREDICTED BY IDOCK:   -9.48 KCAL/MOL
REMARK 924 INTRA-LIGAND FREE ENERGY PREDICTED BY IDOCK:   -1.39 KCAL/MOL
REMARK 927      BINDING AFFINITY PREDICTED BY RF-SCORE:    0.00 PKD
ROOT
HETATM    1  C   UNL     1      -8.751   5.764  65.811  1.00  0.00    -0.152 C  
HETATM    2  C   UNL     1      -7.403   5.874  66.527  1.00  0.00    -0.078 C  
HETATM    3  C   UNL     1      -6.364   4.948  65.881  1.00  0.00    -0.039 C  
ENDROOT
BRANCH   2   4
HETATM    4  O   UNL     1      -6.991   7.264  66.738  1.00  0.00    -0.069 OA 
BRANCH   4   5
HETATM    5  C   UNL     1      -7.685   8.044  67.603  1.00  0.00    -0.110 C  
HETATM    6  O   UNL     1      -7.953   7.695  68.754  1.00  0.00    -0.121 OA 
BRANCH   5   7
HETATM    7  C   UNL     1      -8.161   9.427  67.073  1.00  0.00    -0.116 C  
HETATM    8  C   UNL     1      -7.016  10.097  66.315  1.00  0.00    -0.109 C  
BRANCH   7   9
HETATM    9  N   UNL     1      -8.834  10.397  68.022  1.00  0.00    -0.129 NA 
HETATM   10  H   UNL     1      -8.579  11.361  67.808  1.00  0.00     0.000 HD 
BRANCH   9  11
HETATM   11  P   UNL     1     -10.583  10.189  68.049  1.00  0.00    -0.261 P  
HETATM   12  O   UNL     1     -10.645   9.635  66.604  1.00  0.00    -0.189 OA 
BRANCH  11  13
HETATM   13  C   UNL     1     -11.521  11.747  67.457  1.00  0.00    -0.303 C  
BRANCH  13  14
HETATM   14  O   UNL     1     -11.307  12.044  66.025  1.00  0.00    -0.329 OA 
BRANCH  14  15
HETATM   15  C   UNL     1     -12.344  12.681  65.231  1.00  0.00    -0.466 C  
HETATM   16  C   UNL     1     -12.026  12.525  63.738  1.00  0.00    -0.598 C  
BRANCH  15  17
HETATM   17  C   UNL     1     -12.694  14.100  65.655  1.00  0.00    -0.441 C  
BRANCH  17  18
HETATM   18  N   UNL     1     -11.572  14.955  65.929  1.00  0.00    -0.284 NA 
HETATM   19  C   UNL     1     -10.687  15.492  65.034  1.00  0.00    -0.441 A  
HETATM   20  N   UNL     1      -9.831  16.299  65.621  1.00  0.00    -0.503 NA 
HETATM   21  C   UNL     1     -10.176  16.255  66.953  1.00  0.00    -0.288 A  
HETATM   22  C   UNL     1      -9.651  16.905  68.074  1.00  0.00    -0.247 A  
HETATM   23  N   UNL     1     -10.157  16.608  69.294  1.00  0.00    -0.273 NA 
HETATM   24  N   UNL     1      -8.627  17.833  67.965  1.00  0.00    -0.244 NA 
HETATM   25  C   UNL     1     -11.177  15.732  69.359  1.00  0.00    -0.324 A  
HETATM   26  H1  UNL     1      -8.244  18.308  68.783  1.00  0.00     0.000 HD 
HETATM   27  H2  UNL     1      -8.921  18.547  67.298  1.00  0.00     0.000 HD 
HETATM   28  N   UNL     1     -11.791  15.072  68.352  1.00  0.00    -0.303 NA 
HETATM   29  C   UNL     1     -11.229  15.392  67.176  1.00  0.00    -0.256 A  
ENDBRANCH  17  18
ENDBRANCH  15  17
ENDBRANCH  14  15
ENDBRANCH  13  14
ENDBRANCH  11  13
BRANCH  11  30
HETATM   30  O   UNL     1     -10.513  10.806  69.664  1.00  0.00    -0.219 OA 
BRANCH  30  31
HETATM   31  C   UNL     1     -11.365  10.221  70.585  1.00  0.00    -0.347 A  
HETATM   32  C   UNL     1     -10.820   9.234  71.408  1.00  0.00    -0.434 A  
HETATM   33  C   UNL     1     -13.520   9.881  71.644  1.00  0.00    -0.421 A  
HETATM   34  C   UNL     1     -12.718  10.550  70.710  1.00  0.00    -0.471 A  
HETATM   35  C   UNL     1     -12.977   8.881  72.449  1.00  0.00    -0.467 A  
HETATM   36  C   UNL     1     -11.628   8.559  72.330  1.00  0.00    -0.444 A  
ENDBRANCH  30  31
ENDBRANCH  11  30
ENDBRANCH   9  11
ENDBRANCH   7   9
ENDBRANCH   5   7
ENDBRANCH   4   5
ENDBRANCH   2   4
TORSDOF 12
ENDMDL
MODEL      132
REMARK 921   NORMALIZED FREE ENERGY PREDICTED BY IDOCK:   -5.38 KCAL/MOL
REMARK 922        TOTAL FREE ENERGY PREDICTED BY IDOCK:  -10.86 KCAL/MOL
REMARK 923 INTER-LIGAND FREE ENERGY PREDICTED BY IDOCK:   -9.55 KCAL/MOL
REMARK 924 INTRA-LIGAND FREE ENERGY PREDICTED BY IDOCK:   -1.31 KCAL/MOL
REMARK 927      BINDING AFFINITY PREDICTED BY RF-SCORE:    0.00 PKD
ROOT
HETATM    1  C   UNL     1      -9.376   3.873  70.040  1.00  0.00    -0.247 C  
HETATM    2  C   UNL     1      -8.896   2.891  68.969  1.00  0.00    -0.098 C  
HETATM    3  C   UNL     1      -8.746   1.478  69.552  1.00  0.00    -0.103 C  
ENDROOT
BRANCH   2   4
HETATM    4  O   UNL     1      -9.659   3.001  67.724  1.00  0.00    -0.196 OA 
BRANCH   4   5
HETATM    5  C   UNL     1      -9.046   3.450  66.601  1.00  0.00    -0.164 C  
HETATM    6  O   UNL     1      -8.419   2.711  65.839  1.00  0.00    -0.091 OA 
BRANCH   5   7
HETATM    7  C   UNL     1      -9.148   4.974  66.306  1.00  0.00    -0.129 C  
HETATM    8  C   UNL     1      -8.269   5.314  65.104  1.00  0.00    -0.135 C  
BRANCH   7   9
HETATM    9  N   UNL     1      -8.946   5.965  67.433  1.00  0.00    -0.109 NA 
HETATM   10  H   UNL     1      -8.122   6.544  67.274  1.00  0.00     0.000 HD 
BRANCH   9  11
HETATM   11  P   UNL     1     -10.378   6.953  67.708  1.00  0.00    -0.257 P  
HETATM   12  O   UNL     1     -11.133   6.387  66.480  1.00  0.00    -0.190 OA 
BRANCH  11  13
HETATM   13  C   UNL     1     -10.285   8.648  66.827  1.00  0.00    -0.291 C  
BRANCH  13  14
HETATM   14  O   UNL     1     -11.150   9.673  67.447  1.00  0.00    -0.183 OA 
BRANCH  14  15
HETATM   15  C   UNL     1     -10.744  11.068  67.493  1.00  0.00    -0.244 C  
HETATM   16  C   UNL     1      -9.709  11.273  68.607  1.00  0.00    -0.200 C  
BRANCH  15  17
HETATM   17  C   UNL     1     -11.891  12.069  67.506  1.00  0.00    -0.205 C  
BRANCH  17  18
HETATM   18  N   UNL     1     -11.959  12.941  66.367  1.00  0.00    -0.414 NA 
HETATM   19  C   UNL     1     -12.711  12.785  65.233  1.00  0.00    -0.260 A  
HETATM   20  N   UNL     1     -12.597  13.818  64.428  1.00  0.00    -0.666 NA 
HETATM   21  C   UNL     1     -11.716  14.658  65.071  1.00  0.00    -0.385 A  
HETATM   22  C   UNL     1     -11.209  15.915  64.728  1.00  0.00    -0.355 A  
HETATM   23  N   UNL     1     -10.284  16.485  65.535  1.00  0.00    -0.578 NA 
HETATM   24  N   UNL     1     -11.623  16.581  63.585  1.00  0.00    -1.106 NA 
HETATM   25  C   UNL     1      -9.933  15.828  66.657  1.00  0.00    -0.257 A  
HETATM   26  H1  UNL     1     -11.253  17.498  63.335  1.00  0.00     0.000 HD 
HETATM   27  H2  UNL     1     -12.640  16.651  63.615  1.00  0.00     0.000 HD 
HETATM   28  N   UNL     1     -10.377  14.635  67.113  1.00  0.00    -0.263 NA 
HETATM   29  C   UNL     1     -11.271  14.115  66.258  1.00  0.00    -0.329 A  
ENDBRANCH  17  18
ENDBRANCH  15  17
ENDBRANCH  14  15
ENDBRANCH  13  14
ENDBRANCH  11  13
BRANCH  11  30
HETATM   30  O   UNL     1      -9.535   7.584  69.081  1.00  0.00    -0.150 OA 
BRANCH  30  31
HETATM   31  C   UNL     1     -10.190   7.505  70.297  1.00  0.00    -0.204 A  
HETATM   32  C   UNL     1      -9.666   8.262  71.346  1.00  0.00    -0.237 A  
HETATM   33  C   UNL     1     -11.895   6.651  71.798  1.00  0.00    -0.380 A  
HETATM   34  C   UNL     1     -11.314   6.703  70.523  1.00  0.00    -0.413 A  
HETATM   35  C   UNL     1     -11.355   7.393  72.847  1.00  0.00    -0.322 A  
HETATM   36  C   UNL     1     -10.241   8.197  72.620  1.00  0.00    -0.388 A  
ENDBRANCH  30  31
ENDBRANCH  11  30
ENDBRANCH   9  11
ENDBRANCH   7   9
ENDBRANCH   5   7
ENDBRANCH   4   5
ENDBRANCH   2   4
TORSDOF 12
ENDMDL
MODEL      133
REMARK 921   NORMALIZED FREE ENERGY PREDICTED BY IDOCK:   -5.36 KCAL/MOL
REMARK 922        TOTAL FREE ENERGY PREDICTED BY IDOCK:  -10.84 KCAL/MOL
REMARK 923 INTER-LIGAND FREE ENERGY PREDICTED BY IDOCK:   -8.82 KCAL/MOL
REMARK 924 INTRA-LIGAND FREE ENERGY PREDICTED BY IDOCK:   -2.02 KCAL/MOL
REMARK 927      BINDING AFFINITY PREDICTED BY RF-SCORE:    0.00 PKD
ROOT
HETATM    1  C   UNL     1      -8.905   7.675  71.795  1.00  0.00    -0.139 C  
HETATM    2  C   UNL     1      -8.186   8.859  71.145  1.00  0.00    -0.173 C  
HETATM    3  C   UNL     1      -6.683   8.823  71.455  1.00  0.00    -0.082 C  
ENDROOT
BRANCH   2   4
HETATM    4  O   UNL     1      -8.554   9.036  69.738  1.00  0.00    -0.124 OA 
BRANCH   4   5
HETATM    5  C   UNL     1      -9.800   9.465  69.421  1.00  0.00    -0.178 C  
HETATM    6  O   UNL     1     -10.422  10.280  70.105  1.00  0.00    -0.271 OA 
BRANCH   5   7
HETATM    7  C   UNL     1     -10.444   8.865  68.138  1.00  0.00    -0.202 C  
HETATM    8  C   UNL     1     -10.453   7.341  68.246  1.00  0.00    -0.239 C  
BRANCH   7   9
HETATM    9  N   UNL     1      -9.955   9.317  66.778  1.00  0.00    -0.224 NA 
HETATM   10  H   UNL     1     -10.397   8.784  66.030  1.00  0.00     0.000 HD 
BRANCH   9  11
HETATM   11  P   UNL     1     -10.171  11.049  66.542  1.00  0.00    -0.247 P  
HETATM   12  O   UNL     1     -11.655  11.032  66.984  1.00  0.00    -0.427 OA 
BRANCH  11  13
HETATM   13  C   UNL     1     -10.740  11.486  64.769  1.00  0.00    -0.306 C  
BRANCH  13  14
HETATM   14  O   UNL     1     -10.598  12.922  64.451  1.00  0.00    -0.351 OA 
BRANCH  14  15
HETATM   15  C   UNL     1     -11.146  13.941  65.330  1.00  0.00    -0.310 C  
HETATM   16  C   UNL     1     -12.677  13.953  65.225  1.00  0.00    -0.485 C  
BRANCH  15  17
HETATM   17  C   UNL     1     -10.497  15.312  65.205  1.00  0.00    -0.411 C  
BRANCH  17  18
HETATM   18  N   UNL     1     -10.525  16.118  66.395  1.00  0.00    -0.306 NA 
HETATM   19  C   UNL     1     -10.535  15.692  67.696  1.00  0.00    -0.283 A  
HETATM   20  N   UNL     1     -10.474  16.701  68.537  1.00  0.00    -0.298 NA 
HETATM   21  C   UNL     1     -10.446  17.818  67.733  1.00  0.00    -0.397 A  
HETATM   22  C   UNL     1     -10.368  19.181  68.033  1.00  0.00    -0.393 A  
HETATM   23  N   UNL     1     -10.432  20.074  67.018  1.00  0.00    -0.423 NA 
HETATM   24  N   UNL     1     -10.238  19.634  69.337  1.00  0.00    -0.607 NA 
HETATM   25  C   UNL     1     -10.520  19.599  65.762  1.00  0.00    -0.444 A  
HETATM   26  H1  UNL     1     -10.182  20.629  69.556  1.00  0.00     0.000 HD 
HETATM   27  H2  UNL     1      -9.424  19.176  69.747  1.00  0.00     0.000 HD 
HETATM   28  N   UNL     1     -10.564  18.314  65.344  1.00  0.00    -0.523 NA 
HETATM   29  C   UNL     1     -10.520  17.482  66.396  1.00  0.00    -0.277 A  
ENDBRANCH  17  18
ENDBRANCH  15  17
ENDBRANCH  14  15
ENDBRANCH  13  14
ENDBRANCH  11  13
BRANCH  11  30
HETATM   30  O   UNL     1      -8.513  11.069  66.048  1.00  0.00    -0.167 OA 
BRANCH  30  31
HETATM   31  C   UNL     1      -7.571  11.184  67.056  1.00  0.00    -0.135 A  
HETATM   32  C   UNL     1      -7.807  12.156  68.029  1.00  0.00    -0.145 A  
HETATM   33  C   UNL     1      -5.491  10.613  68.165  1.00  0.00    -0.036 A  
HETATM   34  C   UNL     1      -6.413  10.405  67.129  1.00  0.00    -0.072 A  
HETATM   35  C   UNL     1      -5.720  11.599  69.123  1.00  0.00    -0.053 A  
HETATM   36  C   UNL     1      -6.878  12.369  69.054  1.00  0.00    -0.093 A  
ENDBRANCH  30  31
ENDBRANCH  11  30
ENDBRANCH   9  11
ENDBRANCH   7   9
ENDBRANCH   5   7
ENDBRANCH   4   5
ENDBRANCH   2   4
TORSDOF 12
ENDMDL
MODEL      134
REMARK 921   NORMALIZED FREE ENERGY PREDICTED BY IDOCK:   -5.36 KCAL/MOL
REMARK 922        TOTAL FREE ENERGY PREDICTED BY IDOCK:  -10.83 KCAL/MOL
REMARK 923 INTER-LIGAND FREE ENERGY PREDICTED BY IDOCK:   -9.32 KCAL/MOL
REMARK 924 INTRA-LIGAND FREE ENERGY PREDICTED BY IDOCK:   -1.51 KCAL/MOL
REMARK 927      BINDING AFFINITY PREDICTED BY RF-SCORE:    0.00 PKD
ROOT
HETATM    1  C   UNL     1      -9.411   3.422  70.902  1.00  0.00    -0.234 C  
HETATM    2  C   UNL     1      -9.439   4.952  70.857  1.00  0.00    -0.165 C  
HETATM    3  C   UNL     1      -8.569   5.481  69.708  1.00  0.00    -0.112 C  
ENDROOT
BRANCH   2   4
HETATM    4  O   UNL     1     -10.798   5.492  70.943  1.00  0.00    -0.246 OA 
BRANCH   4   5
HETATM    5  C   UNL     1     -11.088   6.428  71.880  1.00  0.00    -0.268 C  
HETATM    6  O   UNL     1     -10.828   6.282  73.076  1.00  0.00    -0.243 OA 
BRANCH   5   7
HETATM    7  C   UNL     1     -11.797   7.720  71.384  1.00  0.00    -0.297 C  
HETATM    8  C   UNL     1     -13.297   7.609  71.658  1.00  0.00    -0.400 C  
BRANCH   7   9
HETATM    9  N   UNL     1     -11.531   8.224  69.981  1.00  0.00    -0.457 NA 
HETATM   10  H   UNL     1     -12.377   8.202  69.413  1.00  0.00     0.000 HD 
BRANCH   9  11
HETATM   11  P   UNL     1     -10.804   9.829  69.983  1.00  0.00    -0.313 P  
HETATM   12  O   UNL     1     -10.150   9.646  71.374  1.00  0.00    -0.170 OA 
BRANCH  11  13
HETATM   13  C   UNL     1     -11.954  11.159  70.736  1.00  0.00    -0.312 C  
BRANCH  13  14
HETATM   14  O   UNL     1     -12.215  12.288  69.819  1.00  0.00    -0.232 OA 
BRANCH  14  15
HETATM   15  C   UNL     1     -12.091  13.663  70.272  1.00  0.00    -0.357 C  
HETATM   16  C   UNL     1     -12.732  13.816  71.657  1.00  0.00    -0.409 C  
BRANCH  15  17
HETATM   17  C   UNL     1     -12.525  14.713  69.258  1.00  0.00    -0.019 C  
BRANCH  17  18
HETATM   18  N   UNL     1     -11.465  15.516  68.713  1.00  0.00    -0.335 NA 
HETATM   19  C   UNL     1     -10.677  16.423  69.369  1.00  0.00    -0.324 A  
HETATM   20  N   UNL     1      -9.747  16.918  68.581  1.00  0.00    -0.257 NA 
HETATM   21  C   UNL     1      -9.970  16.313  67.365  1.00  0.00    -0.249 A  
HETATM   22  C   UNL     1      -9.308  16.415  66.138  1.00  0.00    -0.325 A  
HETATM   23  N   UNL     1      -9.804  15.742  65.074  1.00  0.00    -0.271 NA 
HETATM   24  N   UNL     1      -8.170  17.192  65.987  1.00  0.00    -0.526 NA 
HETATM   25  C   UNL     1     -10.888  14.967  65.265  1.00  0.00    -0.386 A  
HETATM   26  H1  UNL     1      -7.687  17.267  65.091  1.00  0.00     0.000 HD 
HETATM   27  H2  UNL     1      -7.490  16.890  66.685  1.00  0.00     0.000 HD 
HETATM   28  N   UNL     1     -11.588  14.758  66.402  1.00  0.00    -0.336 NA 
HETATM   29  C   UNL     1     -11.061  15.469  67.410  1.00  0.00    -0.285 A  
ENDBRANCH  17  18
ENDBRANCH  15  17
ENDBRANCH  14  15
ENDBRANCH  13  14
ENDBRANCH  11  13
BRANCH  11  30
HETATM   30  O   UNL     1     -11.535  10.033  68.428  1.00  0.00    -0.126 OA 
BRANCH  30  31
HETATM   31  C   UNL     1     -10.677  10.056  67.342  1.00  0.00    -0.274 A  
HETATM   32  C   UNL     1     -10.371  11.308  66.808  1.00  0.00    -0.278 A  
HETATM   33  C   UNL     1      -9.302   9.018  65.634  1.00  0.00    -0.289 A  
HETATM   34  C   UNL     1     -10.134   8.908  66.757  1.00  0.00    -0.350 A  
HETATM   35  C   UNL     1      -9.016  10.270  65.091  1.00  0.00    -0.220 A  
HETATM   36  C   UNL     1      -9.551  11.413  65.679  1.00  0.00    -0.258 A  
ENDBRANCH  30  31
ENDBRANCH  11  30
ENDBRANCH   9  11
ENDBRANCH   7   9
ENDBRANCH   5   7
ENDBRANCH   4   5
ENDBRANCH   2   4
TORSDOF 12
ENDMDL
MODEL      135
REMARK 921   NORMALIZED FREE ENERGY PREDICTED BY IDOCK:   -5.34 KCAL/MOL
REMARK 922        TOTAL FREE ENERGY PREDICTED BY IDOCK:  -10.81 KCAL/MOL
REMARK 923 INTER-LIGAND FREE ENERGY PREDICTED BY IDOCK:   -9.16 KCAL/MOL
REMARK 924 INTRA-LIGAND FREE ENERGY PREDICTED BY IDOCK:   -1.65 KCAL/MOL
REMARK 927      BINDING AFFINITY PREDICTED BY RF-SCORE:    0.00 PKD
ROOT
HETATM    1  C   UNL     1      -8.233   4.842  71.853  1.00  0.00    -0.110 C  
HETATM    2  C   UNL     1      -8.889   6.095  71.269  1.00  0.00    -0.136 C  
HETATM    3  C   UNL     1      -7.995   6.729  70.194  1.00  0.00    -0.112 C  
ENDROOT
BRANCH   2   4
HETATM    4  O   UNL     1     -10.290   5.876  70.902  1.00  0.00    -0.209 OA 
BRANCH   4   5
HETATM    5  C   UNL     1     -11.274   6.395  71.676  1.00  0.00    -0.278 C  
HETATM    6  O   UNL     1     -11.695   5.835  72.690  1.00  0.00    -0.293 OA 
BRANCH   5   7
HETATM    7  C   UNL     1     -11.884   7.751  71.219  1.00  0.00    -0.295 C  
HETATM    8  C   UNL     1     -13.336   7.834  71.690  1.00  0.00    -0.386 C  
BRANCH   7   9
HETATM    9  N   UNL     1     -11.751   8.178  69.772  1.00  0.00    -0.193 NA 
HETATM   10  H   UNL     1     -12.661   8.391  69.363  1.00  0.00     0.000 HD 
BRANCH   9  11
HETATM   11  P   UNL     1     -10.634   9.526  69.582  1.00  0.00    -0.246 P  
HETATM   12  O   UNL     1     -10.518   9.782  71.105  1.00  0.00    -0.274 OA 
BRANCH  11  13
HETATM   13  C   UNL     1     -11.529  11.207  69.402  1.00  0.00    -0.298 C  
BRANCH  13  14
HETATM   14  O   UNL     1     -12.028  11.455  68.034  1.00  0.00    -0.613 OA 
BRANCH  14  15
HETATM   15  C   UNL     1     -11.450  12.499  67.204  1.00  0.00    -0.351 C  
HETATM   16  C   UNL     1      -9.930  12.544  67.408  1.00  0.00    -0.207 C  
BRANCH  15  17
HETATM   17  C   UNL     1     -12.139  13.853  67.305  1.00  0.00    -0.368 C  
BRANCH  17  18
HETATM   18  N   UNL     1     -11.425  14.952  66.715  1.00  0.00    -0.333 NA 
HETATM   19  C   UNL     1     -11.183  15.178  65.387  1.00  0.00    -0.338 A  
HETATM   20  N   UNL     1     -10.573  16.327  65.194  1.00  0.00    -0.638 NA 
HETATM   21  C   UNL     1     -10.402  16.842  66.459  1.00  0.00    -0.299 A  
HETATM   22  C   UNL     1      -9.834  18.037  66.910  1.00  0.00    -0.330 A  
HETATM   23  N   UNL     1      -9.738  18.249  68.243  1.00  0.00    -0.318 NA 
HETATM   24  N   UNL     1      -9.362  18.998  66.029  1.00  0.00    -0.458 NA 
HETATM   25  C   UNL     1     -10.240  17.312  69.070  1.00  0.00    -0.318 A  
HETATM   26  H1  UNL     1      -8.947  19.870  66.358  1.00  0.00     0.000 HD 
HETATM   27  H2  UNL     1     -10.120  19.234  65.388  1.00  0.00     0.000 HD 
HETATM   28  N   UNL     1     -10.843  16.143  68.757  1.00  0.00    -0.290 NA 
HETATM   29  C   UNL     1     -10.886  15.984  67.425  1.00  0.00    -0.277 A  
ENDBRANCH  17  18
ENDBRANCH  15  17
ENDBRANCH  14  15
ENDBRANCH  13  14
ENDBRANCH  11  13
BRANCH  11  30
HETATM   30  O   UNL     1     -10.763   9.240  67.880  1.00  0.00    -0.242 OA 
BRANCH  30  31
HETATM   31  C   UNL     1      -9.706   8.574  67.286  1.00  0.00    -0.183 A  
HETATM   32  C   UNL     1      -9.955   7.278  66.831  1.00  0.00    -0.302 A  
HETATM   33  C   UNL     1      -7.400   8.358  66.563  1.00  0.00    -0.081 A  
HETATM   34  C   UNL     1      -8.426   9.118  67.143  1.00  0.00    -0.120 A  
HETATM   35  C   UNL     1      -7.648   7.057  66.129  1.00  0.00    -0.095 A  
HETATM   36  C   UNL     1      -8.925   6.519  66.264  1.00  0.00    -0.168 A  
ENDBRANCH  30  31
ENDBRANCH  11  30
ENDBRANCH   9  11
ENDBRANCH   7   9
ENDBRANCH   5   7
ENDBRANCH   4   5
ENDBRANCH   2   4
TORSDOF 12
ENDMDL
MODEL      136
REMARK 921   NORMALIZED FREE ENERGY PREDICTED BY IDOCK:   -5.34 KCAL/MOL
REMARK 922        TOTAL FREE ENERGY PREDICTED BY IDOCK:  -10.80 KCAL/MOL
REMARK 923 INTER-LIGAND FREE ENERGY PREDICTED BY IDOCK:   -9.58 KCAL/MOL
REMARK 924 INTRA-LIGAND FREE ENERGY PREDICTED BY IDOCK:   -1.23 KCAL/MOL
REMARK 927      BINDING AFFINITY PREDICTED BY RF-SCORE:    0.00 PKD
ROOT
HETATM    1  C   UNL     1      -7.352   4.118  66.311  1.00  0.00    -0.080 C  
HETATM    2  C   UNL     1      -8.535   5.084  66.210  1.00  0.00    -0.112 C  
HETATM    3  C   UNL     1      -9.796   4.355  65.723  1.00  0.00    -0.232 C  
ENDROOT
BRANCH   2   4
HETATM    4  O   UNL     1      -8.688   5.913  67.408  1.00  0.00    -0.110 OA 
BRANCH   4   5
HETATM    5  C   UNL     1      -8.332   7.220  67.367  1.00  0.00    -0.119 C  
HETATM    6  O   UNL     1      -7.184   7.595  67.119  1.00  0.00    -0.085 OA 
BRANCH   5   7
HETATM    7  C   UNL     1      -9.448   8.261  67.669  1.00  0.00    -0.149 C  
HETATM    8  C   UNL     1     -10.762   7.781  67.055  1.00  0.00    -0.316 C  
BRANCH   7   9
HETATM    9  N   UNL     1      -9.202   9.725  67.369  1.00  0.00    -0.134 NA 
HETATM   10  H   UNL     1      -9.080   9.882  66.369  1.00  0.00     0.000 HD 
BRANCH   9  11
HETATM   11  P   UNL     1     -10.470  10.755  68.028  1.00  0.00    -0.230 P  
HETATM   12  O   UNL     1     -10.916  11.274  66.639  1.00  0.00    -0.287 OA 
BRANCH  11  13
HETATM   13  C   UNL     1      -9.846  12.514  68.447  1.00  0.00    -0.202 C  
BRANCH  13  14
HETATM   14  O   UNL     1     -10.935  13.445  68.809  1.00  0.00    -0.246 OA 
BRANCH  14  15
HETATM   15  C   UNL     1     -10.669  14.856  69.036  1.00  0.00    -0.247 C  
HETATM   16  C   UNL     1     -11.026  15.228  70.481  1.00  0.00    -0.318 C  
BRANCH  15  17
HETATM   17  C   UNL     1     -11.245  15.794  67.984  1.00  0.00    -0.338 C  
BRANCH  17  18
HETATM   18  N   UNL     1     -10.278  16.556  67.243  1.00  0.00    -0.282 NA 
HETATM   19  C   UNL     1      -9.447  16.116  66.248  1.00  0.00    -0.316 A  
HETATM   20  N   UNL     1      -8.749  17.102  65.728  1.00  0.00    -0.494 NA 
HETATM   21  C   UNL     1      -9.140  18.213  66.440  1.00  0.00    -0.241 A  
HETATM   22  C   UNL     1      -8.767  19.557  66.349  1.00  0.00    -0.361 A  
HETATM   23  N   UNL     1      -9.273  20.434  67.247  1.00  0.00    -0.391 NA 
HETATM   24  N   UNL     1      -7.891  20.006  65.372  1.00  0.00    -0.451 NA 
HETATM   25  C   UNL     1     -10.150  19.972  68.157  1.00  0.00    -0.413 A  
HETATM   26  H1  UNL     1      -7.619  20.987  65.305  1.00  0.00     0.000 HD 
HETATM   27  H2  UNL     1      -8.262  19.721  64.465  1.00  0.00     0.000 HD 
HETATM   28  N   UNL     1     -10.614  18.713  68.322  1.00  0.00    -0.254 NA 
HETATM   29  C   UNL     1     -10.058  17.891  67.418  1.00  0.00    -0.340 A  
ENDBRANCH  17  18
ENDBRANCH  15  17
ENDBRANCH  14  15
ENDBRANCH  13  14
ENDBRANCH  11  13
BRANCH  11  30
HETATM   30  O   UNL     1      -9.971  10.175  69.581  1.00  0.00    -0.223 OA 
BRANCH  30  31
HETATM   31  C   UNL     1     -10.978   9.915  70.493  1.00  0.00    -0.326 A  
HETATM   32  C   UNL     1     -10.903   8.706  71.186  1.00  0.00    -0.320 A  
HETATM   33  C   UNL     1     -13.053  10.418  71.646  1.00  0.00    -0.553 A  
HETATM   34  C   UNL     1     -12.053  10.777  70.731  1.00  0.00    -0.473 A  
HETATM   35  C   UNL     1     -12.984   9.200  72.320  1.00  0.00    -0.492 A  
HETATM   36  C   UNL     1     -11.910   8.346  72.089  1.00  0.00    -0.441 A  
ENDBRANCH  30  31
ENDBRANCH  11  30
ENDBRANCH   9  11
ENDBRANCH   7   9
ENDBRANCH   5   7
ENDBRANCH   4   5
ENDBRANCH   2   4
TORSDOF 12
ENDMDL
MODEL      137
REMARK 921   NORMALIZED FREE ENERGY PREDICTED BY IDOCK:   -5.33 KCAL/MOL
REMARK 922        TOTAL FREE ENERGY PREDICTED BY IDOCK:  -10.78 KCAL/MOL
REMARK 923 INTER-LIGAND FREE ENERGY PREDICTED BY IDOCK:   -9.32 KCAL/MOL
REMARK 924 INTRA-LIGAND FREE ENERGY PREDICTED BY IDOCK:   -1.46 KCAL/MOL
REMARK 927      BINDING AFFINITY PREDICTED BY RF-SCORE:    0.00 PKD
ROOT
HETATM    1  C   UNL     1     -10.538   3.296  73.018  1.00  0.00    -0.241 C  
HETATM    2  C   UNL     1     -10.038   4.735  72.872  1.00  0.00    -0.168 C  
HETATM    3  C   UNL     1      -8.820   4.798  71.940  1.00  0.00    -0.137 C  
ENDROOT
BRANCH   2   4
HETATM    4  O   UNL     1     -11.121   5.680  72.589  1.00  0.00    -0.250 OA 
BRANCH   4   5
HETATM    5  C   UNL     1     -10.934   7.002  72.824  1.00  0.00    -0.294 C  
HETATM    6  O   UNL     1     -10.348   7.429  73.821  1.00  0.00    -0.348 OA 
BRANCH   5   7
HETATM    7  C   UNL     1     -11.517   7.991  71.774  1.00  0.00    -0.277 C  
HETATM    8  C   UNL     1     -12.800   8.611  72.325  1.00  0.00    -0.438 C  
BRANCH   7   9
HETATM    9  N   UNL     1     -11.697   7.535  70.341  1.00  0.00    -0.478 NA 
HETATM   10  H   UNL     1     -12.572   7.884  69.949  1.00  0.00     0.000 HD 
BRANCH   9  11
HETATM   11  P   UNL     1     -10.323   7.974  69.331  1.00  0.00    -0.201 P  
HETATM   12  O   UNL     1      -9.599   8.740  70.465  1.00  0.00    -0.171 OA 
BRANCH  11  13
HETATM   13  C   UNL     1     -10.579   9.636  68.419  1.00  0.00    -0.225 C  
BRANCH  13  14
HETATM   14  O   UNL     1      -9.651  10.694  68.868  1.00  0.00    -0.181 OA 
BRANCH  14  15
HETATM   15  C   UNL     1      -8.414  10.957  68.154  1.00  0.00    -0.131 C  
HETATM   16  C   UNL     1      -7.250  11.062  69.147  1.00  0.00    -0.121 C  
BRANCH  15  17
HETATM   17  C   UNL     1      -8.486  12.097  67.146  1.00  0.00    -0.182 C  
BRANCH  17  18
HETATM   18  N   UNL     1      -9.234  11.816  65.952  1.00  0.00    -0.206 NA 
HETATM   19  C   UNL     1      -8.878  11.002  64.910  1.00  0.00    -0.057 A  
HETATM   20  N   UNL     1      -9.840  10.906  64.019  1.00  0.00    -0.292 NA 
HETATM   21  C   UNL     1     -10.843  11.713  64.507  1.00  0.00    -0.324 A  
HETATM   22  C   UNL     1     -12.119  12.011  64.020  1.00  0.00    -0.406 A  
HETATM   23  N   UNL     1     -12.876  12.911  64.690  1.00  0.00    -0.740 NA 
HETATM   24  N   UNL     1     -12.618  11.417  62.871  1.00  0.00    -0.847 NA 
HETATM   25  C   UNL     1     -12.375  13.440  65.822  1.00  0.00    -0.460 A  
HETATM   26  H1  UNL     1     -13.549  11.636  62.516  1.00  0.00     0.000 HD 
HETATM   27  H2  UNL     1     -12.557  10.406  62.990  1.00  0.00     0.000 HD 
HETATM   28  N   UNL     1     -11.181  13.204  66.411  1.00  0.00    -0.293 NA 
HETATM   29  C   UNL     1     -10.473  12.323  65.688  1.00  0.00    -0.261 A  
ENDBRANCH  17  18
ENDBRANCH  15  17
ENDBRANCH  14  15
ENDBRANCH  13  14
ENDBRANCH  11  13
BRANCH  11  30
HETATM   30  O   UNL     1     -11.132   7.117  68.063  1.00  0.00    -0.101 OA 
BRANCH  30  31
HETATM   31  C   UNL     1     -10.569   5.914  67.676  1.00  0.00    -0.262 A  
HETATM   32  C   UNL     1      -9.972   5.147  68.678  1.00  0.00    -0.227 A  
HETATM   33  C   UNL     1      -9.925   4.238  66.044  1.00  0.00    -0.234 A  
HETATM   34  C   UNL     1     -10.551   5.453  66.356  1.00  0.00    -0.322 A  
HETATM   35  C   UNL     1      -9.312   3.486  67.045  1.00  0.00    -0.221 A  
HETATM   36  C   UNL     1      -9.336   3.942  68.360  1.00  0.00    -0.222 A  
ENDBRANCH  30  31
ENDBRANCH  11  30
ENDBRANCH   9  11
ENDBRANCH   7   9
ENDBRANCH   5   7
ENDBRANCH   4   5
ENDBRANCH   2   4
TORSDOF 12
ENDMDL
MODEL      138
REMARK 921   NORMALIZED FREE ENERGY PREDICTED BY IDOCK:   -5.31 KCAL/MOL
REMARK 922        TOTAL FREE ENERGY PREDICTED BY IDOCK:  -10.76 KCAL/MOL
REMARK 923 INTER-LIGAND FREE ENERGY PREDICTED BY IDOCK:   -8.78 KCAL/MOL
REMARK 924 INTRA-LIGAND FREE ENERGY PREDICTED BY IDOCK:   -1.98 KCAL/MOL
REMARK 927      BINDING AFFINITY PREDICTED BY RF-SCORE:    0.00 PKD
ROOT
HETATM    1  C   UNL     1     -12.762  10.757  70.643  1.00  0.00    -0.417 C  
HETATM    2  C   UNL     1     -12.726   9.731  71.778  1.00  0.00    -0.426 C  
HETATM    3  C   UNL     1     -13.850   8.698  71.616  1.00  0.00    -0.440 C  
ENDROOT
BRANCH   2   4
HETATM    4  O   UNL     1     -11.382   9.196  72.009  1.00  0.00    -0.366 OA 
BRANCH   4   5
HETATM    5  C   UNL     1     -11.062   7.964  71.541  1.00  0.00    -0.241 C  
HETATM    6  O   UNL     1     -11.085   6.953  72.245  1.00  0.00    -0.234 OA 
BRANCH   5   7
HETATM    7  C   UNL     1     -10.637   7.870  70.047  1.00  0.00    -0.242 C  
HETATM    8  C   UNL     1     -11.176   6.570  69.452  1.00  0.00    -0.418 C  
BRANCH   7   9
HETATM    9  N   UNL     1      -9.187   8.088  69.671  1.00  0.00    -0.152 NA 
HETATM   10  H   UNL     1      -8.754   7.223  69.348  1.00  0.00     0.000 HD 
BRANCH   9  11
HETATM   11  P   UNL     1      -8.999   9.377  68.485  1.00  0.00    -0.128 P  
HETATM   12  O   UNL     1      -9.228  10.506  69.520  1.00  0.00    -0.158 OA 
BRANCH  11  13
HETATM   13  C   UNL     1     -10.651   9.856  67.648  1.00  0.00    -0.270 C  
BRANCH  13  14
HETATM   14  O   UNL     1     -10.687  11.263  67.198  1.00  0.00    -0.225 OA 
BRANCH  14  15
HETATM   15  C   UNL     1     -11.083  11.605  65.842  1.00  0.00    -0.264 C  
HETATM   16  C   UNL     1      -9.847  11.648  64.933  1.00  0.00    -0.267 C  
BRANCH  15  17
HETATM   17  C   UNL     1     -11.991  12.821  65.727  1.00  0.00    -0.449 C  
BRANCH  17  18
HETATM   18  N   UNL     1     -11.422  14.059  66.184  1.00  0.00    -0.335 NA 
HETATM   19  C   UNL     1     -10.726  14.983  65.451  1.00  0.00    -0.374 A  
HETATM   20  N   UNL     1     -10.424  16.043  66.169  1.00  0.00    -0.319 NA 
HETATM   21  C   UNL     1     -10.932  15.769  67.419  1.00  0.00    -0.279 A  
HETATM   22  C   UNL     1     -10.942  16.509  68.604  1.00  0.00    -0.344 A  
HETATM   23  N   UNL     1     -11.462  15.945  69.718  1.00  0.00    -0.330 NA 
HETATM   24  N   UNL     1     -10.427  17.795  68.664  1.00  0.00    -0.336 NA 
HETATM   25  C   UNL     1     -11.988  14.710  69.615  1.00  0.00    -0.323 A  
HETATM   26  H1  UNL     1     -10.434  18.336  69.529  1.00  0.00     0.000 HD 
HETATM   27  H2  UNL     1     -10.888  18.351  67.944  1.00  0.00     0.000 HD 
HETATM   28  N   UNL     1     -12.072  13.914  68.525  1.00  0.00    -0.351 NA 
HETATM   29  C   UNL     1     -11.520  14.521  67.464  1.00  0.00    -0.356 A  
ENDBRANCH  17  18
ENDBRANCH  15  17
ENDBRANCH  14  15
ENDBRANCH  13  14
ENDBRANCH  11  13
BRANCH  11  30
HETATM   30  O   UNL     1      -8.743   8.115  67.328  1.00  0.00    -0.122 OA 
BRANCH  30  31
HETATM   31  C   UNL     1      -8.127   8.481  66.144  1.00  0.00    -0.105 A  
HETATM   32  C   UNL     1      -7.087   9.407  66.235  1.00  0.00    -0.088 A  
HETATM   33  C   UNL     1      -7.853   8.446  63.734  1.00  0.00    -0.151 A  
HETATM   34  C   UNL     1      -8.505   7.993  64.889  1.00  0.00    -0.066 A  
HETATM   35  C   UNL     1      -6.829   9.386  63.828  1.00  0.00    -0.096 A  
HETATM   36  C   UNL     1      -6.448   9.866  65.078  1.00  0.00    -0.106 A  
ENDBRANCH  30  31
ENDBRANCH  11  30
ENDBRANCH   9  11
ENDBRANCH   7   9
ENDBRANCH   5   7
ENDBRANCH   4   5
ENDBRANCH   2   4
TORSDOF 12
ENDMDL
MODEL      139
REMARK 921   NORMALIZED FREE ENERGY PREDICTED BY IDOCK:   -5.31 KCAL/MOL
REMARK 922        TOTAL FREE ENERGY PREDICTED BY IDOCK:  -10.76 KCAL/MOL
REMARK 923 INTER-LIGAND FREE ENERGY PREDICTED BY IDOCK:   -9.55 KCAL/MOL
REMARK 924 INTRA-LIGAND FREE ENERGY PREDICTED BY IDOCK:   -1.20 KCAL/MOL
REMARK 927      BINDING AFFINITY PREDICTED BY RF-SCORE:    0.00 PKD
ROOT
HETATM    1  C   UNL     1     -10.766  19.716  65.710  1.00  0.00    -0.493 C  
HETATM    2  C   UNL     1      -9.303  19.597  66.144  1.00  0.00    -0.351 C  
HETATM    3  C   UNL     1      -9.063  20.337  67.467  1.00  0.00    -0.462 C  
ENDROOT
BRANCH   2   4
HETATM    4  O   UNL     1      -8.807  18.220  66.072  1.00  0.00    -0.502 OA 
BRANCH   4   5
HETATM    5  C   UNL     1      -8.832  17.440  67.181  1.00  0.00    -0.232 C  
HETATM    6  O   UNL     1      -7.825  17.185  67.844  1.00  0.00    -0.186 OA 
BRANCH   5   7
HETATM    7  C   UNL     1     -10.211  16.847  67.590  1.00  0.00    -0.306 C  
HETATM    8  C   UNL     1     -10.391  16.987  69.101  1.00  0.00    -0.313 C  
BRANCH   7   9
HETATM    9  N   UNL     1     -10.596  15.462  67.116  1.00  0.00    -0.299 NA 
HETATM   10  H   UNL     1     -10.088  15.205  66.269  1.00  0.00     0.000 HD 
BRANCH   9  11
HETATM   11  P   UNL     1     -10.388  14.251  68.378  1.00  0.00    -0.254 P  
HETATM   12  O   UNL     1      -8.860  14.131  68.157  1.00  0.00    -0.168 OA 
BRANCH  11  13
HETATM   13  C   UNL     1     -10.587  12.464  67.726  1.00  0.00    -0.217 C  
BRANCH  13  14
HETATM   14  O   UNL     1      -9.444  12.014  66.905  1.00  0.00    -0.193 OA 
BRANCH  14  15
HETATM   15  C   UNL     1      -9.534  10.813  66.091  1.00  0.00    -0.187 C  
HETATM   16  C   UNL     1     -10.252  11.130  64.773  1.00  0.00    -0.365 C  
BRANCH  15  17
HETATM   17  C   UNL     1     -10.064   9.585  66.817  1.00  0.00    -0.245 C  
BRANCH  17  18
HETATM   18  N   UNL     1      -9.318   9.188  67.979  1.00  0.00    -0.137 NA 
HETATM   19  C   UNL     1      -8.007   8.800  68.042  1.00  0.00    -0.106 A  
HETATM   20  N   UNL     1      -7.622   8.586  69.281  1.00  0.00    -0.092 NA 
HETATM   21  C   UNL     1      -8.748   8.829  70.036  1.00  0.00    -0.144 A  
HETATM   22  C   UNL     1      -8.972   8.786  71.415  1.00  0.00    -0.238 A  
HETATM   23  N   UNL     1     -10.224   9.008  71.877  1.00  0.00    -0.335 NA 
HETATM   24  N   UNL     1      -7.950   8.512  72.311  1.00  0.00    -0.291 NA 
HETATM   25  C   UNL     1     -11.184   9.308  70.983  1.00  0.00    -0.321 A  
HETATM   26  H1  UNL     1      -8.114   8.480  73.318  1.00  0.00     0.000 HD 
HETATM   27  H2  UNL     1      -7.196   9.177  72.138  1.00  0.00     0.000 HD 
HETATM   28  N   UNL     1     -11.084   9.417  69.639  1.00  0.00    -0.190 NA 
HETATM   29  C   UNL     1      -9.827   9.163  69.244  1.00  0.00    -0.175 A  
ENDBRANCH  17  18
ENDBRANCH  15  17
ENDBRANCH  14  15
ENDBRANCH  13  14
ENDBRANCH  11  13
BRANCH  11  30
HETATM   30  O   UNL     1     -12.095  14.385  68.625  1.00  0.00    -0.311 OA 
BRANCH  30  31
HETATM   31  C   UNL     1     -12.549  14.181  69.916  1.00  0.00    -0.154 A  
HETATM   32  C   UNL     1     -12.432  12.887  70.427  1.00  0.00    -0.247 A  
HETATM   33  C   UNL     1     -13.593  14.879  71.991  1.00  0.00    -0.508 A  
HETATM   34  C   UNL     1     -13.124  15.181  70.705  1.00  0.00    -0.450 A  
HETATM   35  C   UNL     1     -13.493  13.581  72.489  1.00  0.00    -0.660 A  
HETATM   36  C   UNL     1     -12.914  12.587  71.706  1.00  0.00    -0.419 A  
ENDBRANCH  30  31
ENDBRANCH  11  30
ENDBRANCH   9  11
ENDBRANCH   7   9
ENDBRANCH   5   7
ENDBRANCH   4   5
ENDBRANCH   2   4
TORSDOF 12
ENDMDL
MODEL      140
REMARK 921   NORMALIZED FREE ENERGY PREDICTED BY IDOCK:   -5.31 KCAL/MOL
REMARK 922        TOTAL FREE ENERGY PREDICTED BY IDOCK:  -10.75 KCAL/MOL
REMARK 923 INTER-LIGAND FREE ENERGY PREDICTED BY IDOCK:   -8.48 KCAL/MOL
REMARK 924 INTRA-LIGAND FREE ENERGY PREDICTED BY IDOCK:   -2.27 KCAL/MOL
REMARK 927      BINDING AFFINITY PREDICTED BY RF-SCORE:    0.00 PKD
ROOT
HETATM    1  C   UNL     1     -10.932   9.595  68.496  1.00  0.00    -0.153 C  
HETATM    2  C   UNL     1      -9.667   9.002  69.120  1.00  0.00    -0.167 C  
HETATM    3  C   UNL     1      -8.826   8.275  68.062  1.00  0.00    -0.135 C  
ENDROOT
BRANCH   2   4
HETATM    4  O   UNL     1      -8.955   9.964  69.966  1.00  0.00    -0.217 OA 
BRANCH   4   5
HETATM    5  C   UNL     1      -7.626   9.809  70.183  1.00  0.00    -0.171 C  
HETATM    6  O   UNL     1      -7.165   8.941  70.928  1.00  0.00    -0.072 OA 
BRANCH   5   7
HETATM    7  C   UNL     1      -6.675  10.801  69.453  1.00  0.00    -0.097 C  
HETATM    8  C   UNL     1      -5.255  10.622  69.987  1.00  0.00    -0.041 C  
BRANCH   7   9
HETATM    9  N   UNL     1      -7.051  12.265  69.368  1.00  0.00    -0.329 NA 
HETATM   10  H   UNL     1      -6.475  12.832  69.990  1.00  0.00     0.000 HD 
BRANCH   9  11
HETATM   11  P   UNL     1      -6.989  12.868  67.714  1.00  0.00    -0.164 P  
HETATM   12  O   UNL     1      -5.537  13.389  67.847  1.00  0.00    -0.111 OA 
BRANCH  11  13
HETATM   13  C   UNL     1      -7.590  14.677  67.565  1.00  0.00    -0.194 C  
BRANCH  13  14
HETATM   14  O   UNL     1      -8.787  14.823  66.711  1.00  0.00    -0.246 OA 
BRANCH  14  15
HETATM   15  C   UNL     1     -10.043  15.307  67.259  1.00  0.00    -0.236 C  
HETATM   16  C   UNL     1     -10.506  16.548  66.485  1.00  0.00    -0.270 C  
BRANCH  15  17
HETATM   17  C   UNL     1     -10.062  15.465  68.773  1.00  0.00    -0.213 C  
BRANCH  17  18
HETATM   18  N   UNL     1     -11.020  14.648  69.465  1.00  0.00    -0.254 NA 
HETATM   19  C   UNL     1     -11.449  13.392  69.130  1.00  0.00    -0.300 A  
HETATM   20  N   UNL     1     -12.269  12.902  70.034  1.00  0.00    -0.265 NA 
HETATM   21  C   UNL     1     -12.381  13.901  70.974  1.00  0.00    -0.376 A  
HETATM   22  C   UNL     1     -13.093  13.976  72.174  1.00  0.00    -0.411 A  
HETATM   23  N   UNL     1     -13.071  15.135  72.872  1.00  0.00    -0.436 NA 
HETATM   24  N   UNL     1     -13.824  12.901  72.656  1.00  0.00    -0.721 NA 
HETATM   25  C   UNL     1     -12.321  16.146  72.395  1.00  0.00    -0.475 A  
HETATM   26  H1  UNL     1     -14.345  12.956  73.532  1.00  0.00     0.000 HD 
HETATM   27  H2  UNL     1     -13.198  12.098  72.714  1.00  0.00     0.000 HD 
HETATM   28  N   UNL     1     -11.563  16.182  71.276  1.00  0.00    -0.439 NA 
HETATM   29  C   UNL     1     -11.646  15.014  70.620  1.00  0.00    -0.311 A  
ENDBRANCH  17  18
ENDBRANCH  15  17
ENDBRANCH  14  15
ENDBRANCH  13  14
ENDBRANCH  11  13
BRANCH  11  30
HETATM   30  O   UNL     1      -8.612  12.284  67.565  1.00  0.00    -0.156 OA 
BRANCH  30  31
HETATM   31  C   UNL     1      -8.915  11.598  66.402  1.00  0.00    -0.198 A  
HETATM   32  C   UNL     1      -7.900  10.817  65.848  1.00  0.00    -0.131 A  
HETATM   33  C   UNL     1     -10.368  10.972  64.563  1.00  0.00    -0.420 A  
HETATM   34  C   UNL     1     -10.156  11.668  65.761  1.00  0.00    -0.278 A  
HETATM   35  C   UNL     1      -9.344  10.209  64.003  1.00  0.00    -0.339 A  
HETATM   36  C   UNL     1      -8.112  10.134  64.646  1.00  0.00    -0.153 A  
ENDBRANCH  30  31
ENDBRANCH  11  30
ENDBRANCH   9  11
ENDBRANCH   7   9
ENDBRANCH   5   7
ENDBRANCH   4   5
ENDBRANCH   2   4
TORSDOF 12
ENDMDL
MODEL      141
REMARK 921   NORMALIZED FREE ENERGY PREDICTED BY IDOCK:   -5.31 KCAL/MOL
REMARK 922        TOTAL FREE ENERGY PREDICTED BY IDOCK:  -10.75 KCAL/MOL
REMARK 923 INTER-LIGAND FREE ENERGY PREDICTED BY IDOCK:   -9.14 KCAL/MOL
REMARK 924 INTRA-LIGAND FREE ENERGY PREDICTED BY IDOCK:   -1.61 KCAL/MOL
REMARK 927      BINDING AFFINITY PREDICTED BY RF-SCORE:    0.00 PKD
ROOT
HETATM    1  C   UNL     1     -13.315   9.635  72.151  1.00  0.00    -0.545 C  
HETATM    2  C   UNL     1     -12.944  10.856  71.305  1.00  0.00    -0.392 C  
HETATM    3  C   UNL     1     -13.397  12.153  71.990  1.00  0.00    -0.470 C  
ENDROOT
BRANCH   2   4
HETATM    4  O   UNL     1     -11.554  10.817  70.843  1.00  0.00    -0.306 OA 
BRANCH   4   5
HETATM    5  C   UNL     1     -11.288  10.540  69.543  1.00  0.00    -0.278 C  
HETATM    6  O   UNL     1     -12.129  10.651  68.648  1.00  0.00    -0.410 OA 
BRANCH   5   7
HETATM    7  C   UNL     1      -9.851  10.046  69.210  1.00  0.00    -0.214 C  
HETATM    8  C   UNL     1      -9.188   9.532  70.487  1.00  0.00    -0.284 C  
BRANCH   7   9
HETATM    9  N   UNL     1      -8.917  10.945  68.428  1.00  0.00    -0.147 NA 
HETATM   10  H   UNL     1      -7.994  10.986  68.861  1.00  0.00     0.000 HD 
BRANCH   9  11
HETATM   11  P   UNL     1      -8.809  10.472  66.735  1.00  0.00    -0.133 P  
HETATM   12  O   UNL     1      -8.592  11.922  66.235  1.00  0.00    -0.133 OA 
BRANCH  11  13
HETATM   13  C   UNL     1     -10.511  10.462  65.862  1.00  0.00    -0.125 C  
BRANCH  13  14
HETATM   14  O   UNL     1     -10.585  11.400  64.723  1.00  0.00    -0.293 OA 
BRANCH  14  15
HETATM   15  C   UNL     1     -11.720  12.292  64.560  1.00  0.00    -0.353 C  
HETATM   16  C   UNL     1     -12.534  11.882  63.326  1.00  0.00    -0.506 C  
BRANCH  15  17
HETATM   17  C   UNL     1     -11.384  13.775  64.628  1.00  0.00    -0.372 C  
BRANCH  17  18
HETATM   18  N   UNL     1     -11.438  14.359  65.939  1.00  0.00    -0.337 NA 
HETATM   19  C   UNL     1     -11.885  13.782  67.098  1.00  0.00    -0.406 A  
HETATM   20  N   UNL     1     -11.712  14.574  68.133  1.00  0.00    -0.331 NA 
HETATM   21  C   UNL     1     -11.150  15.714  67.604  1.00  0.00    -0.305 A  
HETATM   22  C   UNL     1     -10.724  16.905  68.198  1.00  0.00    -0.375 A  
HETATM   23  N   UNL     1     -10.266  17.900  67.403  1.00  0.00    -0.344 NA 
HETATM   24  N   UNL     1     -10.769  17.092  69.571  1.00  0.00    -0.368 NA 
HETATM   25  C   UNL     1     -10.200  17.671  66.078  1.00  0.00    -0.297 A  
HETATM   26  H1  UNL     1     -10.458  17.961  70.004  1.00  0.00     0.000 HD 
HETATM   27  H2  UNL     1     -10.258  16.324  70.007  1.00  0.00     0.000 HD 
HETATM   28  N   UNL     1     -10.543  16.557  65.393  1.00  0.00    -0.563 NA 
HETATM   29  C   UNL     1     -11.009  15.621  66.234  1.00  0.00    -0.201 A  
ENDBRANCH  17  18
ENDBRANCH  15  17
ENDBRANCH  14  15
ENDBRANCH  13  14
ENDBRANCH  11  13
BRANCH  11  30
HETATM   30  O   UNL     1      -9.050   8.852  67.294  1.00  0.00    -0.132 OA 
BRANCH  30  31
HETATM   31  C   UNL     1      -8.238   7.881  66.736  1.00  0.00    -0.116 A  
HETATM   32  C   UNL     1      -7.631   6.985  67.617  1.00  0.00    -0.110 A  
HETATM   33  C   UNL     1      -7.120   6.780  64.886  1.00  0.00    -0.060 A  
HETATM   34  C   UNL     1      -7.987   7.772  65.364  1.00  0.00    -0.125 A  
HETATM   35  C   UNL     1      -6.499   5.901  65.772  1.00  0.00    -0.043 A  
HETATM   36  C   UNL     1      -6.755   6.005  67.136  1.00  0.00    -0.061 A  
ENDBRANCH  30  31
ENDBRANCH  11  30
ENDBRANCH   9  11
ENDBRANCH   7   9
ENDBRANCH   5   7
ENDBRANCH   4   5
ENDBRANCH   2   4
TORSDOF 12
ENDMDL
MODEL      142
REMARK 921   NORMALIZED FREE ENERGY PREDICTED BY IDOCK:   -5.30 KCAL/MOL
REMARK 922        TOTAL FREE ENERGY PREDICTED BY IDOCK:  -10.74 KCAL/MOL
REMARK 923 INTER-LIGAND FREE ENERGY PREDICTED BY IDOCK:   -9.17 KCAL/MOL
REMARK 924 INTRA-LIGAND FREE ENERGY PREDICTED BY IDOCK:   -1.57 KCAL/MOL
REMARK 927      BINDING AFFINITY PREDICTED BY RF-SCORE:    0.00 PKD
ROOT
HETATM    1  C   UNL     1     -12.937  10.651  71.282  1.00  0.00    -0.513 C  
HETATM    2  C   UNL     1     -12.969   9.350  72.087  1.00  0.00    -0.421 C  
HETATM    3  C   UNL     1     -14.086   8.424  71.585  1.00  0.00    -0.487 C  
ENDROOT
BRANCH   2   4
HETATM    4  O   UNL     1     -11.642   8.746  72.232  1.00  0.00    -0.365 OA 
BRANCH   4   5
HETATM    5  C   UNL     1     -11.395   7.532  71.681  1.00  0.00    -0.252 C  
HETATM    6  O   UNL     1     -11.572   6.473  72.285  1.00  0.00    -0.281 OA 
BRANCH   5   7
HETATM    7  C   UNL     1     -10.848   7.522  70.224  1.00  0.00    -0.246 C  
HETATM    8  C   UNL     1     -11.265   6.221  69.540  1.00  0.00    -0.500 C  
BRANCH   7   9
HETATM    9  N   UNL     1      -9.387   7.832  69.975  1.00  0.00    -0.157 NA 
HETATM   10  H   UNL     1      -8.902   7.029  69.575  1.00  0.00     0.000 HD 
BRANCH   9  11
HETATM   11  P   UNL     1      -9.178   9.268  68.977  1.00  0.00    -0.150 P  
HETATM   12  O   UNL     1      -9.727  10.229  70.060  1.00  0.00    -0.160 OA 
BRANCH  11  13
HETATM   13  C   UNL     1     -10.715   9.652  67.905  1.00  0.00    -0.247 C  
BRANCH  13  14
HETATM   14  O   UNL     1     -11.014  11.097  67.816  1.00  0.00    -0.222 OA 
BRANCH  14  15
HETATM   15  C   UNL     1     -11.298  11.724  66.536  1.00  0.00    -0.305 C  
HETATM   16  C   UNL     1     -10.008  11.839  65.714  1.00  0.00    -0.269 C  
BRANCH  15  17
HETATM   17  C   UNL     1     -12.107  13.011  66.620  1.00  0.00    -0.319 C  
BRANCH  17  18
HETATM   18  N   UNL     1     -11.426  14.196  66.179  1.00  0.00    -0.337 NA 
HETATM   19  C   UNL     1     -11.475  14.782  64.942  1.00  0.00    -0.412 A  
HETATM   20  N   UNL     1     -10.794  15.906  64.909  1.00  0.00    -0.563 NA 
HETATM   21  C   UNL     1     -10.272  16.028  66.178  1.00  0.00    -0.324 A  
HETATM   22  C   UNL     1      -9.476  17.015  66.766  1.00  0.00    -0.258 A  
HETATM   23  N   UNL     1      -9.046  16.831  68.036  1.00  0.00    -0.223 NA 
HETATM   24  N   UNL     1      -9.112  18.163  66.080  1.00  0.00    -0.521 NA 
HETATM   25  C   UNL     1      -9.450  15.723  68.686  1.00  0.00    -0.208 A  
HETATM   26  H1  UNL     1      -8.530  18.883  66.510  1.00  0.00     0.000 HD 
HETATM   27  H2  UNL     1      -9.964  18.609  65.743  1.00  0.00     0.000 HD 
HETATM   28  N   UNL     1     -10.245  14.724  68.241  1.00  0.00    -0.223 NA 
HETATM   29  C   UNL     1     -10.616  14.955  66.973  1.00  0.00    -0.289 A  
ENDBRANCH  17  18
ENDBRANCH  15  17
ENDBRANCH  14  15
ENDBRANCH  13  14
ENDBRANCH  11  13
BRANCH  11  30
HETATM   30  O   UNL     1      -8.564   8.194  67.767  1.00  0.00    -0.130 OA 
BRANCH  30  31
HETATM   31  C   UNL     1      -8.099   8.779  66.602  1.00  0.00    -0.103 A  
HETATM   32  C   UNL     1      -8.710   8.383  65.412  1.00  0.00    -0.175 A  
HETATM   33  C   UNL     1      -6.622  10.226  65.334  1.00  0.00    -0.122 A  
HETATM   34  C   UNL     1      -7.057   9.710  66.563  1.00  0.00    -0.089 A  
HETATM   35  C   UNL     1      -7.221   9.811  64.146  1.00  0.00    -0.129 A  
HETATM   36  C   UNL     1      -8.263   8.890  64.186  1.00  0.00    -0.167 A  
ENDBRANCH  30  31
ENDBRANCH  11  30
ENDBRANCH   9  11
ENDBRANCH   7   9
ENDBRANCH   5   7
ENDBRANCH   4   5
ENDBRANCH   2   4
TORSDOF 12
ENDMDL
MODEL      143
REMARK 921   NORMALIZED FREE ENERGY PREDICTED BY IDOCK:   -5.29 KCAL/MOL
REMARK 922        TOTAL FREE ENERGY PREDICTED BY IDOCK:  -10.72 KCAL/MOL
REMARK 923 INTER-LIGAND FREE ENERGY PREDICTED BY IDOCK:   -9.43 KCAL/MOL
REMARK 924 INTRA-LIGAND FREE ENERGY PREDICTED BY IDOCK:   -1.29 KCAL/MOL
REMARK 927      BINDING AFFINITY PREDICTED BY RF-SCORE:    0.00 PKD
ROOT
HETATM    1  C   UNL     1      -8.840  15.993  66.181  1.00  0.00    -0.366 C  
HETATM    2  C   UNL     1     -10.174  15.245  66.115  1.00  0.00    -0.304 C  
HETATM    3  C   UNL     1     -11.177  15.826  67.122  1.00  0.00    -0.110 C  
ENDROOT
BRANCH   2   4
HETATM    4  O   UNL     1     -10.656  15.078  64.742  1.00  0.00    -0.402 OA 
BRANCH   4   5
HETATM    5  C   UNL     1     -11.675  14.220  64.490  1.00  0.00    -0.418 C  
HETATM    6  O   UNL     1     -12.767  14.587  64.051  1.00  0.00    -0.759 OA 
BRANCH   5   7
HETATM    7  C   UNL     1     -11.420  12.717  64.799  1.00  0.00    -0.317 C  
HETATM    8  C   UNL     1     -11.833  11.878  63.590  1.00  0.00    -0.573 C  
BRANCH   7   9
HETATM    9  N   UNL     1     -11.946  12.122  66.088  1.00  0.00    -0.600 NA 
HETATM   10  H   UNL     1     -12.699  11.458  65.908  1.00  0.00     0.000 HD 
BRANCH   9  11
HETATM   11  P   UNL     1     -10.664  11.390  67.049  1.00  0.00    -0.286 P  
HETATM   12  O   UNL     1      -9.540  11.843  66.086  1.00  0.00    -0.225 OA 
BRANCH  11  13
HETATM   13  C   UNL     1     -10.313   9.577  66.552  1.00  0.00    -0.193 C  
BRANCH  13  14
HETATM   14  O   UNL     1      -8.938   9.142  66.875  1.00  0.00    -0.121 OA 
BRANCH  14  15
HETATM   15  C   UNL     1      -8.625   8.542  68.161  1.00  0.00    -0.138 C  
HETATM   16  C   UNL     1      -7.229   7.908  68.114  1.00  0.00    -0.090 C  
BRANCH  15  17
HETATM   17  C   UNL     1      -9.710   7.635  68.725  1.00  0.00    -0.153 C  
BRANCH  17  18
HETATM   18  N   UNL     1      -9.717   6.293  68.212  1.00  0.00    -0.119 NA 
HETATM   19  C   UNL     1      -9.749   5.895  66.902  1.00  0.00    -0.147 A  
HETATM   20  N   UNL     1      -9.659   4.588  66.790  1.00  0.00    -0.174 NA 
HETATM   21  C   UNL     1      -9.588   4.135  68.088  1.00  0.00    -0.134 A  
HETATM   22  C   UNL     1      -9.466   2.849  68.621  1.00  0.00    -0.124 A  
HETATM   23  N   UNL     1      -9.493   2.697  69.965  1.00  0.00    -0.115 NA 
HETATM   24  N   UNL     1      -9.328   1.734  67.809  1.00  0.00    -0.296 NA 
HETATM   25  C   UNL     1      -9.590   3.805  70.725  1.00  0.00    -0.179 A  
HETATM   26  H1  UNL     1      -9.239   0.795  68.198  1.00  0.00     0.000 HD 
HETATM   27  H2  UNL     1      -8.532   1.893  67.191  1.00  0.00     0.000 HD 
HETATM   28  N   UNL     1      -9.675   5.095  70.332  1.00  0.00    -0.185 NA 
HETATM   29  C   UNL     1      -9.666   5.175  68.992  1.00  0.00    -0.161 A  
ENDBRANCH  17  18
ENDBRANCH  15  17
ENDBRANCH  14  15
ENDBRANCH  13  14
ENDBRANCH  11  13
BRANCH  11  30
HETATM   30  O   UNL     1     -11.921  10.885  68.126  1.00  0.00    -0.581 OA 
BRANCH  30  31
HETATM   31  C   UNL     1     -12.137  11.680  69.237  1.00  0.00    -0.259 A  
HETATM   32  C   UNL     1     -12.676  11.056  70.363  1.00  0.00    -0.297 A  
HETATM   33  C   UNL     1     -12.152  13.792  70.431  1.00  0.00    -0.421 A  
HETATM   34  C   UNL     1     -11.867  13.052  69.275  1.00  0.00    -0.370 A  
HETATM   35  C   UNL     1     -12.709  13.168  71.546  1.00  0.00    -0.366 A  
HETATM   36  C   UNL     1     -12.971  11.801  71.510  1.00  0.00    -0.446 A  
ENDBRANCH  30  31
ENDBRANCH  11  30
ENDBRANCH   9  11
ENDBRANCH   7   9
ENDBRANCH   5   7
ENDBRANCH   4   5
ENDBRANCH   2   4
TORSDOF 12
ENDMDL
MODEL      144
REMARK 921   NORMALIZED FREE ENERGY PREDICTED BY IDOCK:   -5.29 KCAL/MOL
REMARK 922        TOTAL FREE ENERGY PREDICTED BY IDOCK:  -10.72 KCAL/MOL
REMARK 923 INTER-LIGAND FREE ENERGY PREDICTED BY IDOCK:   -9.84 KCAL/MOL
REMARK 924 INTRA-LIGAND FREE ENERGY PREDICTED BY IDOCK:   -0.88 KCAL/MOL
REMARK 927      BINDING AFFINITY PREDICTED BY RF-SCORE:    0.00 PKD
ROOT
HETATM    1  C   UNL     1     -13.336   9.125  72.253  1.00  0.00    -0.540 C  
HETATM    2  C   UNL     1     -12.294   8.426  71.377  1.00  0.00    -0.299 C  
HETATM    3  C   UNL     1     -10.878   8.911  71.719  1.00  0.00    -0.436 C  
ENDROOT
BRANCH   2   4
HETATM    4  O   UNL     1     -12.487   6.974  71.325  1.00  0.00    -0.364 OA 
BRANCH   4   5
HETATM    5  C   UNL     1     -11.412   6.161  71.182  1.00  0.00    -0.248 C  
HETATM    6  O   UNL     1     -10.698   5.821  72.127  1.00  0.00    -0.214 OA 
BRANCH   5   7
HETATM    7  C   UNL     1     -11.090   5.671  69.741  1.00  0.00    -0.100 C  
HETATM    8  C   UNL     1      -9.798   4.855  69.763  1.00  0.00    -0.292 C  
BRANCH   7   9
HETATM    9  N   UNL     1     -11.092   6.666  68.599  1.00  0.00    -0.495 NA 
HETATM   10  H   UNL     1     -11.337   7.601  68.923  1.00  0.00     0.000 HD 
BRANCH   9  11
HETATM   11  P   UNL     1      -9.562   6.672  67.725  1.00  0.00    -0.127 P  
HETATM   12  O   UNL     1      -8.895   7.682  68.690  1.00  0.00    -0.128 OA 
BRANCH  11  13
HETATM   13  C   UNL     1      -9.503   7.998  66.349  1.00  0.00    -0.201 C  
BRANCH  13  14
HETATM   14  O   UNL     1     -10.429   9.125  66.589  1.00  0.00    -0.243 OA 
BRANCH  14  15
HETATM   15  C   UNL     1     -10.136  10.455  66.081  1.00  0.00    -0.237 C  
HETATM   16  C   UNL     1      -8.627  10.722  66.159  1.00  0.00    -0.171 C  
BRANCH  15  17
HETATM   17  C   UNL     1     -11.002  11.566  66.659  1.00  0.00    -0.296 C  
BRANCH  17  18
HETATM   18  N   UNL     1     -11.247  12.675  65.779  1.00  0.00    -0.300 NA 
HETATM   19  C   UNL     1     -12.051  12.707  64.672  1.00  0.00    -0.420 A  
HETATM   20  N   UNL     1     -12.111  13.913  64.150  1.00  0.00    -0.533 NA 
HETATM   21  C   UNL     1     -11.290  14.675  64.950  1.00  0.00    -0.403 A  
HETATM   22  C   UNL     1     -10.954  16.031  64.917  1.00  0.00    -0.384 A  
HETATM   23  N   UNL     1     -10.048  16.498  65.807  1.00  0.00    -0.492 NA 
HETATM   24  N   UNL     1     -11.518  16.899  63.994  1.00  0.00    -1.180 NA 
HETATM   25  C   UNL     1      -9.549  15.637  66.713  1.00  0.00    -0.240 A  
HETATM   26  H1  UNL     1     -11.273  17.889  63.970  1.00  0.00     0.000 HD 
HETATM   27  H2  UNL     1     -12.532  16.830  64.079  1.00  0.00     0.000 HD 
HETATM   28  N   UNL     1      -9.822  14.322  66.869  1.00  0.00    -0.256 NA 
HETATM   29  C   UNL     1     -10.707  13.917  65.945  1.00  0.00    -0.286 A  
ENDBRANCH  17  18
ENDBRANCH  15  17
ENDBRANCH  14  15
ENDBRANCH  13  14
ENDBRANCH  11  13
BRANCH  11  30
HETATM   30  O   UNL     1     -10.308   5.541  66.648  1.00  0.00    -0.218 OA 
BRANCH  30  31
HETATM   31  C   UNL     1      -9.471   4.613  66.054  1.00  0.00    -0.171 A  
HETATM   32  C   UNL     1     -10.013   3.847  65.021  1.00  0.00    -0.186 A  
HETATM   33  C   UNL     1      -7.379   3.407  65.817  1.00  0.00    -0.072 A  
HETATM   34  C   UNL     1      -8.147   4.396  66.447  1.00  0.00    -0.102 A  
HETATM   35  C   UNL     1      -7.932   2.631  64.800  1.00  0.00    -0.082 A  
HETATM   36  C   UNL     1      -9.248   2.851  64.403  1.00  0.00    -0.128 A  
ENDBRANCH  30  31
ENDBRANCH  11  30
ENDBRANCH   9  11
ENDBRANCH   7   9
ENDBRANCH   5   7
ENDBRANCH   4   5
ENDBRANCH   2   4
TORSDOF 12
ENDMDL
MODEL      145
REMARK 921   NORMALIZED FREE ENERGY PREDICTED BY IDOCK:   -5.29 KCAL/MOL
REMARK 922        TOTAL FREE ENERGY PREDICTED BY IDOCK:  -10.72 KCAL/MOL
REMARK 923 INTER-LIGAND FREE ENERGY PREDICTED BY IDOCK:   -9.06 KCAL/MOL
REMARK 924 INTRA-LIGAND FREE ENERGY PREDICTED BY IDOCK:   -1.65 KCAL/MOL
REMARK 927      BINDING AFFINITY PREDICTED BY RF-SCORE:    0.00 PKD
ROOT
HETATM    1  C   UNL     1      -6.482  18.469  69.528  1.00  0.00    -0.222 C  
HETATM    2  C   UNL     1      -6.716  19.518  68.438  1.00  0.00    -0.280 C  
HETATM    3  C   UNL     1      -5.876  20.775  68.700  1.00  0.00    -0.391 C  
ENDROOT
BRANCH   2   4
HETATM    4  O   UNL     1      -6.634  18.952  67.089  1.00  0.00    -0.198 OA 
BRANCH   4   5
HETATM    5  C   UNL     1      -7.760  18.836  66.342  1.00  0.00    -0.269 C  
HETATM    6  O   UNL     1      -8.122  19.696  65.537  1.00  0.00    -0.358 OA 
BRANCH   5   7
HETATM    7  C   UNL     1      -8.612  17.552  66.555  1.00  0.00    -0.263 C  
HETATM    8  C   UNL     1      -9.851  17.901  67.379  1.00  0.00    -0.305 C  
BRANCH   7   9
HETATM    9  N   UNL     1      -7.947  16.293  67.068  1.00  0.00    -0.190 NA 
HETATM   10  H   UNL     1      -7.336  16.493  67.860  1.00  0.00     0.000 HD 
BRANCH   9  11
HETATM   11  P   UNL     1      -9.121  15.041  67.467  1.00  0.00    -0.198 P  
HETATM   12  O   UNL     1      -8.843  15.118  68.988  1.00  0.00    -0.195 OA 
BRANCH  11  13
HETATM   13  C   UNL     1      -8.361  13.286  67.451  1.00  0.00    -0.192 C  
BRANCH  13  14
HETATM   14  O   UNL     1      -9.256  12.261  68.028  1.00  0.00    -0.182 OA 
BRANCH  14  15
HETATM   15  C   UNL     1      -9.508  11.010  67.331  1.00  0.00    -0.160 C  
HETATM   16  C   UNL     1     -11.018  10.746  67.264  1.00  0.00    -0.359 C  
BRANCH  15  17
HETATM   17  C   UNL     1      -8.683   9.828  67.820  1.00  0.00    -0.129 C  
BRANCH  17  18
HETATM   18  N   UNL     1      -9.129   9.233  69.049  1.00  0.00    -0.144 NA 
HETATM   19  C   UNL     1      -8.880   9.657  70.326  1.00  0.00    -0.211 A  
HETATM   20  N   UNL     1      -9.515   8.924  71.215  1.00  0.00    -0.250 NA 
HETATM   21  C   UNL     1     -10.180   7.979  70.467  1.00  0.00    -0.198 A  
HETATM   22  C   UNL     1     -11.032   6.933  70.832  1.00  0.00    -0.253 A  
HETATM   23  N   UNL     1     -11.493   6.103  69.868  1.00  0.00    -0.394 NA 
HETATM   24  N   UNL     1     -11.404   6.723  72.151  1.00  0.00    -0.260 NA 
HETATM   25  C   UNL     1     -11.143   6.359  68.593  1.00  0.00    -0.311 A  
HETATM   26  H1  UNL     1     -12.026   5.959  72.418  1.00  0.00     0.000 HD 
HETATM   27  H2  UNL     1     -11.806   7.591  72.505  1.00  0.00     0.000 HD 
HETATM   28  N   UNL     1     -10.363   7.354  68.114  1.00  0.00    -0.187 NA 
HETATM   29  C   UNL     1      -9.921   8.124  69.120  1.00  0.00    -0.192 A  
ENDBRANCH  17  18
ENDBRANCH  15  17
ENDBRANCH  14  15
ENDBRANCH  13  14
ENDBRANCH  11  13
BRANCH  11  30
HETATM   30  O   UNL     1      -9.432  14.956  65.767  1.00  0.00    -0.308 OA 
BRANCH  30  31
HETATM   31  C   UNL     1     -10.534  14.215  65.378  1.00  0.00    -0.357 A  
HETATM   32  C   UNL     1     -10.326  13.244  64.398  1.00  0.00    -0.372 A  
HETATM   33  C   UNL     1     -12.889  13.636  65.417  1.00  0.00    -0.440 A  
HETATM   34  C   UNL     1     -11.819  14.405  65.895  1.00  0.00    -0.371 A  
HETATM   35  C   UNL     1     -12.680  12.681  64.424  1.00  0.00    -0.417 A  
HETATM   36  C   UNL     1     -11.399  12.487  63.915  1.00  0.00    -0.504 A  
ENDBRANCH  30  31
ENDBRANCH  11  30
ENDBRANCH   9  11
ENDBRANCH   7   9
ENDBRANCH   5   7
ENDBRANCH   4   5
ENDBRANCH   2   4
TORSDOF 12
ENDMDL
MODEL      146
REMARK 921   NORMALIZED FREE ENERGY PREDICTED BY IDOCK:   -5.29 KCAL/MOL
REMARK 922        TOTAL FREE ENERGY PREDICTED BY IDOCK:  -10.72 KCAL/MOL
REMARK 923 INTER-LIGAND FREE ENERGY PREDICTED BY IDOCK:   -9.06 KCAL/MOL
REMARK 924 INTRA-LIGAND FREE ENERGY PREDICTED BY IDOCK:   -1.65 KCAL/MOL
REMARK 927      BINDING AFFINITY PREDICTED BY RF-SCORE:    0.00 PKD
ROOT
HETATM    1  C   UNL     1      -6.566  17.512  69.023  1.00  0.00    -0.243 C  
HETATM    2  C   UNL     1      -7.711  18.416  68.561  1.00  0.00    -0.303 C  
HETATM    3  C   UNL     1      -7.239  19.870  68.427  1.00  0.00    -0.331 C  
ENDROOT
BRANCH   2   4
HETATM    4  O   UNL     1      -8.437  17.861  67.416  1.00  0.00    -0.230 OA 
BRANCH   4   5
HETATM    5  C   UNL     1      -9.766  17.617  67.520  1.00  0.00    -0.280 C  
HETATM    6  O   UNL     1     -10.614  18.512  67.525  1.00  0.00    -0.409 OA 
BRANCH   5   7
HETATM    7  C   UNL     1     -10.198  16.128  67.654  1.00  0.00    -0.265 C  
HETATM    8  C   UNL     1     -11.438  16.042  68.544  1.00  0.00    -0.357 C  
BRANCH   7   9
HETATM    9  N   UNL     1      -9.170  15.087  68.042  1.00  0.00    -0.181 NA 
HETATM   10  H   UNL     1      -8.939  15.145  69.034  1.00  0.00     0.000 HD 
BRANCH   9  11
HETATM   11  P   UNL     1      -9.678  13.460  67.598  1.00  0.00    -0.238 P  
HETATM   12  O   UNL     1      -9.795  12.983  69.066  1.00  0.00     0.073 OA 
BRANCH  11  13
HETATM   13  C   UNL     1      -8.203  12.264  67.363  1.00  0.00    -0.178 C  
BRANCH  13  14
HETATM   14  O   UNL     1      -8.297  11.054  68.206  1.00  0.00    -0.120 OA 
BRANCH  14  15
HETATM   15  C   UNL     1      -8.503   9.743  67.612  1.00  0.00    -0.122 C  
HETATM   16  C   UNL     1      -7.849   9.691  66.226  1.00  0.00    -0.101 C  
BRANCH  15  17
HETATM   17  C   UNL     1      -9.939   9.242  67.650  1.00  0.00    -0.196 C  
BRANCH  17  18
HETATM   18  N   UNL     1     -10.346   8.633  68.887  1.00  0.00    -0.211 NA 
HETATM   19  C   UNL     1      -9.972   7.414  69.386  1.00  0.00    -0.176 A  
HETATM   20  N   UNL     1     -10.467   7.208  70.587  1.00  0.00    -0.208 NA 
HETATM   21  C   UNL     1     -11.205   8.339  70.852  1.00  0.00    -0.265 A  
HETATM   22  C   UNL     1     -11.954   8.722  71.969  1.00  0.00    -0.376 A  
HETATM   23  N   UNL     1     -12.646   9.884  71.920  1.00  0.00    -0.392 NA 
HETATM   24  N   UNL     1     -12.010   7.940  73.112  1.00  0.00    -0.609 NA 
HETATM   25  C   UNL     1     -12.539  10.637  70.809  1.00  0.00    -0.386 A  
HETATM   26  H1  UNL     1     -12.556   8.219  73.927  1.00  0.00     0.000 HD 
HETATM   27  H2  UNL     1     -11.053   7.769  73.421  1.00  0.00     0.000 HD 
HETATM   28  N   UNL     1     -11.823  10.395  69.688  1.00  0.00    -0.217 NA 
HETATM   29  C   UNL     1     -11.181   9.222  69.792  1.00  0.00    -0.085 A  
ENDBRANCH  17  18
ENDBRANCH  15  17
ENDBRANCH  14  15
ENDBRANCH  13  14
ENDBRANCH  11  13
BRANCH  11  30
HETATM   30  O   UNL     1      -9.547  13.993  65.957  1.00  0.00    -0.275 OA 
BRANCH  30  31
HETATM   31  C   UNL     1     -10.442  13.443  65.057  1.00  0.00    -0.365 A  
HETATM   32  C   UNL     1     -11.664  14.100  64.903  1.00  0.00    -0.395 A  
HETATM   33  C   UNL     1     -11.173  11.763  63.467  1.00  0.00    -0.494 A  
HETATM   34  C   UNL     1     -10.194  12.275  64.330  1.00  0.00    -0.356 A  
HETATM   35  C   UNL     1     -12.399  12.411  63.331  1.00  0.00    -0.603 A  
HETATM   36  C   UNL     1     -12.643  13.578  64.050  1.00  0.00    -0.168 A  
ENDBRANCH  30  31
ENDBRANCH  11  30
ENDBRANCH   9  11
ENDBRANCH   7   9
ENDBRANCH   5   7
ENDBRANCH   4   5
ENDBRANCH   2   4
TORSDOF 12
ENDMDL
MODEL      147
REMARK 921   NORMALIZED FREE ENERGY PREDICTED BY IDOCK:   -5.29 KCAL/MOL
REMARK 922        TOTAL FREE ENERGY PREDICTED BY IDOCK:  -10.71 KCAL/MOL
REMARK 923 INTER-LIGAND FREE ENERGY PREDICTED BY IDOCK:   -9.10 KCAL/MOL
REMARK 924 INTRA-LIGAND FREE ENERGY PREDICTED BY IDOCK:   -1.61 KCAL/MOL
REMARK 927      BINDING AFFINITY PREDICTED BY RF-SCORE:    0.00 PKD
ROOT
HETATM    1  C   UNL     1     -10.495  16.313  65.237  1.00  0.00    -0.324 C  
HETATM    2  C   UNL     1     -10.367  17.273  66.422  1.00  0.00    -0.316 C  
HETATM    3  C   UNL     1     -10.521  18.730  65.964  1.00  0.00    -0.483 C  
ENDROOT
BRANCH   2   4
HETATM    4  O   UNL     1     -11.183  16.864  67.567  1.00  0.00    -0.100 OA 
BRANCH   4   5
HETATM    5  C   UNL     1     -10.595  16.665  68.772  1.00  0.00    -0.340 C  
HETATM    6  O   UNL     1      -9.584  17.271  69.132  1.00  0.00    -0.205 OA 
BRANCH   5   7
HETATM    7  C   UNL     1     -11.246  15.604  69.705  1.00  0.00    -0.310 C  
HETATM    8  C   UNL     1     -11.463  16.215  71.088  1.00  0.00    -0.433 C  
BRANCH   7   9
HETATM    9  N   UNL     1     -10.632  14.223  69.804  1.00  0.00    -0.446 NA 
HETATM   10  H   UNL     1     -10.442  13.971  70.774  1.00  0.00     0.000 HD 
BRANCH   9  11
HETATM   11  P   UNL     1     -11.621  13.002  69.009  1.00  0.00    -0.336 P  
HETATM   12  O   UNL     1     -12.725  13.038  70.095  1.00  0.00    -0.026 OA 
BRANCH  11  13
HETATM   13  C   UNL     1     -11.184  11.224  69.561  1.00  0.00    -0.272 C  
BRANCH  13  14
HETATM   14  O   UNL     1     -12.373  10.401  69.864  1.00  0.00    -0.222 OA 
BRANCH  14  15
HETATM   15  C   UNL     1     -12.380   9.480  70.989  1.00  0.00    -0.282 C  
HETATM   16  C   UNL     1     -13.509   9.850  71.958  1.00  0.00    -0.478 C  
BRANCH  15  17
HETATM   17  C   UNL     1     -11.025   9.269  71.651  1.00  0.00    -0.363 C  
BRANCH  17  18
HETATM   18  N   UNL     1     -10.413   7.993  71.405  1.00  0.00    -0.211 NA 
HETATM   19  C   UNL     1     -10.367   7.297  70.227  1.00  0.00    -0.210 A  
HETATM   20  N   UNL     1      -9.649   6.200  70.339  1.00  0.00    -0.163 NA 
HETATM   21  C   UNL     1      -9.239   6.191  71.653  1.00  0.00    -0.145 A  
HETATM   22  C   UNL     1      -8.442   5.297  72.374  1.00  0.00    -0.122 A  
HETATM   23  N   UNL     1      -8.262   5.509  73.698  1.00  0.00    -0.112 NA 
HETATM   24  N   UNL     1      -7.845   4.201  71.769  1.00  0.00    -0.073 NA 
HETATM   25  C   UNL     1      -8.824   6.603  74.245  1.00  0.00    -0.159 A  
HETATM   26  H1  UNL     1      -7.264   3.549  72.295  1.00  0.00     0.000 HD 
HETATM   27  H2  UNL     1      -7.298   4.541  70.978  1.00  0.00     0.000 HD 
HETATM   28  N   UNL     1      -9.578   7.555  73.650  1.00  0.00    -0.284 NA 
HETATM   29  C   UNL     1      -9.737   7.274  72.348  1.00  0.00    -0.154 A  
ENDBRANCH  17  18
ENDBRANCH  15  17
ENDBRANCH  14  15
ENDBRANCH  13  14
ENDBRANCH  11  13
BRANCH  11  30
HETATM   30  O   UNL     1     -10.388  12.962  67.795  1.00  0.00    -0.215 OA 
BRANCH  30  31
HETATM   31  C   UNL     1     -10.817  12.826  66.487  1.00  0.00    -0.256 A  
HETATM   32  C   UNL     1     -12.171  13.055  66.241  1.00  0.00    -0.390 A  
HETATM   33  C   UNL     1     -10.503  12.307  64.138  1.00  0.00    -0.402 A  
HETATM   34  C   UNL     1      -9.979  12.459  65.429  1.00  0.00    -0.253 A  
HETATM   35  C   UNL     1     -11.861  12.516  63.901  1.00  0.00    -0.544 A  
HETATM   36  C   UNL     1     -12.693  12.889  64.952  1.00  0.00    -0.474 A  
ENDBRANCH  30  31
ENDBRANCH  11  30
ENDBRANCH   9  11
ENDBRANCH   7   9
ENDBRANCH   5   7
ENDBRANCH   4   5
ENDBRANCH   2   4
TORSDOF 12
ENDMDL
MODEL      148
REMARK 921   NORMALIZED FREE ENERGY PREDICTED BY IDOCK:   -5.27 KCAL/MOL
REMARK 922        TOTAL FREE ENERGY PREDICTED BY IDOCK:  -10.68 KCAL/MOL
REMARK 923 INTER-LIGAND FREE ENERGY PREDICTED BY IDOCK:   -9.13 KCAL/MOL
REMARK 924 INTRA-LIGAND FREE ENERGY PREDICTED BY IDOCK:   -1.55 KCAL/MOL
REMARK 927      BINDING AFFINITY PREDICTED BY RF-SCORE:    0.00 PKD
ROOT
HETATM    1  C   UNL     1      -6.327  10.059  63.195  1.00  0.00    -0.133 C  
HETATM    2  C   UNL     1      -7.218   9.844  64.421  1.00  0.00    -0.134 C  
HETATM    3  C   UNL     1      -8.248   8.736  64.160  1.00  0.00    -0.163 C  
ENDROOT
BRANCH   2   4
HETATM    4  O   UNL     1      -6.448   9.734  65.663  1.00  0.00    -0.073 OA 
BRANCH   4   5
HETATM    5  C   UNL     1      -6.848   8.866  66.624  1.00  0.00    -0.076 C  
HETATM    6  O   UNL     1      -6.486   7.688  66.657  1.00  0.00    -0.050 OA 
BRANCH   5   7
HETATM    7  C   UNL     1      -7.821   9.417  67.705  1.00  0.00    -0.095 C  
HETATM    8  C   UNL     1      -7.056  10.353  68.640  1.00  0.00    -0.076 C  
BRANCH   7   9
HETATM    9  N   UNL     1      -8.693   8.454  68.483  1.00  0.00    -0.136 NA 
HETATM   10  H   UNL     1      -8.376   8.365  69.449  1.00  0.00     0.000 HD 
BRANCH   9  11
HETATM   11  P   UNL     1     -10.396   8.895  68.407  1.00  0.00    -0.151 P  
HETATM   12  O   UNL     1     -10.491   8.684  66.876  1.00  0.00    -0.294 OA 
BRANCH  11  13
HETATM   13  C   UNL     1     -10.661  10.769  68.132  1.00  0.00    -0.214 C  
BRANCH  13  14
HETATM   14  O   UNL     1     -11.679  11.066  67.103  1.00  0.00    -0.456 OA 
BRANCH  14  15
HETATM   15  C   UNL     1     -11.359  11.889  65.948  1.00  0.00    -0.308 C  
HETATM   16  C   UNL     1      -9.840  12.080  65.850  1.00  0.00    -0.259 C  
BRANCH  15  17
HETATM   17  C   UNL     1     -12.164  13.176  65.836  1.00  0.00    -0.436 C  
BRANCH  17  18
HETATM   18  N   UNL     1     -11.539  14.343  66.394  1.00  0.00    -0.365 NA 
HETATM   19  C   UNL     1     -10.821  15.306  65.736  1.00  0.00    -0.358 A  
HETATM   20  N   UNL     1     -10.464  16.282  66.543  1.00  0.00    -0.303 NA 
HETATM   21  C   UNL     1     -10.961  15.910  67.772  1.00  0.00    -0.315 A  
HETATM   22  C   UNL     1     -10.921  16.536  69.021  1.00  0.00    -0.306 A  
HETATM   23  N   UNL     1     -11.443  15.889  70.089  1.00  0.00    -0.341 NA 
HETATM   24  N   UNL     1     -10.355  17.790  69.190  1.00  0.00    -0.397 NA 
HETATM   25  C   UNL     1     -12.019  14.690  69.882  1.00  0.00    -0.329 A  
HETATM   26  H1  UNL     1     -10.325  18.247  70.102  1.00  0.00     0.000 HD 
HETATM   27  H2  UNL     1     -10.806  18.428  68.535  1.00  0.00     0.000 HD 
HETATM   28  N   UNL     1     -12.153  14.004  68.725  1.00  0.00    -0.340 NA 
HETATM   29  C   UNL     1     -11.596  14.687  67.713  1.00  0.00    -0.359 A  
ENDBRANCH  17  18
ENDBRANCH  15  17
ENDBRANCH  14  15
ENDBRANCH  13  14
ENDBRANCH  11  13
BRANCH  11  30
HETATM   30  O   UNL     1     -10.290   9.130  70.119  1.00  0.00    -0.191 OA 
BRANCH  30  31
HETATM   31  C   UNL     1     -11.472   9.019  70.830  1.00  0.00    -0.282 A  
HETATM   32  C   UNL     1     -11.988   7.733  70.997  1.00  0.00    -0.281 A  
HETATM   33  C   UNL     1     -13.380   9.913  72.032  1.00  0.00    -0.532 A  
HETATM   34  C   UNL     1     -12.168  10.111  71.357  1.00  0.00    -0.492 A  
HETATM   35  C   UNL     1     -13.901   8.629  72.179  1.00  0.00    -0.482 A  
HETATM   36  C   UNL     1     -13.205   7.541  71.660  1.00  0.00    -0.404 A  
ENDBRANCH  30  31
ENDBRANCH  11  30
ENDBRANCH   9  11
ENDBRANCH   7   9
ENDBRANCH   5   7
ENDBRANCH   4   5
ENDBRANCH   2   4
TORSDOF 12
ENDMDL
MODEL      149
REMARK 921   NORMALIZED FREE ENERGY PREDICTED BY IDOCK:   -5.27 KCAL/MOL
REMARK 922        TOTAL FREE ENERGY PREDICTED BY IDOCK:  -10.67 KCAL/MOL
REMARK 923 INTER-LIGAND FREE ENERGY PREDICTED BY IDOCK:   -8.95 KCAL/MOL
REMARK 924 INTRA-LIGAND FREE ENERGY PREDICTED BY IDOCK:   -1.73 KCAL/MOL
REMARK 927      BINDING AFFINITY PREDICTED BY RF-SCORE:    0.00 PKD
ROOT
HETATM    1  C   UNL     1     -12.839  12.091  71.312  1.00  0.00    -0.364 C  
HETATM    2  C   UNL     1     -11.952  11.302  70.347  1.00  0.00    -0.380 C  
HETATM    3  C   UNL     1     -11.586   9.933  70.937  1.00  0.00    -0.456 C  
ENDROOT
BRANCH   2   4
HETATM    4  O   UNL     1     -12.475  11.299  68.978  1.00  0.00    -0.417 OA 
BRANCH   4   5
HETATM    5  C   UNL     1     -11.886  12.075  68.035  1.00  0.00    -0.269 C  
HETATM    6  O   UNL     1     -11.691  11.694  66.879  1.00  0.00    -0.552 OA 
BRANCH   5   7
HETATM    7  C   UNL     1     -11.437  13.497  68.478  1.00  0.00    -0.310 C  
HETATM    8  C   UNL     1     -12.154  14.541  67.622  1.00  0.00    -0.266 C  
BRANCH   7   9
HETATM    9  N   UNL     1      -9.960  13.807  68.600  1.00  0.00    -0.330 NA 
HETATM   10  H   UNL     1      -9.402  12.954  68.607  1.00  0.00     0.000 HD 
BRANCH   9  11
HETATM   11  P   UNL     1      -9.413  14.919  67.348  1.00  0.00    -0.214 P  
HETATM   12  O   UNL     1      -9.345  13.822  66.256  1.00  0.00    -0.239 OA 
BRANCH  11  13
HETATM   13  C   UNL     1      -7.507  15.064  67.272  1.00  0.00    -0.181 C  
BRANCH  13  14
HETATM   14  O   UNL     1      -6.823  13.754  67.309  1.00  0.00    -0.194 OA 
BRANCH  14  15
HETATM   15  C   UNL     1      -6.648  13.038  68.562  1.00  0.00    -0.088 C  
HETATM   16  C   UNL     1      -5.800  13.875  69.527  1.00  0.00    -0.099 C  
BRANCH  15  17
HETATM   17  C   UNL     1      -6.192  11.593  68.414  1.00  0.00    -0.050 C  
BRANCH  17  18
HETATM   18  N   UNL     1      -7.231  10.606  68.515  1.00  0.00    -0.082 NA 
HETATM   19  C   UNL     1      -7.624   9.911  69.627  1.00  0.00    -0.136 A  
HETATM   20  N   UNL     1      -8.666   9.148  69.380  1.00  0.00    -0.135 NA 
HETATM   21  C   UNL     1      -8.933   9.352  68.045  1.00  0.00    -0.127 A  
HETATM   22  C   UNL     1      -9.923   8.838  67.203  1.00  0.00    -0.230 A  
HETATM   23  N   UNL     1      -9.897   9.169  65.891  1.00  0.00    -0.282 NA 
HETATM   24  N   UNL     1     -10.917   7.995  67.677  1.00  0.00    -0.506 NA 
HETATM   25  C   UNL     1      -8.941  10.019  65.473  1.00  0.00    -0.174 A  
HETATM   26  H1  UNL     1     -11.639   7.619  67.062  1.00  0.00     0.000 HD 
HETATM   27  H2  UNL     1     -11.380   8.465  68.455  1.00  0.00     0.000 HD 
HETATM   28  N   UNL     1      -7.959  10.609  66.191  1.00  0.00    -0.147 NA 
HETATM   29  C   UNL     1      -8.027  10.223  67.474  1.00  0.00    -0.106 A  
ENDBRANCH  17  18
ENDBRANCH  15  17
ENDBRANCH  14  15
ENDBRANCH  13  14
ENDBRANCH  11  13
BRANCH  11  30
HETATM   30  O   UNL     1      -9.489  16.144  68.567  1.00  0.00    -0.203 OA 
BRANCH  30  31
HETATM   31  C   UNL     1      -9.490  17.455  68.124  1.00  0.00    -0.288 A  
HETATM   32  C   UNL     1     -10.484  17.809  67.211  1.00  0.00    -0.356 A  
HETATM   33  C   UNL     1      -8.602  19.709  67.994  1.00  0.00    -0.355 A  
HETATM   34  C   UNL     1      -8.551  18.411  68.522  1.00  0.00    -0.341 A  
HETATM   35  C   UNL     1      -9.584  20.052  67.067  1.00  0.00    -0.542 A  
HETATM   36  C   UNL     1     -10.523  19.102  66.676  1.00  0.00    -0.529 A  
ENDBRANCH  30  31
ENDBRANCH  11  30
ENDBRANCH   9  11
ENDBRANCH   7   9
ENDBRANCH   5   7
ENDBRANCH   4   5
ENDBRANCH   2   4
TORSDOF 12
ENDMDL
MODEL      150
REMARK 921   NORMALIZED FREE ENERGY PREDICTED BY IDOCK:   -5.27 KCAL/MOL
REMARK 922        TOTAL FREE ENERGY PREDICTED BY IDOCK:  -10.67 KCAL/MOL
REMARK 923 INTER-LIGAND FREE ENERGY PREDICTED BY IDOCK:   -9.20 KCAL/MOL
REMARK 924 INTRA-LIGAND FREE ENERGY PREDICTED BY IDOCK:   -1.47 KCAL/MOL
REMARK 927      BINDING AFFINITY PREDICTED BY RF-SCORE:    0.00 PKD
ROOT
HETATM    1  C   UNL     1      -9.757   4.293  70.024  1.00  0.00    -0.287 C  
HETATM    2  C   UNL     1      -9.695   4.676  71.505  1.00  0.00    -0.175 C  
HETATM    3  C   UNL     1      -8.251   4.979  71.931  1.00  0.00    -0.116 C  
ENDROOT
BRANCH   2   4
HETATM    4  O   UNL     1     -10.702   5.675  71.870  1.00  0.00    -0.228 OA 
BRANCH   4   5
HETATM    5  C   UNL     1     -11.077   6.610  70.962  1.00  0.00    -0.282 C  
HETATM    6  O   UNL     1     -12.031   6.455  70.196  1.00  0.00    -0.354 OA 
BRANCH   5   7
HETATM    7  C   UNL     1     -10.229   7.912  70.905  1.00  0.00    -0.198 C  
HETATM    8  C   UNL     1      -9.877   8.346  72.327  1.00  0.00    -0.383 C  
BRANCH   7   9
HETATM    9  N   UNL     1     -10.717   9.083  70.078  1.00  0.00    -0.226 NA 
HETATM   10  H   UNL     1     -10.902   9.898  70.663  1.00  0.00     0.000 HD 
BRANCH   9  11
HETATM   11  P   UNL     1      -9.607   9.475  68.768  1.00  0.00    -0.167 P  
HETATM   12  O   UNL     1      -8.589  10.176  69.700  1.00  0.00    -0.176 OA 
BRANCH  11  13
HETATM   13  C   UNL     1      -9.985  11.168  67.963  1.00  0.00    -0.176 C  
BRANCH  13  14
HETATM   14  O   UNL     1      -9.660  11.211  66.522  1.00  0.00    -0.189 OA 
BRANCH  14  15
HETATM   15  C   UNL     1     -10.711  11.224  65.518  1.00  0.00    -0.220 C  
HETATM   16  C   UNL     1     -10.095  11.111  64.117  1.00  0.00    -0.388 C  
BRANCH  15  17
HETATM   17  C   UNL     1     -11.728  12.346  65.669  1.00  0.00    -0.414 C  
BRANCH  17  18
HETATM   18  N   UNL     1     -11.173  13.655  65.879  1.00  0.00    -0.303 NA 
HETATM   19  C   UNL     1     -10.453  14.413  64.995  1.00  0.00    -0.430 A  
HETATM   20  N   UNL     1     -10.173  15.600  65.488  1.00  0.00    -0.370 NA 
HETATM   21  C   UNL     1     -10.722  15.585  66.750  1.00  0.00    -0.305 A  
HETATM   22  C   UNL     1     -10.769  16.554  67.757  1.00  0.00    -0.329 A  
HETATM   23  N   UNL     1     -11.325  16.228  68.947  1.00  0.00    -0.339 NA 
HETATM   24  N   UNL     1     -10.255  17.827  67.567  1.00  0.00    -0.340 NA 
HETATM   25  C   UNL     1     -11.849  14.995  69.083  1.00  0.00    -0.308 A  
HETATM   26  H1  UNL     1     -10.290  18.535  68.302  1.00  0.00     0.000 HD 
HETATM   27  H2  UNL     1     -10.693  18.220  66.734  1.00  0.00     0.000 HD 
HETATM   28  N   UNL     1     -11.898  13.991  68.179  1.00  0.00    -0.357 NA 
HETATM   29  C   UNL     1     -11.312  14.370  67.033  1.00  0.00    -0.346 A  
ENDBRANCH  17  18
ENDBRANCH  15  17
ENDBRANCH  14  15
ENDBRANCH  13  14
ENDBRANCH  11  13
BRANCH  11  30
HETATM   30  O   UNL     1     -10.745   8.691  67.727  1.00  0.00    -0.207 OA 
BRANCH  30  31
HETATM   31  C   UNL     1     -10.308   7.544  67.089  1.00  0.00    -0.313 A  
HETATM   32  C   UNL     1      -9.106   7.635  66.384  1.00  0.00    -0.214 A  
HETATM   33  C   UNL     1     -10.512   5.228  66.394  1.00  0.00    -0.347 A  
HETATM   34  C   UNL     1     -11.008   6.333  67.099  1.00  0.00    -0.453 A  
HETATM   35  C   UNL     1      -9.322   5.330  65.674  1.00  0.00    -0.126 A  
HETATM   36  C   UNL     1      -8.621   6.533  65.670  1.00  0.00    -0.132 A  
ENDBRANCH  30  31
ENDBRANCH  11  30
ENDBRANCH   9  11
ENDBRANCH   7   9
ENDBRANCH   5   7
ENDBRANCH   4   5
ENDBRANCH   2   4
TORSDOF 12
ENDMDL
MODEL      151
REMARK 921   NORMALIZED FREE ENERGY PREDICTED BY IDOCK:   -5.26 KCAL/MOL
REMARK 922        TOTAL FREE ENERGY PREDICTED BY IDOCK:  -10.67 KCAL/MOL
REMARK 923 INTER-LIGAND FREE ENERGY PREDICTED BY IDOCK:   -9.14 KCAL/MOL
REMARK 924 INTRA-LIGAND FREE ENERGY PREDICTED BY IDOCK:   -1.53 KCAL/MOL
REMARK 927      BINDING AFFINITY PREDICTED BY RF-SCORE:    0.00 PKD
ROOT
HETATM    1  C   UNL     1      -9.181   3.045  70.015  1.00  0.00    -0.216 C  
HETATM    2  C   UNL     1      -9.943   3.103  71.341  1.00  0.00    -0.027 C  
HETATM    3  C   UNL     1      -9.675   1.846  72.180  1.00  0.00    -0.189 C  
ENDROOT
BRANCH   2   4
HETATM    4  O   UNL     1      -9.780   4.387  72.026  1.00  0.00    -0.150 OA 
BRANCH   4   5
HETATM    5  C   UNL     1     -10.877   5.111  72.361  1.00  0.00    -0.203 C  
HETATM    6  O   UNL     1     -11.605   4.823  73.312  1.00  0.00    -0.333 OA 
BRANCH   5   7
HETATM    7  C   UNL     1     -11.204   6.342  71.468  1.00  0.00    -0.290 C  
HETATM    8  C   UNL     1     -12.593   6.869  71.828  1.00  0.00    -0.386 C  
BRANCH   7   9
HETATM    9  N   UNL     1     -11.025   6.242  69.968  1.00  0.00    -0.322 NA 
HETATM   10  H   UNL     1     -11.904   6.410  69.478  1.00  0.00     0.000 HD 
BRANCH   9  11
HETATM   11  P   UNL     1      -9.754   7.311  69.382  1.00  0.00    -0.164 P  
HETATM   12  O   UNL     1      -9.392   7.829  70.795  1.00  0.00    -0.160 OA 
BRANCH  11  13
HETATM   13  C   UNL     1     -10.401   9.057  68.945  1.00  0.00    -0.215 C  
BRANCH  13  14
HETATM   14  O   UNL     1     -10.849   9.177  67.542  1.00  0.00    -0.242 OA 
BRANCH  14  15
HETATM   15  C   UNL     1     -10.418  10.288  66.711  1.00  0.00    -0.214 C  
HETATM   16  C   UNL     1      -8.932  10.133  66.363  1.00  0.00    -0.163 C  
BRANCH  15  17
HETATM   17  C   UNL     1     -10.802  11.665  67.234  1.00  0.00    -0.256 C  
BRANCH  17  18
HETATM   18  N   UNL     1     -11.235  12.604  66.236  1.00  0.00    -0.296 NA 
HETATM   19  C   UNL     1     -12.272  12.470  65.352  1.00  0.00    -0.412 A  
HETATM   20  N   UNL     1     -12.443  13.559  64.635  1.00  0.00    -0.598 NA 
HETATM   21  C   UNL     1     -11.456  14.415  65.070  1.00  0.00    -0.372 A  
HETATM   22  C   UNL     1     -11.130  15.723  64.704  1.00  0.00    -0.361 A  
HETATM   23  N   UNL     1     -10.041  16.302  65.262  1.00  0.00    -0.525 NA 
HETATM   24  N   UNL     1     -11.885  16.432  63.782  1.00  0.00    -1.377 NA 
HETATM   25  C   UNL     1      -9.352  15.599  66.181  1.00  0.00    -0.347 A  
HETATM   26  H1  UNL     1     -11.646  17.388  63.515  1.00  0.00     0.000 HD 
HETATM   27  H2  UNL     1     -12.853  16.430  64.103  1.00  0.00     0.000 HD 
HETATM   28  N   UNL     1      -9.589  14.351  66.643  1.00  0.00    -0.270 NA 
HETATM   29  C   UNL     1     -10.665  13.827  66.036  1.00  0.00    -0.284 A  
ENDBRANCH  17  18
ENDBRANCH  15  17
ENDBRANCH  14  15
ENDBRANCH  13  14
ENDBRANCH  11  13
BRANCH  11  30
HETATM   30  O   UNL     1     -10.158   6.732  67.801  1.00  0.00    -0.138 OA 
BRANCH  30  31
HETATM   31  C   UNL     1      -9.125   6.182  67.065  1.00  0.00    -0.118 A  
HETATM   32  C   UNL     1      -7.828   6.414  67.527  1.00  0.00    -0.105 A  
HETATM   33  C   UNL     1      -8.207   4.949  65.187  1.00  0.00    -0.124 A  
HETATM   34  C   UNL     1      -9.314   5.440  65.895  1.00  0.00    -0.155 A  
HETATM   35  C   UNL     1      -6.914   5.202  65.641  1.00  0.00    -0.066 A  
HETATM   36  C   UNL     1      -6.726   5.934  66.810  1.00  0.00    -0.058 A  
ENDBRANCH  30  31
ENDBRANCH  11  30
ENDBRANCH   9  11
ENDBRANCH   7   9
ENDBRANCH   5   7
ENDBRANCH   4   5
ENDBRANCH   2   4
TORSDOF 12
ENDMDL
MODEL      152
REMARK 921   NORMALIZED FREE ENERGY PREDICTED BY IDOCK:   -5.24 KCAL/MOL
REMARK 922        TOTAL FREE ENERGY PREDICTED BY IDOCK:  -10.63 KCAL/MOL
REMARK 923 INTER-LIGAND FREE ENERGY PREDICTED BY IDOCK:   -8.90 KCAL/MOL
REMARK 924 INTRA-LIGAND FREE ENERGY PREDICTED BY IDOCK:   -1.73 KCAL/MOL
REMARK 927      BINDING AFFINITY PREDICTED BY RF-SCORE:    0.00 PKD
ROOT
HETATM    1  C   UNL     1      -8.784   7.790  73.639  1.00  0.00    -0.308 C  
HETATM    2  C   UNL     1      -8.476   7.740  72.141  1.00  0.00    -0.125 C  
HETATM    3  C   UNL     1      -7.109   8.372  71.843  1.00  0.00    -0.103 C  
ENDROOT
BRANCH   2   4
HETATM    4  O   UNL     1      -8.718   6.416  71.561  1.00  0.00    -0.133 OA 
BRANCH   4   5
HETATM    5  C   UNL     1      -8.806   6.281  70.215  1.00  0.00    -0.153 C  
HETATM    6  O   UNL     1      -8.230   5.386  69.592  1.00  0.00    -0.097 OA 
BRANCH   5   7
HETATM    7  C   UNL     1      -9.668   7.332  69.459  1.00  0.00    -0.158 C  
HETATM    8  C   UNL     1     -11.146   7.071  69.746  1.00  0.00    -0.278 C  
BRANCH   7   9
HETATM    9  N   UNL     1      -9.427   7.570  67.983  1.00  0.00    -0.142 NA 
HETATM   10  H   UNL     1     -10.302   7.551  67.458  1.00  0.00     0.000 HD 
BRANCH   9  11
HETATM   11  P   UNL     1      -8.539   9.062  67.690  1.00  0.00    -0.119 P  
HETATM   12  O   UNL     1      -7.247   8.550  68.373  1.00  0.00    -0.082 OA 
BRANCH  11  13
HETATM   13  C   UNL     1      -8.743  10.332  69.105  1.00  0.00    -0.172 C  
BRANCH  13  14
HETATM   14  O   UNL     1      -9.269  11.634  68.646  1.00  0.00    -0.179 OA 
BRANCH  14  15
HETATM   15  C   UNL     1      -8.372  12.701  68.235  1.00  0.00    -0.165 C  
HETATM   16  C   UNL     1      -6.957  12.423  68.758  1.00  0.00    -0.094 C  
BRANCH  15  17
HETATM   17  C   UNL     1      -8.881  14.108  68.514  1.00  0.00    -0.173 C  
BRANCH  17  18
HETATM   18  N   UNL     1      -9.439  14.796  67.383  1.00  0.00    -0.204 NA 
HETATM   19  C   UNL     1      -8.875  15.809  66.654  1.00  0.00    -0.288 A  
HETATM   20  N   UNL     1      -9.628  16.149  65.631  1.00  0.00    -0.455 NA 
HETATM   21  C   UNL     1     -10.729  15.328  65.727  1.00  0.00    -0.348 A  
HETATM   22  C   UNL     1     -11.869  15.201  64.929  1.00  0.00    -0.239 A  
HETATM   23  N   UNL     1     -12.840  14.341  65.315  1.00  0.00    -0.649 NA 
HETATM   24  N   UNL     1     -12.029  15.936  63.764  1.00  0.00    -1.266 NA 
HETATM   25  C   UNL     1     -12.636  13.616  66.430  1.00  0.00    -0.235 A  
HETATM   26  H1  UNL     1     -12.861  15.843  63.181  1.00  0.00     0.000 HD 
HETATM   27  H2  UNL     1     -11.213  15.769  63.175  1.00  0.00     0.000 HD 
HETATM   28  N   UNL     1     -11.568  13.621  67.259  1.00  0.00    -0.335 NA 
HETATM   29  C   UNL     1     -10.654  14.508  66.834  1.00  0.00    -0.279 A  
ENDBRANCH  17  18
ENDBRANCH  15  17
ENDBRANCH  14  15
ENDBRANCH  13  14
ENDBRANCH  11  13
BRANCH  11  30
HETATM   30  O   UNL     1      -9.982   9.634  66.926  1.00  0.00    -0.186 OA 
BRANCH  30  31
HETATM   31  C   UNL     1      -9.863  10.041  65.609  1.00  0.00    -0.295 A  
HETATM   32  C   UNL     1      -9.024   9.284  64.790  1.00  0.00    -0.217 A  
HETATM   33  C   UNL     1     -10.303  11.527  63.743  1.00  0.00    -0.450 A  
HETATM   34  C   UNL     1     -10.511  11.161  65.080  1.00  0.00    -0.341 A  
HETATM   35  C   UNL     1      -9.449  10.780  62.934  1.00  0.00    -0.373 A  
HETATM   36  C   UNL     1      -8.809   9.660  63.459  1.00  0.00    -0.255 A  
ENDBRANCH  30  31
ENDBRANCH  11  30
ENDBRANCH   9  11
ENDBRANCH   7   9
ENDBRANCH   5   7
ENDBRANCH   4   5
ENDBRANCH   2   4
TORSDOF 12
ENDMDL
MODEL      153
REMARK 921   NORMALIZED FREE ENERGY PREDICTED BY IDOCK:   -5.23 KCAL/MOL
REMARK 922        TOTAL FREE ENERGY PREDICTED BY IDOCK:  -10.61 KCAL/MOL
REMARK 923 INTER-LIGAND FREE ENERGY PREDICTED BY IDOCK:   -8.81 KCAL/MOL
REMARK 924 INTRA-LIGAND FREE ENERGY PREDICTED BY IDOCK:   -1.80 KCAL/MOL
REMARK 927      BINDING AFFINITY PREDICTED BY RF-SCORE:    0.00 PKD
ROOT
HETATM    1  C   UNL     1      -8.026   8.070  73.569  1.00  0.00    -0.243 C  
HETATM    2  C   UNL     1      -8.125   7.871  72.055  1.00  0.00    -0.114 C  
HETATM    3  C   UNL     1      -6.907   8.476  71.343  1.00  0.00    -0.076 C  
ENDROOT
BRANCH   2   4
HETATM    4  O   UNL     1      -8.472   6.495  71.691  1.00  0.00    -0.123 OA 
BRANCH   4   5
HETATM    5  C   UNL     1      -9.592   6.256  70.965  1.00  0.00    -0.175 C  
HETATM    6  O   UNL     1      -9.648   5.397  70.083  1.00  0.00    -0.158 OA 
BRANCH   5   7
HETATM    7  C   UNL     1     -10.833   7.140  71.279  1.00  0.00    -0.233 C  
HETATM    8  C   UNL     1     -11.849   6.317  72.069  1.00  0.00    -0.370 C  
BRANCH   7   9
HETATM    9  N   UNL     1     -11.500   7.911  70.160  1.00  0.00    -0.466 NA 
HETATM   10  H   UNL     1     -12.515   7.916  70.267  1.00  0.00     0.000 HD 
BRANCH   9  11
HETATM   11  P   UNL     1     -10.865   9.548  70.015  1.00  0.00    -0.269 P  
HETATM   12  O   UNL     1     -10.829   9.781  71.545  1.00  0.00    -0.262 OA 
BRANCH  11  13
HETATM   13  C   UNL     1     -12.245  10.865  69.880  1.00  0.00    -0.336 C  
BRANCH  13  14
HETATM   14  O   UNL     1     -11.724  12.242  69.763  1.00  0.00    -0.308 OA 
BRANCH  14  15
HETATM   15  C   UNL     1     -12.152  13.286  70.680  1.00  0.00    -0.280 C  
HETATM   16  C   UNL     1     -13.043  12.684  71.774  1.00  0.00    -0.461 C  
BRANCH  15  17
HETATM   17  C   UNL     1     -12.725  14.528  70.013  1.00  0.00    -0.141 C  
BRANCH  17  18
HETATM   18  N   UNL     1     -11.800  15.277  69.208  1.00  0.00    -0.328 NA 
HETATM   19  C   UNL     1     -10.946  16.268  69.612  1.00  0.00    -0.346 A  
HETATM   20  N   UNL     1     -10.178  16.679  68.628  1.00  0.00    -0.266 NA 
HETATM   21  C   UNL     1     -10.577  15.928  67.544  1.00  0.00    -0.315 A  
HETATM   22  C   UNL     1     -10.130  15.892  66.221  1.00  0.00    -0.301 A  
HETATM   23  N   UNL     1     -10.771  15.088  65.340  1.00  0.00    -0.345 NA 
HETATM   24  N   UNL     1      -9.061  16.663  65.791  1.00  0.00    -0.494 NA 
HETATM   25  C   UNL     1     -11.780  14.325  65.800  1.00  0.00    -0.359 A  
HETATM   26  H1  UNL     1      -8.735  16.637  64.824  1.00  0.00     0.000 HD 
HETATM   27  H2  UNL     1      -8.265  16.458  66.395  1.00  0.00     0.000 HD 
HETATM   28  N   UNL     1     -12.275  14.243  67.055  1.00  0.00    -0.390 NA 
HETATM   29  C   UNL     1     -11.614  15.079  67.871  1.00  0.00    -0.333 A  
ENDBRANCH  17  18
ENDBRANCH  15  17
ENDBRANCH  14  15
ENDBRANCH  13  14
ENDBRANCH  11  13
BRANCH  11  30
HETATM   30  O   UNL     1     -10.905   9.286  68.305  1.00  0.00    -0.179 OA 
BRANCH  30  31
HETATM   31  C   UNL     1     -10.018   8.349  67.804  1.00  0.00    -0.186 A  
HETATM   32  C   UNL     1     -10.555   7.333  67.012  1.00  0.00    -0.415 A  
HETATM   33  C   UNL     1      -7.821   7.351  67.551  1.00  0.00    -0.112 A  
HETATM   34  C   UNL     1      -8.645   8.362  68.067  1.00  0.00    -0.135 A  
HETATM   35  C   UNL     1      -8.366   6.327  66.778  1.00  0.00    -0.110 A  
HETATM   36  C   UNL     1      -9.731   6.319  66.510  1.00  0.00    -0.180 A  
ENDBRANCH  30  31
ENDBRANCH  11  30
ENDBRANCH   9  11
ENDBRANCH   7   9
ENDBRANCH   5   7
ENDBRANCH   4   5
ENDBRANCH   2   4
TORSDOF 12
ENDMDL
MODEL      154
REMARK 921   NORMALIZED FREE ENERGY PREDICTED BY IDOCK:   -5.20 KCAL/MOL
REMARK 922        TOTAL FREE ENERGY PREDICTED BY IDOCK:  -10.57 KCAL/MOL
REMARK 923 INTER-LIGAND FREE ENERGY PREDICTED BY IDOCK:   -8.86 KCAL/MOL
REMARK 924 INTRA-LIGAND FREE ENERGY PREDICTED BY IDOCK:   -1.70 KCAL/MOL
REMARK 927      BINDING AFFINITY PREDICTED BY RF-SCORE:    0.00 PKD
ROOT
HETATM    1  C   UNL     1      -8.267   5.052  73.495  1.00  0.00    -0.107 C  
HETATM    2  C   UNL     1      -8.919   6.348  73.009  1.00  0.00    -0.129 C  
HETATM    3  C   UNL     1      -7.886   7.480  72.920  1.00  0.00    -0.121 C  
ENDROOT
BRANCH   2   4
HETATM    4  O   UNL     1      -9.761   6.144  71.826  1.00  0.00    -0.155 OA 
BRANCH   4   5
HETATM    5  C   UNL     1     -11.104   6.295  71.927  1.00  0.00    -0.268 C  
HETATM    6  O   UNL     1     -11.829   5.481  72.504  1.00  0.00    -0.252 OA 
BRANCH   5   7
HETATM    7  C   UNL     1     -11.721   7.556  71.257  1.00  0.00    -0.287 C  
HETATM    8  C   UNL     1     -13.238   7.532  71.440  1.00  0.00    -0.368 C  
BRANCH   7   9
HETATM    9  N   UNL     1     -11.345   7.901  69.832  1.00  0.00    -0.457 NA 
HETATM   10  H   UNL     1     -12.146   7.820  69.207  1.00  0.00     0.000 HD 
BRANCH   9  11
HETATM   11  P   UNL     1     -10.600   9.493  69.712  1.00  0.00    -0.263 P  
HETATM   12  O   UNL     1     -10.492   9.674  71.246  1.00  0.00    -0.301 OA 
BRANCH  11  13
HETATM   13  C   UNL     1     -11.887  10.908  69.670  1.00  0.00    -0.344 C  
BRANCH  13  14
HETATM   14  O   UNL     1     -12.227  11.342  68.300  1.00  0.00    -0.588 OA 
BRANCH  14  15
HETATM   15  C   UNL     1     -11.904  12.682  67.837  1.00  0.00    -0.332 C  
HETATM   16  C   UNL     1     -11.919  12.722  66.304  1.00  0.00    -0.460 C  
BRANCH  15  17
HETATM   17  C   UNL     1     -10.663  13.296  68.471  1.00  0.00    -0.262 C  
BRANCH  17  18
HETATM   18  N   UNL     1     -10.785  14.677  68.849  1.00  0.00    -0.241 NA 
HETATM   19  C   UNL     1     -11.387  15.192  69.965  1.00  0.00    -0.277 A  
HETATM   20  N   UNL     1     -11.239  16.497  70.038  1.00  0.00    -0.252 NA 
HETATM   21  C   UNL     1     -10.529  16.826  68.906  1.00  0.00    -0.332 A  
HETATM   22  C   UNL     1     -10.053  18.050  68.428  1.00  0.00    -0.387 A  
HETATM   23  N   UNL     1      -9.435  18.082  67.224  1.00  0.00    -0.256 NA 
HETATM   24  N   UNL     1     -10.207  19.224  69.149  1.00  0.00    -0.570 NA 
HETATM   25  C   UNL     1      -9.269  16.918  66.568  1.00  0.00    -0.269 A  
HETATM   26  H1  UNL     1      -9.860  20.118  68.800  1.00  0.00     0.000 HD 
HETATM   27  H2  UNL     1      -9.811  19.075  70.077  1.00  0.00     0.000 HD 
HETATM   28  N   UNL     1      -9.647  15.675  66.941  1.00  0.00    -0.225 NA 
HETATM   29  C   UNL     1     -10.272  15.716  68.128  1.00  0.00    -0.228 A  
ENDBRANCH  17  18
ENDBRANCH  15  17
ENDBRANCH  14  15
ENDBRANCH  13  14
ENDBRANCH  11  13
BRANCH  11  30
HETATM   30  O   UNL     1     -10.720   9.291  67.998  1.00  0.00    -0.232 OA 
BRANCH  30  31
HETATM   31  C   UNL     1      -9.550   9.448  67.276  1.00  0.00    -0.151 A  
HETATM   32  C   UNL     1      -8.556  10.240  67.852  1.00  0.00    -0.118 A  
HETATM   33  C   UNL     1      -8.131   9.124  65.335  1.00  0.00    -0.124 A  
HETATM   34  C   UNL     1      -9.333   8.882  66.016  1.00  0.00    -0.306 A  
HETATM   35  C   UNL     1      -7.150   9.932  65.906  1.00  0.00    -0.107 A  
HETATM   36  C   UNL     1      -7.364  10.490  67.163  1.00  0.00    -0.093 A  
ENDBRANCH  30  31
ENDBRANCH  11  30
ENDBRANCH   9  11
ENDBRANCH   7   9
ENDBRANCH   5   7
ENDBRANCH   4   5
ENDBRANCH   2   4
TORSDOF 12
ENDMDL
MODEL      155
REMARK 921   NORMALIZED FREE ENERGY PREDICTED BY IDOCK:   -5.20 KCAL/MOL
REMARK 922        TOTAL FREE ENERGY PREDICTED BY IDOCK:  -10.56 KCAL/MOL
REMARK 923 INTER-LIGAND FREE ENERGY PREDICTED BY IDOCK:   -8.85 KCAL/MOL
REMARK 924 INTRA-LIGAND FREE ENERGY PREDICTED BY IDOCK:   -1.71 KCAL/MOL
REMARK 927      BINDING AFFINITY PREDICTED BY RF-SCORE:    0.00 PKD
ROOT
HETATM    1  C   UNL     1      -6.574   4.032  70.638  1.00  0.00    -0.032 C  
HETATM    2  C   UNL     1      -7.793   4.686  71.294  1.00  0.00    -0.086 C  
HETATM    3  C   UNL     1      -7.514   5.004  72.769  1.00  0.00    -0.095 C  
ENDROOT
BRANCH   2   4
HETATM    4  O   UNL     1      -8.345   5.778  70.488  1.00  0.00    -0.115 OA 
BRANCH   4   5
HETATM    5  C   UNL     1      -9.003   5.494  69.337  1.00  0.00    -0.106 C  
HETATM    6  O   UNL     1      -9.867   4.618  69.257  1.00  0.00    -0.189 OA 
BRANCH   5   7
HETATM    7  C   UNL     1      -8.608   6.321  68.080  1.00  0.00    -0.116 C  
HETATM    8  C   UNL     1      -7.269   5.815  67.545  1.00  0.00    -0.076 C  
BRANCH   7   9
HETATM    9  N   UNL     1      -8.638   7.834  68.145  1.00  0.00    -0.124 NA 
HETATM   10  H   UNL     1      -8.025   8.247  67.442  1.00  0.00     0.000 HD 
BRANCH   9  11
HETATM   11  P   UNL     1     -10.276   8.468  68.017  1.00  0.00    -0.199 P  
HETATM   12  O   UNL     1     -10.604   7.654  66.742  1.00  0.00    -0.325 OA 
BRANCH  11  13
HETATM   13  C   UNL     1     -10.367  10.071  66.977  1.00  0.00    -0.243 C  
BRANCH  13  14
HETATM   14  O   UNL     1     -11.573  10.877  67.258  1.00  0.00    -0.475 OA 
BRANCH  14  15
HETATM   15  C   UNL     1     -11.463  12.256  67.706  1.00  0.00    -0.329 C  
HETATM   16  C   UNL     1     -11.837  12.353  69.191  1.00  0.00    -0.352 C  
BRANCH  15  17
HETATM   17  C   UNL     1     -12.157  13.276  66.814  1.00  0.00    -0.345 C  
BRANCH  17  18
HETATM   18  N   UNL     1     -11.325  14.347  66.342  1.00  0.00    -0.342 NA 
HETATM   19  C   UNL     1     -10.779  14.499  65.095  1.00  0.00    -0.406 A  
HETATM   20  N   UNL     1     -10.140  15.642  64.981  1.00  0.00    -0.400 NA 
HETATM   21  C   UNL     1     -10.267  16.232  66.218  1.00  0.00    -0.327 A  
HETATM   22  C   UNL     1      -9.818  17.458  66.717  1.00  0.00    -0.296 A  
HETATM   23  N   UNL     1     -10.034  17.748  68.021  1.00  0.00    -0.315 NA 
HETATM   24  N   UNL     1      -9.152  18.372  65.914  1.00  0.00    -0.445 NA 
HETATM   25  C   UNL     1     -10.717  16.856  68.762  1.00  0.00    -0.333 A  
HETATM   26  H1  UNL     1      -8.824  19.267  66.278  1.00  0.00     0.000 HD 
HETATM   27  H2  UNL     1      -9.740  18.561  65.102  1.00  0.00     0.000 HD 
HETATM   28  N   UNL     1     -11.232  15.663  68.388  1.00  0.00    -0.334 NA 
HETATM   29  C   UNL     1     -10.964  15.426  67.095  1.00  0.00    -0.317 A  
ENDBRANCH  17  18
ENDBRANCH  15  17
ENDBRANCH  14  15
ENDBRANCH  13  14
ENDBRANCH  11  13
BRANCH  11  30
HETATM   30  O   UNL     1      -9.909   9.378  69.443  1.00  0.00    -0.165 OA 
BRANCH  30  31
HETATM   31  C   UNL     1     -10.236   8.787  70.651  1.00  0.00    -0.202 A  
HETATM   32  C   UNL     1      -9.254   8.797  71.643  1.00  0.00    -0.333 A  
HETATM   33  C   UNL     1     -11.704   7.568  72.150  1.00  0.00    -0.344 A  
HETATM   34  C   UNL     1     -11.468   8.178  70.910  1.00  0.00    -0.288 A  
HETATM   35  C   UNL     1     -10.712   7.562  73.130  1.00  0.00    -0.452 A  
HETATM   36  C   UNL     1      -9.489   8.176  72.875  1.00  0.00    -0.345 A  
ENDBRANCH  30  31
ENDBRANCH  11  30
ENDBRANCH   9  11
ENDBRANCH   7   9
ENDBRANCH   5   7
ENDBRANCH   4   5
ENDBRANCH   2   4
TORSDOF 12
ENDMDL
MODEL      156
REMARK 921   NORMALIZED FREE ENERGY PREDICTED BY IDOCK:   -5.20 KCAL/MOL
REMARK 922        TOTAL FREE ENERGY PREDICTED BY IDOCK:  -10.56 KCAL/MOL
REMARK 923 INTER-LIGAND FREE ENERGY PREDICTED BY IDOCK:   -8.75 KCAL/MOL
REMARK 924 INTRA-LIGAND FREE ENERGY PREDICTED BY IDOCK:   -1.81 KCAL/MOL
REMARK 927      BINDING AFFINITY PREDICTED BY RF-SCORE:    0.00 PKD
ROOT
HETATM    1  C   UNL     1     -12.889   8.899  72.185  1.00  0.00    -0.471 C  
HETATM    2  C   UNL     1     -11.543   8.207  71.960  1.00  0.00    -0.330 C  
HETATM    3  C   UNL     1     -11.731   6.696  71.762  1.00  0.00    -0.363 C  
ENDROOT
BRANCH   2   4
HETATM    4  O   UNL     1     -10.718   8.894  70.963  1.00  0.00    -0.213 OA 
BRANCH   4   5
HETATM    5  C   UNL     1     -10.080   8.171  70.009  1.00  0.00    -0.196 C  
HETATM    6  O   UNL     1      -8.996   7.618  70.202  1.00  0.00    -0.145 OA 
BRANCH   5   7
HETATM    7  C   UNL     1     -10.773   8.076  68.620  1.00  0.00    -0.026 C  
HETATM    8  C   UNL     1     -11.092   6.613  68.316  1.00  0.00    -0.283 C  
BRANCH   7   9
HETATM    9  N   UNL     1     -10.145   8.762  67.426  1.00  0.00    -0.207 NA 
HETATM   10  H   UNL     1     -10.568   8.447  66.553  1.00  0.00     0.000 HD 
BRANCH   9  11
HETATM   11  P   UNL     1     -10.201  10.517  67.566  1.00  0.00    -0.235 P  
HETATM   12  O   UNL     1     -11.676  10.537  68.037  1.00  0.00    -0.450 OA 
BRANCH  11  13
HETATM   13  C   UNL     1     -10.743  11.370  65.943  1.00  0.00    -0.255 C  
BRANCH  13  14
HETATM   14  O   UNL     1     -12.096  11.960  66.021  1.00  0.00    -0.500 OA 
BRANCH  14  15
HETATM   15  C   UNL     1     -12.612  12.794  64.948  1.00  0.00    -0.470 C  
HETATM   16  C   UNL     1     -11.913  12.438  63.629  1.00  0.00    -0.626 C  
BRANCH  15  17
HETATM   17  C   UNL     1     -12.651  14.284  65.257  1.00  0.00    -0.394 C  
BRANCH  17  18
HETATM   18  N   UNL     1     -11.445  14.827  65.819  1.00  0.00    -0.344 NA 
HETATM   19  C   UNL     1     -10.361  15.332  65.151  1.00  0.00    -0.381 A  
HETATM   20  N   UNL     1      -9.467  15.825  65.980  1.00  0.00    -0.339 NA 
HETATM   21  C   UNL     1      -9.999  15.603  67.230  1.00  0.00    -0.236 A  
HETATM   22  C   UNL     1      -9.530  15.913  68.510  1.00  0.00    -0.209 A  
HETATM   23  N   UNL     1     -10.247  15.502  69.582  1.00  0.00    -0.271 NA 
HETATM   24  N   UNL     1      -8.352  16.618  68.704  1.00  0.00    -0.235 NA 
HETATM   25  C   UNL     1     -11.405  14.854  69.357  1.00  0.00    -0.290 A  
HETATM   26  H1  UNL     1      -8.010  16.844  69.638  1.00  0.00     0.000 HD 
HETATM   27  H2  UNL     1      -8.418  17.488  68.176  1.00  0.00     0.000 HD 
HETATM   28  N   UNL     1     -11.979  14.531  68.176  1.00  0.00    -0.298 NA 
HETATM   29  C   UNL     1     -11.209  14.945  67.157  1.00  0.00    -0.343 A  
ENDBRANCH  17  18
ENDBRANCH  15  17
ENDBRANCH  14  15
ENDBRANCH  13  14
ENDBRANCH  11  13
BRANCH  11  30
HETATM   30  O   UNL     1      -8.552  10.494  67.041  1.00  0.00    -0.127 OA 
BRANCH  30  31
HETATM   31  C   UNL     1      -7.615  10.078  67.970  1.00  0.00    -0.088 A  
HETATM   32  C   UNL     1      -7.637  10.710  69.213  1.00  0.00    -0.138 A  
HETATM   33  C   UNL     1      -5.718   8.755  68.703  1.00  0.00    -0.041 A  
HETATM   34  C   UNL     1      -6.657   9.091  67.718  1.00  0.00    -0.061 A  
HETATM   35  C   UNL     1      -5.731   9.405  69.937  1.00  0.00    -0.035 A  
HETATM   36  C   UNL     1      -6.690  10.382  70.190  1.00  0.00    -0.150 A  
ENDBRANCH  30  31
ENDBRANCH  11  30
ENDBRANCH   9  11
ENDBRANCH   7   9
ENDBRANCH   5   7
ENDBRANCH   4   5
ENDBRANCH   2   4
TORSDOF 12
ENDMDL
MODEL      157
REMARK 921   NORMALIZED FREE ENERGY PREDICTED BY IDOCK:   -5.20 KCAL/MOL
REMARK 922        TOTAL FREE ENERGY PREDICTED BY IDOCK:  -10.55 KCAL/MOL
REMARK 923 INTER-LIGAND FREE ENERGY PREDICTED BY IDOCK:   -9.02 KCAL/MOL
REMARK 924 INTRA-LIGAND FREE ENERGY PREDICTED BY IDOCK:   -1.53 KCAL/MOL
REMARK 927      BINDING AFFINITY PREDICTED BY RF-SCORE:    0.00 PKD
ROOT
HETATM    1  C   UNL     1     -13.400  10.323  71.857  1.00  0.00    -0.487 C  
HETATM    2  C   UNL     1     -13.108  11.685  71.223  1.00  0.00    -0.157 C  
HETATM    3  C   UNL     1     -13.444  12.824  72.196  1.00  0.00    -0.591 C  
ENDROOT
BRANCH   2   4
HETATM    4  O   UNL     1     -11.787  11.739  70.591  1.00  0.00    -0.298 OA 
BRANCH   4   5
HETATM    5  C   UNL     1     -11.576  11.082  69.424  1.00  0.00    -0.312 C  
HETATM    6  O   UNL     1     -12.348  11.153  68.466  1.00  0.00    -0.561 OA 
BRANCH   5   7
HETATM    7  C   UNL     1     -10.299  10.198  69.338  1.00  0.00    -0.232 C  
HETATM    8  C   UNL     1     -10.105   9.463  70.664  1.00  0.00    -0.356 C  
BRANCH   7   9
HETATM    9  N   UNL     1      -9.001  10.810  68.854  1.00  0.00    -0.192 NA 
HETATM   10  H   UNL     1      -8.236  10.614  69.499  1.00  0.00     0.000 HD 
BRANCH   9  11
HETATM   11  P   UNL     1      -8.602  10.301  67.215  1.00  0.00    -0.124 P  
HETATM   12  O   UNL     1      -7.406  11.277  67.091  1.00  0.00    -0.114 OA 
BRANCH  11  13
HETATM   13  C   UNL     1      -9.525  11.316  65.882  1.00  0.00    -0.222 C  
BRANCH  13  14
HETATM   14  O   UNL     1      -9.966  12.642  66.363  1.00  0.00    -0.243 OA 
BRANCH  14  15
HETATM   15  C   UNL     1     -11.138  13.290  65.800  1.00  0.00    -0.279 C  
HETATM   16  C   UNL     1     -11.030  13.326  64.271  1.00  0.00    -0.418 C  
BRANCH  15  17
HETATM   17  C   UNL     1     -11.499  14.625  66.437  1.00  0.00    -0.347 C  
BRANCH  17  18
HETATM   18  N   UNL     1     -10.567  15.111  67.417  1.00  0.00    -0.266 NA 
HETATM   19  C   UNL     1     -10.536  14.833  68.757  1.00  0.00    -0.251 A  
HETATM   20  N   UNL     1      -9.494  15.380  69.343  1.00  0.00    -0.262 NA 
HETATM   21  C   UNL     1      -8.846  16.053  68.332  1.00  0.00    -0.188 A  
HETATM   22  C   UNL     1      -7.673  16.813  68.322  1.00  0.00    -0.187 A  
HETATM   23  N   UNL     1      -7.308  17.429  67.173  1.00  0.00    -0.164 NA 
HETATM   24  N   UNL     1      -6.888  16.957  69.455  1.00  0.00    -0.196 NA 
HETATM   25  C   UNL     1      -8.073  17.237  66.082  1.00  0.00    -0.237 A  
HETATM   26  H1  UNL     1      -6.032  17.512  69.448  1.00  0.00     0.000 HD 
HETATM   27  H2  UNL     1      -6.653  16.024  69.793  1.00  0.00     0.000 HD 
HETATM   28  N   UNL     1      -9.199  16.499  65.957  1.00  0.00    -0.448 NA 
HETATM   29  C   UNL     1      -9.519  15.937  67.133  1.00  0.00    -0.213 A  
ENDBRANCH  17  18
ENDBRANCH  15  17
ENDBRANCH  14  15
ENDBRANCH  13  14
ENDBRANCH  11  13
BRANCH  11  30
HETATM   30  O   UNL     1      -9.938   9.210  67.355  1.00  0.00    -0.178 OA 
BRANCH  30  31
HETATM   31  C   UNL     1      -9.745   7.933  66.859  1.00  0.00    -0.219 A  
HETATM   32  C   UNL     1     -10.713   6.980  67.179  1.00  0.00    -0.433 A  
HETATM   33  C   UNL     1      -8.502   6.231  65.657  1.00  0.00    -0.148 A  
HETATM   34  C   UNL     1      -8.640   7.558  66.088  1.00  0.00    -0.159 A  
HETATM   35  C   UNL     1      -9.461   5.278  65.997  1.00  0.00    -0.169 A  
HETATM   36  C   UNL     1     -10.564   5.653  66.758  1.00  0.00    -0.372 A  
ENDBRANCH  30  31
ENDBRANCH  11  30
ENDBRANCH   9  11
ENDBRANCH   7   9
ENDBRANCH   5   7
ENDBRANCH   4   5
ENDBRANCH   2   4
TORSDOF 12
ENDMDL
MODEL      158
REMARK 921   NORMALIZED FREE ENERGY PREDICTED BY IDOCK:   -5.19 KCAL/MOL
REMARK 922        TOTAL FREE ENERGY PREDICTED BY IDOCK:  -10.55 KCAL/MOL
REMARK 923 INTER-LIGAND FREE ENERGY PREDICTED BY IDOCK:  -10.17 KCAL/MOL
REMARK 924 INTRA-LIGAND FREE ENERGY PREDICTED BY IDOCK:   -0.37 KCAL/MOL
REMARK 927      BINDING AFFINITY PREDICTED BY RF-SCORE:    0.00 PKD
ROOT
HETATM    1  C   UNL     1     -11.795  15.766  71.689  1.00  0.00    -0.539 C  
HETATM    2  C   UNL     1     -12.964  14.780  71.762  1.00  0.00    -0.332 C  
HETATM    3  C   UNL     1     -14.252  15.420  71.225  1.00  0.00    -0.428 C  
ENDROOT
BRANCH   2   4
HETATM    4  O   UNL     1     -12.621  13.462  71.223  1.00  0.00    -0.354 OA 
BRANCH   4   5
HETATM    5  C   UNL     1     -12.213  13.351  69.935  1.00  0.00    -0.271 C  
HETATM    6  O   UNL     1     -12.217  14.298  69.146  1.00  0.00    -0.316 OA 
BRANCH   5   7
HETATM    7  C   UNL     1     -11.742  11.944  69.466  1.00  0.00    -0.345 C  
HETATM    8  C   UNL     1     -12.486  10.873  70.263  1.00  0.00    -0.383 C  
BRANCH   7   9
HETATM    9  N   UNL     1     -10.260  11.642  69.390  1.00  0.00    -0.411 NA 
HETATM   10  H   UNL     1      -9.996  10.913  70.052  1.00  0.00     0.000 HD 
BRANCH   9  11
HETATM   11  P   UNL     1      -9.753  11.232  67.753  1.00  0.00    -0.181 P  
HETATM   12  O   UNL     1      -8.322  10.829  68.185  1.00  0.00    -0.113 OA 
BRANCH  11  13
HETATM   13  C   UNL     1      -9.013  12.725  66.815  1.00  0.00    -0.188 C  
BRANCH  13  14
HETATM   14  O   UNL     1      -8.439  13.749  67.713  1.00  0.00    -0.156 OA 
BRANCH  14  15
HETATM   15  C   UNL     1      -8.399  15.149  67.323  1.00  0.00    -0.201 C  
HETATM   16  C   UNL     1      -9.252  15.364  66.067  1.00  0.00    -0.333 C  
BRANCH  15  17
HETATM   17  C   UNL     1      -7.004  15.753  67.248  1.00  0.00    -0.197 C  
BRANCH  17  18
HETATM   18  N   UNL     1      -6.727  16.782  68.212  1.00  0.00    -0.150 NA 
HETATM   19  C   UNL     1      -6.399  16.629  69.532  1.00  0.00    -0.227 A  
HETATM   20  N   UNL     1      -6.127  17.783  70.102  1.00  0.00    -0.131 NA 
HETATM   21  C   UNL     1      -6.311  18.711  69.102  1.00  0.00    -0.259 A  
HETATM   22  C   UNL     1      -6.164  20.101  69.083  1.00  0.00    -0.324 A  
HETATM   23  N   UNL     1      -6.490  20.773  67.955  1.00  0.00    -0.317 NA 
HETATM   24  N   UNL     1      -5.703  20.800  70.188  1.00  0.00    -0.513 NA 
HETATM   25  C   UNL     1      -6.898  20.059  66.889  1.00  0.00    -0.218 A  
HETATM   26  H1  UNL     1      -5.595  21.815  70.174  1.00  0.00     0.000 HD 
HETATM   27  H2  UNL     1      -4.809  20.395  70.464  1.00  0.00     0.000 HD 
HETATM   28  N   UNL     1      -7.043  18.720  66.773  1.00  0.00    -0.209 NA 
HETATM   29  C   UNL     1      -6.727  18.117  67.929  1.00  0.00    -0.203 A  
ENDBRANCH  17  18
ENDBRANCH  15  17
ENDBRANCH  14  15
ENDBRANCH  13  14
ENDBRANCH  11  13
BRANCH  11  30
HETATM   30  O   UNL     1     -11.353  11.683  67.271  1.00  0.00    -0.293 OA 
BRANCH  30  31
HETATM   31  C   UNL     1     -11.506  12.104  65.962  1.00  0.00    -0.370 A  
HETATM   32  C   UNL     1     -12.126  13.339  65.767  1.00  0.00    -0.491 A  
HETATM   33  C   UNL     1     -11.327  11.841  63.557  1.00  0.00    -0.496 A  
HETATM   34  C   UNL     1     -11.098  11.357  64.853  1.00  0.00    -0.235 A  
HETATM   35  C   UNL     1     -11.965  13.065  63.366  1.00  0.00    -0.592 A  
HETATM   36  C   UNL     1     -12.364  13.812  64.471  1.00  0.00    -0.399 A  
ENDBRANCH  30  31
ENDBRANCH  11  30
ENDBRANCH   9  11
ENDBRANCH   7   9
ENDBRANCH   5   7
ENDBRANCH   4   5
ENDBRANCH   2   4
TORSDOF 12
ENDMDL
MODEL      159
REMARK 921   NORMALIZED FREE ENERGY PREDICTED BY IDOCK:   -5.17 KCAL/MOL
REMARK 922        TOTAL FREE ENERGY PREDICTED BY IDOCK:  -10.51 KCAL/MOL
REMARK 923 INTER-LIGAND FREE ENERGY PREDICTED BY IDOCK:   -9.84 KCAL/MOL
REMARK 924 INTRA-LIGAND FREE ENERGY PREDICTED BY IDOCK:   -0.67 KCAL/MOL
REMARK 927      BINDING AFFINITY PREDICTED BY RF-SCORE:    0.00 PKD
ROOT
HETATM    1  C   UNL     1     -10.199   6.413  74.432  1.00  0.00    -0.343 C  
HETATM    2  C   UNL     1     -10.591   6.699  72.981  1.00  0.00    -0.256 C  
HETATM    3  C   UNL     1     -11.447   5.559  72.411  1.00  0.00    -0.266 C  
ENDROOT
BRANCH   2   4
HETATM    4  O   UNL     1     -11.112   8.056  72.796  1.00  0.00    -0.373 OA 
BRANCH   4   5
HETATM    5  C   UNL     1     -10.489   8.902  71.940  1.00  0.00    -0.345 C  
HETATM    6  O   UNL     1      -9.262   9.014  71.882  1.00  0.00    -0.353 OA 
BRANCH   5   7
HETATM    7  C   UNL     1     -11.399   9.764  71.019  1.00  0.00    -0.387 C  
HETATM    8  C   UNL     1     -12.743   9.990  71.709  1.00  0.00    -0.526 C  
BRANCH   7   9
HETATM    9  N   UNL     1     -11.584   9.364  69.570  1.00  0.00    -0.418 NA 
HETATM   10  H   UNL     1     -12.573   9.319  69.322  1.00  0.00     0.000 HD 
BRANCH   9  11
HETATM   11  P   UNL     1     -10.699  10.421  68.474  1.00  0.00    -0.256 P  
HETATM   12  O   UNL     1     -11.882  11.405  68.299  1.00  0.00    -0.501 OA 
BRANCH  11  13
HETATM   13  C   UNL     1     -10.894   9.914  66.641  1.00  0.00     0.039 C  
BRANCH  13  14
HETATM   14  O   UNL     1      -9.890  10.539  65.755  1.00  0.00    -0.210 OA 
BRANCH  14  15
HETATM   15  C   UNL     1     -10.223  10.906  64.389  1.00  0.00    -0.358 C  
HETATM   16  C   UNL     1      -9.359  10.102  63.408  1.00  0.00    -0.334 C  
BRANCH  15  17
HETATM   17  C   UNL     1     -10.254  12.404  64.118  1.00  0.00    -0.351 C  
BRANCH  17  18
HETATM   18  N   UNL     1     -11.022  13.181  65.051  1.00  0.00    -0.293 NA 
HETATM   19  C   UNL     1     -12.375  13.390  65.057  1.00  0.00    -0.436 A  
HETATM   20  N   UNL     1     -12.755  14.084  66.107  1.00  0.00    -0.386 NA 
HETATM   21  C   UNL     1     -11.586  14.345  66.787  1.00  0.00    -0.385 A  
HETATM   22  C   UNL     1     -11.336  15.026  67.981  1.00  0.00    -0.327 A  
HETATM   23  N   UNL     1     -10.053  15.191  68.379  1.00  0.00    -0.221 NA 
HETATM   24  N   UNL     1     -12.364  15.541  68.756  1.00  0.00    -0.556 NA 
HETATM   25  C   UNL     1      -9.082  14.646  67.623  1.00  0.00    -0.193 A  
HETATM   26  H1  UNL     1     -12.181  16.039  69.628  1.00  0.00     0.000 HD 
HETATM   27  H2  UNL     1     -13.013  14.781  68.960  1.00  0.00     0.000 HD 
HETATM   28  N   UNL     1      -9.199  13.937  66.477  1.00  0.00    -0.239 NA 
HETATM   29  C   UNL     1     -10.490  13.831  66.127  1.00  0.00    -0.297 A  
ENDBRANCH  17  18
ENDBRANCH  15  17
ENDBRANCH  14  15
ENDBRANCH  13  14
ENDBRANCH  11  13
BRANCH  11  30
HETATM   30  O   UNL     1      -9.377   9.322  68.670  1.00  0.00    -0.138 OA 
BRANCH  30  31
HETATM   31  C   UNL     1      -9.532   8.066  68.110  1.00  0.00    -0.143 A  
HETATM   32  C   UNL     1      -8.650   7.722  67.084  1.00  0.00    -0.128 A  
HETATM   33  C   UNL     1     -10.632   5.920  67.853  1.00  0.00    -0.322 A  
HETATM   34  C   UNL     1     -10.520   7.158  68.501  1.00  0.00    -0.229 A  
HETATM   35  C   UNL     1      -9.763   5.588  66.815  1.00  0.00    -0.168 A  
HETATM   36  C   UNL     1      -8.774   6.489  66.432  1.00  0.00    -0.142 A  
ENDBRANCH  30  31
ENDBRANCH  11  30
ENDBRANCH   9  11
ENDBRANCH   7   9
ENDBRANCH   5   7
ENDBRANCH   4   5
ENDBRANCH   2   4
TORSDOF 12
ENDMDL
MODEL      160
REMARK 921   NORMALIZED FREE ENERGY PREDICTED BY IDOCK:   -5.17 KCAL/MOL
REMARK 922        TOTAL FREE ENERGY PREDICTED BY IDOCK:  -10.51 KCAL/MOL
REMARK 923 INTER-LIGAND FREE ENERGY PREDICTED BY IDOCK:   -8.73 KCAL/MOL
REMARK 924 INTRA-LIGAND FREE ENERGY PREDICTED BY IDOCK:   -1.77 KCAL/MOL
REMARK 927      BINDING AFFINITY PREDICTED BY RF-SCORE:    0.00 PKD
ROOT
HETATM    1  C   UNL     1      -9.465  17.251  66.215  1.00  0.00    -0.256 C  
HETATM    2  C   UNL     1     -10.236  15.937  66.070  1.00  0.00    -0.334 C  
HETATM    3  C   UNL     1     -11.255  15.773  67.206  1.00  0.00    -0.140 C  
ENDROOT
BRANCH   2   4
HETATM    4  O   UNL     1     -10.741  15.730  64.710  1.00  0.00    -0.500 OA 
BRANCH   4   5
HETATM    5  C   UNL     1     -11.641  14.744  64.473  1.00  0.00    -0.361 C  
HETATM    6  O   UNL     1     -12.783  14.963  64.066  1.00  0.00    -0.792 OA 
BRANCH   5   7
HETATM    7  C   UNL     1     -11.176  13.287  64.757  1.00  0.00    -0.331 C  
HETATM    8  C   UNL     1     -11.341  12.450  63.489  1.00  0.00    -0.553 C  
BRANCH   7   9
HETATM    9  N   UNL     1     -11.711  12.557  65.971  1.00  0.00    -0.402 NA 
HETATM   10  H   UNL     1     -12.425  11.878  65.709  1.00  0.00     0.000 HD 
BRANCH   9  11
HETATM   11  P   UNL     1     -10.424  11.804  66.909  1.00  0.00    -0.241 P  
HETATM   12  O   UNL     1      -9.338  12.784  66.402  1.00  0.00    -0.241 OA 
BRANCH  11  13
HETATM   13  C   UNL     1      -9.548  10.394  65.960  1.00  0.00    -0.201 C  
BRANCH  13  14
HETATM   14  O   UNL     1      -8.201  10.090  66.485  1.00  0.00    -0.117 OA 
BRANCH  14  15
HETATM   15  C   UNL     1      -7.035  10.117  65.617  1.00  0.00    -0.125 C  
HETATM   16  C   UNL     1      -6.610   8.685  65.270  1.00  0.00    -0.064 C  
BRANCH  15  17
HETATM   17  C   UNL     1      -5.901  11.012  66.097  1.00  0.00    -0.142 C  
BRANCH  17  18
HETATM   18  N   UNL     1      -5.914  11.324  67.499  1.00  0.00    -0.051 NA 
HETATM   19  C   UNL     1      -5.706  10.473  68.551  1.00  0.00    -0.040 A  
HETATM   20  N   UNL     1      -5.705  11.112  69.700  1.00  0.00    -0.055 NA 
HETATM   21  C   UNL     1      -5.945  12.425  69.363  1.00  0.00    -0.100 A  
HETATM   22  C   UNL     1      -6.045  13.583  70.139  1.00  0.00    -0.123 A  
HETATM   23  N   UNL     1      -6.365  14.749  69.530  1.00  0.00    -0.116 NA 
HETATM   24  N   UNL     1      -5.836  13.562  71.510  1.00  0.00    -0.549 NA 
HETATM   25  C   UNL     1      -6.524  14.740  68.193  1.00  0.00    -0.136 A  
HETATM   26  H1  UNL     1      -5.909  14.407  72.077  1.00  0.00     0.000 HD 
HETATM   27  H2  UNL     1      -4.918  13.150  71.680  1.00  0.00     0.000 HD 
HETATM   28  N   UNL     1      -6.416  13.701  67.335  1.00  0.00    -0.286 NA 
HETATM   29  C   UNL     1      -6.121  12.575  68.003  1.00  0.00    -0.088 A  
ENDBRANCH  17  18
ENDBRANCH  15  17
ENDBRANCH  14  15
ENDBRANCH  13  14
ENDBRANCH  11  13
BRANCH  11  30
HETATM   30  O   UNL     1     -11.639  10.710  67.476  1.00  0.00    -0.482 OA 
BRANCH  30  31
HETATM   31  C   UNL     1     -11.599  10.389  68.821  1.00  0.00    -0.119 A  
HETATM   32  C   UNL     1     -10.740   9.355  69.196  1.00  0.00    -0.216 A  
HETATM   33  C   UNL     1     -12.303  10.608  71.133  1.00  0.00    -0.505 A  
HETATM   34  C   UNL     1     -12.377  11.023  69.795  1.00  0.00    -0.331 A  
HETATM   35  C   UNL     1     -11.459   9.562  71.499  1.00  0.00    -0.466 A  
HETATM   36  C   UNL     1     -10.679   8.936  70.530  1.00  0.00    -0.271 A  
ENDBRANCH  30  31
ENDBRANCH  11  30
ENDBRANCH   9  11
ENDBRANCH   7   9
ENDBRANCH   5   7
ENDBRANCH   4   5
ENDBRANCH   2   4
TORSDOF 12
ENDMDL
MODEL      161
REMARK 921   NORMALIZED FREE ENERGY PREDICTED BY IDOCK:   -5.17 KCAL/MOL
REMARK 922        TOTAL FREE ENERGY PREDICTED BY IDOCK:  -10.51 KCAL/MOL
REMARK 923 INTER-LIGAND FREE ENERGY PREDICTED BY IDOCK:   -9.63 KCAL/MOL
REMARK 924 INTRA-LIGAND FREE ENERGY PREDICTED BY IDOCK:   -0.88 KCAL/MOL
REMARK 927      BINDING AFFINITY PREDICTED BY RF-SCORE:    0.00 PKD
ROOT
HETATM    1  C   UNL     1      -6.900  16.332  67.467  1.00  0.00    -0.189 C  
HETATM    2  C   UNL     1      -7.876  17.491  67.249  1.00  0.00    -0.203 C  
HETATM    3  C   UNL     1      -7.237  18.827  67.653  1.00  0.00    -0.229 C  
ENDROOT
BRANCH   2   4
HETATM    4  O   UNL     1      -8.512  17.448  65.930  1.00  0.00    -0.530 OA 
BRANCH   4   5
HETATM    5  C   UNL     1      -9.859  17.322  65.840  1.00  0.00    -0.126 C  
HETATM    6  O   UNL     1     -10.600  18.257  65.532  1.00  0.00    -0.632 OA 
BRANCH   5   7
HETATM    7  C   UNL     1     -10.456  15.923  66.164  1.00  0.00    -0.326 C  
HETATM    8  C   UNL     1     -10.599  15.776  67.679  1.00  0.00    -0.301 C  
BRANCH   7   9
HETATM    9  N   UNL     1      -9.835  14.687  65.548  1.00  0.00    -0.473 NA 
HETATM   10  H   UNL     1      -9.045  14.354  66.101  1.00  0.00     0.000 HD 
BRANCH   9  11
HETATM   11  P   UNL     1     -11.020  13.409  65.294  1.00  0.00    -0.321 P  
HETATM   12  O   UNL     1     -12.162  14.394  64.943  1.00  0.00    -0.413 OA 
BRANCH  11  13
HETATM   13  C   UNL     1     -11.958  12.944  66.894  1.00  0.00    -0.335 C  
BRANCH  13  14
HETATM   14  O   UNL     1     -11.993  11.488  67.145  1.00  0.00    -0.581 OA 
BRANCH  14  15
HETATM   15  C   UNL     1     -11.562  10.937  68.419  1.00  0.00    -0.276 C  
HETATM   16  C   UNL     1     -11.256  12.075  69.402  1.00  0.00    -0.263 C  
BRANCH  15  17
HETATM   17  C   UNL     1     -10.472   9.879  68.323  1.00  0.00    -0.210 C  
BRANCH  17  18
HETATM   18  N   UNL     1      -9.914   9.455  69.577  1.00  0.00    -0.181 NA 
HETATM   19  C   UNL     1      -8.641   9.655  70.040  1.00  0.00    -0.215 A  
HETATM   20  N   UNL     1      -8.494   9.208  71.268  1.00  0.00    -0.325 NA 
HETATM   21  C   UNL     1      -9.725   8.681  71.591  1.00  0.00    -0.278 A  
HETATM   22  C   UNL     1     -10.203   8.075  72.756  1.00  0.00    -0.319 A  
HETATM   23  N   UNL     1     -11.462   7.579  72.761  1.00  0.00    -0.326 NA 
HETATM   24  N   UNL     1      -9.418   7.962  73.893  1.00  0.00    -0.326 NA 
HETATM   25  C   UNL     1     -12.209   7.739  71.653  1.00  0.00    -0.313 A  
HETATM   26  H1  UNL     1      -9.766   7.519  74.744  1.00  0.00     0.000 HD 
HETATM   27  H2  UNL     1      -9.088   8.896  74.139  1.00  0.00     0.000 HD 
HETATM   28  N   UNL     1     -11.876   8.337  70.487  1.00  0.00    -0.089 NA 
HETATM   29  C   UNL     1     -10.612   8.784  70.539  1.00  0.00    -0.215 A  
ENDBRANCH  17  18
ENDBRANCH  15  17
ENDBRANCH  14  15
ENDBRANCH  13  14
ENDBRANCH  11  13
BRANCH  11  30
HETATM   30  O   UNL     1      -9.743  12.308  65.685  1.00  0.00    -0.245 OA 
BRANCH  30  31
HETATM   31  C   UNL     1      -9.488  11.309  64.763  1.00  0.00    -0.194 A  
HETATM   32  C   UNL     1      -8.766  10.204  65.217  1.00  0.00    -0.180 A  
HETATM   33  C   UNL     1      -9.556  10.323  62.548  1.00  0.00    -0.217 A  
HETATM   34  C   UNL     1      -9.891  11.363  63.426  1.00  0.00    -0.422 A  
HETATM   35  C   UNL     1      -8.818   9.231  63.000  1.00  0.00    -0.173 A  
HETATM   36  C   UNL     1      -8.423   9.173  64.334  1.00  0.00    -0.198 A  
ENDBRANCH  30  31
ENDBRANCH  11  30
ENDBRANCH   9  11
ENDBRANCH   7   9
ENDBRANCH   5   7
ENDBRANCH   4   5
ENDBRANCH   2   4
TORSDOF 12
ENDMDL
MODEL      162
REMARK 921   NORMALIZED FREE ENERGY PREDICTED BY IDOCK:   -5.16 KCAL/MOL
REMARK 922        TOTAL FREE ENERGY PREDICTED BY IDOCK:  -10.50 KCAL/MOL
REMARK 923 INTER-LIGAND FREE ENERGY PREDICTED BY IDOCK:   -8.03 KCAL/MOL
REMARK 924 INTRA-LIGAND FREE ENERGY PREDICTED BY IDOCK:   -2.47 KCAL/MOL
REMARK 927      BINDING AFFINITY PREDICTED BY RF-SCORE:    0.00 PKD
ROOT
HETATM    1  C   UNL     1     -13.631   9.515  72.435  1.00  0.00    -0.459 C  
HETATM    2  C   UNL     1     -13.043   8.235  71.835  1.00  0.00    -0.344 C  
HETATM    3  C   UNL     1     -14.152   7.225  71.509  1.00  0.00    -0.515 C  
ENDROOT
BRANCH   2   4
HETATM    4  O   UNL     1     -12.079   8.508  70.766  1.00  0.00    -0.206 OA 
BRANCH   4   5
HETATM    5  C   UNL     1     -11.004   9.295  71.018  1.00  0.00    -0.320 C  
HETATM    6  O   UNL     1     -10.201   9.061  71.923  1.00  0.00    -0.343 OA 
BRANCH   5   7
HETATM    7  C   UNL     1     -10.824  10.547  70.113  1.00  0.00    -0.227 C  
HETATM    8  C   UNL     1     -12.169  10.914  69.488  1.00  0.00    -0.331 C  
BRANCH   7   9
HETATM    9  N   UNL     1      -9.714  10.567  69.082  1.00  0.00    -0.212 NA 
HETATM   10  H   UNL     1      -9.060   9.799  69.228  1.00  0.00     0.000 HD 
BRANCH   9  11
HETATM   11  P   UNL     1     -10.342  10.568  67.437  1.00  0.00    -0.256 P  
HETATM   12  O   UNL     1     -10.686   9.059  67.454  1.00  0.00    -0.271 OA 
BRANCH  11  13
HETATM   13  C   UNL     1      -8.990  10.210  66.131  1.00  0.00    -0.150 C  
BRANCH  13  14
HETATM   14  O   UNL     1      -8.953   8.795  65.708  1.00  0.00    -0.184 OA 
BRANCH  14  15
HETATM   15  C   UNL     1      -7.739   8.209  65.164  1.00  0.00    -0.107 C  
HETATM   16  C   UNL     1      -8.074   7.382  63.916  1.00  0.00    -0.023 C  
BRANCH  15  17
HETATM   17  C   UNL     1      -6.864   7.488  66.180  1.00  0.00    -0.061 C  
BRANCH  17  18
HETATM   18  N   UNL     1      -7.425   7.365  67.497  1.00  0.00    -0.098 NA 
HETATM   19  C   UNL     1      -7.192   8.161  68.587  1.00  0.00    -0.084 A  
HETATM   20  N   UNL     1      -7.939   7.813  69.611  1.00  0.00    -0.114 NA 
HETATM   21  C   UNL     1      -8.664   6.734  69.157  1.00  0.00    -0.131 A  
HETATM   22  C   UNL     1      -9.636   5.939  69.771  1.00  0.00    -0.153 A  
HETATM   23  N   UNL     1     -10.136   4.881  69.091  1.00  0.00    -0.188 NA 
HETATM   24  N   UNL     1     -10.088   6.202  71.055  1.00  0.00    -0.184 NA 
HETATM   25  C   UNL     1      -9.702   4.678  67.832  1.00  0.00    -0.143 A  
HETATM   26  H1  UNL     1     -10.797   5.621  71.504  1.00  0.00     0.000 HD 
HETATM   27  H2  UNL     1     -10.413   7.168  71.081  1.00  0.00     0.000 HD 
HETATM   28  N   UNL     1      -8.803   5.393  67.121  1.00  0.00    -0.110 NA 
HETATM   29  C   UNL     1      -8.330   6.410  67.858  1.00  0.00    -0.118 A  
ENDBRANCH  17  18
ENDBRANCH  15  17
ENDBRANCH  14  15
ENDBRANCH  13  14
ENDBRANCH  11  13
BRANCH  11  30
HETATM   30  O   UNL     1      -9.958  12.256  67.417  1.00  0.00    -0.198 OA 
BRANCH  30  31
HETATM   31  C   UNL     1     -10.646  13.033  66.503  1.00  0.00    -0.282 A  
HETATM   32  C   UNL     1     -11.824  12.497  65.981  1.00  0.00    -0.478 A  
HETATM   33  C   UNL     1     -10.954  14.998  65.113  1.00  0.00    -0.417 A  
HETATM   34  C   UNL     1     -10.215  14.292  66.073  1.00  0.00    -0.327 A  
HETATM   35  C   UNL     1     -12.119  14.449  64.579  1.00  0.00    -0.498 A  
HETATM   36  C   UNL     1     -12.552  13.199  65.013  1.00  0.00    -0.499 A  
ENDBRANCH  30  31
ENDBRANCH  11  30
ENDBRANCH   9  11
ENDBRANCH   7   9
ENDBRANCH   5   7
ENDBRANCH   4   5
ENDBRANCH   2   4
TORSDOF 12
ENDMDL
MODEL      163
REMARK 921   NORMALIZED FREE ENERGY PREDICTED BY IDOCK:   -5.15 KCAL/MOL
REMARK 922        TOTAL FREE ENERGY PREDICTED BY IDOCK:  -10.48 KCAL/MOL
REMARK 923 INTER-LIGAND FREE ENERGY PREDICTED BY IDOCK:   -9.98 KCAL/MOL
REMARK 924 INTRA-LIGAND FREE ENERGY PREDICTED BY IDOCK:   -0.50 KCAL/MOL
REMARK 927      BINDING AFFINITY PREDICTED BY RF-SCORE:    0.00 PKD
ROOT
HETATM    1  C   UNL     1     -14.398   7.519  71.518  1.00  0.00    -0.603 C  
HETATM    2  C   UNL     1     -13.202   8.468  71.420  1.00  0.00    -0.220 C  
HETATM    3  C   UNL     1     -13.501   9.799  72.122  1.00  0.00    -0.491 C  
ENDROOT
BRANCH   2   4
HETATM    4  O   UNL     1     -11.938   7.816  71.776  1.00  0.00    -0.275 OA 
BRANCH   4   5
HETATM    5  C   UNL     1     -10.777   8.510  71.680  1.00  0.00    -0.281 C  
HETATM    6  O   UNL     1     -10.180   8.957  72.661  1.00  0.00    -0.085 OA 
BRANCH   5   7
HETATM    7  C   UNL     1     -10.217   8.745  70.248  1.00  0.00    -0.196 C  
HETATM    8  C   UNL     1      -8.737   8.366  70.218  1.00  0.00    -0.140 C  
BRANCH   7   9
HETATM    9  N   UNL     1     -10.459  10.073  69.562  1.00  0.00    -0.222 NA 
HETATM   10  H   UNL     1     -10.119  10.850  70.129  1.00  0.00     0.000 HD 
BRANCH   9  11
HETATM   11  P   UNL     1      -9.769  10.115  67.942  1.00  0.00    -0.152 P  
HETATM   12  O   UNL     1      -8.801  11.278  68.271  1.00  0.00    -0.145 OA 
BRANCH  11  13
HETATM   13  C   UNL     1     -10.721  11.286  66.766  1.00  0.00    -0.275 C  
BRANCH  13  14
HETATM   14  O   UNL     1     -11.809  12.025  67.438  1.00  0.00    -0.546 OA 
BRANCH  14  15
HETATM   15  C   UNL     1     -11.946  13.464  67.278  1.00  0.00    -0.347 C  
HETATM   16  C   UNL     1     -12.744  13.773  66.004  1.00  0.00    -0.407 C  
BRANCH  15  17
HETATM   17  C   UNL     1     -10.650  14.249  67.415  1.00  0.00    -0.276 C  
BRANCH  17  18
HETATM   18  N   UNL     1     -10.612  15.501  66.711  1.00  0.00    -0.304 NA 
HETATM   19  C   UNL     1     -10.821  15.721  65.376  1.00  0.00    -0.364 A  
HETATM   20  N   UNL     1     -10.795  17.002  65.084  1.00  0.00    -0.601 NA 
HETATM   21  C   UNL     1     -10.537  17.623  66.286  1.00  0.00    -0.215 A  
HETATM   22  C   UNL     1     -10.405  18.971  66.629  1.00  0.00    -0.428 A  
HETATM   23  N   UNL     1     -10.073  19.289  67.902  1.00  0.00    -0.371 NA 
HETATM   24  N   UNL     1     -10.597  19.982  65.699  1.00  0.00    -0.394 NA 
HETATM   25  C   UNL     1      -9.932  18.285  68.787  1.00  0.00    -0.370 A  
HETATM   26  H1  UNL     1     -10.501  20.967  65.949  1.00  0.00     0.000 HD 
HETATM   27  H2  UNL     1     -11.519  19.853  65.283  1.00  0.00     0.000 HD 
HETATM   28  N   UNL     1     -10.070  16.955  68.588  1.00  0.00    -0.273 NA 
HETATM   29  C   UNL     1     -10.376  16.707  67.305  1.00  0.00    -0.298 A  
ENDBRANCH  17  18
ENDBRANCH  15  17
ENDBRANCH  14  15
ENDBRANCH  13  14
ENDBRANCH  11  13
BRANCH  11  30
HETATM   30  O   UNL     1     -10.852   8.816  67.575  1.00  0.00    -0.206 OA 
BRANCH  30  31
HETATM   31  C   UNL     1     -10.294   7.701  66.975  1.00  0.00    -0.330 A  
HETATM   32  C   UNL     1      -9.038   7.864  66.387  1.00  0.00    -0.221 A  
HETATM   33  C   UNL     1     -10.304   5.385  66.251  1.00  0.00    -0.251 A  
HETATM   34  C   UNL     1     -10.924   6.454  66.913  1.00  0.00    -0.413 A  
HETATM   35  C   UNL     1      -9.060   5.559  65.647  1.00  0.00    -0.131 A  
HETATM   36  C   UNL     1      -8.429   6.798  65.716  1.00  0.00    -0.150 A  
ENDBRANCH  30  31
ENDBRANCH  11  30
ENDBRANCH   9  11
ENDBRANCH   7   9
ENDBRANCH   5   7
ENDBRANCH   4   5
ENDBRANCH   2   4
TORSDOF 12
ENDMDL
MODEL      164
REMARK 921   NORMALIZED FREE ENERGY PREDICTED BY IDOCK:   -5.14 KCAL/MOL
REMARK 922        TOTAL FREE ENERGY PREDICTED BY IDOCK:  -10.45 KCAL/MOL
REMARK 923 INTER-LIGAND FREE ENERGY PREDICTED BY IDOCK:   -8.95 KCAL/MOL
REMARK 924 INTRA-LIGAND FREE ENERGY PREDICTED BY IDOCK:   -1.50 KCAL/MOL
REMARK 927      BINDING AFFINITY PREDICTED BY RF-SCORE:    0.00 PKD
ROOT
HETATM    1  C   UNL     1     -10.113  18.631  68.872  1.00  0.00    -0.357 C  
HETATM    2  C   UNL     1     -10.430  17.915  67.557  1.00  0.00    -0.390 C  
HETATM    3  C   UNL     1     -10.382  18.895  66.376  1.00  0.00    -0.503 C  
ENDROOT
BRANCH   2   4
HETATM    4  O   UNL     1      -9.672  16.671  67.399  1.00  0.00    -0.244 OA 
BRANCH   4   5
HETATM    5  C   UNL     1     -10.319  15.481  67.460  1.00  0.00    -0.271 C  
HETATM    6  O   UNL     1     -11.334  15.235  66.805  1.00  0.00    -0.291 OA 
BRANCH   5   7
HETATM    7  C   UNL     1      -9.732  14.412  68.425  1.00  0.00    -0.226 C  
HETATM    8  C   UNL     1      -8.472  14.969  69.087  1.00  0.00    -0.192 C  
BRANCH   7   9
HETATM    9  N   UNL     1      -9.512  12.999  67.927  1.00  0.00    -0.211 NA 
HETATM   10  H   UNL     1      -8.618  12.627  68.248  1.00  0.00     0.000 HD 
BRANCH   9  11
HETATM   11  P   UNL     1     -10.843  11.930  68.362  1.00  0.00    -0.259 P  
HETATM   12  O   UNL     1     -11.201  12.725  69.642  1.00  0.00    -0.141 OA 
BRANCH  11  13
HETATM   13  C   UNL     1     -10.286  10.471  69.466  1.00  0.00    -0.200 C  
BRANCH  13  14
HETATM   14  O   UNL     1     -10.995  10.418  70.761  1.00  0.00    -0.262 OA 
BRANCH  14  15
HETATM   15  C   UNL     1     -12.322   9.832  70.864  1.00  0.00    -0.290 C  
HETATM   16  C   UNL     1     -13.160  10.616  71.881  1.00  0.00    -0.563 C  
BRANCH  15  17
HETATM   17  C   UNL     1     -12.341   8.323  71.062  1.00  0.00    -0.133 C  
BRANCH  17  18
HETATM   18  N   UNL     1     -11.195   7.776  71.735  1.00  0.00    -0.249 NA 
HETATM   19  C   UNL     1     -10.887   7.855  73.067  1.00  0.00    -0.342 A  
HETATM   20  N   UNL     1      -9.804   7.167  73.356  1.00  0.00    -0.229 NA 
HETATM   21  C   UNL     1      -9.395   6.646  72.149  1.00  0.00    -0.141 A  
HETATM   22  C   UNL     1      -8.321   5.821  71.806  1.00  0.00    -0.120 A  
HETATM   23  N   UNL     1      -8.122   5.520  70.502  1.00  0.00    -0.102 NA 
HETATM   24  N   UNL     1      -7.456   5.315  72.765  1.00  0.00    -0.094 NA 
HETATM   25  C   UNL     1      -9.002   5.997  69.602  1.00  0.00    -0.132 A  
HETATM   26  H1  UNL     1      -6.671   4.712  72.515  1.00  0.00     0.000 HD 
HETATM   27  H2  UNL     1      -8.015   4.826  73.464  1.00  0.00     0.000 HD 
HETATM   28  N   UNL     1     -10.094   6.767  69.812  1.00  0.00    -0.180 NA 
HETATM   29  C   UNL     1     -10.221   7.047  71.118  1.00  0.00    -0.195 A  
ENDBRANCH  17  18
ENDBRANCH  15  17
ENDBRANCH  14  15
ENDBRANCH  13  14
ENDBRANCH  11  13
BRANCH  11  30
HETATM   30  O   UNL     1     -10.443  11.042  66.932  1.00  0.00    -0.225 OA 
BRANCH  30  31
HETATM   31  C   UNL     1     -10.861  11.588  65.731  1.00  0.00    -0.262 A  
HETATM   32  C   UNL     1     -12.101  12.229  65.729  1.00  0.00    -0.287 A  
HETATM   33  C   UNL     1     -10.642  12.057  63.361  1.00  0.00    -0.478 A  
HETATM   34  C   UNL     1     -10.126  11.510  64.544  1.00  0.00    -0.324 A  
HETATM   35  C   UNL     1     -11.890  12.678  63.359  1.00  0.00    -0.594 A  
HETATM   36  C   UNL     1     -12.618  12.762  64.543  1.00  0.00    -0.463 A  
ENDBRANCH  30  31
ENDBRANCH  11  30
ENDBRANCH   9  11
ENDBRANCH   7   9
ENDBRANCH   5   7
ENDBRANCH   4   5
ENDBRANCH   2   4
TORSDOF 12
ENDMDL
MODEL      165
REMARK 921   NORMALIZED FREE ENERGY PREDICTED BY IDOCK:   -5.13 KCAL/MOL
REMARK 922        TOTAL FREE ENERGY PREDICTED BY IDOCK:  -10.45 KCAL/MOL
REMARK 923 INTER-LIGAND FREE ENERGY PREDICTED BY IDOCK:   -8.63 KCAL/MOL
REMARK 924 INTRA-LIGAND FREE ENERGY PREDICTED BY IDOCK:   -1.82 KCAL/MOL
REMARK 927      BINDING AFFINITY PREDICTED BY RF-SCORE:    0.00 PKD
ROOT
HETATM    1  C   UNL     1     -13.633   8.631  71.583  1.00  0.00    -0.408 C  
HETATM    2  C   UNL     1     -12.546   7.606  71.913  1.00  0.00    -0.303 C  
HETATM    3  C   UNL     1     -12.009   6.948  70.635  1.00  0.00    -0.400 C  
ENDROOT
BRANCH   2   4
HETATM    4  O   UNL     1     -11.543   8.130  72.844  1.00  0.00    -0.386 OA 
BRANCH   4   5
HETATM    5  C   UNL     1     -10.541   7.324  73.272  1.00  0.00    -0.382 C  
HETATM    6  O   UNL     1     -10.738   6.308  73.941  1.00  0.00    -0.249 OA 
BRANCH   5   7
HETATM    7  C   UNL     1      -9.092   7.746  72.896  1.00  0.00    -0.197 C  
HETATM    8  C   UNL     1      -8.241   7.808  74.164  1.00  0.00    -0.282 C  
BRANCH   7   9
HETATM    9  N   UNL     1      -8.874   8.966  72.027  1.00  0.00    -0.382 NA 
HETATM   10  H   UNL     1      -8.596   9.774  72.585  1.00  0.00     0.000 HD 
BRANCH   9  11
HETATM   11  P   UNL     1      -7.720   8.657  70.732  1.00  0.00    -0.116 P  
HETATM   12  O   UNL     1      -6.815   9.856  71.110  1.00  0.00    -0.337 OA 
BRANCH  11  13
HETATM   13  C   UNL     1      -8.176   9.556  69.107  1.00  0.00    -0.111 C  
BRANCH  13  14
HETATM   14  O   UNL     1      -9.389  10.390  69.226  1.00  0.00    -0.195 OA 
BRANCH  14  15
HETATM   15  C   UNL     1     -10.666   9.933  68.703  1.00  0.00    -0.226 C  
HETATM   16  C   UNL     1     -10.445   8.759  67.741  1.00  0.00    -0.292 C  
BRANCH  15  17
HETATM   17  C   UNL     1     -11.565  11.033  68.157  1.00  0.00    -0.272 C  
BRANCH  17  18
HETATM   18  N   UNL     1     -11.884  12.084  69.084  1.00  0.00    -0.314 NA 
HETATM   19  C   UNL     1     -12.409  11.962  70.342  1.00  0.00    -0.251 A  
HETATM   20  N   UNL     1     -12.494  13.127  70.947  1.00  0.00    -0.359 NA 
HETATM   21  C   UNL     1     -12.021  14.030  70.023  1.00  0.00    -0.339 A  
HETATM   22  C   UNL     1     -11.848  15.416  70.078  1.00  0.00    -0.343 A  
HETATM   23  N   UNL     1     -11.420  16.062  68.968  1.00  0.00    -0.364 NA 
HETATM   24  N   UNL     1     -12.113  16.138  71.231  1.00  0.00    -0.596 NA 
HETATM   25  C   UNL     1     -11.136  15.326  67.878  1.00  0.00    -0.321 A  
HETATM   26  H1  UNL     1     -11.988  17.150  71.271  1.00  0.00     0.000 HD 
HETATM   27  H2  UNL     1     -11.571  15.725  71.990  1.00  0.00     0.000 HD 
HETATM   28  N   UNL     1     -11.225  13.986  67.714  1.00  0.00    -0.270 NA 
HETATM   29  C   UNL     1     -11.675  13.410  68.839  1.00  0.00    -0.328 A  
ENDBRANCH  17  18
ENDBRANCH  15  17
ENDBRANCH  14  15
ENDBRANCH  13  14
ENDBRANCH  11  13
BRANCH  11  30
HETATM   30  O   UNL     1      -8.730   7.316  70.311  1.00  0.00    -0.144 OA 
BRANCH  30  31
HETATM   31  C   UNL     1      -8.107   6.244  69.699  1.00  0.00    -0.120 A  
HETATM   32  C   UNL     1      -8.570   5.886  68.432  1.00  0.00    -0.113 A  
HETATM   33  C   UNL     1      -6.523   4.408  69.611  1.00  0.00    -0.032 A  
HETATM   34  C   UNL     1      -7.074   5.507  70.286  1.00  0.00    -0.062 A  
HETATM   35  C   UNL     1      -7.003   4.042  68.355  1.00  0.00    -0.048 A  
HETATM   36  C   UNL     1      -8.026   4.781  67.767  1.00  0.00    -0.093 A  
ENDBRANCH  30  31
ENDBRANCH  11  30
ENDBRANCH   9  11
ENDBRANCH   7   9
ENDBRANCH   5   7
ENDBRANCH   4   5
ENDBRANCH   2   4
TORSDOF 12
ENDMDL
MODEL      166
REMARK 921   NORMALIZED FREE ENERGY PREDICTED BY IDOCK:   -5.13 KCAL/MOL
REMARK 922        TOTAL FREE ENERGY PREDICTED BY IDOCK:  -10.44 KCAL/MOL
REMARK 923 INTER-LIGAND FREE ENERGY PREDICTED BY IDOCK:   -8.21 KCAL/MOL
REMARK 924 INTRA-LIGAND FREE ENERGY PREDICTED BY IDOCK:   -2.24 KCAL/MOL
REMARK 927      BINDING AFFINITY PREDICTED BY RF-SCORE:    0.00 PKD
ROOT
HETATM    1  C   UNL     1     -12.245  14.470  64.333  1.00  0.00    -0.480 C  
HETATM    2  C   UNL     1     -11.937  13.022  64.724  1.00  0.00    -0.395 C  
HETATM    3  C   UNL     1     -12.288  12.061  63.581  1.00  0.00    -0.648 C  
ENDROOT
BRANCH   2   4
HETATM    4  O   UNL     1     -10.603  12.872  65.313  1.00  0.00    -0.284 OA 
BRANCH   4   5
HETATM    5  C   UNL     1     -10.281  13.572  66.428  1.00  0.00    -0.291 C  
HETATM    6  O   UNL     1      -9.385  14.418  66.452  1.00  0.00    -0.280 OA 
BRANCH   5   7
HETATM    7  C   UNL     1     -11.090  13.249  67.717  1.00  0.00    -0.265 C  
HETATM    8  C   UNL     1     -11.655  14.547  68.294  1.00  0.00    -0.358 C  
BRANCH   7   9
HETATM    9  N   UNL     1     -10.461  12.395  68.797  1.00  0.00    -0.357 NA 
HETATM   10  H   UNL     1     -10.495  12.860  69.704  1.00  0.00     0.000 HD 
BRANCH   9  11
HETATM   11  P   UNL     1     -11.183  10.790  68.874  1.00  0.00    -0.301 P  
HETATM   12  O   UNL     1     -12.632  11.331  68.951  1.00  0.00    -0.327 OA 
BRANCH  11  13
HETATM   13  C   UNL     1     -11.363  10.147  70.666  1.00  0.00    -0.352 C  
BRANCH  13  14
HETATM   14  O   UNL     1     -10.787   8.801  70.861  1.00  0.00    -0.217 OA 
BRANCH  14  15
HETATM   15  C   UNL     1     -11.554   7.744  71.498  1.00  0.00    -0.270 C  
HETATM   16  C   UNL     1     -11.103   7.578  72.955  1.00  0.00    -0.426 C  
BRANCH  15  17
HETATM   17  C   UNL     1     -11.629   6.443  70.711  1.00  0.00    -0.338 C  
BRANCH  17  18
HETATM   18  N   UNL     1     -10.786   6.378  69.549  1.00  0.00    -0.285 NA 
HETATM   19  C   UNL     1     -11.158   6.482  68.235  1.00  0.00    -0.243 A  
HETATM   20  N   UNL     1     -10.117   6.464  67.432  1.00  0.00    -0.142 NA 
HETATM   21  C   UNL     1      -9.037   6.320  68.275  1.00  0.00    -0.113 A  
HETATM   22  C   UNL     1      -7.663   6.251  68.025  1.00  0.00    -0.103 A  
HETATM   23  N   UNL     1      -6.824   6.032  69.064  1.00  0.00    -0.060 NA 
HETATM   24  N   UNL     1      -7.147   6.390  66.746  1.00  0.00    -0.071 NA 
HETATM   25  C   UNL     1      -7.356   5.940  70.297  1.00  0.00    -0.080 A  
HETATM   26  H1  UNL     1      -6.144   6.339  66.563  1.00  0.00     0.000 HD 
HETATM   27  H2  UNL     1      -7.490   7.272  66.364  1.00  0.00     0.000 HD 
HETATM   28  N   UNL     1      -8.653   6.028  70.668  1.00  0.00    -0.133 NA 
HETATM   29  C   UNL     1      -9.432   6.221  69.593  1.00  0.00    -0.146 A  
ENDBRANCH  17  18
ENDBRANCH  15  17
ENDBRANCH  14  15
ENDBRANCH  13  14
ENDBRANCH  11  13
BRANCH  11  30
HETATM   30  O   UNL     1      -9.564  10.186  68.787  1.00  0.00    -0.156 OA 
BRANCH  30  31
HETATM   31  C   UNL     1      -9.050   9.980  67.518  1.00  0.00    -0.134 A  
HETATM   32  C   UNL     1      -9.968   9.687  66.508  1.00  0.00    -0.313 A  
HETATM   33  C   UNL     1      -7.248   9.771  65.908  1.00  0.00    -0.103 A  
HETATM   34  C   UNL     1      -7.687  10.030  67.214  1.00  0.00    -0.095 A  
HETATM   35  C   UNL     1      -8.166   9.458  64.908  1.00  0.00    -0.143 A  
HETATM   36  C   UNL     1      -9.524   9.415  65.209  1.00  0.00    -0.296 A  
ENDBRANCH  30  31
ENDBRANCH  11  30
ENDBRANCH   9  11
ENDBRANCH   7   9
ENDBRANCH   5   7
ENDBRANCH   4   5
ENDBRANCH   2   4
TORSDOF 12
ENDMDL
MODEL      167
REMARK 921   NORMALIZED FREE ENERGY PREDICTED BY IDOCK:   -5.11 KCAL/MOL
REMARK 922        TOTAL FREE ENERGY PREDICTED BY IDOCK:  -10.41 KCAL/MOL
REMARK 923 INTER-LIGAND FREE ENERGY PREDICTED BY IDOCK:   -8.73 KCAL/MOL
REMARK 924 INTRA-LIGAND FREE ENERGY PREDICTED BY IDOCK:   -1.68 KCAL/MOL
REMARK 927      BINDING AFFINITY PREDICTED BY RF-SCORE:    0.00 PKD
ROOT
HETATM    1  C   UNL     1     -10.375  15.989  65.841  1.00  0.00    -0.386 C  
HETATM    2  C   UNL     1     -10.516  16.459  67.291  1.00  0.00    -0.303 C  
HETATM    3  C   UNL     1     -10.558  17.992  67.367  1.00  0.00    -0.378 C  
ENDROOT
BRANCH   2   4
HETATM    4  O   UNL     1     -11.572  15.745  68.013  1.00  0.00    -0.321 OA 
BRANCH   4   5
HETATM    5  C   UNL     1     -11.309  15.215  69.232  1.00  0.00    -0.300 C  
HETATM    6  O   UNL     1     -10.518  15.726  70.028  1.00  0.00    -0.295 OA 
BRANCH   5   7
HETATM    7  C   UNL     1     -12.044  13.894  69.597  1.00  0.00    -0.349 C  
HETATM    8  C   UNL     1     -12.989  14.151  70.770  1.00  0.00    -0.337 C  
BRANCH   7   9
HETATM    9  N   UNL     1     -11.241  12.627  69.805  1.00  0.00    -0.482 NA 
HETATM   10  H   UNL     1     -11.284  12.316  70.776  1.00  0.00     0.000 HD 
BRANCH   9  11
HETATM   11  P   UNL     1     -11.732  11.345  68.702  1.00  0.00    -0.275 P  
HETATM   12  O   UNL     1     -12.717  10.708  69.713  1.00  0.00    -0.190 OA 
BRANCH  11  13
HETATM   13  C   UNL     1     -10.632   9.787  68.845  1.00  0.00    -0.218 C  
BRANCH  13  14
HETATM   14  O   UNL     1      -9.507   9.955  69.789  1.00  0.00    -0.210 OA 
BRANCH  14  15
HETATM   15  C   UNL     1      -8.153   9.587  69.412  1.00  0.00    -0.116 C  
HETATM   16  C   UNL     1      -7.251  10.828  69.431  1.00  0.00    -0.132 C  
BRANCH  15  17
HETATM   17  C   UNL     1      -8.046   8.750  68.145  1.00  0.00    -0.107 C  
BRANCH  17  18
HETATM   18  N   UNL     1      -8.289   7.344  68.314  1.00  0.00    -0.125 NA 
HETATM   19  C   UNL     1      -8.388   6.644  69.486  1.00  0.00    -0.131 A  
HETATM   20  N   UNL     1      -8.702   5.385  69.275  1.00  0.00    -0.101 NA 
HETATM   21  C   UNL     1      -8.786   5.277  67.905  1.00  0.00    -0.102 A  
HETATM   22  C   UNL     1      -9.098   4.198  67.073  1.00  0.00    -0.143 A  
HETATM   23  N   UNL     1      -9.032   4.371  65.733  1.00  0.00    -0.124 NA 
HETATM   24  N   UNL     1      -9.460   2.962  67.587  1.00  0.00    -0.319 NA 
HETATM   25  C   UNL     1      -8.713   5.594  65.268  1.00  0.00    -0.118 A  
HETATM   26  H1  UNL     1      -9.688   2.175  66.979  1.00  0.00     0.000 HD 
HETATM   27  H2  UNL     1     -10.247   3.106  68.221  1.00  0.00     0.000 HD 
HETATM   28  N   UNL     1      -8.430   6.717  65.966  1.00  0.00    -0.137 NA 
HETATM   29  C   UNL     1      -8.490   6.473  67.284  1.00  0.00    -0.112 A  
ENDBRANCH  17  18
ENDBRANCH  15  17
ENDBRANCH  14  15
ENDBRANCH  13  14
ENDBRANCH  11  13
BRANCH  11  30
HETATM   30  O   UNL     1     -10.631  12.057  67.572  1.00  0.00    -0.213 OA 
BRANCH  30  31
HETATM   31  C   UNL     1     -11.038  12.085  66.250  1.00  0.00    -0.317 A  
HETATM   32  C   UNL     1     -12.149  12.875  65.950  1.00  0.00    -0.503 A  
HETATM   33  C   UNL     1     -10.918  11.415  63.921  1.00  0.00    -0.442 A  
HETATM   34  C   UNL     1     -10.416  11.359  65.229  1.00  0.00    -0.340 A  
HETATM   35  C   UNL     1     -12.040  12.189  63.631  1.00  0.00    -0.648 A  
HETATM   36  C   UNL     1     -12.654  12.917  64.646  1.00  0.00    -0.459 A  
ENDBRANCH  30  31
ENDBRANCH  11  30
ENDBRANCH   9  11
ENDBRANCH   7   9
ENDBRANCH   5   7
ENDBRANCH   4   5
ENDBRANCH   2   4
TORSDOF 12
ENDMDL
MODEL      168
REMARK 921   NORMALIZED FREE ENERGY PREDICTED BY IDOCK:   -5.08 KCAL/MOL
REMARK 922        TOTAL FREE ENERGY PREDICTED BY IDOCK:  -10.37 KCAL/MOL
REMARK 923 INTER-LIGAND FREE ENERGY PREDICTED BY IDOCK:   -7.97 KCAL/MOL
REMARK 924 INTRA-LIGAND FREE ENERGY PREDICTED BY IDOCK:   -2.40 KCAL/MOL
REMARK 927      BINDING AFFINITY PREDICTED BY RF-SCORE:    0.00 PKD
ROOT
HETATM    1  C   UNL     1     -14.388   8.328  71.707  1.00  0.00    -0.574 C  
HETATM    2  C   UNL     1     -12.948   7.848  71.901  1.00  0.00    -0.298 C  
HETATM    3  C   UNL     1     -12.916   6.372  72.323  1.00  0.00     0.152 C  
ENDROOT
BRANCH   2   4
HETATM    4  O   UNL     1     -12.077   8.221  70.783  1.00  0.00    -0.206 OA 
BRANCH   4   5
HETATM    5  C   UNL     1     -11.042   9.071  70.996  1.00  0.00    -0.289 C  
HETATM    6  O   UNL     1     -10.422   9.119  72.060  1.00  0.00    -0.322 OA 
BRANCH   5   7
HETATM    7  C   UNL     1     -10.664  10.023  69.825  1.00  0.00    -0.271 C  
HETATM    8  C   UNL     1     -11.904  10.803  69.391  1.00  0.00    -0.370 C  
BRANCH   7   9
HETATM    9  N   UNL     1      -9.914   9.472  68.630  1.00  0.00    -0.162 NA 
HETATM   10  H   UNL     1     -10.019  10.077  67.816  1.00  0.00     0.000 HD 
BRANCH   9  11
HETATM   11  P   UNL     1      -8.215   9.181  68.994  1.00  0.00    -0.120 P  
HETATM   12  O   UNL     1      -7.964  10.626  69.488  1.00  0.00    -0.145 OA 
BRANCH  11  13
HETATM   13  C   UNL     1      -7.071   9.528  67.501  1.00  0.00    -0.085 C  
BRANCH  13  14
HETATM   14  O   UNL     1      -7.444   8.763  66.293  1.00  0.00    -0.085 OA 
BRANCH  14  15
HETATM   15  C   UNL     1      -8.365   9.315  65.313  1.00  0.00    -0.145 C  
HETATM   16  C   UNL     1      -8.321   8.478  64.028  1.00  0.00    -0.099 C  
BRANCH  15  17
HETATM   17  C   UNL     1      -8.240  10.816  65.091  1.00  0.00    -0.034 C  
BRANCH  17  18
HETATM   18  N   UNL     1      -9.348  11.601  65.559  1.00  0.00    -0.198 NA 
HETATM   19  C   UNL     1      -9.462  12.267  66.750  1.00  0.00    -0.222 A  
HETATM   20  N   UNL     1     -10.579  12.958  66.815  1.00  0.00    -0.256 NA 
HETATM   21  C   UNL     1     -11.212  12.701  65.620  1.00  0.00    -0.309 A  
HETATM   22  C   UNL     1     -12.424  13.154  65.091  1.00  0.00    -0.483 A  
HETATM   23  N   UNL     1     -12.835  12.667  63.897  1.00  0.00    -0.732 NA 
HETATM   24  N   UNL     1     -13.213  14.075  65.763  1.00  0.00    -0.646 NA 
HETATM   25  C   UNL     1     -12.026  11.803  63.255  1.00  0.00    -0.248 A  
HETATM   26  H1  UNL     1     -14.098  14.406  65.377  1.00  0.00     0.000 HD 
HETATM   27  H2  UNL     1     -12.636  14.891  65.966  1.00  0.00     0.000 HD 
HETATM   28  N   UNL     1     -10.823  11.324  63.641  1.00  0.00    -0.373 NA 
HETATM   29  C   UNL     1     -10.486  11.825  64.839  1.00  0.00    -0.287 A  
ENDBRANCH  17  18
ENDBRANCH  15  17
ENDBRANCH  14  15
ENDBRANCH  13  14
ENDBRANCH  11  13
BRANCH  11  30
HETATM   30  O   UNL     1      -8.496   7.564  68.442  1.00  0.00    -0.124 OA 
BRANCH  30  31
HETATM   31  C   UNL     1      -8.950   6.661  69.387  1.00  0.00    -0.133 A  
HETATM   32  C   UNL     1      -8.316   6.680  70.631  1.00  0.00    -0.129 A  
HETATM   33  C   UNL     1     -10.346   4.832  70.154  1.00  0.00    -0.168 A  
HETATM   34  C   UNL     1      -9.974   5.739  69.152  1.00  0.00    -0.232 A  
HETATM   35  C   UNL     1      -9.697   4.840  71.387  1.00  0.00    -0.240 A  
HETATM   36  C   UNL     1      -8.682   5.763  71.623  1.00  0.00    -0.136 A  
ENDBRANCH  30  31
ENDBRANCH  11  30
ENDBRANCH   9  11
ENDBRANCH   7   9
ENDBRANCH   5   7
ENDBRANCH   4   5
ENDBRANCH   2   4
TORSDOF 12
ENDMDL
MODEL      169
REMARK 921   NORMALIZED FREE ENERGY PREDICTED BY IDOCK:   -5.07 KCAL/MOL
REMARK 922        TOTAL FREE ENERGY PREDICTED BY IDOCK:  -10.34 KCAL/MOL
REMARK 923 INTER-LIGAND FREE ENERGY PREDICTED BY IDOCK:   -9.27 KCAL/MOL
REMARK 924 INTRA-LIGAND FREE ENERGY PREDICTED BY IDOCK:   -1.07 KCAL/MOL
REMARK 927      BINDING AFFINITY PREDICTED BY RF-SCORE:    0.00 PKD
ROOT
HETATM    1  C   UNL     1      -9.255  10.331  62.477  1.00  0.00    -0.321 C  
HETATM    2  C   UNL     1      -9.838  10.960  63.744  1.00  0.00    -0.337 C  
HETATM    3  C   UNL     1     -11.204  11.601  63.457  1.00  0.00    -0.462 C  
ENDROOT
BRANCH   2   4
HETATM    4  O   UNL     1      -9.774  10.060  64.899  1.00  0.00    -0.296 OA 
BRANCH   4   5
HETATM    5  C   UNL     1      -8.933  10.345  65.923  1.00  0.00    -0.162 C  
HETATM    6  O   UNL     1      -8.434  11.460  66.091  1.00  0.00    -0.172 OA 
BRANCH   5   7
HETATM    7  C   UNL     1      -8.595   9.181  66.898  1.00  0.00    -0.123 C  
HETATM    8  C   UNL     1      -9.472   7.975  66.565  1.00  0.00    -0.278 C  
BRANCH   7   9
HETATM    9  N   UNL     1      -8.564   9.443  68.389  1.00  0.00    -0.123 NA 
HETATM   10  H   UNL     1      -8.552  10.443  68.589  1.00  0.00     0.000 HD 
BRANCH   9  11
HETATM   11  P   UNL     1      -9.886   8.639  69.229  1.00  0.00    -0.198 P  
HETATM   12  O   UNL     1     -10.982   9.478  68.527  1.00  0.00    -0.168 OA 
BRANCH  11  13
HETATM   13  C   UNL     1     -10.338   9.491  70.880  1.00  0.00    -0.302 C  
BRANCH  13  14
HETATM   14  O   UNL     1     -11.566   8.947  71.497  1.00  0.00    -0.272 OA 
BRANCH  14  15
HETATM   15  C   UNL     1     -12.710   9.803  71.768  1.00  0.00    -0.426 C  
HETATM   16  C   UNL     1     -13.917   8.947  72.172  1.00  0.00    -0.520 C  
BRANCH  15  17
HETATM   17  C   UNL     1     -13.004  10.838  70.691  1.00  0.00    -0.232 C  
BRANCH  17  18
HETATM   18  N   UNL     1     -12.977  12.206  71.129  1.00  0.00    -0.225 NA 
HETATM   19  C   UNL     1     -13.593  12.749  72.224  1.00  0.00    -0.465 A  
HETATM   20  N   UNL     1     -13.285  14.019  72.375  1.00  0.00    -0.456 NA 
HETATM   21  C   UNL     1     -12.453  14.299  71.314  1.00  0.00    -0.365 A  
HETATM   22  C   UNL     1     -11.789  15.468  70.934  1.00  0.00    -0.371 A  
HETATM   23  N   UNL     1     -11.081  15.468  69.781  1.00  0.00    -0.269 NA 
HETATM   24  N   UNL     1     -11.847  16.621  71.701  1.00  0.00    -0.559 NA 
HETATM   25  C   UNL     1     -11.014  14.321  69.080  1.00  0.00    -0.260 A  
HETATM   26  H1  UNL     1     -11.362  17.475  71.424  1.00  0.00     0.000 HD 
HETATM   27  H2  UNL     1     -11.546  16.384  72.647  1.00  0.00     0.000 HD 
HETATM   28  N   UNL     1     -11.576  13.123  69.361  1.00  0.00    -0.295 NA 
HETATM   29  C   UNL     1     -12.281  13.197  70.501  1.00  0.00    -0.328 A  
ENDBRANCH  17  18
ENDBRANCH  15  17
ENDBRANCH  14  15
ENDBRANCH  13  14
ENDBRANCH  11  13
BRANCH  11  30
HETATM   30  O   UNL     1      -8.661   7.700  70.013  1.00  0.00    -0.140 OA 
BRANCH  30  31
HETATM   31  C   UNL     1      -8.963   6.371  70.253  1.00  0.00    -0.154 A  
HETATM   32  C   UNL     1      -8.959   5.515  69.151  1.00  0.00    -0.120 A  
HETATM   33  C   UNL     1      -9.617   4.510  71.665  1.00  0.00    -0.222 A  
HETATM   34  C   UNL     1      -9.286   5.864  71.515  1.00  0.00    -0.157 A  
HETATM   35  C   UNL     1      -9.632   3.663  70.558  1.00  0.00    -0.256 A  
HETATM   36  C   UNL     1      -9.303   4.167  69.302  1.00  0.00    -0.237 A  
ENDBRANCH  30  31
ENDBRANCH  11  30
ENDBRANCH   9  11
ENDBRANCH   7   9
ENDBRANCH   5   7
ENDBRANCH   4   5
ENDBRANCH   2   4
TORSDOF 12
ENDMDL
MODEL      170
REMARK 921   NORMALIZED FREE ENERGY PREDICTED BY IDOCK:   -5.07 KCAL/MOL
REMARK 922        TOTAL FREE ENERGY PREDICTED BY IDOCK:  -10.34 KCAL/MOL
REMARK 923 INTER-LIGAND FREE ENERGY PREDICTED BY IDOCK:   -9.02 KCAL/MOL
REMARK 924 INTRA-LIGAND FREE ENERGY PREDICTED BY IDOCK:   -1.31 KCAL/MOL
REMARK 927      BINDING AFFINITY PREDICTED BY RF-SCORE:    0.00 PKD
ROOT
HETATM    1  C   UNL     1      -7.419   2.107  68.350  1.00  0.00    -0.047 C  
HETATM    2  C   UNL     1      -7.237   3.579  67.972  1.00  0.00    -0.051 C  
HETATM    3  C   UNL     1      -6.115   4.221  68.801  1.00  0.00    -0.031 C  
ENDROOT
BRANCH   2   4
HETATM    4  O   UNL     1      -7.170   3.782  66.523  1.00  0.00    -0.066 OA 
BRANCH   4   5
HETATM    5  C   UNL     1      -8.007   4.670  65.932  1.00  0.00    -0.099 C  
HETATM    6  O   UNL     1      -8.020   4.873  64.716  1.00  0.00    -0.090 OA 
BRANCH   5   7
HETATM    7  C   UNL     1      -8.965   5.461  66.868  1.00  0.00    -0.110 C  
HETATM    8  C   UNL     1     -10.408   5.061  66.564  1.00  0.00    -0.325 C  
BRANCH   7   9
HETATM    9  N   UNL     1      -8.823   6.964  66.982  1.00  0.00    -0.117 NA 
HETATM   10  H   UNL     1      -9.039   7.424  66.098  1.00  0.00     0.000 HD 
BRANCH   9  11
HETATM   11  P   UNL     1      -9.791   7.621  68.298  1.00  0.00    -0.177 P  
HETATM   12  O   UNL     1     -10.653   8.505  67.364  1.00  0.00    -0.277 OA 
BRANCH  11  13
HETATM   13  C   UNL     1      -9.035   9.210  69.048  1.00  0.00    -0.143 C  
BRANCH  13  14
HETATM   14  O   UNL     1     -10.015  10.305  69.197  1.00  0.00    -0.199 OA 
BRANCH  14  15
HETATM   15  C   UNL     1      -9.986  11.461  68.316  1.00  0.00    -0.198 C  
HETATM   16  C   UNL     1      -8.547  11.972  68.173  1.00  0.00    -0.173 C  
BRANCH  15  17
HETATM   17  C   UNL     1     -11.008  12.541  68.642  1.00  0.00    -0.255 C  
BRANCH  17  18
HETATM   18  N   UNL     1     -11.043  13.651  67.730  1.00  0.00    -0.265 NA 
HETATM   19  C   UNL     1     -10.530  14.906  67.915  1.00  0.00    -0.250 A  
HETATM   20  N   UNL     1     -10.665  15.650  66.839  1.00  0.00    -0.313 NA 
HETATM   21  C   UNL     1     -11.312  14.835  65.937  1.00  0.00    -0.331 A  
HETATM   22  C   UNL     1     -11.720  15.045  64.618  1.00  0.00    -0.382 A  
HETATM   23  N   UNL     1     -12.412  14.067  63.987  1.00  0.00    -0.704 NA 
HETATM   24  N   UNL     1     -11.443  16.227  63.948  1.00  0.00    -1.539 NA 
HETATM   25  C   UNL     1     -12.631  12.918  64.653  1.00  0.00    -0.391 A  
HETATM   26  H1  UNL     1     -11.742  16.381  62.985  1.00  0.00     0.000 HD 
HETATM   27  H2  UNL     1     -10.436  16.383  63.993  1.00  0.00     0.000 HD 
HETATM   28  N   UNL     1     -12.255  12.583  65.908  1.00  0.00    -0.624 NA 
HETATM   29  C   UNL     1     -11.596  13.600  66.484  1.00  0.00    -0.366 A  
ENDBRANCH  17  18
ENDBRANCH  15  17
ENDBRANCH  14  15
ENDBRANCH  13  14
ENDBRANCH  11  13
BRANCH  11  30
HETATM   30  O   UNL     1      -8.828   6.633  69.343  1.00  0.00    -0.134 OA 
BRANCH  30  31
HETATM   31  C   UNL     1      -9.437   6.188  70.503  1.00  0.00    -0.164 A  
HETATM   32  C   UNL     1     -10.822   6.336  70.584  1.00  0.00    -0.339 A  
HETATM   33  C   UNL     1      -9.432   5.240  72.736  1.00  0.00    -0.157 A  
HETATM   34  C   UNL     1      -8.742   5.630  71.580  1.00  0.00    -0.136 A  
HETATM   35  C   UNL     1     -10.813   5.409  72.821  1.00  0.00    -0.310 A  
HETATM   36  C   UNL     1     -11.506   5.957  71.745  1.00  0.00    -0.262 A  
ENDBRANCH  30  31
ENDBRANCH  11  30
ENDBRANCH   9  11
ENDBRANCH   7   9
ENDBRANCH   5   7
ENDBRANCH   4   5
ENDBRANCH   2   4
TORSDOF 12
ENDMDL
MODEL      171
REMARK 921   NORMALIZED FREE ENERGY PREDICTED BY IDOCK:   -5.04 KCAL/MOL
REMARK 922        TOTAL FREE ENERGY PREDICTED BY IDOCK:  -10.29 KCAL/MOL
REMARK 923 INTER-LIGAND FREE ENERGY PREDICTED BY IDOCK:   -8.29 KCAL/MOL
REMARK 924 INTRA-LIGAND FREE ENERGY PREDICTED BY IDOCK:   -2.00 KCAL/MOL
REMARK 927      BINDING AFFINITY PREDICTED BY RF-SCORE:    0.00 PKD
ROOT
HETATM    1  C   UNL     1      -7.546   7.690  70.324  1.00  0.00    -0.089 C  
HETATM    2  C   UNL     1      -7.711   9.167  70.690  1.00  0.00    -0.138 C  
HETATM    3  C   UNL     1      -6.353   9.882  70.705  1.00  0.00    -0.104 C  
ENDROOT
BRANCH   2   4
HETATM    4  O   UNL     1      -8.779   9.817  69.925  1.00  0.00    -0.192 OA 
BRANCH   4   5
HETATM    5  C   UNL     1     -10.074   9.566  70.237  1.00  0.00    -0.262 C  
HETATM    6  O   UNL     1     -10.496   9.563  71.395  1.00  0.00    -0.317 OA 
BRANCH   5   7
HETATM    7  C   UNL     1     -11.033   9.255  69.052  1.00  0.00    -0.033 C  
HETATM    8  C   UNL     1     -10.271   8.478  67.979  1.00  0.00    -0.264 C  
BRANCH   7   9
HETATM    9  N   UNL     1     -11.852  10.374  68.444  1.00  0.00    -0.752 NA 
HETATM   10  H   UNL     1     -12.820  10.341  68.763  1.00  0.00     0.000 HD 
BRANCH   9  11
HETATM   11  P   UNL     1     -11.135  11.955  68.743  1.00  0.00    -0.278 P  
HETATM   12  O   UNL     1     -11.958  12.202  70.031  1.00  0.00    -0.329 OA 
BRANCH  11  13
HETATM   13  C   UNL     1     -12.098  13.374  67.896  1.00  0.00    -0.251 C  
BRANCH  13  14
HETATM   14  O   UNL     1     -11.233  14.268  67.099  1.00  0.00    -0.301 OA 
BRANCH  14  15
HETATM   15  C   UNL     1     -11.632  14.708  65.772  1.00  0.00    -0.328 C  
HETATM   16  C   UNL     1     -12.225  13.531  64.989  1.00  0.00    -0.453 C  
BRANCH  15  17
HETATM   17  C   UNL     1     -10.574  15.499  65.015  1.00  0.00    -0.409 C  
BRANCH  17  18
HETATM   18  N   UNL     1     -10.134  16.708  65.655  1.00  0.00    -0.561 NA 
HETATM   19  C   UNL     1     -10.752  17.930  65.654  1.00  0.00    -0.052 A  
HETATM   20  N   UNL     1     -10.116  18.796  66.414  1.00  0.00    -0.382 NA 
HETATM   21  C   UNL     1      -9.035  18.096  66.901  1.00  0.00    -0.271 A  
HETATM   22  C   UNL     1      -8.003  18.463  67.769  1.00  0.00    -0.249 A  
HETATM   23  N   UNL     1      -7.017  17.570  68.020  1.00  0.00    -0.190 NA 
HETATM   24  N   UNL     1      -7.961  19.714  68.365  1.00  0.00    -0.334 NA 
HETATM   25  C   UNL     1      -7.109  16.352  67.455  1.00  0.00    -0.159 A  
HETATM   26  H1  UNL     1      -7.208  19.982  68.999  1.00  0.00     0.000 HD 
HETATM   27  H2  UNL     1      -8.846  19.857  68.853  1.00  0.00     0.000 HD 
HETATM   28  N   UNL     1      -8.070  15.869  66.635  1.00  0.00    -0.266 NA 
HETATM   29  C   UNL     1      -9.001  16.808  66.409  1.00  0.00    -0.289 A  
ENDBRANCH  17  18
ENDBRANCH  15  17
ENDBRANCH  14  15
ENDBRANCH  13  14
ENDBRANCH  11  13
BRANCH  11  30
HETATM   30  O   UNL     1     -10.214  11.679  67.304  1.00  0.00    -0.197 OA 
BRANCH  30  31
HETATM   31  C   UNL     1      -8.846  11.858  67.405  1.00  0.00    -0.171 A  
HETATM   32  C   UNL     1      -8.047  11.094  66.552  1.00  0.00    -0.163 A  
HETATM   33  C   UNL     1      -6.843  12.822  68.377  1.00  0.00    -0.091 A  
HETATM   34  C   UNL     1      -8.241  12.730  68.314  1.00  0.00    -0.159 A  
HETATM   35  C   UNL     1      -6.049  12.043  67.538  1.00  0.00    -0.114 A  
HETATM   36  C   UNL     1      -6.652  11.180  66.627  1.00  0.00    -0.137 A  
ENDBRANCH  30  31
ENDBRANCH  11  30
ENDBRANCH   9  11
ENDBRANCH   7   9
ENDBRANCH   5   7
ENDBRANCH   4   5
ENDBRANCH   2   4
TORSDOF 12
ENDMDL
MODEL      172
REMARK 921   NORMALIZED FREE ENERGY PREDICTED BY IDOCK:   -5.04 KCAL/MOL
REMARK 922        TOTAL FREE ENERGY PREDICTED BY IDOCK:  -10.28 KCAL/MOL
REMARK 923 INTER-LIGAND FREE ENERGY PREDICTED BY IDOCK:   -8.59 KCAL/MOL
REMARK 924 INTRA-LIGAND FREE ENERGY PREDICTED BY IDOCK:   -1.69 KCAL/MOL
REMARK 927      BINDING AFFINITY PREDICTED BY RF-SCORE:    0.00 PKD
ROOT
HETATM    1  C   UNL     1      -6.621  10.643  70.116  1.00  0.00    -0.151 C  
HETATM    2  C   UNL     1      -5.971  12.022  69.982  1.00  0.00    -0.159 C  
HETATM    3  C   UNL     1      -5.322  12.451  71.305  1.00  0.00    -0.079 C  
ENDROOT
BRANCH   2   4
HETATM    4  O   UNL     1      -5.136  12.134  68.783  1.00  0.00    -0.051 OA 
BRANCH   4   5
HETATM    5  C   UNL     1      -5.712  12.428  67.592  1.00  0.00    -0.124 C  
HETATM    6  O   UNL     1      -5.284  12.002  66.517  1.00  0.00    -0.332 OA 
BRANCH   5   7
HETATM    7  C   UNL     1      -6.956  13.361  67.625  1.00  0.00    -0.162 C  
HETATM    8  C   UNL     1      -8.141  12.643  66.980  1.00  0.00    -0.088 C  
BRANCH   7   9
HETATM    9  N   UNL     1      -6.834  14.784  67.119  1.00  0.00    -0.355 NA 
HETATM   10  H   UNL     1      -7.293  14.897  66.216  1.00  0.00     0.000 HD 
BRANCH   9  11
HETATM   11  P   UNL     1      -7.432  15.955  68.292  1.00  0.00    -0.139 P  
HETATM   12  O   UNL     1      -7.645  14.894  69.400  1.00  0.00    -0.170 OA 
BRANCH  11  13
HETATM   13  C   UNL     1      -9.328  16.189  68.198  1.00  0.00    -0.201 C  
BRANCH  13  14
HETATM   14  O   UNL     1     -10.082  15.011  68.673  1.00  0.00    -0.219 OA 
BRANCH  14  15
HETATM   15  C   UNL     1     -11.380  15.160  69.310  1.00  0.00    -0.300 C  
HETATM   16  C   UNL     1     -11.198  15.375  70.818  1.00  0.00    -0.378 C  
BRANCH  15  17
HETATM   17  C   UNL     1     -12.399  14.089  68.946  1.00  0.00    -0.071 C  
BRANCH  17  18
HETATM   18  N   UNL     1     -12.012  13.209  67.878  1.00  0.00    -0.338 NA 
HETATM   19  C   UNL     1     -11.546  11.926  67.975  1.00  0.00    -0.332 A  
HETATM   20  N   UNL     1     -11.369  11.382  66.791  1.00  0.00    -0.405 NA 
HETATM   21  C   UNL     1     -11.719  12.374  65.902  1.00  0.00    -0.419 A  
HETATM   22  C   UNL     1     -11.756  12.403  64.506  1.00  0.00    -0.362 A  
HETATM   23  N   UNL     1     -12.079  13.563  63.888  1.00  0.00    -0.566 NA 
HETATM   24  N   UNL     1     -11.463  11.281  63.746  1.00  0.00    -0.466 NA 
HETATM   25  C   UNL     1     -12.395  14.622  64.657  1.00  0.00    -0.375 A  
HETATM   26  H1  UNL     1     -11.490  11.302  62.726  1.00  0.00     0.000 HD 
HETATM   27  H2  UNL     1     -12.070  10.523  64.059  1.00  0.00     0.000 HD 
HETATM   28  N   UNL     1     -12.432  14.707  66.005  1.00  0.00    -0.142 NA 
HETATM   29  C   UNL     1     -12.081  13.535  66.555  1.00  0.00    -0.408 A  
ENDBRANCH  17  18
ENDBRANCH  15  17
ENDBRANCH  14  15
ENDBRANCH  13  14
ENDBRANCH  11  13
BRANCH  11  30
HETATM   30  O   UNL     1      -7.193  17.140  67.053  1.00  0.00    -0.154 OA 
BRANCH  30  31
HETATM   31  C   UNL     1      -6.742  18.381  67.467  1.00  0.00    -0.198 A  
HETATM   32  C   UNL     1      -7.340  19.496  66.880  1.00  0.00    -0.240 A  
HETATM   33  C   UNL     1      -5.300  19.857  68.742  1.00  0.00    -0.227 A  
HETATM   34  C   UNL     1      -5.724  18.563  68.408  1.00  0.00    -0.180 A  
HETATM   35  C   UNL     1      -5.886  20.967  68.138  1.00  0.00    -0.394 A  
HETATM   36  C   UNL     1      -6.905  20.785  67.207  1.00  0.00    -0.405 A  
ENDBRANCH  30  31
ENDBRANCH  11  30
ENDBRANCH   9  11
ENDBRANCH   7   9
ENDBRANCH   5   7
ENDBRANCH   4   5
ENDBRANCH   2   4
TORSDOF 12
ENDMDL
MODEL      173
REMARK 921   NORMALIZED FREE ENERGY PREDICTED BY IDOCK:   -5.03 KCAL/MOL
REMARK 922        TOTAL FREE ENERGY PREDICTED BY IDOCK:  -10.28 KCAL/MOL
REMARK 923 INTER-LIGAND FREE ENERGY PREDICTED BY IDOCK:  -10.20 KCAL/MOL
REMARK 924 INTRA-LIGAND FREE ENERGY PREDICTED BY IDOCK:   -0.07 KCAL/MOL
REMARK 927      BINDING AFFINITY PREDICTED BY RF-SCORE:    0.00 PKD
ROOT
HETATM    1  C   UNL     1      -5.745   9.802  66.093  1.00  0.00    -0.057 C  
HETATM    2  C   UNL     1      -6.925  10.314  65.263  1.00  0.00    -0.130 C  
HETATM    3  C   UNL     1      -7.042   9.539  63.943  1.00  0.00    -0.108 C  
ENDROOT
BRANCH   2   4
HETATM    4  O   UNL     1      -8.153  10.440  66.052  1.00  0.00    -0.131 OA 
BRANCH   4   5
HETATM    5  C   UNL     1      -8.146  11.180  67.188  1.00  0.00    -0.138 C  
HETATM    6  O   UNL     1      -7.899  12.388  67.200  1.00  0.00    -0.170 OA 
BRANCH   5   7
HETATM    7  C   UNL     1      -8.451  10.429  68.516  1.00  0.00    -0.129 C  
HETATM    8  C   UNL     1      -8.808   8.977  68.202  1.00  0.00    -0.133 C  
BRANCH   7   9
HETATM    9  N   UNL     1      -9.423  11.034  69.507  1.00  0.00    -0.379 NA 
HETATM   10  H   UNL     1      -9.167  11.993  69.739  1.00  0.00     0.000 HD 
BRANCH   9  11
HETATM   11  P   UNL     1     -11.088  10.936  68.941  1.00  0.00    -0.302 P  
HETATM   12  O   UNL     1     -11.067   9.392  68.819  1.00  0.00    -0.096 OA 
BRANCH  11  13
HETATM   13  C   UNL     1     -11.229  11.050  67.037  1.00  0.00    -0.181 C  
BRANCH  13  14
HETATM   14  O   UNL     1     -12.173  12.093  66.585  1.00  0.00    -0.566 OA 
BRANCH  14  15
HETATM   15  C   UNL     1     -11.874  12.926  65.433  1.00  0.00    -0.403 C  
HETATM   16  C   UNL     1     -12.076  12.122  64.142  1.00  0.00    -0.501 C  
BRANCH  15  17
HETATM   17  C   UNL     1     -10.549  13.671  65.509  1.00  0.00    -0.296 C  
BRANCH  17  18
HETATM   18  N   UNL     1     -10.635  15.097  65.353  1.00  0.00    -0.359 NA 
HETATM   19  C   UNL     1     -11.354  15.798  64.423  1.00  0.00    -0.265 A  
HETATM   20  N   UNL     1     -11.274  17.095  64.623  1.00  0.00    -0.959 NA 
HETATM   21  C   UNL     1     -10.448  17.223  65.717  1.00  0.00    -0.229 A  
HETATM   22  C   UNL     1      -9.997  18.345  66.417  1.00  0.00    -0.386 A  
HETATM   23  N   UNL     1      -9.118  18.168  67.431  1.00  0.00    -0.252 NA 
HETATM   24  N   UNL     1     -10.418  19.625  66.092  1.00  0.00    -0.504 NA 
HETATM   25  C   UNL     1      -8.760  16.909  67.745  1.00  0.00    -0.212 A  
HETATM   26  H1  UNL     1     -10.088  20.445  66.603  1.00  0.00     0.000 HD 
HETATM   27  H2  UNL     1     -11.438  19.634  66.112  1.00  0.00     0.000 HD 
HETATM   28  N   UNL     1      -9.154  15.749  67.172  1.00  0.00    -0.205 NA 
HETATM   29  C   UNL     1     -10.004  15.995  66.163  1.00  0.00    -0.325 A  
ENDBRANCH  17  18
ENDBRANCH  15  17
ENDBRANCH  14  15
ENDBRANCH  13  14
ENDBRANCH  11  13
BRANCH  11  30
HETATM   30  O   UNL     1     -11.112  12.661  69.077  1.00  0.00    -0.253 OA 
BRANCH  30  31
HETATM   31  C   UNL     1     -11.845  13.186  70.127  1.00  0.00    -0.257 A  
HETATM   32  C   UNL     1     -12.562  12.279  70.909  1.00  0.00    -0.334 A  
HETATM   33  C   UNL     1     -12.716  15.002  71.479  1.00  0.00    -0.414 A  
HETATM   34  C   UNL     1     -11.917  14.551  70.418  1.00  0.00    -0.386 A  
HETATM   35  C   UNL     1     -13.445  14.095  72.245  1.00  0.00    -0.578 A  
HETATM   36  C   UNL     1     -13.368  12.735  71.959  1.00  0.00    -0.565 A  
ENDBRANCH  30  31
ENDBRANCH  11  30
ENDBRANCH   9  11
ENDBRANCH   7   9
ENDBRANCH   5   7
ENDBRANCH   4   5
ENDBRANCH   2   4
TORSDOF 12
ENDMDL
MODEL      174
REMARK 921   NORMALIZED FREE ENERGY PREDICTED BY IDOCK:   -5.02 KCAL/MOL
REMARK 922        TOTAL FREE ENERGY PREDICTED BY IDOCK:  -10.26 KCAL/MOL
REMARK 923 INTER-LIGAND FREE ENERGY PREDICTED BY IDOCK:   -8.24 KCAL/MOL
REMARK 924 INTRA-LIGAND FREE ENERGY PREDICTED BY IDOCK:   -2.02 KCAL/MOL
REMARK 927      BINDING AFFINITY PREDICTED BY RF-SCORE:    0.00 PKD
ROOT
HETATM    1  C   UNL     1     -14.047  15.099  71.335  1.00  0.00    -0.598 C  
HETATM    2  C   UNL     1     -12.841  14.434  70.667  1.00  0.00    -0.328 C  
HETATM    3  C   UNL     1     -11.864  15.488  70.127  1.00  0.00    -0.378 C  
ENDROOT
BRANCH   2   4
HETATM    4  O   UNL     1     -12.258  13.372  71.492  1.00  0.00    -0.150 OA 
BRANCH   4   5
HETATM    5  C   UNL     1     -12.686  12.094  71.338  1.00  0.00    -0.263 C  
HETATM    6  O   UNL     1     -13.650  11.632  71.952  1.00  0.00    -0.259 OA 
BRANCH   5   7
HETATM    7  C   UNL     1     -11.886  11.201  70.347  1.00  0.00    -0.369 C  
HETATM    8  C   UNL     1     -11.589   9.856  71.009  1.00  0.00    -0.470 C  
BRANCH   7   9
HETATM    9  N   UNL     1     -10.655  11.762  69.666  1.00  0.00    -0.403 NA 
HETATM   10  H   UNL     1      -9.806  11.311  70.005  1.00  0.00     0.000 HD 
BRANCH   9  11
HETATM   11  P   UNL     1     -10.772  11.669  67.911  1.00  0.00    -0.231 P  
HETATM   12  O   UNL     1     -12.152  10.968  67.935  1.00  0.00    -0.600 OA 
BRANCH  11  13
HETATM   13  C   UNL     1     -10.007  10.065  67.205  1.00  0.00    -0.197 C  
BRANCH  13  14
HETATM   14  O   UNL     1     -10.085   8.924  68.141  1.00  0.00    -0.173 OA 
BRANCH  14  15
HETATM   15  C   UNL     1      -9.913   7.559  67.672  1.00  0.00    -0.171 C  
HETATM   16  C   UNL     1     -11.277   6.860  67.592  1.00  0.00    -0.153 C  
BRANCH  15  17
HETATM   17  C   UNL     1      -8.839   6.762  68.400  1.00  0.00    -0.122 C  
BRANCH  17  18
HETATM   18  N   UNL     1      -8.463   7.272  69.689  1.00  0.00    -0.132 NA 
HETATM   19  C   UNL     1      -7.374   8.041  70.002  1.00  0.00    -0.062 A  
HETATM   20  N   UNL     1      -7.383   8.403  71.267  1.00  0.00    -0.078 NA 
HETATM   21  C   UNL     1      -8.517   7.818  71.784  1.00  0.00    -0.112 A  
HETATM   22  C   UNL     1      -9.078   7.844  73.063  1.00  0.00    -0.238 A  
HETATM   23  N   UNL     1     -10.185   7.102  73.303  1.00  0.00    -0.264 NA 
HETATM   24  N   UNL     1      -8.526   8.599  74.086  1.00  0.00    -0.330 NA 
HETATM   25  C   UNL     1     -10.717   6.411  72.277  1.00  0.00    -0.222 A  
HETATM   26  H1  UNL     1      -8.935   8.618  75.021  1.00  0.00     0.000 HD 
HETATM   27  H2  UNL     1      -8.450   9.562  73.759  1.00  0.00     0.000 HD 
HETATM   28  N   UNL     1     -10.292   6.337  70.996  1.00  0.00    -0.205 NA 
HETATM   29  C   UNL     1      -9.183   7.074  70.831  1.00  0.00    -0.156 A  
ENDBRANCH  17  18
ENDBRANCH  15  17
ENDBRANCH  14  15
ENDBRANCH  13  14
ENDBRANCH  11  13
BRANCH  11  30
HETATM   30  O   UNL     1      -9.229  12.454  67.885  1.00  0.00    -0.178 OA 
BRANCH  30  31
HETATM   31  C   UNL     1      -9.239  13.827  67.720  1.00  0.00    -0.206 A  
HETATM   32  C   UNL     1      -9.894  14.321  66.591  1.00  0.00    -0.288 A  
HETATM   33  C   UNL     1      -8.645  16.097  68.338  1.00  0.00    -0.189 A  
HETATM   34  C   UNL     1      -8.620  14.720  68.600  1.00  0.00    -0.169 A  
HETATM   35  C   UNL     1      -9.283  16.584  67.198  1.00  0.00    -0.226 A  
HETATM   36  C   UNL     1      -9.906  15.695  66.326  1.00  0.00    -0.318 A  
ENDBRANCH  30  31
ENDBRANCH  11  30
ENDBRANCH   9  11
ENDBRANCH   7   9
ENDBRANCH   5   7
ENDBRANCH   4   5
ENDBRANCH   2   4
TORSDOF 12
ENDMDL
MODEL      175
REMARK 921   NORMALIZED FREE ENERGY PREDICTED BY IDOCK:   -5.01 KCAL/MOL
REMARK 922        TOTAL FREE ENERGY PREDICTED BY IDOCK:  -10.25 KCAL/MOL
REMARK 923 INTER-LIGAND FREE ENERGY PREDICTED BY IDOCK:   -8.85 KCAL/MOL
REMARK 924 INTRA-LIGAND FREE ENERGY PREDICTED BY IDOCK:   -1.40 KCAL/MOL
REMARK 927      BINDING AFFINITY PREDICTED BY RF-SCORE:    0.00 PKD
ROOT
HETATM    1  C   UNL     1     -12.283  14.289  64.879  1.00  0.00    -0.449 C  
HETATM    2  C   UNL     1     -12.654  12.805  64.938  1.00  0.00    -0.470 C  
HETATM    3  C   UNL     1     -12.569  12.165  63.546  1.00  0.00    -0.621 C  
ENDROOT
BRANCH   2   4
HETATM    4  O   UNL     1     -11.966  12.097  66.021  1.00  0.00    -0.578 OA 
BRANCH   4   5
HETATM    5  C   UNL     1     -10.696  12.441  66.345  1.00  0.00    -0.247 C  
HETATM    6  O   UNL     1      -9.795  12.542  65.510  1.00  0.00    -0.250 OA 
BRANCH   5   7
HETATM    7  C   UNL     1     -10.400  12.696  67.851  1.00  0.00    -0.218 C  
HETATM    8  C   UNL     1     -10.472  14.196  68.131  1.00  0.00    -0.244 C  
BRANCH   7   9
HETATM    9  N   UNL     1      -9.172  12.076  68.483  1.00  0.00    -0.336 NA 
HETATM   10  H   UNL     1      -8.778  12.684  69.201  1.00  0.00     0.000 HD 
BRANCH   9  11
HETATM   11  P   UNL     1      -9.497  10.466  69.120  1.00  0.00    -0.163 P  
HETATM   12  O   UNL     1      -8.031   9.994  68.966  1.00  0.00    -0.092 OA 
BRANCH  11  13
HETATM   13  C   UNL     1     -10.005   9.223  67.757  1.00  0.00    -0.190 C  
BRANCH  13  14
HETATM   14  O   UNL     1      -9.013   8.147  67.555  1.00  0.00    -0.136 OA 
BRANCH  14  15
HETATM   15  C   UNL     1      -9.345   6.760  67.836  1.00  0.00    -0.113 C  
HETATM   16  C   UNL     1     -10.848   6.631  68.116  1.00  0.00    -0.334 C  
BRANCH  15  17
HETATM   17  C   UNL     1      -8.453   6.084  68.868  1.00  0.00    -0.116 C  
BRANCH  17  18
HETATM   18  N   UNL     1      -9.089   5.762  70.116  1.00  0.00    -0.139 NA 
HETATM   19  C   UNL     1      -9.846   4.661  70.412  1.00  0.00    -0.236 A  
HETATM   20  N   UNL     1     -10.203   4.643  71.678  1.00  0.00    -0.188 NA 
HETATM   21  C   UNL     1      -9.666   5.797  72.202  1.00  0.00    -0.152 A  
HETATM   22  C   UNL     1      -9.687   6.331  73.493  1.00  0.00    -0.168 A  
HETATM   23  N   UNL     1      -9.123   7.543  73.705  1.00  0.00    -0.231 NA 
HETATM   24  N   UNL     1     -10.277   5.657  74.552  1.00  0.00    -0.272 NA 
HETATM   25  C   UNL     1      -8.526   8.153  72.663  1.00  0.00    -0.190 A  
HETATM   26  H1  UNL     1     -10.292   6.047  75.494  1.00  0.00     0.000 HD 
HETATM   27  H2  UNL     1      -9.857   4.729  74.604  1.00  0.00     0.000 HD 
HETATM   28  N   UNL     1      -8.407   7.724  71.386  1.00  0.00    -0.108 NA 
HETATM   29  C   UNL     1      -9.005   6.532  71.239  1.00  0.00    -0.141 A  
ENDBRANCH  17  18
ENDBRANCH  15  17
ENDBRANCH  14  15
ENDBRANCH  13  14
ENDBRANCH  11  13
BRANCH  11  30
HETATM   30  O   UNL     1     -11.137  10.994  69.292  1.00  0.00    -0.218 OA 
BRANCH  30  31
HETATM   31  C   UNL     1     -11.853  10.445  70.340  1.00  0.00    -0.328 A  
HETATM   32  C   UNL     1     -11.494   9.158  70.743  1.00  0.00    -0.337 A  
HETATM   33  C   UNL     1     -13.609  10.452  72.015  1.00  0.00    -0.257 A  
HETATM   34  C   UNL     1     -12.909  11.097  70.985  1.00  0.00    -0.424 A  
HETATM   35  C   UNL     1     -13.260   9.159  72.399  1.00  0.00    -0.512 A  
HETATM   36  C   UNL     1     -12.204   8.513  71.763  1.00  0.00    -0.388 A  
ENDBRANCH  30  31
ENDBRANCH  11  30
ENDBRANCH   9  11
ENDBRANCH   7   9
ENDBRANCH   5   7
ENDBRANCH   4   5
ENDBRANCH   2   4
TORSDOF 12
ENDMDL
MODEL      176
REMARK 921   NORMALIZED FREE ENERGY PREDICTED BY IDOCK:   -5.01 KCAL/MOL
REMARK 922        TOTAL FREE ENERGY PREDICTED BY IDOCK:  -10.24 KCAL/MOL
REMARK 923 INTER-LIGAND FREE ENERGY PREDICTED BY IDOCK:   -8.62 KCAL/MOL
REMARK 924 INTRA-LIGAND FREE ENERGY PREDICTED BY IDOCK:   -1.62 KCAL/MOL
REMARK 927      BINDING AFFINITY PREDICTED BY RF-SCORE:    0.00 PKD
ROOT
HETATM    1  C   UNL     1     -10.133   6.530  74.293  1.00  0.00    -0.379 C  
HETATM    2  C   UNL     1     -10.642   6.803  72.876  1.00  0.00    -0.250 C  
HETATM    3  C   UNL     1     -11.683   5.755  72.458  1.00  0.00    -0.280 C  
ENDROOT
BRANCH   2   4
HETATM    4  O   UNL     1     -11.017   8.205  72.674  1.00  0.00    -0.351 OA 
BRANCH   4   5
HETATM    5  C   UNL     1     -10.356   8.948  71.753  1.00  0.00    -0.356 C  
HETATM    6  O   UNL     1      -9.126   8.983  71.677  1.00  0.00    -0.300 OA 
BRANCH   5   7
HETATM    7  C   UNL     1     -11.226   9.793  70.778  1.00  0.00    -0.348 C  
HETATM    8  C   UNL     1     -12.552  10.135  71.456  1.00  0.00    -0.537 C  
BRANCH   7   9
HETATM    9  N   UNL     1     -11.442   9.306  69.361  1.00  0.00    -0.417 NA 
HETATM   10  H   UNL     1     -12.427   9.354  69.099  1.00  0.00     0.000 HD 
BRANCH   9  11
HETATM   11  P   UNL     1     -10.431  10.169  68.205  1.00  0.00    -0.243 P  
HETATM   12  O   UNL     1      -9.196   9.269  68.454  1.00  0.00    -0.132 OA 
BRANCH  11  13
HETATM   13  C   UNL     1      -9.484  11.629  68.999  1.00  0.00     0.139 C  
BRANCH  13  14
HETATM   14  O   UNL     1      -8.051  11.655  68.642  1.00  0.00    -0.150 OA 
BRANCH  14  15
HETATM   15  C   UNL     1      -7.570  12.465  67.535  1.00  0.00    -0.155 C  
HETATM   16  C   UNL     1      -7.177  11.561  66.360  1.00  0.00     0.064 C  
BRANCH  15  17
HETATM   17  C   UNL     1      -6.520  13.501  67.910  1.00  0.00    -0.154 C  
BRANCH  17  18
HETATM   18  N   UNL     1      -7.035  14.746  68.409  1.00  0.00    -0.107 NA 
HETATM   19  C   UNL     1      -6.709  15.382  69.577  1.00  0.00    -0.174 A  
HETATM   20  N   UNL     1      -7.308  16.548  69.679  1.00  0.00     0.005 NA 
HETATM   21  C   UNL     1      -8.065  16.647  68.533  1.00  0.00    -0.226 A  
HETATM   22  C   UNL     1      -8.908  17.654  68.057  1.00  0.00    -0.257 A  
HETATM   23  N   UNL     1      -9.592  17.442  66.909  1.00  0.00    -0.267 NA 
HETATM   24  N   UNL     1      -9.066  18.853  68.736  1.00  0.00    -0.338 NA 
HETATM   25  C   UNL     1      -9.386  16.282  66.256  1.00  0.00    -0.326 A  
HETATM   26  H1  UNL     1      -9.682  19.589  68.389  1.00  0.00     0.000 HD 
HETATM   27  H2  UNL     1      -8.141  19.259  68.873  1.00  0.00     0.000 HD 
HETATM   28  N   UNL     1      -8.573  15.255  66.592  1.00  0.00    -0.278 NA 
HETATM   29  C   UNL     1      -7.945  15.518  67.748  1.00  0.00    -0.143 A  
ENDBRANCH  17  18
ENDBRANCH  15  17
ENDBRANCH  14  15
ENDBRANCH  13  14
ENDBRANCH  11  13
BRANCH  11  30
HETATM   30  O   UNL     1     -11.812  11.175  67.927  1.00  0.00    -0.601 OA 
BRANCH  30  31
HETATM   31  C   UNL     1     -11.763  11.993  66.812  1.00  0.00    -0.264 A  
HETATM   32  C   UNL     1     -11.152  11.468  65.672  1.00  0.00    -0.261 A  
HETATM   33  C   UNL     1     -12.142  14.072  65.621  1.00  0.00    -0.432 A  
HETATM   34  C   UNL     1     -12.267  13.297  66.782  1.00  0.00    -0.340 A  
HETATM   35  C   UNL     1     -11.513  13.551  64.492  1.00  0.00    -0.407 A  
HETATM   36  C   UNL     1     -11.018  12.250  64.519  1.00  0.00    -0.358 A  
ENDBRANCH  30  31
ENDBRANCH  11  30
ENDBRANCH   9  11
ENDBRANCH   7   9
ENDBRANCH   5   7
ENDBRANCH   4   5
ENDBRANCH   2   4
TORSDOF 12
ENDMDL
MODEL      177
REMARK 921   NORMALIZED FREE ENERGY PREDICTED BY IDOCK:   -5.00 KCAL/MOL
REMARK 922        TOTAL FREE ENERGY PREDICTED BY IDOCK:  -10.23 KCAL/MOL
REMARK 923 INTER-LIGAND FREE ENERGY PREDICTED BY IDOCK:   -9.53 KCAL/MOL
REMARK 924 INTRA-LIGAND FREE ENERGY PREDICTED BY IDOCK:   -0.70 KCAL/MOL
REMARK 927      BINDING AFFINITY PREDICTED BY RF-SCORE:    0.00 PKD
ROOT
HETATM    1  C   UNL     1     -10.388  20.061  65.878  1.00  0.00    -0.529 C  
HETATM    2  C   UNL     1      -8.881  19.836  66.021  1.00  0.00    -0.258 C  
HETATM    3  C   UNL     1      -8.331  20.580  67.245  1.00  0.00    -0.355 C  
ENDROOT
BRANCH   2   4
HETATM    4  O   UNL     1      -8.510  18.423  65.899  1.00  0.00    -0.497 OA 
BRANCH   4   5
HETATM    5  C   UNL     1      -8.568  17.620  66.990  1.00  0.00    -0.237 C  
HETATM    6  O   UNL     1      -7.563  17.185  67.556  1.00  0.00    -0.164 OA 
BRANCH   5   7
HETATM    7  C   UNL     1      -9.985  17.242  67.508  1.00  0.00    -0.296 C  
HETATM    8  C   UNL     1     -10.212  17.891  68.873  1.00  0.00    -0.331 C  
BRANCH   7   9
HETATM    9  N   UNL     1     -10.414  15.789  67.512  1.00  0.00    -0.282 NA 
HETATM   10  H   UNL     1      -9.903  15.251  66.812  1.00  0.00     0.000 HD 
BRANCH   9  11
HETATM   11  P   UNL     1     -10.268  15.062  69.109  1.00  0.00    -0.219 P  
HETATM   12  O   UNL     1      -8.753  14.781  68.958  1.00  0.00    -0.183 OA 
BRANCH  11  13
HETATM   13  C   UNL     1     -10.585  13.175  69.092  1.00  0.00     0.033 C  
BRANCH  13  14
HETATM   14  O   UNL     1      -9.565  12.422  68.333  1.00  0.00    -0.216 OA 
BRANCH  14  15
HETATM   15  C   UNL     1      -9.797  11.045  67.932  1.00  0.00    -0.171 C  
HETATM   16  C   UNL     1     -10.913  10.988  66.881  1.00  0.00    -0.311 C  
BRANCH  15  17
HETATM   17  C   UNL     1      -9.966  10.063  69.083  1.00  0.00    -0.204 C  
BRANCH  17  18
HETATM   18  N   UNL     1      -9.411   8.756  68.864  1.00  0.00    -0.145 NA 
HETATM   19  C   UNL     1      -8.361   8.415  68.055  1.00  0.00    -0.128 A  
HETATM   20  N   UNL     1      -8.063   7.138  68.157  1.00  0.00    -0.122 NA 
HETATM   21  C   UNL     1      -8.980   6.643  69.057  1.00  0.00    -0.130 A  
HETATM   22  C   UNL     1      -9.170   5.363  69.585  1.00  0.00    -0.118 A  
HETATM   23  N   UNL     1     -10.219   5.150  70.413  1.00  0.00    -0.259 NA 
HETATM   24  N   UNL     1      -8.319   4.313  69.274  1.00  0.00    -0.073 NA 
HETATM   25  C   UNL     1     -11.002   6.200  70.723  1.00  0.00    -0.302 A  
HETATM   26  H1  UNL     1      -8.457   3.378  69.660  1.00  0.00     0.000 HD 
HETATM   27  H2  UNL     1      -7.367   4.606  69.497  1.00  0.00     0.000 HD 
HETATM   28  N   UNL     1     -10.900   7.483  70.310  1.00  0.00    -0.243 NA 
HETATM   29  C   UNL     1      -9.857   7.621  69.477  1.00  0.00    -0.178 A  
ENDBRANCH  17  18
ENDBRANCH  15  17
ENDBRANCH  14  15
ENDBRANCH  13  14
ENDBRANCH  11  13
BRANCH  11  30
HETATM   30  O   UNL     1     -11.961  15.376  69.278  1.00  0.00    -0.332 OA 
BRANCH  30  31
HETATM   31  C   UNL     1     -12.444  15.471  70.571  1.00  0.00    -0.427 A  
HETATM   32  C   UNL     1     -11.578  15.999  71.529  1.00  0.00    -0.529 A  
HETATM   33  C   UNL     1     -14.118  15.149  72.297  1.00  0.00    -0.633 A  
HETATM   34  C   UNL     1     -13.721  15.052  70.956  1.00  0.00    -0.417 A  
HETATM   35  C   UNL     1     -13.242  15.658  73.254  1.00  0.00    -0.666 A  
HETATM   36  C   UNL     1     -11.973  16.081  72.869  1.00  0.00    -0.611 A  
ENDBRANCH  30  31
ENDBRANCH  11  30
ENDBRANCH   9  11
ENDBRANCH   7   9
ENDBRANCH   5   7
ENDBRANCH   4   5
ENDBRANCH   2   4
TORSDOF 12
ENDMDL
MODEL      178
REMARK 921   NORMALIZED FREE ENERGY PREDICTED BY IDOCK:   -4.99 KCAL/MOL
REMARK 922        TOTAL FREE ENERGY PREDICTED BY IDOCK:  -10.21 KCAL/MOL
REMARK 923 INTER-LIGAND FREE ENERGY PREDICTED BY IDOCK:   -8.95 KCAL/MOL
REMARK 924 INTRA-LIGAND FREE ENERGY PREDICTED BY IDOCK:   -1.26 KCAL/MOL
REMARK 927      BINDING AFFINITY PREDICTED BY RF-SCORE:    0.00 PKD
ROOT
HETATM    1  C   UNL     1     -12.911  10.528  71.312  1.00  0.00    -0.532 C  
HETATM    2  C   UNL     1     -12.926   9.057  71.734  1.00  0.00    -0.377 C  
HETATM    3  C   UNL     1     -14.365   8.533  71.839  1.00  0.00    -0.536 C  
ENDROOT
BRANCH   2   4
HETATM    4  O   UNL     1     -11.993   8.239  70.953  1.00  0.00    -0.273 OA 
BRANCH   4   5
HETATM    5  C   UNL     1     -10.870   7.759  71.541  1.00  0.00    -0.227 C  
HETATM    6  O   UNL     1     -10.093   8.470  72.182  1.00  0.00    -0.276 OA 
BRANCH   5   7
HETATM    7  C   UNL     1     -10.577   6.242  71.360  1.00  0.00    -0.237 C  
HETATM    8  C   UNL     1     -11.315   5.455  72.442  1.00  0.00    -0.242 C  
BRANCH   7   9
HETATM    9  N   UNL     1      -9.144   5.773  71.218  1.00  0.00    -0.139 NA 
HETATM   10  H   UNL     1      -9.030   4.821  71.569  1.00  0.00     0.000 HD 
BRANCH   9  11
HETATM   11  P   UNL     1      -8.563   5.917  69.562  1.00  0.00    -0.117 P  
HETATM   12  O   UNL     1      -7.438   6.915  69.933  1.00  0.00    -0.089 OA 
BRANCH  11  13
HETATM   13  C   UNL     1      -9.437   7.315  68.593  1.00  0.00    -0.137 C  
BRANCH  13  14
HETATM   14  O   UNL     1      -8.519   8.079  67.722  1.00  0.00    -0.126 OA 
BRANCH  14  15
HETATM   15  C   UNL     1      -8.791   9.466  67.383  1.00  0.00    -0.128 C  
HETATM   16  C   UNL     1      -8.139  10.393  68.417  1.00  0.00    -0.112 C  
BRANCH  15  17
HETATM   17  C   UNL     1     -10.251   9.780  67.089  1.00  0.00    -0.228 C  
BRANCH  17  18
HETATM   18  N   UNL     1     -10.482  10.631  65.955  1.00  0.00    -0.217 NA 
HETATM   19  C   UNL     1     -10.045  10.453  64.670  1.00  0.00    -0.308 A  
HETATM   20  N   UNL     1     -10.512  11.383  63.865  1.00  0.00    -0.353 NA 
HETATM   21  C   UNL     1     -11.262  12.199  64.682  1.00  0.00    -0.323 A  
HETATM   22  C   UNL     1     -12.017  13.344  64.415  1.00  0.00    -0.411 A  
HETATM   23  N   UNL     1     -12.602  13.993  65.449  1.00  0.00    -0.560 NA 
HETATM   24  N   UNL     1     -12.171  13.832  63.127  1.00  0.00    -1.066 NA 
HETATM   25  C   UNL     1     -12.464  13.470  66.682  1.00  0.00    -0.208 A  
HETATM   26  H1  UNL     1     -12.722  14.668  62.931  1.00  0.00     0.000 HD 
HETATM   27  H2  UNL     1     -12.534  13.075  62.547  1.00  0.00     0.000 HD 
HETATM   28  N   UNL     1     -11.797  12.357  67.060  1.00  0.00    -0.546 NA 
HETATM   29  C   UNL     1     -11.223  11.776  65.995  1.00  0.00    -0.296 A  
ENDBRANCH  17  18
ENDBRANCH  15  17
ENDBRANCH  14  15
ENDBRANCH  13  14
ENDBRANCH  11  13
BRANCH  11  30
HETATM   30  O   UNL     1      -9.819   4.802  69.148  1.00  0.00    -0.175 OA 
BRANCH  30  31
HETATM   31  C   UNL     1      -9.516   3.866  68.175  1.00  0.00    -0.161 A  
HETATM   32  C   UNL     1      -8.876   2.701  68.600  1.00  0.00    -0.154 A  
HETATM   33  C   UNL     1      -9.418   3.057  65.890  1.00  0.00    -0.016 A  
HETATM   34  C   UNL     1      -9.795   4.040  66.816  1.00  0.00    -0.163 A  
HETATM   35  C   UNL     1      -8.761   1.904  66.317  1.00  0.00    -0.116 A  
HETATM   36  C   UNL     1      -8.491   1.728  67.671  1.00  0.00    -0.093 A  
ENDBRANCH  30  31
ENDBRANCH  11  30
ENDBRANCH   9  11
ENDBRANCH   7   9
ENDBRANCH   5   7
ENDBRANCH   4   5
ENDBRANCH   2   4
TORSDOF 12
ENDMDL
MODEL      179
REMARK 921   NORMALIZED FREE ENERGY PREDICTED BY IDOCK:   -4.98 KCAL/MOL
REMARK 922        TOTAL FREE ENERGY PREDICTED BY IDOCK:  -10.18 KCAL/MOL
REMARK 923 INTER-LIGAND FREE ENERGY PREDICTED BY IDOCK:   -8.36 KCAL/MOL
REMARK 924 INTRA-LIGAND FREE ENERGY PREDICTED BY IDOCK:   -1.82 KCAL/MOL
REMARK 927      BINDING AFFINITY PREDICTED BY RF-SCORE:    0.00 PKD
ROOT
HETATM    1  C   UNL     1     -14.351  14.429  72.123  1.00  0.00    -0.604 C  
HETATM    2  C   UNL     1     -13.226  14.316  71.091  1.00  0.00    -0.321 C  
HETATM    3  C   UNL     1     -12.655  15.699  70.752  1.00  0.00    -0.482 C  
ENDROOT
BRANCH   2   4
HETATM    4  O   UNL     1     -12.251  13.278  71.436  1.00  0.00    -0.184 OA 
BRANCH   4   5
HETATM    5  C   UNL     1     -12.287  12.085  70.793  1.00  0.00    -0.308 C  
HETATM    6  O   UNL     1     -12.855  11.092  71.254  1.00  0.00    -0.394 OA 
BRANCH   5   7
HETATM    7  C   UNL     1     -11.553  12.003  69.424  1.00  0.00    -0.330 C  
HETATM    8  C   UNL     1     -11.101  10.564  69.181  1.00  0.00    -0.302 C  
BRANCH   7   9
HETATM    9  N   UNL     1     -10.445  12.988  69.114  1.00  0.00    -0.437 NA 
HETATM   10  H   UNL     1      -9.565  12.507  68.926  1.00  0.00     0.000 HD 
BRANCH   9  11
HETATM   11  P   UNL     1     -10.876  14.072  67.795  1.00  0.00    -0.257 P  
HETATM   12  O   UNL     1     -12.182  13.313  67.457  1.00  0.00    -0.304 OA 
BRANCH  11  13
HETATM   13  C   UNL     1     -10.155  13.512  66.114  1.00  0.00    -0.304 C  
BRANCH  13  14
HETATM   14  O   UNL     1      -9.380  12.257  66.204  1.00  0.00    -0.230 OA 
BRANCH  14  15
HETATM   15  C   UNL     1      -9.330  11.327  65.088  1.00  0.00    -0.189 C  
HETATM   16  C   UNL     1     -10.735  10.782  64.800  1.00  0.00    -0.168 C  
BRANCH  15  17
HETATM   17  C   UNL     1      -8.250  10.259  65.192  1.00  0.00    -0.161 C  
BRANCH  17  18
HETATM   18  N   UNL     1      -8.088   9.673  66.494  1.00  0.00    -0.118 NA 
HETATM   19  C   UNL     1      -7.409  10.185  67.566  1.00  0.00    -0.089 A  
HETATM   20  N   UNL     1      -7.536   9.423  68.631  1.00  0.00    -0.080 NA 
HETATM   21  C   UNL     1      -8.315   8.369  68.208  1.00  0.00    -0.131 A  
HETATM   22  C   UNL     1      -8.807   7.246  68.878  1.00  0.00    -0.127 A  
HETATM   23  N   UNL     1      -9.502   6.322  68.175  1.00  0.00    -0.114 NA 
HETATM   24  N   UNL     1      -8.593   7.055  70.234  1.00  0.00    -0.139 NA 
HETATM   25  C   UNL     1      -9.724   6.558  66.868  1.00  0.00    -0.158 A  
HETATM   26  H1  UNL     1      -8.952   6.235  70.724  1.00  0.00     0.000 HD 
HETATM   27  H2  UNL     1      -8.930   7.884  70.724  1.00  0.00     0.000 HD 
HETATM   28  N   UNL     1      -9.336   7.616  66.121  1.00  0.00    -0.127 NA 
HETATM   29  C   UNL     1      -8.635   8.481  66.870  1.00  0.00    -0.117 A  
ENDBRANCH  17  18
ENDBRANCH  15  17
ENDBRANCH  14  15
ENDBRANCH  13  14
ENDBRANCH  11  13
BRANCH  11  30
HETATM   30  O   UNL     1      -9.416  14.922  68.173  1.00  0.00    -0.194 OA 
BRANCH  30  31
HETATM   31  C   UNL     1      -9.464  16.301  68.079  1.00  0.00    -0.223 A  
HETATM   32  C   UNL     1      -8.347  17.002  68.534  1.00  0.00    -0.260 A  
HETATM   33  C   UNL     1     -10.545  18.410  67.559  1.00  0.00    -0.447 A  
HETATM   34  C   UNL     1     -10.564  17.008  67.583  1.00  0.00    -0.333 A  
HETATM   35  C   UNL     1      -9.435  19.106  68.033  1.00  0.00    -0.390 A  
HETATM   36  C   UNL     1      -8.338  18.402  68.520  1.00  0.00    -0.344 A  
ENDBRANCH  30  31
ENDBRANCH  11  30
ENDBRANCH   9  11
ENDBRANCH   7   9
ENDBRANCH   5   7
ENDBRANCH   4   5
ENDBRANCH   2   4
TORSDOF 12
ENDMDL
MODEL      180
REMARK 921   NORMALIZED FREE ENERGY PREDICTED BY IDOCK:   -4.97 KCAL/MOL
REMARK 922        TOTAL FREE ENERGY PREDICTED BY IDOCK:  -10.17 KCAL/MOL
REMARK 923 INTER-LIGAND FREE ENERGY PREDICTED BY IDOCK:  -10.35 KCAL/MOL
REMARK 924 INTRA-LIGAND FREE ENERGY PREDICTED BY IDOCK:    0.18 KCAL/MOL
REMARK 927      BINDING AFFINITY PREDICTED BY RF-SCORE:    0.00 PKD
ROOT
HETATM    1  C   UNL     1      -7.133   8.497  70.606  1.00  0.00    -0.047 C  
HETATM    2  C   UNL     1      -7.727   9.810  70.089  1.00  0.00    -0.177 C  
HETATM    3  C   UNL     1      -6.629  10.863  69.883  1.00  0.00    -0.148 C  
ENDROOT
BRANCH   2   4
HETATM    4  O   UNL     1      -8.648   9.606  68.968  1.00  0.00    -0.122 OA 
BRANCH   4   5
HETATM    5  C   UNL     1      -9.986   9.667  69.181  1.00  0.00    -0.185 C  
HETATM    6  O   UNL     1     -10.499   9.460  70.283  1.00  0.00    -0.214 OA 
BRANCH   5   7
HETATM    7  C   UNL     1     -10.878   9.999  67.951  1.00  0.00    -0.271 C  
HETATM    8  C   UNL     1      -9.992  10.477  66.802  1.00  0.00    -0.252 C  
BRANCH   7   9
HETATM    9  N   UNL     1     -12.085  10.897  68.127  1.00  0.00    -0.790 NA 
HETATM   10  H   UNL     1     -12.606  10.656  68.970  1.00  0.00     0.000 HD 
BRANCH   9  11
HETATM   11  P   UNL     1     -11.646  12.603  68.111  1.00  0.00    -0.350 P  
HETATM   12  O   UNL     1     -11.725  12.717  66.569  1.00  0.00    -0.361 OA 
BRANCH  11  13
HETATM   13  C   UNL     1      -9.756  12.878  68.001  1.00  0.00    -0.224 C  
BRANCH  13  14
HETATM   14  O   UNL     1      -9.301  14.077  68.734  1.00  0.00    -0.164 OA 
BRANCH  14  15
HETATM   15  C   UNL     1      -8.229  14.909  68.214  1.00  0.00    -0.145 C  
HETATM   16  C   UNL     1      -7.216  14.042  67.456  1.00  0.00    -0.183 C  
BRANCH  15  17
HETATM   17  C   UNL     1      -7.609  15.862  69.227  1.00  0.00    -0.221 C  
BRANCH  17  18
HETATM   18  N   UNL     1      -7.222  17.145  68.708  1.00  0.00    -0.222 NA 
HETATM   19  C   UNL     1      -5.959  17.583  68.409  1.00  0.00    -0.168 A  
HETATM   20  N   UNL     1      -5.976  18.783  67.871  1.00  0.00    -0.193 NA 
HETATM   21  C   UNL     1      -7.309  19.130  67.847  1.00  0.00    -0.250 A  
HETATM   22  C   UNL     1      -7.966  20.272  67.382  1.00  0.00    -0.329 A  
HETATM   23  N   UNL     1      -9.304  20.368  67.557  1.00  0.00    -0.378 NA 
HETATM   24  N   UNL     1      -7.281  21.304  66.759  1.00  0.00    -0.759 NA 
HETATM   25  C   UNL     1      -9.943  19.332  68.132  1.00  0.00    -0.391 A  
HETATM   26  H1  UNL     1      -7.761  22.138  66.420  1.00  0.00     0.000 HD 
HETATM   27  H2  UNL     1      -6.757  20.906  65.980  1.00  0.00     0.000 HD 
HETATM   28  N   UNL     1      -9.428  18.166  68.584  1.00  0.00    -0.323 NA 
HETATM   29  C   UNL     1      -8.099  18.144  68.402  1.00  0.00    -0.303 A  
ENDBRANCH  17  18
ENDBRANCH  15  17
ENDBRANCH  14  15
ENDBRANCH  13  14
ENDBRANCH  11  13
BRANCH  11  30
HETATM   30  O   UNL     1     -11.558  12.475  69.835  1.00  0.00    -0.255 OA 
BRANCH  30  31
HETATM   31  C   UNL     1     -12.343  13.355  70.559  1.00  0.00    -0.329 A  
HETATM   32  C   UNL     1     -13.067  12.822  71.626  1.00  0.00    -0.428 A  
HETATM   33  C   UNL     1     -13.306  15.533  71.025  1.00  0.00    -0.495 A  
HETATM   34  C   UNL     1     -12.457  14.717  70.263  1.00  0.00    -0.393 A  
HETATM   35  C   UNL     1     -14.043  14.992  72.077  1.00  0.00    -0.633 A  
HETATM   36  C   UNL     1     -13.923  13.638  72.376  1.00  0.00    -0.651 A  
ENDBRANCH  30  31
ENDBRANCH  11  30
ENDBRANCH   9  11
ENDBRANCH   7   9
ENDBRANCH   5   7
ENDBRANCH   4   5
ENDBRANCH   2   4
TORSDOF 12
ENDMDL
MODEL      181
REMARK 921   NORMALIZED FREE ENERGY PREDICTED BY IDOCK:   -4.96 KCAL/MOL
REMARK 922        TOTAL FREE ENERGY PREDICTED BY IDOCK:  -10.15 KCAL/MOL
REMARK 923 INTER-LIGAND FREE ENERGY PREDICTED BY IDOCK:   -8.85 KCAL/MOL
REMARK 924 INTRA-LIGAND FREE ENERGY PREDICTED BY IDOCK:   -1.31 KCAL/MOL
REMARK 927      BINDING AFFINITY PREDICTED BY RF-SCORE:    0.00 PKD
ROOT
HETATM    1  C   UNL     1     -13.314   9.767  72.093  1.00  0.00    -0.527 C  
HETATM    2  C   UNL     1     -13.019  11.054  71.318  1.00  0.00    -0.372 C  
HETATM    3  C   UNL     1     -13.408  12.289  72.143  1.00  0.00    -0.473 C  
ENDROOT
BRANCH   2   4
HETATM    4  O   UNL     1     -11.676  11.062  70.732  1.00  0.00    -0.313 OA 
BRANCH   4   5
HETATM    5  C   UNL     1     -11.532  10.954  69.389  1.00  0.00    -0.302 C  
HETATM    6  O   UNL     1     -12.365  11.384  68.588  1.00  0.00    -0.491 OA 
BRANCH   5   7
HETATM    7  C   UNL     1     -10.252  10.234  68.876  1.00  0.00    -0.205 C  
HETATM    8  C   UNL     1     -10.119   8.884  69.579  1.00  0.00    -0.198 C  
BRANCH   7   9
HETATM    9  N   UNL     1      -8.934  10.979  68.862  1.00  0.00    -0.296 NA 
HETATM   10  H   UNL     1      -8.182  10.409  69.250  1.00  0.00     0.000 HD 
BRANCH   9  11
HETATM   11  P   UNL     1      -8.524  11.566  67.252  1.00  0.00    -0.165 P  
HETATM   12  O   UNL     1      -7.618  12.703  67.782  1.00  0.00    -0.115 OA 
BRANCH  11  13
HETATM   13  C   UNL     1      -9.751  12.887  66.615  1.00  0.00    -0.254 C  
BRANCH  13  14
HETATM   14  O   UNL     1      -9.324  14.269  66.916  1.00  0.00    -0.235 OA 
BRANCH  14  15
HETATM   15  C   UNL     1     -10.252  15.231  67.488  1.00  0.00    -0.239 C  
HETATM   16  C   UNL     1     -11.520  14.512  67.966  1.00  0.00    -0.345 C  
BRANCH  15  17
HETATM   17  C   UNL     1     -10.512  16.460  66.627  1.00  0.00    -0.274 C  
BRANCH  17  18
HETATM   18  N   UNL     1      -9.887  17.671  67.081  1.00  0.00    -0.295 NA 
HETATM   19  C   UNL     1     -10.404  18.618  67.925  1.00  0.00    -0.398 A  
HETATM   20  N   UNL     1      -9.526  19.558  68.196  1.00  0.00    -0.344 NA 
HETATM   21  C   UNL     1      -8.408  19.203  67.475  1.00  0.00    -0.287 A  
HETATM   22  C   UNL     1      -7.147  19.793  67.361  1.00  0.00    -0.219 A  
HETATM   23  N   UNL     1      -6.250  19.251  66.505  1.00  0.00    -0.176 NA 
HETATM   24  N   UNL     1      -6.800  20.919  68.092  1.00  0.00    -0.197 NA 
HETATM   25  C   UNL     1      -6.606  18.136  65.839  1.00  0.00    -0.281 A  
HETATM   26  H1  UNL     1      -5.879  21.350  68.009  1.00  0.00     0.000 HD 
HETATM   27  H2  UNL     1      -6.961  20.713  69.078  1.00  0.00     0.000 HD 
HETATM   28  N   UNL     1      -7.773  17.455  65.893  1.00  0.00    -0.511 NA 
HETATM   29  C   UNL     1      -8.623  18.056  66.739  1.00  0.00    -0.255 A  
ENDBRANCH  17  18
ENDBRANCH  15  17
ENDBRANCH  14  15
ENDBRANCH  13  14
ENDBRANCH  11  13
BRANCH  11  30
HETATM   30  O   UNL     1      -9.538  10.294  66.659  1.00  0.00    -0.165 OA 
BRANCH  30  31
HETATM   31  C   UNL     1      -8.978   9.449  65.717  1.00  0.00    -0.186 A  
HETATM   32  C   UNL     1      -8.930   8.092  66.038  1.00  0.00    -0.205 A  
HETATM   33  C   UNL     1      -7.867   8.966  63.615  1.00  0.00    -0.141 A  
HETATM   34  C   UNL     1      -8.452   9.886  64.497  1.00  0.00    -0.181 A  
HETATM   35  C   UNL     1      -7.803   7.615  63.949  1.00  0.00    -0.122 A  
HETATM   36  C   UNL     1      -8.334   7.179  65.160  1.00  0.00    -0.081 A  
ENDBRANCH  30  31
ENDBRANCH  11  30
ENDBRANCH   9  11
ENDBRANCH   7   9
ENDBRANCH   5   7
ENDBRANCH   4   5
ENDBRANCH   2   4
TORSDOF 12
ENDMDL
MODEL      182
REMARK 921   NORMALIZED FREE ENERGY PREDICTED BY IDOCK:   -4.95 KCAL/MOL
REMARK 922        TOTAL FREE ENERGY PREDICTED BY IDOCK:  -10.14 KCAL/MOL
REMARK 923 INTER-LIGAND FREE ENERGY PREDICTED BY IDOCK:   -8.79 KCAL/MOL
REMARK 924 INTRA-LIGAND FREE ENERGY PREDICTED BY IDOCK:   -1.34 KCAL/MOL
REMARK 927      BINDING AFFINITY PREDICTED BY RF-SCORE:    0.00 PKD
ROOT
HETATM    1  C   UNL     1     -14.372  14.221  72.202  1.00  0.00    -0.608 C  
HETATM    2  C   UNL     1     -13.223  15.199  71.949  1.00  0.00    -0.384 C  
HETATM    3  C   UNL     1     -12.748  15.836  73.263  1.00  0.00    -0.640 C  
ENDROOT
BRANCH   2   4
HETATM    4  O   UNL     1     -12.182  14.632  71.089  1.00  0.00    -0.302 OA 
BRANCH   4   5
HETATM    5  C   UNL     1     -11.851  15.261  69.934  1.00  0.00    -0.335 C  
HETATM    6  O   UNL     1     -12.601  15.305  68.957  1.00  0.00     0.043 OA 
BRANCH   5   7
HETATM    7  C   UNL     1     -10.447  15.929  69.876  1.00  0.00    -0.310 C  
HETATM    8  C   UNL     1     -10.493  17.113  68.912  1.00  0.00    -0.346 C  
BRANCH   7   9
HETATM    9  N   UNL     1      -9.223  15.070  69.636  1.00  0.00    -0.455 NA 
HETATM   10  H   UNL     1      -9.364  14.120  69.980  1.00  0.00     0.000 HD 
BRANCH   9  11
HETATM   11  P   UNL     1      -8.738  15.071  67.942  1.00  0.00    -0.167 P  
HETATM   12  O   UNL     1     -10.001  14.308  67.471  1.00  0.00    -0.231 OA 
BRANCH  11  13
HETATM   13  C   UNL     1      -7.684  13.545  67.476  1.00  0.00    -0.175 C  
BRANCH  13  14
HETATM   14  O   UNL     1      -8.463  12.483  66.807  1.00  0.00    -0.163 OA 
BRANCH  14  15
HETATM   15  C   UNL     1      -8.254  11.082  67.135  1.00  0.00    -0.133 C  
HETATM   16  C   UNL     1      -6.994  10.565  66.431  1.00  0.00    -0.124 C  
BRANCH  15  17
HETATM   17  C   UNL     1      -9.480  10.195  66.964  1.00  0.00    -0.167 C  
BRANCH  17  18
HETATM   18  N   UNL     1      -9.893   9.484  68.143  1.00  0.00    -0.151 NA 
HETATM   19  C   UNL     1      -9.505   8.235  68.548  1.00  0.00    -0.146 A  
HETATM   20  N   UNL     1     -10.013   7.926  69.722  1.00  0.00    -0.184 NA 
HETATM   21  C   UNL     1     -10.774   9.021  70.065  1.00  0.00    -0.229 A  
HETATM   22  C   UNL     1     -11.544   9.302  71.197  1.00  0.00    -0.327 A  
HETATM   23  N   UNL     1     -12.256  10.453  71.230  1.00  0.00    -0.380 NA 
HETATM   24  N   UNL     1     -11.603   8.430  72.274  1.00  0.00    -0.367 NA 
HETATM   25  C   UNL     1     -12.146  11.294  70.184  1.00  0.00    -0.366 A  
HETATM   26  H1  UNL     1     -12.165   8.635  73.100  1.00  0.00     0.000 HD 
HETATM   27  H2  UNL     1     -10.647   8.250  72.582  1.00  0.00     0.000 HD 
HETATM   28  N   UNL     1     -11.410  11.153  69.059  1.00  0.00    -0.248 NA 
HETATM   29  C   UNL     1     -10.750   9.985  69.079  1.00  0.00    -0.220 A  
ENDBRANCH  17  18
ENDBRANCH  15  17
ENDBRANCH  14  15
ENDBRANCH  13  14
ENDBRANCH  11  13
BRANCH  11  30
HETATM   30  O   UNL     1      -7.328  15.924  68.469  1.00  0.00    -0.119 OA 
BRANCH  30  31
HETATM   31  C   UNL     1      -7.076  17.137  67.852  1.00  0.00    -0.162 A  
HETATM   32  C   UNL     1      -7.121  18.275  68.659  1.00  0.00    -0.285 A  
HETATM   33  C   UNL     1      -6.600  18.546  65.935  1.00  0.00    -0.299 A  
HETATM   34  C   UNL     1      -6.806  17.273  66.487  1.00  0.00    -0.292 A  
HETATM   35  C   UNL     1      -6.667  19.681  66.741  1.00  0.00    -0.206 A  
HETATM   36  C   UNL     1      -6.928  19.544  68.102  1.00  0.00    -0.314 A  
ENDBRANCH  30  31
ENDBRANCH  11  30
ENDBRANCH   9  11
ENDBRANCH   7   9
ENDBRANCH   5   7
ENDBRANCH   4   5
ENDBRANCH   2   4
TORSDOF 12
ENDMDL
MODEL      183
REMARK 921   NORMALIZED FREE ENERGY PREDICTED BY IDOCK:   -4.91 KCAL/MOL
REMARK 922        TOTAL FREE ENERGY PREDICTED BY IDOCK:  -10.07 KCAL/MOL
REMARK 923 INTER-LIGAND FREE ENERGY PREDICTED BY IDOCK:   -9.31 KCAL/MOL
REMARK 924 INTRA-LIGAND FREE ENERGY PREDICTED BY IDOCK:   -0.76 KCAL/MOL
REMARK 927      BINDING AFFINITY PREDICTED BY RF-SCORE:    0.00 PKD
ROOT
HETATM    1  C   UNL     1      -8.506   5.020  63.919  1.00  0.00    -0.129 C  
HETATM    2  C   UNL     1      -9.301   5.183  65.216  1.00  0.00    -0.040 C  
HETATM    3  C   UNL     1     -10.542   4.279  65.213  1.00  0.00    -0.165 C  
ENDROOT
BRANCH   2   4
HETATM    4  O   UNL     1      -8.452   5.114  66.408  1.00  0.00    -0.112 OA 
BRANCH   4   5
HETATM    5  C   UNL     1      -7.828   6.234  66.850  1.00  0.00    -0.104 C  
HETATM    6  O   UNL     1      -6.810   6.687  66.322  1.00  0.00    -0.057 OA 
BRANCH   5   7
HETATM    7  C   UNL     1      -8.446   6.937  68.092  1.00  0.00    -0.124 C  
HETATM    8  C   UNL     1      -9.782   6.279  68.430  1.00  0.00    -0.130 C  
BRANCH   7   9
HETATM    9  N   UNL     1      -8.555   8.448  68.115  1.00  0.00    -0.138 NA 
HETATM   10  H   UNL     1      -8.011   8.870  67.362  1.00  0.00     0.000 HD 
BRANCH   9  11
HETATM   11  P   UNL     1     -10.230   8.989  68.076  1.00  0.00    -0.219 P  
HETATM   12  O   UNL     1     -10.373   8.778  66.548  1.00  0.00    -0.279 OA 
BRANCH  11  13
HETATM   13  C   UNL     1     -10.389  10.875  67.796  1.00  0.00    -0.187 C  
BRANCH  13  14
HETATM   14  O   UNL     1     -11.432  11.229  66.810  1.00  0.00    -0.407 OA 
BRANCH  14  15
HETATM   15  C   UNL     1     -11.515  12.572  66.259  1.00  0.00    -0.370 C  
HETATM   16  C   UNL     1     -12.332  12.553  64.962  1.00  0.00    -0.522 C  
BRANCH  15  17
HETATM   17  C   UNL     1     -10.184  13.304  66.155  1.00  0.00    -0.296 C  
BRANCH  17  18
HETATM   18  N   UNL     1     -10.274  14.737  66.091  1.00  0.00    -0.283 NA 
HETATM   19  C   UNL     1     -10.399  15.522  64.976  1.00  0.00    -0.293 A  
HETATM   20  N   UNL     1     -10.541  16.791  65.289  1.00  0.00    -0.648 NA 
HETATM   21  C   UNL     1     -10.482  16.815  66.665  1.00  0.00    -0.258 A  
HETATM   22  C   UNL     1     -10.584  17.862  67.584  1.00  0.00    -0.387 A  
HETATM   23  N   UNL     1     -10.413  17.592  68.899  1.00  0.00    -0.333 NA 
HETATM   24  N   UNL     1     -10.844  19.163  67.181  1.00  0.00    -0.460 NA 
HETATM   25  C   UNL     1     -10.199  16.312  69.259  1.00  0.00    -0.269 A  
HETATM   26  H1  UNL     1     -10.918  19.928  67.852  1.00  0.00     0.000 HD 
HETATM   27  H2  UNL     1     -11.698  19.152  66.623  1.00  0.00     0.000 HD 
HETATM   28  N   UNL     1     -10.119  15.215  68.474  1.00  0.00    -0.222 NA 
HETATM   29  C   UNL     1     -10.273  15.553  67.184  1.00  0.00    -0.260 A  
ENDBRANCH  17  18
ENDBRANCH  15  17
ENDBRANCH  14  15
ENDBRANCH  13  14
ENDBRANCH  11  13
BRANCH  11  30
HETATM   30  O   UNL     1     -10.071   9.225  69.783  1.00  0.00    -0.185 OA 
BRANCH  30  31
HETATM   31  C   UNL     1     -11.219   9.059  70.537  1.00  0.00    -0.260 A  
HETATM   32  C   UNL     1     -11.887  10.220  70.930  1.00  0.00    -0.473 A  
HETATM   33  C   UNL     1     -12.867   7.737  71.730  1.00  0.00    -0.352 A  
HETATM   34  C   UNL     1     -11.717   7.814  70.932  1.00  0.00    -0.281 A  
HETATM   35  C   UNL     1     -13.519   8.900  72.137  1.00  0.00    -0.497 A  
HETATM   36  C   UNL     1     -13.028  10.140  71.737  1.00  0.00    -0.567 A  
ENDBRANCH  30  31
ENDBRANCH  11  30
ENDBRANCH   9  11
ENDBRANCH   7   9
ENDBRANCH   5   7
ENDBRANCH   4   5
ENDBRANCH   2   4
TORSDOF 12
ENDMDL
MODEL      184
REMARK 921   NORMALIZED FREE ENERGY PREDICTED BY IDOCK:   -4.91 KCAL/MOL
REMARK 922        TOTAL FREE ENERGY PREDICTED BY IDOCK:  -10.06 KCAL/MOL
REMARK 923 INTER-LIGAND FREE ENERGY PREDICTED BY IDOCK:   -8.57 KCAL/MOL
REMARK 924 INTRA-LIGAND FREE ENERGY PREDICTED BY IDOCK:   -1.49 KCAL/MOL
REMARK 927      BINDING AFFINITY PREDICTED BY RF-SCORE:    0.00 PKD
ROOT
HETATM    1  C   UNL     1      -7.051   9.428  67.091  1.00  0.00    -0.086 C  
HETATM    2  C   UNL     1      -7.475  10.210  68.337  1.00  0.00    -0.086 C  
HETATM    3  C   UNL     1      -7.530   9.291  69.566  1.00  0.00    -0.079 C  
ENDROOT
BRANCH   2   4
HETATM    4  O   UNL     1      -6.728  11.460  68.496  1.00  0.00    -0.062 OA 
BRANCH   4   5
HETATM    5  C   UNL     1      -6.762  12.390  67.510  1.00  0.00    -0.146 C  
HETATM    6  O   UNL     1      -5.922  12.444  66.610  1.00  0.00    -0.162 OA 
BRANCH   5   7
HETATM    7  C   UNL     1      -7.921  13.427  67.564  1.00  0.00    -0.183 C  
HETATM    8  C   UNL     1      -9.126  12.875  66.804  1.00  0.00    -0.211 C  
BRANCH   7   9
HETATM    9  N   UNL     1      -7.648  14.869  67.189  1.00  0.00    -0.273 NA 
HETATM   10  H   UNL     1      -8.141  15.129  66.334  1.00  0.00     0.000 HD 
BRANCH   9  11
HETATM   11  P   UNL     1      -8.024  15.976  68.506  1.00  0.00    -0.182 P  
HETATM   12  O   UNL     1      -6.892  15.442  69.418  1.00  0.00    -0.147 OA 
BRANCH  11  13
HETATM   13  C   UNL     1      -9.304  15.257  69.731  1.00  0.00    -0.075 C  
BRANCH  13  14
HETATM   14  O   UNL     1     -10.701  15.447  69.289  1.00  0.00    -0.226 OA 
BRANCH  14  15
HETATM   15  C   UNL     1     -11.748  15.784  70.239  1.00  0.00    -0.358 C  
HETATM   16  C   UNL     1     -11.176  15.797  71.662  1.00  0.00    -0.284 C  
BRANCH  15  17
HETATM   17  C   UNL     1     -13.034  14.985  70.085  1.00  0.00    -0.084 C  
BRANCH  17  18
HETATM   18  N   UNL     1     -13.160  13.848  70.954  1.00  0.00    -0.244 NA 
HETATM   19  C   UNL     1     -13.866  13.760  72.124  1.00  0.00    -0.554 A  
HETATM   20  N   UNL     1     -13.834  12.542  72.620  1.00  0.00    -0.184 NA 
HETATM   21  C   UNL     1     -13.054  11.832  71.735  1.00  0.00    -0.375 A  
HETATM   22  C   UNL     1     -12.664  10.490  71.707  1.00  0.00    -0.402 A  
HETATM   23  N   UNL     1     -11.819  10.079  70.733  1.00  0.00    -0.321 NA 
HETATM   24  N   UNL     1     -13.113   9.580  72.652  1.00  0.00    -0.481 NA 
HETATM   25  C   UNL     1     -11.432  10.980  69.810  1.00  0.00    -0.311 A  
HETATM   26  H1  UNL     1     -12.828   8.601  72.632  1.00  0.00     0.000 HD 
HETATM   27  H2  UNL     1     -14.133   9.610  72.655  1.00  0.00     0.000 HD 
HETATM   28  N   UNL     1     -11.769  12.285  69.709  1.00  0.00    -0.312 NA 
HETATM   29  C   UNL     1     -12.588  12.633  70.714  1.00  0.00    -0.217 A  
ENDBRANCH  17  18
ENDBRANCH  15  17
ENDBRANCH  14  15
ENDBRANCH  13  14
ENDBRANCH  11  13
BRANCH  11  30
HETATM   30  O   UNL     1      -9.288  16.573  67.486  1.00  0.00    -0.216 OA 
BRANCH  30  31
HETATM   31  C   UNL     1      -9.356  17.946  67.329  1.00  0.00    -0.258 A  
HETATM   32  C   UNL     1     -10.618  18.531  67.443  1.00  0.00    -0.463 A  
HETATM   33  C   UNL     1      -8.411  20.132  66.863  1.00  0.00    -0.376 A  
HETATM   34  C   UNL     1      -8.248  18.751  67.046  1.00  0.00    -0.271 A  
HETATM   35  C   UNL     1      -9.676  20.709  66.958  1.00  0.00    -0.485 A  
HETATM   36  C   UNL     1     -10.778  19.908  67.247  1.00  0.00    -0.460 A  
ENDBRANCH  30  31
ENDBRANCH  11  30
ENDBRANCH   9  11
ENDBRANCH   7   9
ENDBRANCH   5   7
ENDBRANCH   4   5
ENDBRANCH   2   4
TORSDOF 12
ENDMDL
MODEL      185
REMARK 921   NORMALIZED FREE ENERGY PREDICTED BY IDOCK:   -4.90 KCAL/MOL
REMARK 922        TOTAL FREE ENERGY PREDICTED BY IDOCK:  -10.06 KCAL/MOL
REMARK 923 INTER-LIGAND FREE ENERGY PREDICTED BY IDOCK:   -8.56 KCAL/MOL
REMARK 924 INTRA-LIGAND FREE ENERGY PREDICTED BY IDOCK:   -1.50 KCAL/MOL
REMARK 927      BINDING AFFINITY PREDICTED BY RF-SCORE:    0.00 PKD
ROOT
HETATM    1  C   UNL     1      -6.317  10.623  70.180  1.00  0.00    -0.139 C  
HETATM    2  C   UNL     1      -6.078  12.099  69.851  1.00  0.00    -0.146 C  
HETATM    3  C   UNL     1      -5.551  12.854  71.079  1.00  0.00    -0.136 C  
ENDROOT
BRANCH   2   4
HETATM    4  O   UNL     1      -5.328  12.281  68.605  1.00  0.00    -0.053 OA 
BRANCH   4   5
HETATM    5  C   UNL     1      -5.996  12.376  67.429  1.00  0.00    -0.154 C  
HETATM    6  O   UNL     1      -5.562  11.914  66.373  1.00  0.00    -0.284 OA 
BRANCH   5   7
HETATM    7  C   UNL     1      -7.360  13.125  67.456  1.00  0.00    -0.148 C  
HETATM    8  C   UNL     1      -8.448  12.206  66.903  1.00  0.00    -0.173 C  
BRANCH   7   9
HETATM    9  N   UNL     1      -7.458  14.514  66.862  1.00  0.00    -0.292 NA 
HETATM   10  H   UNL     1      -7.864  14.490  65.927  1.00  0.00     0.000 HD 
BRANCH   9  11
HETATM   11  P   UNL     1      -8.339  15.620  67.913  1.00  0.00    -0.153 P  
HETATM   12  O   UNL     1      -8.129  14.753  69.178  1.00  0.00    -0.156 OA 
BRANCH  11  13
HETATM   13  C   UNL     1     -10.209  15.227  67.995  1.00  0.00    -0.230 C  
BRANCH  13  14
HETATM   14  O   UNL     1     -10.563  14.315  69.103  1.00  0.00    -0.236 OA 
BRANCH  14  15
HETATM   15  C   UNL     1     -11.942  14.166  69.538  1.00  0.00    -0.340 C  
HETATM   16  C   UNL     1     -12.409  15.447  70.238  1.00  0.00    -0.425 C  
BRANCH  15  17
HETATM   17  C   UNL     1     -12.235  12.885  70.307  1.00  0.00    -0.289 C  
BRANCH  17  18
HETATM   18  N   UNL     1     -11.889  11.667  69.628  1.00  0.00    -0.330 NA 
HETATM   19  C   UNL     1     -11.737  11.470  68.281  1.00  0.00    -0.301 A  
HETATM   20  N   UNL     1     -11.332  10.248  68.012  1.00  0.00    -0.299 NA 
HETATM   21  C   UNL     1     -11.243   9.636  69.242  1.00  0.00    -0.047 A  
HETATM   22  C   UNL     1     -10.855   8.347  69.615  1.00  0.00    -0.148 A  
HETATM   23  N   UNL     1     -10.936   7.996  70.920  1.00  0.00    -0.239 NA 
HETATM   24  N   UNL     1     -10.402   7.424  68.685  1.00  0.00    -0.195 NA 
HETATM   25  C   UNL     1     -11.344   8.928  71.801  1.00  0.00    -0.361 A  
HETATM   26  H1  UNL     1     -10.119   6.482  68.957  1.00  0.00     0.000 HD 
HETATM   27  H2  UNL     1      -9.627   7.849  68.175  1.00  0.00     0.000 HD 
HETATM   28  N   UNL     1     -11.707  10.210  71.570  1.00  0.00    -0.301 NA 
HETATM   29  C   UNL     1     -11.626  10.486  70.259  1.00  0.00    -0.332 A  
ENDBRANCH  17  18
ENDBRANCH  15  17
ENDBRANCH  14  15
ENDBRANCH  13  14
ENDBRANCH  11  13
BRANCH  11  30
HETATM   30  O   UNL     1      -8.574  16.590  66.499  1.00  0.00    -0.228 OA 
BRANCH  30  31
HETATM   31  C   UNL     1      -8.879  17.923  66.710  1.00  0.00    -0.258 A  
HETATM   32  C   UNL     1     -10.149  18.347  66.314  1.00  0.00    -0.409 A  
HETATM   33  C   UNL     1      -8.367  20.188  67.410  1.00  0.00    -0.390 A  
HETATM   34  C   UNL     1      -7.989  18.845  67.267  1.00  0.00    -0.261 A  
HETATM   35  C   UNL     1      -9.628  20.612  66.995  1.00  0.00    -0.484 A  
HETATM   36  C   UNL     1     -10.517  19.691  66.447  1.00  0.00    -0.618 A  
ENDBRANCH  30  31
ENDBRANCH  11  30
ENDBRANCH   9  11
ENDBRANCH   7   9
ENDBRANCH   5   7
ENDBRANCH   4   5
ENDBRANCH   2   4
TORSDOF 12
ENDMDL
MODEL      186
REMARK 921   NORMALIZED FREE ENERGY PREDICTED BY IDOCK:   -4.90 KCAL/MOL
REMARK 922        TOTAL FREE ENERGY PREDICTED BY IDOCK:  -10.06 KCAL/MOL
REMARK 923 INTER-LIGAND FREE ENERGY PREDICTED BY IDOCK:   -7.87 KCAL/MOL
REMARK 924 INTRA-LIGAND FREE ENERGY PREDICTED BY IDOCK:   -2.19 KCAL/MOL
REMARK 927      BINDING AFFINITY PREDICTED BY RF-SCORE:    0.00 PKD
ROOT
HETATM    1  C   UNL     1     -10.929  15.519  65.160  1.00  0.00    -0.422 C  
HETATM    2  C   UNL     1     -11.285  14.346  66.076  1.00  0.00    -0.333 C  
HETATM    3  C   UNL     1     -12.569  13.651  65.601  1.00  0.00    -0.531 C  
ENDROOT
BRANCH   2   4
HETATM    4  O   UNL     1     -10.137  13.475  66.345  1.00  0.00    -0.279 OA 
BRANCH   4   5
HETATM    5  C   UNL     1      -9.811  13.174  67.626  1.00  0.00    -0.219 C  
HETATM    6  O   UNL     1      -9.495  14.029  68.455  1.00  0.00    -0.211 OA 
BRANCH   5   7
HETATM    7  C   UNL     1      -9.832  11.669  68.020  1.00  0.00    -0.190 C  
HETATM    8  C   UNL     1     -11.278  11.227  68.243  1.00  0.00    -0.331 C  
BRANCH   7   9
HETATM    9  N   UNL     1      -8.929  11.178  69.131  1.00  0.00    -0.388 NA 
HETATM   10  H   UNL     1      -9.067  11.716  69.986  1.00  0.00     0.000 HD 
BRANCH   9  11
HETATM   11  P   UNL     1      -9.122   9.452  69.425  1.00  0.00    -0.184 P  
HETATM   12  O   UNL     1      -9.430   9.636  70.931  1.00  0.00    -0.189 OA 
BRANCH  11  13
HETATM   13  C   UNL     1      -7.478   8.596  69.900  1.00  0.00    -0.056 C  
BRANCH  13  14
HETATM   14  O   UNL     1      -7.598   7.730  71.091  1.00  0.00    -0.076 OA 
BRANCH  14  15
HETATM   15  C   UNL     1      -7.485   6.285  70.980  1.00  0.00    -0.085 C  
HETATM   16  C   UNL     1      -7.558   5.868  69.506  1.00  0.00    -0.088 C  
BRANCH  15  17
HETATM   17  C   UNL     1      -8.405   5.498  71.903  1.00  0.00    -0.119 C  
BRANCH  17  18
HETATM   18  N   UNL     1      -9.479   6.251  72.490  1.00  0.00    -0.144 NA 
HETATM   19  C   UNL     1      -9.522   6.824  73.732  1.00  0.00    -0.188 A  
HETATM   20  N   UNL     1     -10.627   7.514  73.911  1.00  0.00    -0.190 NA 
HETATM   21  C   UNL     1     -11.327   7.353  72.736  1.00  0.00    -0.308 A  
HETATM   22  C   UNL     1     -12.561   7.851  72.311  1.00  0.00    -0.194 A  
HETATM   23  N   UNL     1     -13.040   7.460  71.107  1.00  0.00    -0.277 NA 
HETATM   24  N   UNL     1     -13.304   8.722  73.093  1.00  0.00    -0.887 NA 
HETATM   25  C   UNL     1     -12.276   6.644  70.358  1.00  0.00    -0.069 A  
HETATM   26  H1  UNL     1     -14.205   9.086  72.783  1.00  0.00     0.000 HD 
HETATM   27  H2  UNL     1     -12.709   9.517  73.326  1.00  0.00     0.000 HD 
HETATM   28  N   UNL     1     -11.058   6.129  70.640  1.00  0.00    -0.308 NA 
HETATM   29  C   UNL     1     -10.652   6.535  71.853  1.00  0.00    -0.210 A  
ENDBRANCH  17  18
ENDBRANCH  15  17
ENDBRANCH  14  15
ENDBRANCH  13  14
ENDBRANCH  11  13
BRANCH  11  30
HETATM   30  O   UNL     1      -8.778   9.247  67.741  1.00  0.00    -0.120 OA 
BRANCH  30  31
HETATM   31  C   UNL     1      -9.203   8.062  67.166  1.00  0.00    -0.142 A  
HETATM   32  C   UNL     1     -10.476   7.612  67.519  1.00  0.00    -0.336 A  
HETATM   33  C   UNL     1      -8.919   6.093  65.777  1.00  0.00    -0.099 A  
HETATM   34  C   UNL     1      -8.426   7.303  66.285  1.00  0.00    -0.135 A  
HETATM   35  C   UNL     1     -10.182   5.638  66.149  1.00  0.00    -0.093 A  
HETATM   36  C   UNL     1     -10.959   6.397  67.019  1.00  0.00    -0.463 A  
ENDBRANCH  30  31
ENDBRANCH  11  30
ENDBRANCH   9  11
ENDBRANCH   7   9
ENDBRANCH   5   7
ENDBRANCH   4   5
ENDBRANCH   2   4
TORSDOF 12
ENDMDL
MODEL      187
REMARK 921   NORMALIZED FREE ENERGY PREDICTED BY IDOCK:   -4.90 KCAL/MOL
REMARK 922        TOTAL FREE ENERGY PREDICTED BY IDOCK:  -10.05 KCAL/MOL
REMARK 923 INTER-LIGAND FREE ENERGY PREDICTED BY IDOCK:   -8.28 KCAL/MOL
REMARK 924 INTRA-LIGAND FREE ENERGY PREDICTED BY IDOCK:   -1.78 KCAL/MOL
REMARK 927      BINDING AFFINITY PREDICTED BY RF-SCORE:    0.00 PKD
ROOT
HETATM    1  C   UNL     1     -10.316   6.934  66.875  1.00  0.00    -0.332 C  
HETATM    2  C   UNL     1      -9.152   6.022  67.267  1.00  0.00    -0.111 C  
HETATM    3  C   UNL     1      -8.378   5.560  66.024  1.00  0.00    -0.122 C  
ENDROOT
BRANCH   2   4
HETATM    4  O   UNL     1      -8.349   6.574  68.362  1.00  0.00    -0.116 OA 
BRANCH   4   5
HETATM    5  C   UNL     1      -8.970   7.136  69.428  1.00  0.00    -0.136 C  
HETATM    6  O   UNL     1      -9.714   6.504  70.180  1.00  0.00    -0.166 OA 
BRANCH   5   7
HETATM    7  C   UNL     1      -8.716   8.652  69.669  1.00  0.00    -0.132 C  
HETATM    8  C   UNL     1      -9.121   9.009  71.098  1.00  0.00    -0.316 C  
BRANCH   7   9
HETATM    9  N   UNL     1      -9.251   9.663  68.676  1.00  0.00    -0.134 NA 
HETATM   10  H   UNL     1      -9.793  10.390  69.144  1.00  0.00     0.000 HD 
BRANCH   9  11
HETATM   11  P   UNL     1      -7.971  10.357  67.685  1.00  0.00    -0.106 P  
HETATM   12  O   UNL     1      -6.842   9.609  68.435  1.00  0.00    -0.060 OA 
BRANCH  11  13
HETATM   13  C   UNL     1      -7.303  12.004  68.391  1.00  0.00    -0.096 C  
BRANCH  13  14
HETATM   14  O   UNL     1      -8.115  13.175  68.001  1.00  0.00    -0.134 OA 
BRANCH  14  15
HETATM   15  C   UNL     1      -7.710  14.522  68.367  1.00  0.00    -0.128 C  
HETATM   16  C   UNL     1      -6.739  14.470  69.554  1.00  0.00    -0.151 C  
BRANCH  15  17
HETATM   17  C   UNL     1      -8.855  15.511  68.534  1.00  0.00    -0.186 C  
BRANCH  17  18
HETATM   18  N   UNL     1      -9.560  15.846  67.327  1.00  0.00    -0.216 NA 
HETATM   19  C   UNL     1      -9.301  16.875  66.462  1.00  0.00    -0.270 A  
HETATM   20  N   UNL     1     -10.091  16.836  65.411  1.00  0.00    -0.596 NA 
HETATM   21  C   UNL     1     -10.902  15.745  65.631  1.00  0.00    -0.307 A  
HETATM   22  C   UNL     1     -11.929  15.179  64.871  1.00  0.00    -0.185 A  
HETATM   23  N   UNL     1     -12.612  14.128  65.382  1.00  0.00    -0.535 NA 
HETATM   24  N   UNL     1     -12.266  15.672  63.620  1.00  0.00    -0.932 NA 
HETATM   25  C   UNL     1     -12.233  13.651  66.582  1.00  0.00    -0.389 A  
HETATM   26  H1  UNL     1     -13.016  15.259  63.065  1.00  0.00     0.000 HD 
HETATM   27  H2  UNL     1     -11.422  15.679  63.049  1.00  0.00     0.000 HD 
HETATM   28  N   UNL     1     -11.239  14.084  67.390  1.00  0.00    -0.300 NA 
HETATM   29  C   UNL     1     -10.619  15.138  66.838  1.00  0.00    -0.297 A  
ENDBRANCH  17  18
ENDBRANCH  15  17
ENDBRANCH  14  15
ENDBRANCH  13  14
ENDBRANCH  11  13
BRANCH  11  30
HETATM   30  O   UNL     1      -9.234  11.192  66.847  1.00  0.00    -0.164 OA 
BRANCH  30  31
HETATM   31  C   UNL     1      -9.331  10.958  65.487  1.00  0.00    -0.206 A  
HETATM   32  C   UNL     1      -9.943  11.950  64.719  1.00  0.00    -0.262 A  
HETATM   33  C   UNL     1      -9.047   9.618  63.485  1.00  0.00    -0.211 A  
HETATM   34  C   UNL     1      -8.874   9.792  64.865  1.00  0.00    -0.230 A  
HETATM   35  C   UNL     1      -9.677  10.602  62.726  1.00  0.00    -0.279 A  
HETATM   36  C   UNL     1     -10.124  11.766  63.344  1.00  0.00    -0.470 A  
ENDBRANCH  30  31
ENDBRANCH  11  30
ENDBRANCH   9  11
ENDBRANCH   7   9
ENDBRANCH   5   7
ENDBRANCH   4   5
ENDBRANCH   2   4
TORSDOF 12
ENDMDL
MODEL      188
REMARK 921   NORMALIZED FREE ENERGY PREDICTED BY IDOCK:   -4.90 KCAL/MOL
REMARK 922        TOTAL FREE ENERGY PREDICTED BY IDOCK:  -10.05 KCAL/MOL
REMARK 923 INTER-LIGAND FREE ENERGY PREDICTED BY IDOCK:   -8.87 KCAL/MOL
REMARK 924 INTRA-LIGAND FREE ENERGY PREDICTED BY IDOCK:   -1.18 KCAL/MOL
REMARK 927      BINDING AFFINITY PREDICTED BY RF-SCORE:    0.00 PKD
ROOT
HETATM    1  C   UNL     1      -8.557  17.492  67.264  1.00  0.00    -0.234 C  
HETATM    2  C   UNL     1      -9.950  17.779  67.829  1.00  0.00    -0.322 C  
HETATM    3  C   UNL     1     -10.491  19.115  67.299  1.00  0.00    -0.549 C  
ENDROOT
BRANCH   2   4
HETATM    4  O   UNL     1     -10.849  16.627  67.720  1.00  0.00    -0.340 OA 
BRANCH   4   5
HETATM    5  C   UNL     1     -10.761  15.621  68.624  1.00  0.00    -0.256 C  
HETATM    6  O   UNL     1     -10.518  15.813  69.818  1.00  0.00    -0.274 OA 
BRANCH   5   7
HETATM    7  C   UNL     1     -10.964  14.175  68.088  1.00  0.00    -0.249 C  
HETATM    8  C   UNL     1     -12.283  14.104  67.321  1.00  0.00    -0.314 C  
BRANCH   7   9
HETATM    9  N   UNL     1     -10.813  13.002  69.034  1.00  0.00    -0.398 NA 
HETATM   10  H   UNL     1     -11.443  13.087  69.832  1.00  0.00     0.000 HD 
BRANCH   9  11
HETATM   11  P   UNL     1     -11.029  11.459  68.212  1.00  0.00    -0.265 P  
HETATM   12  O   UNL     1     -12.244  11.048  69.078  1.00  0.00    -0.483 OA 
BRANCH  11  13
HETATM   13  C   UNL     1     -10.019  10.048  69.016  1.00  0.00    -0.196 C  
BRANCH  13  14
HETATM   14  O   UNL     1     -10.859   8.920  69.470  1.00  0.00    -0.225 OA 
BRANCH  14  15
HETATM   15  C   UNL     1     -10.537   7.551  69.099  1.00  0.00    -0.197 C  
HETATM   16  C   UNL     1     -10.463   7.428  67.572  1.00  0.00    -0.338 C  
BRANCH  15  17
HETATM   17  C   UNL     1     -11.391   6.488  69.776  1.00  0.00    -0.393 C  
BRANCH  17  18
HETATM   18  N   UNL     1     -10.917   6.041  71.057  1.00  0.00    -0.284 NA 
HETATM   19  C   UNL     1     -11.136   6.616  72.280  1.00  0.00    -0.258 A  
HETATM   20  N   UNL     1     -10.625   5.895  73.254  1.00  0.00    -0.240 NA 
HETATM   21  C   UNL     1     -10.037   4.825  72.617  1.00  0.00    -0.176 A  
HETATM   22  C   UNL     1      -9.349   3.712  73.108  1.00  0.00    -0.102 A  
HETATM   23  N   UNL     1      -8.809   2.840  72.225  1.00  0.00    -0.077 NA 
HETATM   24  N   UNL     1      -9.200   3.489  74.468  1.00  0.00    -0.088 NA 
HETATM   25  C   UNL     1      -9.005   3.067  70.912  1.00  0.00    -0.096 A  
HETATM   26  H1  UNL     1      -8.698   2.676  74.826  1.00  0.00     0.000 HD 
HETATM   27  H2  UNL     1     -10.129   3.493  74.889  1.00  0.00     0.000 HD 
HETATM   28  N   UNL     1      -9.680   4.078  70.320  1.00  0.00    -0.201 NA 
HETATM   29  C   UNL     1     -10.168   4.916  71.246  1.00  0.00    -0.178 A  
ENDBRANCH  17  18
ENDBRANCH  15  17
ENDBRANCH  14  15
ENDBRANCH  13  14
ENDBRANCH  11  13
BRANCH  11  30
HETATM   30  O   UNL     1      -9.671  11.920  67.242  1.00  0.00    -0.182 OA 
BRANCH  30  31
HETATM   31  C   UNL     1      -9.701  11.531  65.915  1.00  0.00    -0.232 A  
HETATM   32  C   UNL     1     -10.186  12.463  64.996  1.00  0.00    -0.306 A  
HETATM   33  C   UNL     1      -9.399   9.942  64.107  1.00  0.00    -0.295 A  
HETATM   34  C   UNL     1      -9.299  10.269  65.466  1.00  0.00    -0.250 A  
HETATM   35  C   UNL     1      -9.902  10.869  63.196  1.00  0.00    -0.392 A  
HETATM   36  C   UNL     1     -10.296  12.128  63.642  1.00  0.00    -0.482 A  
ENDBRANCH  30  31
ENDBRANCH  11  30
ENDBRANCH   9  11
ENDBRANCH   7   9
ENDBRANCH   5   7
ENDBRANCH   4   5
ENDBRANCH   2   4
TORSDOF 12
ENDMDL
MODEL      189
REMARK 921   NORMALIZED FREE ENERGY PREDICTED BY IDOCK:   -4.89 KCAL/MOL
REMARK 922        TOTAL FREE ENERGY PREDICTED BY IDOCK:  -10.04 KCAL/MOL
REMARK 923 INTER-LIGAND FREE ENERGY PREDICTED BY IDOCK:   -8.55 KCAL/MOL
REMARK 924 INTRA-LIGAND FREE ENERGY PREDICTED BY IDOCK:   -1.49 KCAL/MOL
REMARK 927      BINDING AFFINITY PREDICTED BY RF-SCORE:    0.00 PKD
ROOT
HETATM    1  C   UNL     1      -9.823   4.461  71.074  1.00  0.00    -0.260 C  
HETATM    2  C   UNL     1      -9.877   5.811  71.792  1.00  0.00    -0.166 C  
HETATM    3  C   UNL     1     -11.327   6.201  72.114  1.00  0.00    -0.347 C  
ENDROOT
BRANCH   2   4
HETATM    4  O   UNL     1      -8.921   5.897  72.900  1.00  0.00    -0.124 OA 
BRANCH   4   5
HETATM    5  C   UNL     1      -7.745   6.546  72.719  1.00  0.00    -0.102 C  
HETATM    6  O   UNL     1      -6.695   5.964  72.437  1.00  0.00    -0.068 OA 
BRANCH   5   7
HETATM    7  C   UNL     1      -7.760   8.091  72.902  1.00  0.00    -0.134 C  
HETATM    8  C   UNL     1      -8.261   8.426  74.306  1.00  0.00    -0.152 C  
BRANCH   7   9
HETATM    9  N   UNL     1      -8.430   8.958  71.857  1.00  0.00    -0.370 NA 
HETATM   10  H   UNL     1      -8.516   9.923  72.176  1.00  0.00     0.000 HD 
BRANCH   9  11
HETATM   11  P   UNL     1      -7.610   8.869  70.301  1.00  0.00    -0.104 P  
HETATM   12  O   UNL     1      -6.362   9.641  70.796  1.00  0.00    -0.080 OA 
BRANCH  11  13
HETATM   13  C   UNL     1      -8.029  10.346  69.160  1.00  0.00    -0.141 C  
BRANCH  13  14
HETATM   14  O   UNL     1      -9.367  10.917  69.419  1.00  0.00    -0.079 OA 
BRANCH  14  15
HETATM   15  C   UNL     1     -10.173  11.457  68.336  1.00  0.00    -0.198 C  
HETATM   16  C   UNL     1     -11.353  10.521  68.047  1.00  0.00    -0.319 C  
BRANCH  15  17
HETATM   17  C   UNL     1      -9.387  11.878  67.102  1.00  0.00    -0.180 C  
BRANCH  17  18
HETATM   18  N   UNL     1      -9.764  13.143  66.534  1.00  0.00    -0.264 NA 
HETATM   19  C   UNL     1      -9.176  14.363  66.736  1.00  0.00    -0.268 A  
HETATM   20  N   UNL     1      -9.726  15.296  65.990  1.00  0.00    -0.311 NA 
HETATM   21  C   UNL     1     -10.722  14.642  65.300  1.00  0.00    -0.381 A  
HETATM   22  C   UNL     1     -11.643  15.087  64.347  1.00  0.00    -0.276 A  
HETATM   23  N   UNL     1     -12.570  14.218  63.884  1.00  0.00    -0.787 NA 
HETATM   24  N   UNL     1     -11.632  16.391  63.878  1.00  0.00    -1.602 NA 
HETATM   25  C   UNL     1     -12.528  12.949  64.333  1.00  0.00    -0.375 A  
HETATM   26  H1  UNL     1     -12.304  16.717  63.182  1.00  0.00     0.000 HD 
HETATM   27  H2  UNL     1     -10.696  16.589  63.525  1.00  0.00     0.000 HD 
HETATM   28  N   UNL     1     -11.670  12.393  65.217  1.00  0.00    -0.378 NA 
HETATM   29  C   UNL     1     -10.794  13.310  65.654  1.00  0.00    -0.279 A  
ENDBRANCH  17  18
ENDBRANCH  15  17
ENDBRANCH  14  15
ENDBRANCH  13  14
ENDBRANCH  11  13
BRANCH  11  30
HETATM   30  O   UNL     1      -9.003   8.005  69.747  1.00  0.00    -0.143 OA 
BRANCH  30  31
HETATM   31  C   UNL     1      -8.789   7.053  68.767  1.00  0.00    -0.129 A  
HETATM   32  C   UNL     1      -7.461   6.757  68.457  1.00  0.00    -0.092 A  
HETATM   33  C   UNL     1      -9.510   5.479  67.068  1.00  0.00    -0.133 A  
HETATM   34  C   UNL     1      -9.816   6.404  68.075  1.00  0.00    -0.126 A  
HETATM   35  C   UNL     1      -8.182   5.202  66.747  1.00  0.00    -0.108 A  
HETATM   36  C   UNL     1      -7.160   5.842  67.441  1.00  0.00    -0.074 A  
ENDBRANCH  30  31
ENDBRANCH  11  30
ENDBRANCH   9  11
ENDBRANCH   7   9
ENDBRANCH   5   7
ENDBRANCH   4   5
ENDBRANCH   2   4
TORSDOF 12
ENDMDL
MODEL      190
REMARK 921   NORMALIZED FREE ENERGY PREDICTED BY IDOCK:   -4.89 KCAL/MOL
REMARK 922        TOTAL FREE ENERGY PREDICTED BY IDOCK:  -10.04 KCAL/MOL
REMARK 923 INTER-LIGAND FREE ENERGY PREDICTED BY IDOCK:   -8.21 KCAL/MOL
REMARK 924 INTRA-LIGAND FREE ENERGY PREDICTED BY IDOCK:   -1.83 KCAL/MOL
REMARK 927      BINDING AFFINITY PREDICTED BY RF-SCORE:    0.00 PKD
ROOT
HETATM    1  C   UNL     1     -12.714  11.435  71.161  1.00  0.00    -0.479 C  
HETATM    2  C   UNL     1     -12.053  10.073  71.383  1.00  0.00    -0.407 C  
HETATM    3  C   UNL     1     -12.914   9.191  72.298  1.00  0.00    -0.492 C  
ENDROOT
BRANCH   2   4
HETATM    4  O   UNL     1     -11.598   9.459  70.132  1.00  0.00    -0.199 OA 
BRANCH   4   5
HETATM    5  C   UNL     1     -10.343   8.951  70.054  1.00  0.00    -0.204 C  
HETATM    6  O   UNL     1      -9.338   9.600  70.348  1.00  0.00    -0.251 OA 
BRANCH   5   7
HETATM    7  C   UNL     1     -10.211   7.485  69.550  1.00  0.00    -0.207 C  
HETATM    8  C   UNL     1     -11.323   6.638  70.167  1.00  0.00    -0.440 C  
BRANCH   7   9
HETATM    9  N   UNL     1      -8.871   6.785  69.641  1.00  0.00    -0.143 NA 
HETATM   10  H   UNL     1      -8.948   5.904  70.148  1.00  0.00     0.000 HD 
BRANCH   9  11
HETATM   11  P   UNL     1      -8.141   6.548  68.055  1.00  0.00    -0.113 P  
HETATM   12  O   UNL     1      -7.113   7.690  68.241  1.00  0.00    -0.075 OA 
BRANCH  11  13
HETATM   13  C   UNL     1      -8.992   7.582  66.689  1.00  0.00    -0.153 C  
BRANCH  13  14
HETATM   14  O   UNL     1      -8.507   7.261  65.331  1.00  0.00    -0.141 OA 
BRANCH  14  15
HETATM   15  C   UNL     1      -8.226   8.313  64.368  1.00  0.00    -0.127 C  
HETATM   16  C   UNL     1      -7.036   7.910  63.488  1.00  0.00    -0.079 C  
BRANCH  15  17
HETATM   17  C   UNL     1      -8.127   9.712  64.960  1.00  0.00    -0.127 C  
BRANCH  17  18
HETATM   18  N   UNL     1      -9.177  10.616  64.582  1.00  0.00    -0.214 NA 
HETATM   19  C   UNL     1      -9.494  11.056  63.325  1.00  0.00    -0.328 A  
HETATM   20  N   UNL     1     -10.571  11.811  63.331  1.00  0.00    -0.415 NA 
HETATM   21  C   UNL     1     -10.941  11.870  64.656  1.00  0.00    -0.316 A  
HETATM   22  C   UNL     1     -12.008  12.504  65.298  1.00  0.00    -0.438 A  
HETATM   23  N   UNL     1     -12.081  12.446  66.649  1.00  0.00    -0.584 NA 
HETATM   24  N   UNL     1     -12.980  13.193  64.589  1.00  0.00    -0.713 NA 
HETATM   25  C   UNL     1     -11.143  11.737  67.303  1.00  0.00    -0.287 A  
HETATM   26  H1  UNL     1     -13.759  13.657  65.058  1.00  0.00     0.000 HD 
HETATM   27  H2  UNL     1     -13.367  12.558  63.892  1.00  0.00     0.000 HD 
HETATM   28  N   UNL     1     -10.092  11.053  66.796  1.00  0.00    -0.213 NA 
HETATM   29  C   UNL     1     -10.064  11.169  65.459  1.00  0.00    -0.257 A  
ENDBRANCH  17  18
ENDBRANCH  15  17
ENDBRANCH  14  15
ENDBRANCH  13  14
ENDBRANCH  11  13
BRANCH  11  30
HETATM   30  O   UNL     1      -9.291   5.271  67.848  1.00  0.00    -0.111 OA 
BRANCH  30  31
HETATM   31  C   UNL     1      -8.799   4.072  67.362  1.00  0.00    -0.119 A  
HETATM   32  C   UNL     1      -7.679   4.142  66.531  1.00  0.00    -0.090 A  
HETATM   33  C   UNL     1      -8.831   1.663  67.075  1.00  0.00    -0.135 A  
HETATM   34  C   UNL     1      -9.371   2.827  67.640  1.00  0.00    -0.222 A  
HETATM   35  C   UNL     1      -7.726   1.740  66.230  1.00  0.00    -0.070 A  
HETATM   36  C   UNL     1      -7.151   2.979  65.959  1.00  0.00    -0.062 A  
ENDBRANCH  30  31
ENDBRANCH  11  30
ENDBRANCH   9  11
ENDBRANCH   7   9
ENDBRANCH   5   7
ENDBRANCH   4   5
ENDBRANCH   2   4
TORSDOF 12
ENDMDL
MODEL      191
REMARK 921   NORMALIZED FREE ENERGY PREDICTED BY IDOCK:   -4.88 KCAL/MOL
REMARK 922        TOTAL FREE ENERGY PREDICTED BY IDOCK:  -10.01 KCAL/MOL
REMARK 923 INTER-LIGAND FREE ENERGY PREDICTED BY IDOCK:   -8.76 KCAL/MOL
REMARK 924 INTRA-LIGAND FREE ENERGY PREDICTED BY IDOCK:   -1.25 KCAL/MOL
REMARK 927      BINDING AFFINITY PREDICTED BY RF-SCORE:    0.00 PKD
ROOT
HETATM    1  C   UNL     1      -7.809   8.910  71.080  1.00  0.00    -0.164 C  
HETATM    2  C   UNL     1      -9.015   8.002  71.331  1.00  0.00    -0.141 C  
HETATM    3  C   UNL     1     -10.127   8.763  72.068  1.00  0.00    -0.397 C  
ENDROOT
BRANCH   2   4
HETATM    4  O   UNL     1      -9.420   7.262  70.133  1.00  0.00    -0.165 OA 
BRANCH   4   5
HETATM    5  C   UNL     1      -9.210   7.804  68.908  1.00  0.00    -0.140 C  
HETATM    6  O   UNL     1      -8.219   7.547  68.222  1.00  0.00    -0.123 OA 
BRANCH   5   7
HETATM    7  C   UNL     1     -10.284   8.804  68.391  1.00  0.00    -0.196 C  
HETATM    8  C   UNL     1     -10.446   8.631  66.881  1.00  0.00    -0.329 C  
BRANCH   7   9
HETATM    9  N   UNL     1     -10.184  10.266  68.769  1.00  0.00    -0.181 NA 
HETATM   10  H   UNL     1      -9.597  10.396  69.593  1.00  0.00     0.000 HD 
BRANCH   9  11
HETATM   11  P   UNL     1      -9.627  11.260  67.425  1.00  0.00    -0.171 P  
HETATM   12  O   UNL     1      -8.135  10.918  67.653  1.00  0.00    -0.113 OA 
BRANCH  11  13
HETATM   13  C   UNL     1      -9.258  13.063  67.945  1.00  0.00    -0.208 C  
BRANCH  13  14
HETATM   14  O   UNL     1      -8.726  13.888  66.840  1.00  0.00    -0.219 OA 
BRANCH  14  15
HETATM   15  C   UNL     1      -8.633  15.334  66.963  1.00  0.00    -0.227 C  
HETATM   16  C   UNL     1      -9.643  16.003  66.022  1.00  0.00    -0.385 C  
BRANCH  15  17
HETATM   17  C   UNL     1      -7.221  15.894  66.873  1.00  0.00    -0.138 C  
BRANCH  17  18
HETATM   18  N   UNL     1      -6.873  16.851  67.886  1.00  0.00    -0.144 NA 
HETATM   19  C   UNL     1      -6.457  16.604  69.167  1.00  0.00    -0.200 A  
HETATM   20  N   UNL     1      -6.140  17.714  69.798  1.00  0.00    -0.242 NA 
HETATM   21  C   UNL     1      -6.387  18.712  68.882  1.00  0.00    -0.237 A  
HETATM   22  C   UNL     1      -6.233  20.099  68.951  1.00  0.00    -0.316 A  
HETATM   23  N   UNL     1      -6.631  20.851  67.899  1.00  0.00    -0.322 NA 
HETATM   24  N   UNL     1      -5.695  20.717  70.069  1.00  0.00    -0.491 NA 
HETATM   25  C   UNL     1      -7.114  20.215  66.815  1.00  0.00    -0.244 A  
HETATM   26  H1  UNL     1      -5.582  21.730  70.120  1.00  0.00     0.000 HD 
HETATM   27  H2  UNL     1      -4.786  20.292  70.255  1.00  0.00     0.000 HD 
HETATM   28  N   UNL     1      -7.275  18.888  66.614  1.00  0.00    -0.210 NA 
HETATM   29  C   UNL     1      -6.885  18.203  67.700  1.00  0.00    -0.197 A  
ENDBRANCH  17  18
ENDBRANCH  15  17
ENDBRANCH  14  15
ENDBRANCH  13  14
ENDBRANCH  11  13
BRANCH  11  30
HETATM   30  O   UNL     1     -11.296  11.642  67.170  1.00  0.00    -0.301 OA 
BRANCH  30  31
HETATM   31  C   UNL     1     -11.602  12.312  65.999  1.00  0.00    -0.393 A  
HETATM   32  C   UNL     1     -11.126  11.754  64.812  1.00  0.00    -0.356 A  
HETATM   33  C   UNL     1     -12.564  14.139  64.726  1.00  0.00    -0.326 A  
HETATM   34  C   UNL     1     -12.331  13.504  65.954  1.00  0.00    -0.507 A  
HETATM   35  C   UNL     1     -12.069  13.589  63.545  1.00  0.00    -0.425 A  
HETATM   36  C   UNL     1     -11.350  12.397  63.589  1.00  0.00    -0.556 A  
ENDBRANCH  30  31
ENDBRANCH  11  30
ENDBRANCH   9  11
ENDBRANCH   7   9
ENDBRANCH   5   7
ENDBRANCH   4   5
ENDBRANCH   2   4
TORSDOF 12
ENDMDL
MODEL      192
REMARK 921   NORMALIZED FREE ENERGY PREDICTED BY IDOCK:   -4.86 KCAL/MOL
REMARK 922        TOTAL FREE ENERGY PREDICTED BY IDOCK:   -9.98 KCAL/MOL
REMARK 923 INTER-LIGAND FREE ENERGY PREDICTED BY IDOCK:   -8.35 KCAL/MOL
REMARK 924 INTRA-LIGAND FREE ENERGY PREDICTED BY IDOCK:   -1.63 KCAL/MOL
REMARK 927      BINDING AFFINITY PREDICTED BY RF-SCORE:    0.00 PKD
ROOT
HETATM    1  C   UNL     1     -12.596  11.842  63.259  1.00  0.00    -0.473 C  
HETATM    2  C   UNL     1     -11.556  11.856  64.383  1.00  0.00    -0.292 C  
HETATM    3  C   UNL     1     -10.356  12.735  64.005  1.00  0.00    -0.392 C  
ENDROOT
BRANCH   2   4
HETATM    4  O   UNL     1     -12.154  12.103  65.698  1.00  0.00    -0.545 OA 
BRANCH   4   5
HETATM    5  C   UNL     1     -12.253  13.374  66.159  1.00  0.00    -0.415 C  
HETATM    6  O   UNL     1     -12.994  14.216  65.649  1.00  0.00    -0.586 OA 
BRANCH   5   7
HETATM    7  C   UNL     1     -11.362  13.749  67.378  1.00  0.00    -0.324 C  
HETATM    8  C   UNL     1     -12.207  14.499  68.407  1.00  0.00    -0.154 C  
BRANCH   7   9
HETATM    9  N   UNL     1     -10.035  14.440  67.146  1.00  0.00    -0.250 NA 
HETATM   10  H   UNL     1     -10.101  15.441  67.333  1.00  0.00     0.000 HD 
BRANCH   9  11
HETATM   11  P   UNL     1      -8.734  13.701  68.074  1.00  0.00    -0.191 P  
HETATM   12  O   UNL     1      -8.723  14.817  69.147  1.00  0.00    -0.161 OA 
BRANCH  11  13
HETATM   13  C   UNL     1      -7.001  14.279  67.506  1.00  0.00    -0.155 C  
BRANCH  13  14
HETATM   14  O   UNL     1      -6.137  14.710  68.624  1.00  0.00    -0.082 OA 
BRANCH  14  15
HETATM   15  C   UNL     1      -5.526  16.029  68.632  1.00  0.00    -0.101 C  
HETATM   16  C   UNL     1      -5.890  16.764  69.928  1.00  0.00    -0.220 C  
BRANCH  15  17
HETATM   17  C   UNL     1      -5.744  16.843  67.364  1.00  0.00    -0.154 C  
BRANCH  17  18
HETATM   18  N   UNL     1      -6.524  18.039  67.527  1.00  0.00    -0.171 NA 
HETATM   19  C   UNL     1      -6.112  19.250  68.015  1.00  0.00    -0.211 A  
HETATM   20  N   UNL     1      -7.066  20.152  67.946  1.00  0.00    -0.281 NA 
HETATM   21  C   UNL     1      -8.139  19.476  67.408  1.00  0.00    -0.280 A  
HETATM   22  C   UNL     1      -9.432  19.892  67.078  1.00  0.00    -0.380 A  
HETATM   23  N   UNL     1     -10.314  18.973  66.622  1.00  0.00    -0.398 NA 
HETATM   24  N   UNL     1      -9.830  21.213  67.217  1.00  0.00    -0.426 NA 
HETATM   25  C   UNL     1      -9.883  17.707  66.464  1.00  0.00    -0.319 A  
HETATM   26  H1  UNL     1     -10.774  21.516  66.976  1.00  0.00     0.000 HD 
HETATM   27  H2  UNL     1      -9.173  21.794  66.697  1.00  0.00     0.000 HD 
HETATM   28  N   UNL     1      -8.656  17.194  66.709  1.00  0.00    -0.228 NA 
HETATM   29  C   UNL     1      -7.839  18.149  67.179  1.00  0.00    -0.218 A  
ENDBRANCH  17  18
ENDBRANCH  15  17
ENDBRANCH  14  15
ENDBRANCH  13  14
ENDBRANCH  11  13
BRANCH  11  30
HETATM   30  O   UNL     1      -8.745  12.453  66.875  1.00  0.00    -0.198 OA 
BRANCH  30  31
HETATM   31  C   UNL     1      -8.497  11.167  67.321  1.00  0.00    -0.137 A  
HETATM   32  C   UNL     1      -8.484  10.973  68.703  1.00  0.00    -0.157 A  
HETATM   33  C   UNL     1      -7.962   8.821  67.010  1.00  0.00    -0.095 A  
HETATM   34  C   UNL     1      -8.243  10.086  66.473  1.00  0.00    -0.119 A  
HETATM   35  C   UNL     1      -7.930   8.636  68.391  1.00  0.00    -0.113 A  
HETATM   36  C   UNL     1      -8.190   9.712  69.236  1.00  0.00    -0.123 A  
ENDBRANCH  30  31
ENDBRANCH  11  30
ENDBRANCH   9  11
ENDBRANCH   7   9
ENDBRANCH   5   7
ENDBRANCH   4   5
ENDBRANCH   2   4
TORSDOF 12
ENDMDL
MODEL      193
REMARK 921   NORMALIZED FREE ENERGY PREDICTED BY IDOCK:   -4.84 KCAL/MOL
REMARK 922        TOTAL FREE ENERGY PREDICTED BY IDOCK:   -9.96 KCAL/MOL
REMARK 923 INTER-LIGAND FREE ENERGY PREDICTED BY IDOCK:   -7.98 KCAL/MOL
REMARK 924 INTRA-LIGAND FREE ENERGY PREDICTED BY IDOCK:   -1.98 KCAL/MOL
REMARK 927      BINDING AFFINITY PREDICTED BY RF-SCORE:    0.00 PKD
ROOT
HETATM    1  C   UNL     1     -13.928  15.249  71.371  1.00  0.00    -0.601 C  
HETATM    2  C   UNL     1     -12.920  14.571  70.440  1.00  0.00    -0.179 C  
HETATM    3  C   UNL     1     -12.123  15.615  69.645  1.00  0.00    -0.329 C  
ENDROOT
BRANCH   2   4
HETATM    4  O   UNL     1     -12.135  13.537  71.120  1.00  0.00    -0.279 OA 
BRANCH   4   5
HETATM    5  C   UNL     1     -12.392  12.229  70.870  1.00  0.00    -0.267 C  
HETATM    6  O   UNL     1     -13.188  11.563  71.535  1.00  0.00    -0.372 OA 
BRANCH   5   7
HETATM    7  C   UNL     1     -11.614  11.575  69.692  1.00  0.00    -0.333 C  
HETATM    8  C   UNL     1     -11.108  10.200  70.127  1.00  0.00    -0.378 C  
BRANCH   7   9
HETATM    9  N   UNL     1     -10.530  12.362  68.987  1.00  0.00    -0.422 NA 
HETATM   10  H   UNL     1      -9.608  11.963  69.164  1.00  0.00     0.000 HD 
BRANCH   9  11
HETATM   11  P   UNL     1     -10.841  12.512  67.260  1.00  0.00    -0.265 P  
HETATM   12  O   UNL     1     -12.286  11.965  67.365  1.00  0.00    -0.502 OA 
BRANCH  11  13
HETATM   13  C   UNL     1     -10.354  10.942  66.283  1.00  0.00    -0.250 C  
BRANCH  13  14
HETATM   14  O   UNL     1      -9.630   9.949  67.104  1.00  0.00    -0.154 OA 
BRANCH  14  15
HETATM   15  C   UNL     1      -9.421   8.592  66.626  1.00  0.00    -0.207 C  
HETATM   16  C   UNL     1     -10.554   7.684  67.121  1.00  0.00    -0.410 C  
BRANCH  15  17
HETATM   17  C   UNL     1      -8.022   8.039  66.861  1.00  0.00    -0.104 C  
BRANCH  17  18
HETATM   18  N   UNL     1      -7.198   8.809  67.751  1.00  0.00    -0.083 NA 
HETATM   19  C   UNL     1      -6.194   9.680  67.423  1.00  0.00    -0.064 A  
HETATM   20  N   UNL     1      -5.704  10.280  68.486  1.00  0.00    -0.038 NA 
HETATM   21  C   UNL     1      -6.416   9.749  69.538  1.00  0.00    -0.046 A  
HETATM   22  C   UNL     1      -6.368   9.994  70.913  1.00  0.00    -0.029 A  
HETATM   23  N   UNL     1      -7.153   9.256  71.732  1.00  0.00    -0.317 NA 
HETATM   24  N   UNL     1      -5.534  10.961  71.452  1.00  0.00    -0.319 NA 
HETATM   25  C   UNL     1      -7.979   8.352  71.172  1.00  0.00    -0.112 A  
HETATM   26  H1  UNL     1      -5.499  11.140  72.456  1.00  0.00     0.000 HD 
HETATM   27  H2  UNL     1      -5.736  11.845  70.984  1.00  0.00     0.000 HD 
HETATM   28  N   UNL     1      -8.142   8.053  69.864  1.00  0.00    -0.115 NA 
HETATM   29  C   UNL     1      -7.322   8.800  69.110  1.00  0.00    -0.072 A  
ENDBRANCH  17  18
ENDBRANCH  15  17
ENDBRANCH  14  15
ENDBRANCH  13  14
ENDBRANCH  11  13
BRANCH  11  30
HETATM   30  O   UNL     1      -9.227  13.125  67.142  1.00  0.00    -0.211 OA 
BRANCH  30  31
HETATM   31  C   UNL     1      -9.098  14.486  66.929  1.00  0.00    -0.255 A  
HETATM   32  C   UNL     1      -8.081  15.138  67.628  1.00  0.00    -0.177 A  
HETATM   33  C   UNL     1      -9.758  16.608  65.956  1.00  0.00    -0.306 A  
HETATM   34  C   UNL     1      -9.933  15.223  66.084  1.00  0.00    -0.325 A  
HETATM   35  C   UNL     1      -8.754  17.258  66.671  1.00  0.00    -0.285 A  
HETATM   36  C   UNL     1      -7.918  16.523  67.507  1.00  0.00    -0.176 A  
ENDBRANCH  30  31
ENDBRANCH  11  30
ENDBRANCH   9  11
ENDBRANCH   7   9
ENDBRANCH   5   7
ENDBRANCH   4   5
ENDBRANCH   2   4
TORSDOF 12
ENDMDL
MODEL      194
REMARK 921   NORMALIZED FREE ENERGY PREDICTED BY IDOCK:   -4.84 KCAL/MOL
REMARK 922        TOTAL FREE ENERGY PREDICTED BY IDOCK:   -9.95 KCAL/MOL
REMARK 923 INTER-LIGAND FREE ENERGY PREDICTED BY IDOCK:   -9.30 KCAL/MOL
REMARK 924 INTRA-LIGAND FREE ENERGY PREDICTED BY IDOCK:   -0.65 KCAL/MOL
REMARK 927      BINDING AFFINITY PREDICTED BY RF-SCORE:    0.00 PKD
ROOT
HETATM    1  C   UNL     1     -10.592  19.975  65.725  1.00  0.00    -0.428 C  
HETATM    2  C   UNL     1      -9.120  19.700  66.043  1.00  0.00    -0.244 C  
HETATM    3  C   UNL     1      -8.688  20.444  67.314  1.00  0.00    -0.429 C  
ENDROOT
BRANCH   2   4
HETATM    4  O   UNL     1      -8.789  18.274  65.981  1.00  0.00    -0.502 OA 
BRANCH   4   5
HETATM    5  C   UNL     1      -8.704  17.557  67.128  1.00  0.00    -0.237 C  
HETATM    6  O   UNL     1      -7.641  17.366  67.722  1.00  0.00    -0.187 OA 
BRANCH   5   7
HETATM    7  C   UNL     1     -10.028  16.950  67.675  1.00  0.00    -0.271 C  
HETATM    8  C   UNL     1     -10.058  17.097  69.196  1.00  0.00    -0.254 C  
BRANCH   7   9
HETATM    9  N   UNL     1     -10.440  15.556  67.249  1.00  0.00    -0.273 NA 
HETATM   10  H   UNL     1      -9.971  15.279  66.387  1.00  0.00     0.000 HD 
BRANCH   9  11
HETATM   11  P   UNL     1     -10.182  14.372  68.527  1.00  0.00    -0.245 P  
HETATM   12  O   UNL     1      -8.642  14.377  68.366  1.00  0.00    -0.163 OA 
BRANCH  11  13
HETATM   13  C   UNL     1     -10.210  12.572  67.881  1.00  0.00    -0.219 C  
BRANCH  13  14
HETATM   14  O   UNL     1      -9.291  12.348  66.746  1.00  0.00    -0.209 OA 
BRANCH  14  15
HETATM   15  C   UNL     1      -9.009  11.006  66.264  1.00  0.00    -0.185 C  
HETATM   16  C   UNL     1     -10.110  10.559  65.294  1.00  0.00    -0.369 C  
BRANCH  15  17
HETATM   17  C   UNL     1      -8.678   9.992  67.351  1.00  0.00    -0.125 C  
BRANCH  17  18
HETATM   18  N   UNL     1      -9.320   8.714  67.216  1.00  0.00    -0.148 NA 
HETATM   19  C   UNL     1     -10.566   8.350  67.651  1.00  0.00    -0.195 A  
HETATM   20  N   UNL     1     -10.871   7.125  67.283  1.00  0.00    -0.322 NA 
HETATM   21  C   UNL     1      -9.759   6.684  66.602  1.00  0.00    -0.159 A  
HETATM   22  C   UNL     1      -9.478   5.475  65.960  1.00  0.00    -0.130 A  
HETATM   23  N   UNL     1      -8.248   5.294  65.424  1.00  0.00    -0.121 NA 
HETATM   24  N   UNL     1     -10.420   4.462  65.870  1.00  0.00    -0.465 NA 
HETATM   25  C   UNL     1      -7.371   6.313  65.497  1.00  0.00    -0.080 A  
HETATM   26  H1  UNL     1     -10.215   3.579  65.402  1.00  0.00     0.000 HD 
HETATM   27  H2  UNL     1     -11.260   4.853  65.445  1.00  0.00     0.000 HD 
HETATM   28  N   UNL     1      -7.536   7.534  66.052  1.00  0.00    -0.085 NA 
HETATM   29  C   UNL     1      -8.764   7.640  66.584  1.00  0.00    -0.141 A  
ENDBRANCH  17  18
ENDBRANCH  15  17
ENDBRANCH  14  15
ENDBRANCH  13  14
ENDBRANCH  11  13
BRANCH  11  30
HETATM   30  O   UNL     1     -11.904  14.366  68.708  1.00  0.00    -0.309 OA 
BRANCH  30  31
HETATM   31  C   UNL     1     -12.387  14.344  70.004  1.00  0.00    -0.336 A  
HETATM   32  C   UNL     1     -12.408  13.105  70.646  1.00  0.00    -0.405 A  
HETATM   33  C   UNL     1     -13.371  15.356  71.977  1.00  0.00    -0.545 A  
HETATM   34  C   UNL     1     -12.862  15.474  70.676  1.00  0.00    -0.466 A  
HETATM   35  C   UNL     1     -13.410  14.113  72.606  1.00  0.00    -0.638 A  
HETATM   36  C   UNL     1     -12.929  12.989  71.940  1.00  0.00    -0.414 A  
ENDBRANCH  30  31
ENDBRANCH  11  30
ENDBRANCH   9  11
ENDBRANCH   7   9
ENDBRANCH   5   7
ENDBRANCH   4   5
ENDBRANCH   2   4
TORSDOF 12
ENDMDL
MODEL      195
REMARK 921   NORMALIZED FREE ENERGY PREDICTED BY IDOCK:   -4.84 KCAL/MOL
REMARK 922        TOTAL FREE ENERGY PREDICTED BY IDOCK:   -9.95 KCAL/MOL
REMARK 923 INTER-LIGAND FREE ENERGY PREDICTED BY IDOCK:   -8.89 KCAL/MOL
REMARK 924 INTRA-LIGAND FREE ENERGY PREDICTED BY IDOCK:   -1.06 KCAL/MOL
REMARK 927      BINDING AFFINITY PREDICTED BY RF-SCORE:    0.00 PKD
ROOT
HETATM    1  C   UNL     1      -8.835   4.484  63.993  1.00  0.00    -0.144 C  
HETATM    2  C   UNL     1      -7.607   4.084  64.816  1.00  0.00    -0.077 C  
HETATM    3  C   UNL     1      -6.566   3.380  63.935  1.00  0.00    -0.035 C  
ENDROOT
BRANCH   2   4
HETATM    4  O   UNL     1      -7.114   5.179  65.655  1.00  0.00    -0.064 OA 
BRANCH   4   5
HETATM    5  C   UNL     1      -7.705   5.425  66.850  1.00  0.00    -0.100 C  
HETATM    6  O   UNL     1      -7.892   4.550  67.698  1.00  0.00    -0.085 OA 
BRANCH   5   7
HETATM    7  C   UNL     1      -8.167   6.886  67.117  1.00  0.00    -0.118 C  
HETATM    8  C   UNL     1      -7.409   7.831  66.185  1.00  0.00    -0.078 C  
BRANCH   7   9
HETATM    9  N   UNL     1      -8.189   7.413  68.536  1.00  0.00    -0.124 NA 
HETATM   10  H   UNL     1      -7.671   8.289  68.614  1.00  0.00     0.000 HD 
BRANCH   9  11
HETATM   11  P   UNL     1      -9.830   7.584  69.152  1.00  0.00    -0.178 P  
HETATM   12  O   UNL     1     -10.486   7.335  67.772  1.00  0.00    -0.201 OA 
BRANCH  11  13
HETATM   13  C   UNL     1     -10.458   9.390  69.086  1.00  0.00    -0.217 C  
BRANCH  13  14
HETATM   14  O   UNL     1      -9.913  10.153  67.945  1.00  0.00    -0.155 OA 
BRANCH  14  15
HETATM   15  C   UNL     1     -10.752  10.506  66.812  1.00  0.00    -0.188 C  
HETATM   16  C   UNL     1      -9.881  10.732  65.569  1.00  0.00    -0.309 C  
BRANCH  15  17
HETATM   17  C   UNL     1     -11.761  11.613  67.083  1.00  0.00    -0.133 C  
BRANCH  17  18
HETATM   18  N   UNL     1     -11.848  12.628  66.069  1.00  0.00    -0.426 NA 
HETATM   19  C   UNL     1     -12.650  12.639  64.959  1.00  0.00    -0.430 A  
HETATM   20  N   UNL     1     -12.537  13.765  64.290  1.00  0.00    -0.677 NA 
HETATM   21  C   UNL     1     -11.604  14.492  64.996  1.00  0.00    -0.382 A  
HETATM   22  C   UNL     1     -11.073  15.769  64.796  1.00  0.00    -0.400 A  
HETATM   23  N   UNL     1     -10.099  16.205  65.629  1.00  0.00    -0.452 NA 
HETATM   24  N   UNL     1     -11.512  16.589  63.768  1.00  0.00    -1.411 NA 
HETATM   25  C   UNL     1      -9.724  15.400  66.640  1.00  0.00    -0.253 A  
HETATM   26  H1  UNL     1     -11.124  17.521  63.622  1.00  0.00     0.000 HD 
HETATM   27  H2  UNL     1     -12.524  16.681  63.851  1.00  0.00     0.000 HD 
HETATM   28  N   UNL     1     -10.186  14.169  66.957  1.00  0.00    -0.258 NA 
HETATM   29  C   UNL     1     -11.130  13.788  66.083  1.00  0.00    -0.296 A  
ENDBRANCH  17  18
ENDBRANCH  15  17
ENDBRANCH  14  15
ENDBRANCH  13  14
ENDBRANCH  11  13
BRANCH  11  30
HETATM   30  O   UNL     1      -9.097   7.862  70.694  1.00  0.00    -0.150 OA 
BRANCH  30  31
HETATM   31  C   UNL     1      -9.533   7.063  71.736  1.00  0.00    -0.152 A  
HETATM   32  C   UNL     1     -10.176   5.874  71.391  1.00  0.00    -0.261 A  
HETATM   33  C   UNL     1      -9.888   6.546  74.080  1.00  0.00    -0.318 A  
HETATM   34  C   UNL     1      -9.382   7.395  73.086  1.00  0.00    -0.235 A  
HETATM   35  C   UNL     1     -10.548   5.369  73.730  1.00  0.00    -0.325 A  
HETATM   36  C   UNL     1     -10.691   5.035  72.386  1.00  0.00    -0.262 A  
ENDBRANCH  30  31
ENDBRANCH  11  30
ENDBRANCH   9  11
ENDBRANCH   7   9
ENDBRANCH   5   7
ENDBRANCH   4   5
ENDBRANCH   2   4
TORSDOF 12
ENDMDL
MODEL      196
REMARK 921   NORMALIZED FREE ENERGY PREDICTED BY IDOCK:   -4.82 KCAL/MOL
REMARK 922        TOTAL FREE ENERGY PREDICTED BY IDOCK:   -9.92 KCAL/MOL
REMARK 923 INTER-LIGAND FREE ENERGY PREDICTED BY IDOCK:   -9.99 KCAL/MOL
REMARK 924 INTRA-LIGAND FREE ENERGY PREDICTED BY IDOCK:    0.07 KCAL/MOL
REMARK 927      BINDING AFFINITY PREDICTED BY RF-SCORE:    0.00 PKD
ROOT
HETATM    1  C   UNL     1      -8.590   5.334  64.594  1.00  0.00    -0.125 C  
HETATM    2  C   UNL     1      -8.756   4.199  65.607  1.00  0.00    -0.119 C  
HETATM    3  C   UNL     1      -8.678   2.832  64.913  1.00  0.00    -0.113 C  
ENDROOT
BRANCH   2   4
HETATM    4  O   UNL     1      -7.910   4.374  66.791  1.00  0.00    -0.096 OA 
BRANCH   4   5
HETATM    5  C   UNL     1      -7.753   5.611  67.323  1.00  0.00    -0.101 C  
HETATM    6  O   UNL     1      -7.052   6.481  66.803  1.00  0.00    -0.066 OA 
BRANCH   5   7
HETATM    7  C   UNL     1      -8.495   5.899  68.660  1.00  0.00    -0.111 C  
HETATM    8  C   UNL     1      -9.798   5.101  68.694  1.00  0.00    -0.225 C  
BRANCH   7   9
HETATM    9  N   UNL     1      -8.717   7.332  69.095  1.00  0.00    -0.136 NA 
HETATM   10  H   UNL     1      -8.079   7.967  68.615  1.00  0.00     0.000 HD 
BRANCH   9  11
HETATM   11  P   UNL     1     -10.393   7.833  68.891  1.00  0.00    -0.167 P  
HETATM   12  O   UNL     1     -10.313   7.839  67.345  1.00  0.00    -0.231 OA 
BRANCH  11  13
HETATM   13  C   UNL     1     -10.595   9.735  68.854  1.00  0.00    -0.218 C  
BRANCH  13  14
HETATM   14  O   UNL     1      -9.334  10.447  68.563  1.00  0.00    -0.147 OA 
BRANCH  14  15
HETATM   15  C   UNL     1      -9.284  11.504  67.566  1.00  0.00    -0.166 C  
HETATM   16  C   UNL     1      -8.144  11.234  66.576  1.00  0.00    -0.160 C  
BRANCH  15  17
HETATM   17  C   UNL     1      -9.306  12.918  68.131  1.00  0.00    -0.214 C  
BRANCH  17  18
HETATM   18  N   UNL     1      -9.671  13.947  67.198  1.00  0.00    -0.237 NA 
HETATM   19  C   UNL     1      -8.968  15.079  66.879  1.00  0.00    -0.251 A  
HETATM   20  N   UNL     1      -9.556  15.761  65.921  1.00  0.00    -0.340 NA 
HETATM   21  C   UNL     1     -10.693  15.040  65.634  1.00  0.00    -0.354 A  
HETATM   22  C   UNL     1     -11.714  15.243  64.701  1.00  0.00    -0.308 A  
HETATM   23  N   UNL     1     -12.766  14.391  64.693  1.00  0.00    -0.643 NA 
HETATM   24  N   UNL     1     -11.679  16.295  63.799  1.00  0.00    -1.488 NA 
HETATM   25  C   UNL     1     -12.750  13.359  65.557  1.00  0.00    -0.410 A  
HETATM   26  H1  UNL     1     -12.424  16.444  63.118  1.00  0.00     0.000 HD 
HETATM   27  H2  UNL     1     -10.797  16.241  63.290  1.00  0.00     0.000 HD 
HETATM   28  N   UNL     1     -11.809  13.037  66.473  1.00  0.00    -0.391 NA 
HETATM   29  C   UNL     1     -10.809  13.931  66.446  1.00  0.00    -0.291 A  
ENDBRANCH  17  18
ENDBRANCH  15  17
ENDBRANCH  14  15
ENDBRANCH  13  14
ENDBRANCH  11  13
BRANCH  11  30
HETATM   30  O   UNL     1     -10.483   7.826  70.619  1.00  0.00    -0.209 OA 
BRANCH  30  31
HETATM   31  C   UNL     1     -11.713   8.130  71.173  1.00  0.00    -0.283 A  
HETATM   32  C   UNL     1     -12.644   7.092  71.247  1.00  0.00    -0.421 A  
HETATM   33  C   UNL     1     -13.350   9.634  72.145  1.00  0.00    -0.545 A  
HETATM   34  C   UNL     1     -12.066   9.403  71.632  1.00  0.00    -0.462 A  
HETATM   35  C   UNL     1     -14.283   8.600  72.197  1.00  0.00    -0.520 A  
HETATM   36  C   UNL     1     -13.929   7.331  71.747  1.00  0.00    -0.446 A  
ENDBRANCH  30  31
ENDBRANCH  11  30
ENDBRANCH   9  11
ENDBRANCH   7   9
ENDBRANCH   5   7
ENDBRANCH   4   5
ENDBRANCH   2   4
TORSDOF 12
ENDMDL
MODEL      197
REMARK 921   NORMALIZED FREE ENERGY PREDICTED BY IDOCK:   -4.82 KCAL/MOL
REMARK 922        TOTAL FREE ENERGY PREDICTED BY IDOCK:   -9.92 KCAL/MOL
REMARK 923 INTER-LIGAND FREE ENERGY PREDICTED BY IDOCK:   -8.51 KCAL/MOL
REMARK 924 INTRA-LIGAND FREE ENERGY PREDICTED BY IDOCK:   -1.41 KCAL/MOL
REMARK 927      BINDING AFFINITY PREDICTED BY RF-SCORE:    0.00 PKD
ROOT
HETATM    1  C   UNL     1      -9.942  16.082  65.816  1.00  0.00    -0.382 C  
HETATM    2  C   UNL     1     -10.379  16.554  67.204  1.00  0.00    -0.298 C  
HETATM    3  C   UNL     1     -10.655  18.064  67.206  1.00  0.00    -0.358 C  
ENDROOT
BRANCH   2   4
HETATM    4  O   UNL     1     -11.422  15.704  67.784  1.00  0.00    -0.307 OA 
BRANCH   4   5
HETATM    5  C   UNL     1     -11.492  15.553  69.129  1.00  0.00    -0.348 C  
HETATM    6  O   UNL     1     -11.135  16.428  69.921  1.00  0.00    -0.349 OA 
BRANCH   5   7
HETATM    7  C   UNL     1     -12.038  14.195  69.656  1.00  0.00    -0.349 C  
HETATM    8  C   UNL     1     -12.899  14.444  70.893  1.00  0.00    -0.419 C  
BRANCH   7   9
HETATM    9  N   UNL     1     -11.080  13.043  69.875  1.00  0.00    -0.429 NA 
HETATM   10  H   UNL     1     -11.064  12.755  70.854  1.00  0.00     0.000 HD 
BRANCH   9  11
HETATM   11  P   UNL     1     -11.431  11.681  68.815  1.00  0.00    -0.343 P  
HETATM   12  O   UNL     1     -12.317  10.959  69.860  1.00  0.00    -0.326 OA 
BRANCH  11  13
HETATM   13  C   UNL     1     -10.150  10.270  68.976  1.00  0.00    -0.213 C  
BRANCH  13  14
HETATM   14  O   UNL     1     -10.699   8.944  68.625  1.00  0.00    -0.178 OA 
BRANCH  14  15
HETATM   15  C   UNL     1     -10.494   7.796  69.492  1.00  0.00    -0.225 C  
HETATM   16  C   UNL     1     -11.407   7.901  70.720  1.00  0.00    -0.283 C  
BRANCH  15  17
HETATM   17  C   UNL     1      -9.038   7.488  69.814  1.00  0.00    -0.140 C  
BRANCH  17  18
HETATM   18  N   UNL     1      -8.701   6.093  69.862  1.00  0.00    -0.135 NA 
HETATM   19  C   UNL     1      -8.363   5.275  68.817  1.00  0.00    -0.092 A  
HETATM   20  N   UNL     1      -8.029   4.072  69.230  1.00  0.00    -0.056 NA 
HETATM   21  C   UNL     1      -8.183   4.123  70.597  1.00  0.00    -0.066 A  
HETATM   22  C   UNL     1      -7.971   3.168  71.595  1.00  0.00    -0.057 A  
HETATM   23  N   UNL     1      -8.280   3.485  72.874  1.00  0.00    -0.080 NA 
HETATM   24  N   UNL     1      -7.463   1.911  71.305  1.00  0.00    -0.032 NA 
HETATM   25  C   UNL     1      -8.735   4.727  73.126  1.00  0.00    -0.109 A  
HETATM   26  H1  UNL     1      -7.308   1.214  72.034  1.00  0.00     0.000 HD 
HETATM   27  H2  UNL     1      -6.586   2.037  70.801  1.00  0.00     0.000 HD 
HETATM   28  N   UNL     1      -8.945   5.743  72.259  1.00  0.00    -0.139 NA 
HETATM   29  C   UNL     1      -8.642   5.358  71.010  1.00  0.00    -0.124 A  
ENDBRANCH  17  18
ENDBRANCH  15  17
ENDBRANCH  14  15
ENDBRANCH  13  14
ENDBRANCH  11  13
BRANCH  11  30
HETATM   30  O   UNL     1     -10.442  12.488  67.646  1.00  0.00    -0.213 OA 
BRANCH  30  31
HETATM   31  C   UNL     1     -10.930  12.531  66.352  1.00  0.00    -0.273 A  
HETATM   32  C   UNL     1     -10.035  12.208  65.331  1.00  0.00    -0.269 A  
HETATM   33  C   UNL     1     -12.641  12.951  64.684  1.00  0.00    -0.459 A  
HETATM   34  C   UNL     1     -12.240  12.896  66.026  1.00  0.00    -0.431 A  
HETATM   35  C   UNL     1     -11.738  12.648  63.667  1.00  0.00    -0.597 A  
HETATM   36  C   UNL     1     -10.436  12.277  63.992  1.00  0.00    -0.427 A  
ENDBRANCH  30  31
ENDBRANCH  11  30
ENDBRANCH   9  11
ENDBRANCH   7   9
ENDBRANCH   5   7
ENDBRANCH   4   5
ENDBRANCH   2   4
TORSDOF 12
ENDMDL
MODEL      198
REMARK 921   NORMALIZED FREE ENERGY PREDICTED BY IDOCK:   -4.82 KCAL/MOL
REMARK 922        TOTAL FREE ENERGY PREDICTED BY IDOCK:   -9.92 KCAL/MOL
REMARK 923 INTER-LIGAND FREE ENERGY PREDICTED BY IDOCK:   -9.09 KCAL/MOL
REMARK 924 INTRA-LIGAND FREE ENERGY PREDICTED BY IDOCK:   -0.83 KCAL/MOL
REMARK 927      BINDING AFFINITY PREDICTED BY RF-SCORE:    0.00 PKD
ROOT
HETATM    1  C   UNL     1      -7.493   9.958  68.797  1.00  0.00    -0.079 C  
HETATM    2  C   UNL     1      -6.611  10.942  69.570  1.00  0.00    -0.109 C  
HETATM    3  C   UNL     1      -6.025  10.281  70.826  1.00  0.00    -0.086 C  
ENDROOT
BRANCH   2   4
HETATM    4  O   UNL     1      -5.661  11.645  68.704  1.00  0.00    -0.046 OA 
BRANCH   4   5
HETATM    5  C   UNL     1      -6.092  12.187  67.539  1.00  0.00    -0.124 C  
HETATM    6  O   UNL     1      -5.743  11.768  66.434  1.00  0.00    -0.247 OA 
BRANCH   5   7
HETATM    7  C   UNL     1      -7.057  13.403  67.646  1.00  0.00    -0.162 C  
HETATM    8  C   UNL     1      -8.427  13.008  67.098  1.00  0.00    -0.176 C  
BRANCH   7   9
HETATM    9  N   UNL     1      -6.619  14.751  67.112  1.00  0.00    -0.321 NA 
HETATM   10  H   UNL     1      -7.230  15.067  66.359  1.00  0.00     0.000 HD 
BRANCH   9  11
HETATM   11  P   UNL     1      -6.497  15.959  68.388  1.00  0.00    -0.129 P  
HETATM   12  O   UNL     1      -7.098  15.029  69.470  1.00  0.00    -0.167 OA 
BRANCH  11  13
HETATM   13  C   UNL     1      -8.058  17.058  68.514  1.00  0.00    -0.251 C  
BRANCH  13  14
HETATM   14  O   UNL     1      -9.264  16.308  68.921  1.00  0.00    -0.228 OA 
BRANCH  14  15
HETATM   15  C   UNL     1     -10.433  16.246  68.059  1.00  0.00    -0.293 C  
HETATM   16  C   UNL     1     -10.396  17.398  67.047  1.00  0.00    -0.318 C  
BRANCH  15  17
HETATM   17  C   UNL     1     -11.760  16.092  68.789  1.00  0.00    -0.299 C  
BRANCH  17  18
HETATM   18  N   UNL     1     -11.995  14.800  69.372  1.00  0.00    -0.308 NA 
HETATM   19  C   UNL     1     -11.466  13.597  68.987  1.00  0.00    -0.301 A  
HETATM   20  N   UNL     1     -11.829  12.626  69.796  1.00  0.00    -0.327 NA 
HETATM   21  C   UNL     1     -12.642  13.238  70.724  1.00  0.00    -0.280 A  
HETATM   22  C   UNL     1     -13.318  12.741  71.842  1.00  0.00    -0.413 A  
HETATM   23  N   UNL     1     -14.117  13.579  72.544  1.00  0.00    -0.758 NA 
HETATM   24  N   UNL     1     -13.198  11.418  72.238  1.00  0.00    -0.509 NA 
HETATM   25  C   UNL     1     -14.181  14.866  72.153  1.00  0.00    -0.522 A  
HETATM   26  H1  UNL     1     -13.692  11.055  73.054  1.00  0.00     0.000 HD 
HETATM   27  H2  UNL     1     -12.205  11.217  72.358  1.00  0.00     0.000 HD 
HETATM   28  N   UNL     1     -13.549  15.470  71.122  1.00  0.00    -0.561 NA 
HETATM   29  C   UNL     1     -12.795  14.582  70.456  1.00  0.00    -0.304 A  
ENDBRANCH  17  18
ENDBRANCH  15  17
ENDBRANCH  14  15
ENDBRANCH  13  14
ENDBRANCH  11  13
BRANCH  11  30
HETATM   30  O   UNL     1      -5.825  16.998  67.178  1.00  0.00    -0.131 OA 
BRANCH  30  31
HETATM   31  C   UNL     1      -6.150  18.340  67.269  1.00  0.00    -0.160 A  
HETATM   32  C   UNL     1      -5.691  19.024  68.396  1.00  0.00    -0.210 A  
HETATM   33  C   UNL     1      -7.233  20.373  66.508  1.00  0.00    -0.299 A  
HETATM   34  C   UNL     1      -6.917  19.020  66.318  1.00  0.00    -0.253 A  
HETATM   35  C   UNL     1      -6.790  21.046  67.645  1.00  0.00    -0.370 A  
HETATM   36  C   UNL     1      -6.020  20.371  68.587  1.00  0.00    -0.348 A  
ENDBRANCH  30  31
ENDBRANCH  11  30
ENDBRANCH   9  11
ENDBRANCH   7   9
ENDBRANCH   5   7
ENDBRANCH   4   5
ENDBRANCH   2   4
TORSDOF 12
ENDMDL
MODEL      199
REMARK 921   NORMALIZED FREE ENERGY PREDICTED BY IDOCK:   -4.81 KCAL/MOL
REMARK 922        TOTAL FREE ENERGY PREDICTED BY IDOCK:   -9.91 KCAL/MOL
REMARK 923 INTER-LIGAND FREE ENERGY PREDICTED BY IDOCK:   -8.39 KCAL/MOL
REMARK 924 INTRA-LIGAND FREE ENERGY PREDICTED BY IDOCK:   -1.52 KCAL/MOL
REMARK 927      BINDING AFFINITY PREDICTED BY RF-SCORE:    0.00 PKD
ROOT
HETATM    1  C   UNL     1      -9.850  14.524  66.181  1.00  0.00    -0.339 C  
HETATM    2  C   UNL     1      -8.536  14.704  66.943  1.00  0.00    -0.173 C  
HETATM    3  C   UNL     1      -8.432  16.121  67.526  1.00  0.00    -0.177 C  
ENDROOT
BRANCH   2   4
HETATM    4  O   UNL     1      -8.267  13.601  67.869  1.00  0.00    -0.144 OA 
BRANCH   4   5
HETATM    5  C   UNL     1      -7.119  12.890  67.748  1.00  0.00    -0.137 C  
HETATM    6  O   UNL     1      -6.047  13.400  67.418  1.00  0.00    -0.315 OA 
BRANCH   5   7
HETATM    7  C   UNL     1      -7.207  11.363  68.030  1.00  0.00    -0.084 C  
HETATM    8  C   UNL     1      -7.849  10.666  66.831  1.00  0.00    -0.121 C  
BRANCH   7   9
HETATM    9  N   UNL     1      -7.807  10.879  69.333  1.00  0.00    -0.336 NA 
HETATM   10  H   UNL     1      -7.920  11.646  69.996  1.00  0.00     0.000 HD 
BRANCH   9  11
HETATM   11  P   UNL     1      -9.324  10.021  69.084  1.00  0.00    -0.213 P  
HETATM   12  O   UNL     1     -10.156  11.319  68.939  1.00  0.00    -0.204 OA 
BRANCH  11  13
HETATM   13  C   UNL     1     -10.243   9.655  70.721  1.00  0.00    -0.260 C  
BRANCH  13  14
HETATM   14  O   UNL     1     -11.679   9.365  70.529  1.00  0.00    -0.262 OA 
BRANCH  14  15
HETATM   15  C   UNL     1     -12.698  10.151  71.204  1.00  0.00    -0.396 C  
HETATM   16  C   UNL     1     -13.843   9.237  71.661  1.00  0.00    -0.366 C  
BRANCH  15  17
HETATM   17  C   UNL     1     -13.148  11.396  70.453  1.00  0.00     0.299 C  
BRANCH  17  18
HETATM   18  N   UNL     1     -13.097  12.620  71.205  1.00  0.00    -0.219 NA 
HETATM   19  C   UNL     1     -13.624  12.866  72.444  1.00  0.00    -0.478 A  
HETATM   20  N   UNL     1     -13.317  14.071  72.872  1.00  0.00    -0.648 NA 
HETATM   21  C   UNL     1     -12.579  14.621  71.848  1.00  0.00    -0.339 A  
HETATM   22  C   UNL     1     -11.960  15.867  71.710  1.00  0.00    -0.494 A  
HETATM   23  N   UNL     1     -11.352  16.164  70.538  1.00  0.00    -0.390 NA 
HETATM   24  N   UNL     1     -11.965  16.800  72.735  1.00  0.00    -0.409 NA 
HETATM   25  C   UNL     1     -11.334  15.221  69.578  1.00  0.00    -0.288 A  
HETATM   26  H1  UNL     1     -11.513  17.710  72.635  1.00  0.00     0.000 HD 
HETATM   27  H2  UNL     1     -11.583  16.352  73.568  1.00  0.00     0.000 HD 
HETATM   28  N   UNL     1     -11.859  13.975  69.606  1.00  0.00    -0.309 NA 
HETATM   29  C   UNL     1     -12.466  13.753  70.782  1.00  0.00    -0.370 A  
ENDBRANCH  17  18
ENDBRANCH  15  17
ENDBRANCH  14  15
ENDBRANCH  13  14
ENDBRANCH  11  13
BRANCH  11  30
HETATM   30  O   UNL     1      -8.394   8.570  69.245  1.00  0.00    -0.116 OA 
BRANCH  30  31
HETATM   31  C   UNL     1      -9.051   7.384  68.971  1.00  0.00    -0.133 A  
HETATM   32  C   UNL     1      -8.587   6.241  69.625  1.00  0.00    -0.133 A  
HETATM   33  C   UNL     1     -10.704   6.026  67.825  1.00  0.00    -0.369 A  
HETATM   34  C   UNL     1     -10.119   7.276  68.075  1.00  0.00    -0.207 A  
HETATM   35  C   UNL     1     -10.223   4.885  68.465  1.00  0.00    -0.105 A  
HETATM   36  C   UNL     1      -9.165   4.994  69.363  1.00  0.00    -0.156 A  
ENDBRANCH  30  31
ENDBRANCH  11  30
ENDBRANCH   9  11
ENDBRANCH   7   9
ENDBRANCH   5   7
ENDBRANCH   4   5
ENDBRANCH   2   4
TORSDOF 12
ENDMDL
MODEL      200
REMARK 921   NORMALIZED FREE ENERGY PREDICTED BY IDOCK:   -4.81 KCAL/MOL
REMARK 922        TOTAL FREE ENERGY PREDICTED BY IDOCK:   -9.91 KCAL/MOL
REMARK 923 INTER-LIGAND FREE ENERGY PREDICTED BY IDOCK:   -8.17 KCAL/MOL
REMARK 924 INTRA-LIGAND FREE ENERGY PREDICTED BY IDOCK:   -1.74 KCAL/MOL
REMARK 927      BINDING AFFINITY PREDICTED BY RF-SCORE:    0.00 PKD
ROOT
HETATM    1  C   UNL     1     -10.375  17.605  66.693  1.00  0.00    -0.333 C  
HETATM    2  C   UNL     1     -10.470  16.088  66.511  1.00  0.00    -0.302 C  
HETATM    3  C   UNL     1     -11.295  15.454  67.639  1.00  0.00    -0.292 C  
ENDROOT
BRANCH   2   4
HETATM    4  O   UNL     1     -10.840  15.709  65.145  1.00  0.00    -0.390 OA 
BRANCH   4   5
HETATM    5  C   UNL     1     -11.591  14.600  64.938  1.00  0.00    -0.405 C  
HETATM    6  O   UNL     1     -12.800  14.644  64.701  1.00  0.00    -0.559 OA 
BRANCH   5   7
HETATM    7  C   UNL     1     -10.861  13.230  65.031  1.00  0.00    -0.322 C  
HETATM    8  C   UNL     1     -10.800  12.597  63.641  1.00  0.00    -0.437 C  
BRANCH   7   9
HETATM    9  N   UNL     1     -11.295  12.223  66.076  1.00  0.00    -0.334 NA 
HETATM   10  H   UNL     1     -11.789  11.439  65.651  1.00  0.00     0.000 HD 
BRANCH   9  11
HETATM   11  P   UNL     1      -9.944  11.669  67.061  1.00  0.00    -0.210 P  
HETATM   12  O   UNL     1      -8.954  12.705  66.474  1.00  0.00    -0.199 OA 
BRANCH  11  13
HETATM   13  C   UNL     1      -8.937  10.279  66.217  1.00  0.00    -0.153 C  
BRANCH  13  14
HETATM   14  O   UNL     1      -7.494  10.337  66.529  1.00  0.00    -0.104 OA 
BRANCH  14  15
HETATM   15  C   UNL     1      -6.828   9.232  67.198  1.00  0.00    -0.084 C  
HETATM   16  C   UNL     1      -5.957   8.463  66.196  1.00  0.00    -0.045 C  
BRANCH  15  17
HETATM   17  C   UNL     1      -7.740   8.353  68.044  1.00  0.00    -0.103 C  
BRANCH  17  18
HETATM   18  N   UNL     1      -7.660   8.569  69.462  1.00  0.00    -0.087 NA 
HETATM   19  C   UNL     1      -6.911   9.502  70.128  1.00  0.00    -0.092 A  
HETATM   20  N   UNL     1      -7.144   9.477  71.422  1.00  0.00    -0.322 NA 
HETATM   21  C   UNL     1      -8.067   8.469  71.586  1.00  0.00    -0.150 A  
HETATM   22  C   UNL     1      -8.713   7.973  72.721  1.00  0.00    -0.202 A  
HETATM   23  N   UNL     1      -9.535   6.906  72.588  1.00  0.00    -0.142 NA 
HETATM   24  N   UNL     1      -8.525   8.539  73.973  1.00  0.00    -0.355 NA 
HETATM   25  C   UNL     1      -9.725   6.405  71.353  1.00  0.00    -0.172 A  
HETATM   26  H1  UNL     1      -8.997   8.177  74.802  1.00  0.00     0.000 HD 
HETATM   27  H2  UNL     1      -8.738   9.534  73.901  1.00  0.00     0.000 HD 
HETATM   28  N   UNL     1      -9.191   6.818  70.181  1.00  0.00    -0.155 NA 
HETATM   29  C   UNL     1      -8.371   7.860  70.386  1.00  0.00    -0.121 A  
ENDBRANCH  17  18
ENDBRANCH  15  17
ENDBRANCH  14  15
ENDBRANCH  13  14
ENDBRANCH  11  13
BRANCH  11  30
HETATM   30  O   UNL     1     -11.050  10.511  67.717  1.00  0.00    -0.290 OA 
BRANCH  30  31
HETATM   31  C   UNL     1     -11.482  10.737  69.012  1.00  0.00    -0.298 A  
HETATM   32  C   UNL     1     -11.284   9.705  69.931  1.00  0.00    -0.244 A  
HETATM   33  C   UNL     1     -12.551  12.047  70.752  1.00  0.00    -0.312 A  
HETATM   34  C   UNL     1     -12.110  11.915  69.428  1.00  0.00    -0.277 A  
HETATM   35  C   UNL     1     -12.371  11.005  71.660  1.00  0.00    -0.206 A  
HETATM   36  C   UNL     1     -11.738   9.836  71.248  1.00  0.00    -0.472 A  
ENDBRANCH  30  31
ENDBRANCH  11  30
ENDBRANCH   9  11
ENDBRANCH   7   9
ENDBRANCH   5   7
ENDBRANCH   4   5
ENDBRANCH   2   4
TORSDOF 12
ENDMDL
MODEL      201
REMARK 921   NORMALIZED FREE ENERGY PREDICTED BY IDOCK:   -4.81 KCAL/MOL
REMARK 922        TOTAL FREE ENERGY PREDICTED BY IDOCK:   -9.89 KCAL/MOL
REMARK 923 INTER-LIGAND FREE ENERGY PREDICTED BY IDOCK:   -8.10 KCAL/MOL
REMARK 924 INTRA-LIGAND FREE ENERGY PREDICTED BY IDOCK:   -1.79 KCAL/MOL
REMARK 927      BINDING AFFINITY PREDICTED BY RF-SCORE:    0.00 PKD
ROOT
HETATM    1  C   UNL     1      -8.949  16.948  66.144  1.00  0.00    -0.271 C  
HETATM    2  C   UNL     1     -10.255  16.268  66.562  1.00  0.00    -0.300 C  
HETATM    3  C   UNL     1     -10.721  15.274  65.489  1.00  0.00    -0.385 C  
ENDROOT
BRANCH   2   4
HETATM    4  O   UNL     1     -10.210  15.764  67.938  1.00  0.00    -0.235 OA 
BRANCH   4   5
HETATM    5  C   UNL     1     -10.878  14.628  68.256  1.00  0.00    -0.245 C  
HETATM    6  O   UNL     1     -12.083  14.610  68.515  1.00  0.00    -0.284 OA 
BRANCH   5   7
HETATM    7  C   UNL     1     -10.047  13.314  68.303  1.00  0.00    -0.250 C  
HETATM    8  C   UNL     1      -8.566  13.661  68.446  1.00  0.00    -0.151 C  
BRANCH   7   9
HETATM    9  N   UNL     1     -10.265  12.257  67.242  1.00  0.00    -0.210 NA 
HETATM   10  H   UNL     1      -9.418  12.101  66.695  1.00  0.00     0.000 HD 
BRANCH   9  11
HETATM   11  P   UNL     1     -10.871  10.751  67.925  1.00  0.00    -0.306 P  
HETATM   12  O   UNL     1     -12.313  11.287  68.097  1.00  0.00    -0.500 OA 
BRANCH  11  13
HETATM   13  C   UNL     1     -10.704  10.684  69.829  1.00  0.00    -0.230 C  
BRANCH  13  14
HETATM   14  O   UNL     1     -12.005  10.578  70.522  1.00  0.00    -0.285 OA 
BRANCH  14  15
HETATM   15  C   UNL     1     -12.334   9.408  71.320  1.00  0.00    -0.341 C  
HETATM   16  C   UNL     1     -13.560   9.702  72.194  1.00  0.00    -0.471 C  
BRANCH  15  17
HETATM   17  C   UNL     1     -11.160   8.794  72.070  1.00  0.00    -0.371 C  
BRANCH  17  18
HETATM   18  N   UNL     1     -10.835   7.443  71.704  1.00  0.00    -0.219 NA 
HETATM   19  C   UNL     1     -10.723   6.919  70.444  1.00  0.00    -0.246 A  
HETATM   20  N   UNL     1     -10.327   5.665  70.474  1.00  0.00    -0.239 NA 
HETATM   21  C   UNL     1     -10.204   5.375  71.814  1.00  0.00    -0.206 A  
HETATM   22  C   UNL     1      -9.807   4.214  72.483  1.00  0.00    -0.155 A  
HETATM   23  N   UNL     1      -9.851   4.197  73.836  1.00  0.00    -0.114 NA 
HETATM   24  N   UNL     1      -9.383   3.086  71.798  1.00  0.00    -0.114 NA 
HETATM   25  C   UNL     1     -10.232   5.321  74.471  1.00  0.00    -0.272 A  
HETATM   26  H1  UNL     1      -9.093   2.239  72.287  1.00  0.00     0.000 HD 
HETATM   27  H2  UNL     1      -8.622   3.365  71.178  1.00  0.00     0.000 HD 
HETATM   28  N   UNL     1     -10.599   6.509  73.940  1.00  0.00    -0.289 NA 
HETATM   29  C   UNL     1     -10.557   6.453  72.600  1.00  0.00    -0.224 A  
ENDBRANCH  17  18
ENDBRANCH  15  17
ENDBRANCH  14  15
ENDBRANCH  13  14
ENDBRANCH  11  13
BRANCH  11  30
HETATM   30  O   UNL     1      -9.259  10.151  67.731  1.00  0.00    -0.137 OA 
BRANCH  30  31
HETATM   31  C   UNL     1      -9.130   8.790  67.518  1.00  0.00    -0.133 A  
HETATM   32  C   UNL     1      -7.972   8.184  68.006  1.00  0.00    -0.127 A  
HETATM   33  C   UNL     1      -9.846   6.650  66.627  1.00  0.00    -0.208 A  
HETATM   34  C   UNL     1     -10.073   8.018  66.833  1.00  0.00    -0.362 A  
HETATM   35  C   UNL     1      -8.678   6.053  67.098  1.00  0.00    -0.109 A  
HETATM   36  C   UNL     1      -7.742   6.820  67.786  1.00  0.00    -0.111 A  
ENDBRANCH  30  31
ENDBRANCH  11  30
ENDBRANCH   9  11
ENDBRANCH   7   9
ENDBRANCH   5   7
ENDBRANCH   4   5
ENDBRANCH   2   4
TORSDOF 12
ENDMDL
MODEL      202
REMARK 921   NORMALIZED FREE ENERGY PREDICTED BY IDOCK:   -4.81 KCAL/MOL
REMARK 922        TOTAL FREE ENERGY PREDICTED BY IDOCK:   -9.89 KCAL/MOL
REMARK 923 INTER-LIGAND FREE ENERGY PREDICTED BY IDOCK:   -8.31 KCAL/MOL
REMARK 924 INTRA-LIGAND FREE ENERGY PREDICTED BY IDOCK:   -1.58 KCAL/MOL
REMARK 927      BINDING AFFINITY PREDICTED BY RF-SCORE:    0.00 PKD
ROOT
HETATM    1  C   UNL     1      -5.878  17.395  69.782  1.00  0.00    -0.244 C  
HETATM    2  C   UNL     1      -6.782  17.895  68.653  1.00  0.00    -0.239 C  
HETATM    3  C   UNL     1      -6.964  19.417  68.734  1.00  0.00    -0.368 C  
ENDROOT
BRANCH   2   4
HETATM    4  O   UNL     1      -6.398  17.356  67.346  1.00  0.00    -0.133 OA 
BRANCH   4   5
HETATM    5  C   UNL     1      -7.286  17.387  66.322  1.00  0.00    -0.311 C  
HETATM    6  O   UNL     1      -7.170  18.146  65.357  1.00  0.00    -0.529 OA 
BRANCH   5   7
HETATM    7  C   UNL     1      -8.500  16.420  66.417  1.00  0.00    -0.329 C  
HETATM    8  C   UNL     1      -9.793  17.234  66.427  1.00  0.00    -0.310 C  
BRANCH   7   9
HETATM    9  N   UNL     1      -8.516  15.348  67.486  1.00  0.00    -0.164 NA 
HETATM   10  H   UNL     1      -8.326  15.741  68.408  1.00  0.00     0.000 HD 
BRANCH   9  11
HETATM   11  P   UNL     1     -10.021  14.432  67.481  1.00  0.00    -0.226 P  
HETATM   12  O   UNL     1     -10.502  15.013  68.833  1.00  0.00    -0.226 OA 
BRANCH  11  13
HETATM   13  C   UNL     1      -9.846  12.721  68.317  1.00  0.00    -0.224 C  
BRANCH  13  14
HETATM   14  O   UNL     1      -8.846  11.853  67.660  1.00  0.00    -0.157 OA 
BRANCH  14  15
HETATM   15  C   UNL     1      -7.529  11.656  68.242  1.00  0.00    -0.097 C  
HETATM   16  C   UNL     1      -6.481  11.527  67.129  1.00  0.00    -0.123 C  
BRANCH  15  17
HETATM   17  C   UNL     1      -7.455  10.569  69.305  1.00  0.00    -0.122 C  
BRANCH  17  18
HETATM   18  N   UNL     1      -8.276   9.414  69.062  1.00  0.00    -0.105 NA 
HETATM   19  C   UNL     1      -8.035   8.381  68.197  1.00  0.00    -0.119 A  
HETATM   20  N   UNL     1      -8.955   7.445  68.290  1.00  0.00    -0.130 NA 
HETATM   21  C   UNL     1      -9.830   7.918  69.242  1.00  0.00    -0.177 A  
HETATM   22  C   UNL     1     -10.996   7.374  69.788  1.00  0.00    -0.200 A  
HETATM   23  N   UNL     1     -11.704   8.111  70.675  1.00  0.00    -0.205 NA 
HETATM   24  N   UNL     1     -11.445   6.110  69.436  1.00  0.00    -0.457 NA 
HETATM   25  C   UNL     1     -11.220   9.318  71.023  1.00  0.00    -0.321 A  
HETATM   26  H1  UNL     1     -12.296   5.713  69.834  1.00  0.00     0.000 HD 
HETATM   27  H2  UNL     1     -10.685   5.451  69.602  1.00  0.00     0.000 HD 
HETATM   28  N   UNL     1     -10.093   9.932  70.598  1.00  0.00    -0.176 NA 
HETATM   29  C   UNL     1      -9.452   9.161  69.706  1.00  0.00    -0.182 A  
ENDBRANCH  17  18
ENDBRANCH  15  17
ENDBRANCH  14  15
ENDBRANCH  13  14
ENDBRANCH  11  13
BRANCH  11  30
HETATM   30  O   UNL     1      -9.484  13.784  65.969  1.00  0.00    -0.215 OA 
BRANCH  30  31
HETATM   31  C   UNL     1     -10.470  13.382  65.086  1.00  0.00    -0.347 A  
HETATM   32  C   UNL     1     -10.466  12.039  64.706  1.00  0.00    -0.335 A  
HETATM   33  C   UNL     1     -12.375  13.762  63.632  1.00  0.00    -0.256 A  
HETATM   34  C   UNL     1     -11.434  14.244  64.553  1.00  0.00    -0.363 A  
HETATM   35  C   UNL     1     -12.354  12.425  63.240  1.00  0.00    -0.497 A  
HETATM   36  C   UNL     1     -11.399  11.565  63.777  1.00  0.00    -0.420 A  
ENDBRANCH  30  31
ENDBRANCH  11  30
ENDBRANCH   9  11
ENDBRANCH   7   9
ENDBRANCH   5   7
ENDBRANCH   4   5
ENDBRANCH   2   4
TORSDOF 12
ENDMDL
MODEL      203
REMARK 921   NORMALIZED FREE ENERGY PREDICTED BY IDOCK:   -4.80 KCAL/MOL
REMARK 922        TOTAL FREE ENERGY PREDICTED BY IDOCK:   -9.87 KCAL/MOL
REMARK 923 INTER-LIGAND FREE ENERGY PREDICTED BY IDOCK:   -9.51 KCAL/MOL
REMARK 924 INTRA-LIGAND FREE ENERGY PREDICTED BY IDOCK:   -0.36 KCAL/MOL
REMARK 927      BINDING AFFINITY PREDICTED BY RF-SCORE:    0.00 PKD
ROOT
HETATM    1  C   UNL     1      -8.133   5.368  73.120  1.00  0.00    -0.112 C  
HETATM    2  C   UNL     1      -9.272   6.389  73.156  1.00  0.00    -0.128 C  
HETATM    3  C   UNL     1      -8.747   7.780  73.537  1.00  0.00    -0.296 C  
ENDROOT
BRANCH   2   4
HETATM    4  O   UNL     1     -10.125   6.321  71.966  1.00  0.00    -0.182 OA 
BRANCH   4   5
HETATM    5  C   UNL     1     -11.437   6.645  72.063  1.00  0.00    -0.291 C  
HETATM    6  O   UNL     1     -12.269   5.918  72.610  1.00  0.00    -0.147 OA 
BRANCH   5   7
HETATM    7  C   UNL     1     -11.875   7.997  71.429  1.00  0.00    -0.295 C  
HETATM    8  C   UNL     1     -13.262   8.371  71.949  1.00  0.00    -0.381 C  
BRANCH   7   9
HETATM    9  N   UNL     1     -11.782   8.179  69.928  1.00  0.00    -0.307 NA 
HETATM   10  H   UNL     1     -12.668   8.502  69.539  1.00  0.00     0.000 HD 
BRANCH   9  11
HETATM   11  P   UNL     1     -10.457   9.246  69.473  1.00  0.00    -0.225 P  
HETATM   12  O   UNL     1     -10.056   9.546  70.938  1.00  0.00    -0.286 OA 
BRANCH  11  13
HETATM   13  C   UNL     1     -11.008  11.068  69.287  1.00  0.00    -0.252 C  
BRANCH  13  14
HETATM   14  O   UNL     1     -11.726  11.331  68.022  1.00  0.00    -0.501 OA 
BRANCH  14  15
HETATM   15  C   UNL     1     -11.204  12.274  67.047  1.00  0.00    -0.310 C  
HETATM   16  C   UNL     1     -11.142  11.613  65.664  1.00  0.00    -0.308 C  
BRANCH  15  17
HETATM   17  C   UNL     1      -9.922  12.982  67.464  1.00  0.00    -0.212 C  
BRANCH  17  18
HETATM   18  N   UNL     1      -9.938  14.412  67.331  1.00  0.00    -0.240 NA 
HETATM   19  C   UNL     1      -9.435  15.342  68.202  1.00  0.00    -0.202 A  
HETATM   20  N   UNL     1      -9.545  16.563  67.726  1.00  0.00    -0.230 NA 
HETATM   21  C   UNL     1     -10.166  16.402  66.507  1.00  0.00    -0.304 A  
HETATM   22  C   UNL     1     -10.542  17.321  65.524  1.00  0.00    -0.127 A  
HETATM   23  N   UNL     1     -11.213  16.873  64.438  1.00  0.00    -1.120 NA 
HETATM   24  N   UNL     1     -10.253  18.672  65.641  1.00  0.00    -0.504 NA 
HETATM   25  C   UNL     1     -11.444  15.550  64.338  1.00  0.00    -0.259 A  
HETATM   26  H1  UNL     1     -10.527  19.343  64.923  1.00  0.00     0.000 HD 
HETATM   27  H2  UNL     1      -9.248  18.765  65.788  1.00  0.00     0.000 HD 
HETATM   28  N   UNL     1     -11.099  14.564  65.197  1.00  0.00    -0.348 NA 
HETATM   29  C   UNL     1     -10.459  15.076  66.259  1.00  0.00    -0.304 A  
ENDBRANCH  17  18
ENDBRANCH  15  17
ENDBRANCH  14  15
ENDBRANCH  13  14
ENDBRANCH  11  13
BRANCH  11  30
HETATM   30  O   UNL     1     -10.905   8.910  67.835  1.00  0.00    -0.164 OA 
BRANCH  30  31
HETATM   31  C   UNL     1     -10.317   7.803  67.251  1.00  0.00    -0.301 A  
HETATM   32  C   UNL     1      -8.966   7.910  66.916  1.00  0.00    -0.157 A  
HETATM   33  C   UNL     1     -10.339   5.555  66.337  1.00  0.00    -0.272 A  
HETATM   34  C   UNL     1     -11.003   6.618  66.967  1.00  0.00    -0.463 A  
HETATM   35  C   UNL     1      -8.996   5.675  65.986  1.00  0.00    -0.158 A  
HETATM   36  C   UNL     1      -8.312   6.852  66.275  1.00  0.00    -0.126 A  
ENDBRANCH  30  31
ENDBRANCH  11  30
ENDBRANCH   9  11
ENDBRANCH   7   9
ENDBRANCH   5   7
ENDBRANCH   4   5
ENDBRANCH   2   4
TORSDOF 12
ENDMDL
MODEL      204
REMARK 921   NORMALIZED FREE ENERGY PREDICTED BY IDOCK:   -4.79 KCAL/MOL
REMARK 922        TOTAL FREE ENERGY PREDICTED BY IDOCK:   -9.87 KCAL/MOL
REMARK 923 INTER-LIGAND FREE ENERGY PREDICTED BY IDOCK:   -8.10 KCAL/MOL
REMARK 924 INTRA-LIGAND FREE ENERGY PREDICTED BY IDOCK:   -1.77 KCAL/MOL
REMARK 927      BINDING AFFINITY PREDICTED BY RF-SCORE:    0.00 PKD
ROOT
HETATM    1  C   UNL     1     -11.594  12.243  63.759  1.00  0.00    -0.555 C  
HETATM    2  C   UNL     1     -11.508  12.895  65.141  1.00  0.00    -0.313 C  
HETATM    3  C   UNL     1     -11.895  14.379  65.070  1.00  0.00    -0.400 C  
ENDROOT
BRANCH   2   4
HETATM    4  O   UNL     1     -12.172  12.101  66.178  1.00  0.00    -0.611 OA 
BRANCH   4   5
HETATM    5  C   UNL     1     -11.638  12.045  67.423  1.00  0.00    -0.318 C  
HETATM    6  O   UNL     1     -11.603  13.017  68.180  1.00  0.00    -0.297 OA 
BRANCH   5   7
HETATM    7  C   UNL     1     -11.040  10.681  67.870  1.00  0.00    -0.308 C  
HETATM    8  C   UNL     1     -10.812   9.804  66.639  1.00  0.00    -0.011 C  
BRANCH   7   9
HETATM    9  N   UNL     1     -11.709   9.903  68.983  1.00  0.00    -0.436 NA 
HETATM   10  H   UNL     1     -12.213   9.095  68.619  1.00  0.00     0.000 HD 
BRANCH   9  11
HETATM   11  P   UNL     1     -10.567   9.431  70.238  1.00  0.00    -0.294 P  
HETATM   12  O   UNL     1      -9.431  10.328  69.688  1.00  0.00    -0.211 OA 
BRANCH  11  13
HETATM   13  C   UNL     1      -9.538   7.891  69.758  1.00  0.00    -0.167 C  
BRANCH  13  14
HETATM   14  O   UNL     1     -10.128   7.124  68.642  1.00  0.00    -0.162 OA 
BRANCH  14  15
HETATM   15  C   UNL     1      -9.518   5.889  68.179  1.00  0.00    -0.115 C  
HETATM   16  C   UNL     1      -9.694   4.792  69.237  1.00  0.00    -0.266 C  
BRANCH  15  17
HETATM   17  C   UNL     1      -8.097   6.034  67.653  1.00  0.00    -0.106 C  
BRANCH  17  18
HETATM   18  N   UNL     1      -7.954   6.864  66.489  1.00  0.00    -0.106 NA 
HETATM   19  C   UNL     1      -8.218   6.536  65.186  1.00  0.00    -0.126 A  
HETATM   20  N   UNL     1      -8.057   7.565  64.384  1.00  0.00    -0.113 NA 
HETATM   21  C   UNL     1      -7.652   8.587  65.213  1.00  0.00    -0.089 A  
HETATM   22  C   UNL     1      -7.339   9.925  64.959  1.00  0.00    -0.135 A  
HETATM   23  N   UNL     1      -6.892  10.694  65.979  1.00  0.00    -0.133 NA 
HETATM   24  N   UNL     1      -7.465  10.475  63.693  1.00  0.00    -0.345 NA 
HETATM   25  C   UNL     1      -6.817  10.138  67.203  1.00  0.00    -0.082 A  
HETATM   26  H1  UNL     1      -7.237  11.452  63.507  1.00  0.00     0.000 HD 
HETATM   27  H2  UNL     1      -8.421  10.312  63.375  1.00  0.00     0.000 HD 
HETATM   28  N   UNL     1      -7.125   8.876  67.580  1.00  0.00    -0.075 NA 
HETATM   29  C   UNL     1      -7.538   8.163  66.521  1.00  0.00    -0.092 A  
ENDBRANCH  17  18
ENDBRANCH  15  17
ENDBRANCH  14  15
ENDBRANCH  13  14
ENDBRANCH  11  13
BRANCH  11  30
HETATM   30  O   UNL     1     -11.837   8.429  70.853  1.00  0.00    -0.283 OA 
BRANCH  30  31
HETATM   31  C   UNL     1     -11.484   7.520  71.834  1.00  0.00    -0.270 A  
HETATM   32  C   UNL     1     -10.639   7.981  72.845  1.00  0.00    -0.399 A  
HETATM   33  C   UNL     1     -11.471   5.322  72.861  1.00  0.00    -0.339 A  
HETATM   34  C   UNL     1     -11.908   6.188  71.848  1.00  0.00    -0.316 A  
HETATM   35  C   UNL     1     -10.611   5.782  73.856  1.00  0.00    -0.266 A  
HETATM   36  C   UNL     1     -10.195   7.110  73.847  1.00  0.00    -0.358 A  
ENDBRANCH  30  31
ENDBRANCH  11  30
ENDBRANCH   9  11
ENDBRANCH   7   9
ENDBRANCH   5   7
ENDBRANCH   4   5
ENDBRANCH   2   4
TORSDOF 12
ENDMDL
MODEL      205
REMARK 921   NORMALIZED FREE ENERGY PREDICTED BY IDOCK:   -4.79 KCAL/MOL
REMARK 922        TOTAL FREE ENERGY PREDICTED BY IDOCK:   -9.86 KCAL/MOL
REMARK 923 INTER-LIGAND FREE ENERGY PREDICTED BY IDOCK:   -8.03 KCAL/MOL
REMARK 924 INTRA-LIGAND FREE ENERGY PREDICTED BY IDOCK:   -1.83 KCAL/MOL
REMARK 927      BINDING AFFINITY PREDICTED BY RF-SCORE:    0.00 PKD
ROOT
HETATM    1  C   UNL     1     -10.391  17.232  66.818  1.00  0.00    -0.308 C  
HETATM    2  C   UNL     1     -10.690  15.739  66.657  1.00  0.00    -0.287 C  
HETATM    3  C   UNL     1     -11.466  15.204  67.869  1.00  0.00    -0.344 C  
ENDROOT
BRANCH   2   4
HETATM    4  O   UNL     1     -11.241  15.416  65.339  1.00  0.00    -0.330 OA 
BRANCH   4   5
HETATM    5  C   UNL     1     -11.830  14.212  65.137  1.00  0.00    -0.372 C  
HETATM    6  O   UNL     1     -13.036  14.084  64.917  1.00  0.00    -0.693 OA 
BRANCH   5   7
HETATM    7  C   UNL     1     -10.911  12.959  65.212  1.00  0.00    -0.292 C  
HETATM    8  C   UNL     1     -10.676  12.422  63.801  1.00  0.00    -0.492 C  
BRANCH   7   9
HETATM    9  N   UNL     1     -11.251  11.842  66.176  1.00  0.00    -0.332 NA 
HETATM   10  H   UNL     1     -11.566  11.008  65.680  1.00  0.00     0.000 HD 
BRANCH   9  11
HETATM   11  P   UNL     1      -9.912  11.474  67.259  1.00  0.00    -0.195 P  
HETATM   12  O   UNL     1      -9.120  12.751  66.885  1.00  0.00    -0.213 OA 
BRANCH  11  13
HETATM   13  C   UNL     1      -8.551  10.424  66.420  1.00  0.00    -0.132 C  
BRANCH  13  14
HETATM   14  O   UNL     1      -7.358  10.233  67.270  1.00  0.00    -0.089 OA 
BRANCH  14  15
HETATM   15  C   UNL     1      -7.359   9.267  68.355  1.00  0.00    -0.077 C  
HETATM   16  C   UNL     1      -6.983   9.960  69.671  1.00  0.00    -0.086 C  
BRANCH  15  17
HETATM   17  C   UNL     1      -6.585   7.987  68.074  1.00  0.00    -0.057 C  
BRANCH  17  18
HETATM   18  N   UNL     1      -7.310   6.974  67.359  1.00  0.00    -0.089 NA 
HETATM   19  C   UNL     1      -7.374   6.786  66.004  1.00  0.00    -0.075 A  
HETATM   20  N   UNL     1      -8.062   5.708  65.695  1.00  0.00    -0.114 NA 
HETATM   21  C   UNL     1      -8.469   5.201  66.909  1.00  0.00    -0.106 A  
HETATM   22  C   UNL     1      -9.216   4.068  67.241  1.00  0.00    -0.165 A  
HETATM   23  N   UNL     1      -9.529   3.854  68.540  1.00  0.00    -0.160 NA 
HETATM   24  N   UNL     1      -9.646   3.170  66.277  1.00  0.00    -0.401 NA 
HETATM   25  C   UNL     1      -9.063   4.726  69.455  1.00  0.00    -0.104 A  
HETATM   26  H1  UNL     1     -10.191   2.342  66.520  1.00  0.00     0.000 HD 
HETATM   27  H2  UNL     1      -8.830   2.863  65.749  1.00  0.00     0.000 HD 
HETATM   28  N   UNL     1      -8.305   5.829  69.263  1.00  0.00    -0.107 NA 
HETATM   29  C   UNL     1      -8.050   5.996  67.956  1.00  0.00    -0.110 A  
ENDBRANCH  17  18
ENDBRANCH  15  17
ENDBRANCH  14  15
ENDBRANCH  13  14
ENDBRANCH  11  13
BRANCH  11  30
HETATM   30  O   UNL     1     -10.797  10.047  67.678  1.00  0.00    -0.270 OA 
BRANCH  30  31
HETATM   31  C   UNL     1     -11.135   9.902  69.012  1.00  0.00    -0.146 A  
HETATM   32  C   UNL     1     -10.648   8.769  69.665  1.00  0.00    -0.220 A  
HETATM   33  C   UNL     1     -12.267  10.561  71.054  1.00  0.00    -0.505 A  
HETATM   34  C   UNL     1     -11.941  10.805  69.713  1.00  0.00    -0.397 A  
HETATM   35  C   UNL     1     -11.795   9.417  71.696  1.00  0.00    -0.464 A  
HETATM   36  C   UNL     1     -10.987   8.523  71.001  1.00  0.00    -0.296 A  
ENDBRANCH  30  31
ENDBRANCH  11  30
ENDBRANCH   9  11
ENDBRANCH   7   9
ENDBRANCH   5   7
ENDBRANCH   4   5
ENDBRANCH   2   4
TORSDOF 12
ENDMDL
MODEL      206
REMARK 921   NORMALIZED FREE ENERGY PREDICTED BY IDOCK:   -4.77 KCAL/MOL
REMARK 922        TOTAL FREE ENERGY PREDICTED BY IDOCK:   -9.84 KCAL/MOL
REMARK 923 INTER-LIGAND FREE ENERGY PREDICTED BY IDOCK:   -8.56 KCAL/MOL
REMARK 924 INTRA-LIGAND FREE ENERGY PREDICTED BY IDOCK:   -1.28 KCAL/MOL
REMARK 927      BINDING AFFINITY PREDICTED BY RF-SCORE:    0.00 PKD
ROOT
HETATM    1  C   UNL     1      -6.932  10.205  62.757  1.00  0.00    -0.130 C  
HETATM    2  C   UNL     1      -7.953  10.169  63.896  1.00  0.00    -0.153 C  
HETATM    3  C   UNL     1      -9.381  10.049  63.346  1.00  0.00    -0.300 C  
ENDROOT
BRANCH   2   4
HETATM    4  O   UNL     1      -7.582   9.224  64.953  1.00  0.00    -0.103 OA 
BRANCH   4   5
HETATM    5  C   UNL     1      -8.503   8.859  65.878  1.00  0.00    -0.136 C  
HETATM    6  O   UNL     1      -9.113   7.789  65.831  1.00  0.00    -0.156 OA 
BRANCH   5   7
HETATM    7  C   UNL     1      -8.787   9.873  67.023  1.00  0.00    -0.134 C  
HETATM    8  C   UNL     1      -7.460  10.366  67.598  1.00  0.00    -0.089 C  
BRANCH   7   9
HETATM    9  N   UNL     1      -9.758   9.501  68.124  1.00  0.00    -0.144 NA 
HETATM   10  H   UNL     1      -9.270   9.292  68.994  1.00  0.00     0.000 HD 
BRANCH   9  11
HETATM   11  P   UNL     1     -10.990  10.737  68.362  1.00  0.00    -0.295 P  
HETATM   12  O   UNL     1     -11.356  10.812  66.860  1.00  0.00    -0.303 OA 
BRANCH  11  13
HETATM   13  C   UNL     1     -10.287  12.512  68.245  1.00  0.00    -0.236 C  
BRANCH  13  14
HETATM   14  O   UNL     1     -11.042  13.490  69.055  1.00  0.00    -0.252 OA 
BRANCH  14  15
HETATM   15  C   UNL     1     -11.844  14.524  68.422  1.00  0.00    -0.316 C  
HETATM   16  C   UNL     1     -11.732  14.411  66.897  1.00  0.00    -0.422 C  
BRANCH  15  17
HETATM   17  C   UNL     1     -11.623  15.929  68.967  1.00  0.00    -0.389 C  
BRANCH  17  18
HETATM   18  N   UNL     1     -10.596  16.689  68.309  1.00  0.00    -0.321 NA 
HETATM   19  C   UNL     1     -10.748  17.640  67.337  1.00  0.00    -0.258 A  
HETATM   20  N   UNL     1      -9.601  18.198  67.019  1.00  0.00    -0.278 NA 
HETATM   21  C   UNL     1      -8.676  17.556  67.812  1.00  0.00    -0.230 A  
HETATM   22  C   UNL     1      -7.293  17.713  67.945  1.00  0.00    -0.202 A  
HETATM   23  N   UNL     1      -6.620  16.876  68.768  1.00  0.00    -0.173 NA 
HETATM   24  N   UNL     1      -6.601  18.693  67.250  1.00  0.00    -0.199 NA 
HETATM   25  C   UNL     1      -7.329  15.961  69.455  1.00  0.00    -0.170 A  
HETATM   26  H1  UNL     1      -5.592  18.808  67.347  1.00  0.00     0.000 HD 
HETATM   27  H2  UNL     1      -7.039  19.591  67.456  1.00  0.00     0.000 HD 
HETATM   28  N   UNL     1      -8.662  15.738  69.442  1.00  0.00    -0.258 NA 
HETATM   29  C   UNL     1      -9.265  16.583  68.592  1.00  0.00    -0.238 A  
ENDBRANCH  17  18
ENDBRANCH  15  17
ENDBRANCH  14  15
ENDBRANCH  13  14
ENDBRANCH  11  13
BRANCH  11  30
HETATM   30  O   UNL     1     -10.581  10.653  70.042  1.00  0.00    -0.230 OA 
BRANCH  30  31
HETATM   31  C   UNL     1     -11.525  10.082  70.878  1.00  0.00    -0.371 A  
HETATM   32  C   UNL     1     -11.125   8.962  71.607  1.00  0.00    -0.420 A  
HETATM   33  C   UNL     1     -13.741   9.890  71.846  1.00  0.00    -0.297 A  
HETATM   34  C   UNL     1     -12.836  10.552  71.005  1.00  0.00    -0.502 A  
HETATM   35  C   UNL     1     -13.343   8.760  72.557  1.00  0.00    -0.403 A  
HETATM   36  C   UNL     1     -12.036   8.296  72.436  1.00  0.00    -0.447 A  
ENDBRANCH  30  31
ENDBRANCH  11  30
ENDBRANCH   9  11
ENDBRANCH   7   9
ENDBRANCH   5   7
ENDBRANCH   4   5
ENDBRANCH   2   4
TORSDOF 12
ENDMDL
MODEL      207
REMARK 921   NORMALIZED FREE ENERGY PREDICTED BY IDOCK:   -4.77 KCAL/MOL
REMARK 922        TOTAL FREE ENERGY PREDICTED BY IDOCK:   -9.83 KCAL/MOL
REMARK 923 INTER-LIGAND FREE ENERGY PREDICTED BY IDOCK:   -8.21 KCAL/MOL
REMARK 924 INTRA-LIGAND FREE ENERGY PREDICTED BY IDOCK:   -1.62 KCAL/MOL
REMARK 927      BINDING AFFINITY PREDICTED BY RF-SCORE:    0.00 PKD
ROOT
HETATM    1  C   UNL     1     -11.119  16.178  69.627  1.00  0.00    -0.344 C  
HETATM    2  C   UNL     1     -10.955  14.666  69.457  1.00  0.00    -0.245 C  
HETATM    3  C   UNL     1     -12.220  13.925  69.916  1.00  0.00    -0.393 C  
ENDROOT
BRANCH   2   4
HETATM    4  O   UNL     1     -10.433  14.302  68.138  1.00  0.00    -0.237 OA 
BRANCH   4   5
HETATM    5  C   UNL     1     -11.291  14.125  67.103  1.00  0.00    -0.332 C  
HETATM    6  O   UNL     1     -11.951  15.044  66.615  1.00  0.00    -0.170 OA 
BRANCH   5   7
HETATM    7  C   UNL     1     -11.433  12.678  66.550  1.00  0.00    -0.353 C  
HETATM    8  C   UNL     1     -12.216  12.715  65.239  1.00  0.00    -0.532 C  
BRANCH   7   9
HETATM    9  N   UNL     1     -11.936  11.578  67.461  1.00  0.00    -0.622 NA 
HETATM   10  H   UNL     1     -12.618  10.987  66.986  1.00  0.00     0.000 HD 
BRANCH   9  11
HETATM   11  P   UNL     1     -10.619  10.621  68.132  1.00  0.00    -0.242 P  
HETATM   12  O   UNL     1      -9.601  11.076  67.058  1.00  0.00    -0.174 OA 
BRANCH  11  13
HETATM   13  C   UNL     1     -10.545   8.854  67.404  1.00  0.00    -0.235 C  
BRANCH  13  14
HETATM   14  O   UNL     1      -9.182   8.284  67.400  1.00  0.00    -0.138 OA 
BRANCH  14  15
HETATM   15  C   UNL     1      -8.932   6.945  66.892  1.00  0.00    -0.122 C  
HETATM   16  C   UNL     1      -8.481   7.019  65.427  1.00  0.00    -0.093 C  
BRANCH  15  17
HETATM   17  C   UNL     1     -10.045   5.941  67.158  1.00  0.00    -0.177 C  
BRANCH  17  18
HETATM   18  N   UNL     1     -10.066   5.382  68.481  1.00  0.00    -0.175 NA 
HETATM   19  C   UNL     1     -10.688   5.882  69.594  1.00  0.00    -0.345 A  
HETATM   20  N   UNL     1     -10.574   5.069  70.621  1.00  0.00    -0.152 NA 
HETATM   21  C   UNL     1      -9.827   4.015  70.143  1.00  0.00    -0.137 A  
HETATM   22  C   UNL     1      -9.386   2.836  70.749  1.00  0.00    -0.150 A  
HETATM   23  N   UNL     1      -8.591   1.999  70.041  1.00  0.00    -0.048 NA 
HETATM   24  N   UNL     1      -9.733   2.511  72.051  1.00  0.00    -0.132 NA 
HETATM   25  C   UNL     1      -8.305   2.327  68.767  1.00  0.00    -0.056 A  
HETATM   26  H1  UNL     1      -9.411   1.650  72.494  1.00  0.00     0.000 HD 
HETATM   27  H2  UNL     1     -10.751   2.536  72.119  1.00  0.00     0.000 HD 
HETATM   28  N   UNL     1      -8.700   3.411  68.063  1.00  0.00    -0.100 NA 
HETATM   29  C   UNL     1      -9.463   4.208  68.826  1.00  0.00    -0.163 A  
ENDBRANCH  17  18
ENDBRANCH  15  17
ENDBRANCH  14  15
ENDBRANCH  13  14
ENDBRANCH  11  13
BRANCH  11  30
HETATM   30  O   UNL     1     -11.756  10.112  69.333  1.00  0.00    -0.153 OA 
BRANCH  30  31
HETATM   31  C   UNL     1     -11.240   9.428  70.419  1.00  0.00    -0.262 A  
HETATM   32  C   UNL     1     -12.157   8.779  71.247  1.00  0.00    -0.344 A  
HETATM   33  C   UNL     1      -9.443   8.692  71.873  1.00  0.00    -0.369 A  
HETATM   34  C   UNL     1      -9.878   9.377  70.730  1.00  0.00    -0.348 A  
HETATM   35  C   UNL     1     -10.364   8.063  72.709  1.00  0.00    -0.408 A  
HETATM   36  C   UNL     1     -11.720   8.107  72.395  1.00  0.00    -0.461 A  
ENDBRANCH  30  31
ENDBRANCH  11  30
ENDBRANCH   9  11
ENDBRANCH   7   9
ENDBRANCH   5   7
ENDBRANCH   4   5
ENDBRANCH   2   4
TORSDOF 12
ENDMDL
MODEL      208
REMARK 921   NORMALIZED FREE ENERGY PREDICTED BY IDOCK:   -4.76 KCAL/MOL
REMARK 922        TOTAL FREE ENERGY PREDICTED BY IDOCK:   -9.81 KCAL/MOL
REMARK 923 INTER-LIGAND FREE ENERGY PREDICTED BY IDOCK:   -8.28 KCAL/MOL
REMARK 924 INTRA-LIGAND FREE ENERGY PREDICTED BY IDOCK:   -1.52 KCAL/MOL
REMARK 927      BINDING AFFINITY PREDICTED BY RF-SCORE:    0.00 PKD
ROOT
HETATM    1  C   UNL     1      -8.706   6.567  68.143  1.00  0.00    -0.117 C  
HETATM    2  C   UNL     1      -9.149   7.733  69.029  1.00  0.00    -0.144 C  
HETATM    3  C   UNL     1      -8.500   7.641  70.417  1.00  0.00    -0.136 C  
ENDROOT
BRANCH   2   4
HETATM    4  O   UNL     1      -9.045   9.026  68.349  1.00  0.00    -0.133 OA 
BRANCH   4   5
HETATM    5  C   UNL     1      -9.077  10.170  69.076  1.00  0.00    -0.173 C  
HETATM    6  O   UNL     1     -10.061  10.521  69.730  1.00  0.00    -0.194 OA 
BRANCH   5   7
HETATM    7  C   UNL     1      -7.800  11.058  69.044  1.00  0.00    -0.126 C  
HETATM    8  C   UNL     1      -6.776  10.502  70.032  1.00  0.00    -0.151 C  
BRANCH   7   9
HETATM    9  N   UNL     1      -7.934  12.560  69.177  1.00  0.00    -0.280 NA 
HETATM   10  H   UNL     1      -7.182  12.950  69.745  1.00  0.00     0.000 HD 
BRANCH   9  11
HETATM   11  P   UNL     1      -8.029  13.356  67.608  1.00  0.00    -0.190 P  
HETATM   12  O   UNL     1      -6.505  13.263  67.352  1.00  0.00    -0.213 OA 
BRANCH  11  13
HETATM   13  C   UNL     1      -7.857  15.257  67.734  1.00  0.00    -0.147 C  
BRANCH  13  14
HETATM   14  O   UNL     1      -6.544  15.753  67.273  1.00  0.00    -0.180 OA 
BRANCH  14  15
HETATM   15  C   UNL     1      -5.637  16.430  68.185  1.00  0.00    -0.107 C  
HETATM   16  C   UNL     1      -5.893  15.957  69.621  1.00  0.00    -0.143 C  
BRANCH  15  17
HETATM   17  C   UNL     1      -5.576  17.942  68.022  1.00  0.00    -0.150 C  
BRANCH  17  18
HETATM   18  N   UNL     1      -6.547  18.504  67.125  1.00  0.00    -0.193 NA 
HETATM   19  C   UNL     1      -6.389  18.806  65.798  1.00  0.00    -0.241 A  
HETATM   20  N   UNL     1      -7.512  19.227  65.259  1.00  0.00    -0.302 NA 
HETATM   21  C   UNL     1      -8.417  19.213  66.296  1.00  0.00    -0.304 A  
HETATM   22  C   UNL     1      -9.776  19.537  66.351  1.00  0.00    -0.401 A  
HETATM   23  N   UNL     1     -10.406  19.495  67.548  1.00  0.00    -0.414 NA 
HETATM   24  N   UNL     1     -10.483  19.907  65.218  1.00  0.00    -0.236 NA 
HETATM   25  C   UNL     1      -9.698  19.095  68.621  1.00  0.00    -0.417 A  
HETATM   26  H1  UNL     1     -11.475  20.144  65.258  1.00  0.00     0.000 HD 
HETATM   27  H2  UNL     1     -10.365  19.171  64.521  1.00  0.00     0.000 HD 
HETATM   28  N   UNL     1      -8.400  18.722  68.688  1.00  0.00    -0.337 NA 
HETATM   29  C   UNL     1      -7.830  18.808  67.477  1.00  0.00    -0.233 A  
ENDBRANCH  17  18
ENDBRANCH  15  17
ENDBRANCH  14  15
ENDBRANCH  13  14
ENDBRANCH  11  13
BRANCH  11  30
HETATM   30  O   UNL     1      -9.732  13.460  67.895  1.00  0.00    -0.212 OA 
BRANCH  30  31
HETATM   31  C   UNL     1     -10.546  13.467  66.776  1.00  0.00    -0.272 A  
HETATM   32  C   UNL     1     -10.056  12.826  65.638  1.00  0.00    -0.281 A  
HETATM   33  C   UNL     1     -12.540  14.085  65.540  1.00  0.00    -0.543 A  
HETATM   34  C   UNL     1     -11.796  14.092  66.728  1.00  0.00    -0.450 A  
HETATM   35  C   UNL     1     -12.038  13.461  64.400  1.00  0.00    -0.468 A  
HETATM   36  C   UNL     1     -10.796  12.833  64.450  1.00  0.00    -0.395 A  
ENDBRANCH  30  31
ENDBRANCH  11  30
ENDBRANCH   9  11
ENDBRANCH   7   9
ENDBRANCH   5   7
ENDBRANCH   4   5
ENDBRANCH   2   4
TORSDOF 12
ENDMDL
MODEL      209
REMARK 921   NORMALIZED FREE ENERGY PREDICTED BY IDOCK:   -4.76 KCAL/MOL
REMARK 922        TOTAL FREE ENERGY PREDICTED BY IDOCK:   -9.81 KCAL/MOL
REMARK 923 INTER-LIGAND FREE ENERGY PREDICTED BY IDOCK:   -8.65 KCAL/MOL
REMARK 924 INTRA-LIGAND FREE ENERGY PREDICTED BY IDOCK:   -1.16 KCAL/MOL
REMARK 927      BINDING AFFINITY PREDICTED BY RF-SCORE:    0.00 PKD
ROOT
HETATM    1  C   UNL     1      -8.690   5.048  64.489  1.00  0.00    -0.132 C  
HETATM    2  C   UNL     1      -8.947   5.752  65.823  1.00  0.00    -0.135 C  
HETATM    3  C   UNL     1      -9.941   4.954  66.678  1.00  0.00    -0.254 C  
ENDROOT
BRANCH   2   4
HETATM    4  O   UNL     1      -7.709   6.168  66.486  1.00  0.00    -0.099 OA 
BRANCH   4   5
HETATM    5  C   UNL     1      -7.305   7.460  66.401  1.00  0.00    -0.083 C  
HETATM    6  O   UNL     1      -6.122   7.798  66.473  1.00  0.00    -0.043 OA 
BRANCH   5   7
HETATM    7  C   UNL     1      -8.418   8.532  66.222  1.00  0.00    -0.124 C  
HETATM    8  C   UNL     1      -8.232   9.230  64.876  1.00  0.00    -0.146 C  
BRANCH   7   9
HETATM    9  N   UNL     1      -8.673   9.532  67.330  1.00  0.00    -0.125 NA 
HETATM   10  H   UNL     1      -8.087   9.342  68.143  1.00  0.00     0.000 HD 
BRANCH   9  11
HETATM   11  P   UNL     1      -8.480  11.193  66.777  1.00  0.00    -0.160 P  
HETATM   12  O   UNL     1      -6.935  11.102  66.711  1.00  0.00    -0.120 OA 
BRANCH  11  13
HETATM   13  C   UNL     1      -8.311  12.436  68.222  1.00  0.00    -0.169 C  
BRANCH  13  14
HETATM   14  O   UNL     1      -9.587  13.093  68.574  1.00  0.00    -0.200 OA 
BRANCH  14  15
HETATM   15  C   UNL     1      -9.687  14.541  68.648  1.00  0.00    -0.221 C  
HETATM   16  C   UNL     1     -10.999  14.938  69.336  1.00  0.00    -0.284 C  
BRANCH  15  17
HETATM   17  C   UNL     1      -9.417  15.270  67.339  1.00  0.00    -0.199 C  
BRANCH  17  18
HETATM   18  N   UNL     1      -8.728  16.524  67.464  1.00  0.00    -0.181 NA 
HETATM   19  C   UNL     1      -7.409  16.730  67.769  1.00  0.00    -0.151 A  
HETATM   20  N   UNL     1      -7.092  18.005  67.716  1.00  0.00    -0.204 NA 
HETATM   21  C   UNL     1      -8.268  18.638  67.381  1.00  0.00    -0.255 A  
HETATM   22  C   UNL     1      -8.572  19.985  67.162  1.00  0.00    -0.335 A  
HETATM   23  N   UNL     1      -9.856  20.329  66.911  1.00  0.00    -0.445 NA 
HETATM   24  N   UNL     1      -7.596  20.968  67.204  1.00  0.00    -0.622 NA 
HETATM   25  C   UNL     1     -10.772  19.344  66.840  1.00  0.00    -0.465 A  
HETATM   26  H1  UNL     1      -7.817  21.951  67.044  1.00  0.00     0.000 HD 
HETATM   27  H2  UNL     1      -6.857  20.704  66.553  1.00  0.00     0.000 HD 
HETATM   28  N   UNL     1     -10.596  18.012  66.994  1.00  0.00    -0.347 NA 
HETATM   29  C   UNL     1      -9.310  17.742  67.262  1.00  0.00    -0.254 A  
ENDBRANCH  17  18
ENDBRANCH  15  17
ENDBRANCH  14  15
ENDBRANCH  13  14
ENDBRANCH  11  13
BRANCH  11  30
HETATM   30  O   UNL     1     -10.206  11.295  66.851  1.00  0.00    -0.206 OA 
BRANCH  30  31
HETATM   31  C   UNL     1     -10.837  11.858  65.756  1.00  0.00    -0.295 A  
HETATM   32  C   UNL     1     -11.913  12.707  66.017  1.00  0.00    -0.478 A  
HETATM   33  C   UNL     1     -11.186  12.188  63.378  1.00  0.00    -0.494 A  
HETATM   34  C   UNL     1     -10.468  11.605  64.431  1.00  0.00    -0.374 A  
HETATM   35  C   UNL     1     -12.273  13.019  63.644  1.00  0.00    -0.568 A  
HETATM   36  C   UNL     1     -12.636  13.276  64.963  1.00  0.00    -0.483 A  
ENDBRANCH  30  31
ENDBRANCH  11  30
ENDBRANCH   9  11
ENDBRANCH   7   9
ENDBRANCH   5   7
ENDBRANCH   4   5
ENDBRANCH   2   4
TORSDOF 12
ENDMDL
MODEL      210
REMARK 921   NORMALIZED FREE ENERGY PREDICTED BY IDOCK:   -4.75 KCAL/MOL
REMARK 922        TOTAL FREE ENERGY PREDICTED BY IDOCK:   -9.80 KCAL/MOL
REMARK 923 INTER-LIGAND FREE ENERGY PREDICTED BY IDOCK:   -8.44 KCAL/MOL
REMARK 924 INTRA-LIGAND FREE ENERGY PREDICTED BY IDOCK:   -1.36 KCAL/MOL
REMARK 927      BINDING AFFINITY PREDICTED BY RF-SCORE:    0.00 PKD
ROOT
HETATM    1  C   UNL     1     -10.820   7.166  73.433  1.00  0.00    -0.360 C  
HETATM    2  C   UNL     1     -11.178   7.413  71.965  1.00  0.00    -0.251 C  
HETATM    3  C   UNL     1     -11.988   6.240  71.396  1.00  0.00    -0.208 C  
ENDROOT
BRANCH   2   4
HETATM    4  O   UNL     1     -11.730   8.752  71.739  1.00  0.00    -0.300 OA 
BRANCH   4   5
HETATM    5  C   UNL     1     -10.984   9.682  71.094  1.00  0.00    -0.360 C  
HETATM    6  O   UNL     1      -9.752   9.684  71.112  1.00  0.00    -0.163 OA 
BRANCH   5   7
HETATM    7  C   UNL     1     -11.758  10.789  70.322  1.00  0.00    -0.352 C  
HETATM    8  C   UNL     1     -12.863  11.348  71.218  1.00  0.00    -0.481 C  
BRANCH   7   9
HETATM    9  N   UNL     1     -12.273  10.504  68.927  1.00  0.00    -0.773 NA 
HETATM   10  H   UNL     1     -13.090  11.073  68.710  1.00  0.00     0.000 HD 
BRANCH   9  11
HETATM   11  P   UNL     1     -11.017  10.698  67.708  1.00  0.00    -0.304 P  
HETATM   12  O   UNL     1     -10.419   9.290  67.947  1.00  0.00    -0.219 OA 
BRANCH  11  13
HETATM   13  C   UNL     1      -9.413  11.462  68.416  1.00  0.00    -0.194 C  
BRANCH  13  14
HETATM   14  O   UNL     1      -8.189  10.770  67.959  1.00  0.00    -0.110 OA 
BRANCH  14  15
HETATM   15  C   UNL     1      -7.355  10.032  68.892  1.00  0.00    -0.080 C  
HETATM   16  C   UNL     1      -6.458  11.003  69.671  1.00  0.00    -0.123 C  
BRANCH  15  17
HETATM   17  C   UNL     1      -6.620   8.841  68.291  1.00  0.00    -0.060 C  
BRANCH  17  18
HETATM   18  N   UNL     1      -7.368   8.079  67.329  1.00  0.00    -0.087 NA 
HETATM   19  C   UNL     1      -7.520   8.332  65.992  1.00  0.00    -0.077 A  
HETATM   20  N   UNL     1      -8.200   7.381  65.392  1.00  0.00    -0.133 NA 
HETATM   21  C   UNL     1      -8.513   6.495  66.398  1.00  0.00    -0.124 A  
HETATM   22  C   UNL     1      -9.207   5.282  66.390  1.00  0.00    -0.144 A  
HETATM   23  N   UNL     1      -9.427   4.650  67.566  1.00  0.00    -0.144 NA 
HETATM   24  N   UNL     1      -9.681   4.722  65.213  1.00  0.00    -0.306 NA 
HETATM   25  C   UNL     1      -8.920   5.203  68.685  1.00  0.00    -0.105 A  
HETATM   26  H1  UNL     1     -10.188   3.836  65.207  1.00  0.00     0.000 HD 
HETATM   27  H2  UNL     1      -8.895   4.636  64.569  1.00  0.00     0.000 HD 
HETATM   28  N   UNL     1      -8.204   6.342  68.816  1.00  0.00    -0.120 NA 
HETATM   29  C   UNL     1      -8.042   6.929  67.621  1.00  0.00    -0.113 A  
ENDBRANCH  17  18
ENDBRANCH  15  17
ENDBRANCH  14  15
ENDBRANCH  13  14
ENDBRANCH  11  13
BRANCH  11  30
HETATM   30  O   UNL     1     -11.685  12.271  67.439  1.00  0.00    -0.394 OA 
BRANCH  30  31
HETATM   31  C   UNL     1     -11.734  12.704  66.126  1.00  0.00    -0.406 A  
HETATM   32  C   UNL     1     -11.151  11.874  65.168  1.00  0.00    -0.360 A  
HETATM   33  C   UNL     1     -12.281  14.295  64.378  1.00  0.00    -0.471 A  
HETATM   34  C   UNL     1     -12.308  13.915  65.727  1.00  0.00    -0.518 A  
HETATM   35  C   UNL     1     -11.679  13.473  63.428  1.00  0.00    -0.091 A  
HETATM   36  C   UNL     1     -11.114  12.264  63.824  1.00  0.00    -0.507 A  
ENDBRANCH  30  31
ENDBRANCH  11  30
ENDBRANCH   9  11
ENDBRANCH   7   9
ENDBRANCH   5   7
ENDBRANCH   4   5
ENDBRANCH   2   4
TORSDOF 12
ENDMDL
MODEL      211
REMARK 921   NORMALIZED FREE ENERGY PREDICTED BY IDOCK:   -4.75 KCAL/MOL
REMARK 922        TOTAL FREE ENERGY PREDICTED BY IDOCK:   -9.79 KCAL/MOL
REMARK 923 INTER-LIGAND FREE ENERGY PREDICTED BY IDOCK:   -7.93 KCAL/MOL
REMARK 924 INTRA-LIGAND FREE ENERGY PREDICTED BY IDOCK:   -1.86 KCAL/MOL
REMARK 927      BINDING AFFINITY PREDICTED BY RF-SCORE:    0.00 PKD
ROOT
HETATM    1  C   UNL     1     -11.484  15.809  64.366  1.00  0.00    -0.268 C  
HETATM    2  C   UNL     1     -11.607  14.560  65.242  1.00  0.00    -0.359 C  
HETATM    3  C   UNL     1     -12.233  13.400  64.455  1.00  0.00    -0.450 C  
ENDROOT
BRANCH   2   4
HETATM    4  O   UNL     1     -10.369  14.259  65.967  1.00  0.00    -0.289 OA 
BRANCH   4   5
HETATM    5  C   UNL     1     -10.385  14.198  67.321  1.00  0.00    -0.267 C  
HETATM    6  O   UNL     1     -10.300  15.198  68.038  1.00  0.00    -0.235 OA 
BRANCH   5   7
HETATM    7  C   UNL     1     -10.498  12.784  67.959  1.00  0.00    -0.226 C  
HETATM    8  C   UNL     1     -11.895  12.611  68.554  1.00  0.00    -0.342 C  
BRANCH   7   9
HETATM    9  N   UNL     1      -9.428  12.312  68.920  1.00  0.00    -0.396 NA 
HETATM   10  H   UNL     1      -9.688  12.507  69.888  1.00  0.00     0.000 HD 
BRANCH   9  11
HETATM   11  P   UNL     1      -9.040  10.610  68.693  1.00  0.00    -0.178 P  
HETATM   12  O   UNL     1      -9.885  10.147  69.905  1.00  0.00    -0.233 OA 
BRANCH  11  13
HETATM   13  C   UNL     1      -7.461  10.081  69.635  1.00  0.00    -0.134 C  
BRANCH  13  14
HETATM   14  O   UNL     1      -7.737   9.589  71.000  1.00  0.00    -0.319 OA 
BRANCH  14  15
HETATM   15  C   UNL     1      -6.819   8.682  71.669  1.00  0.00    -0.085 C  
HETATM   16  C   UNL     1      -5.625   8.381  70.754  1.00  0.00    -0.028 C  
BRANCH  15  17
HETATM   17  C   UNL     1      -7.470   7.449  72.281  1.00  0.00    -0.076 C  
BRANCH  17  18
HETATM   18  N   UNL     1      -8.906   7.437  72.259  1.00  0.00    -0.122 NA 
HETATM   19  C   UNL     1      -9.764   7.871  73.234  1.00  0.00    -0.285 A  
HETATM   20  N   UNL     1     -11.018   7.792  72.848  1.00  0.00    -0.391 NA 
HETATM   21  C   UNL     1     -10.954   7.264  71.578  1.00  0.00    -0.233 A  
HETATM   22  C   UNL     1     -11.948   6.959  70.644  1.00  0.00    -0.348 A  
HETATM   23  N   UNL     1     -11.588   6.371  69.479  1.00  0.00    -0.355 NA 
HETATM   24  N   UNL     1     -13.285   7.233  70.887  1.00  0.00    -0.583 NA 
HETATM   25  C   UNL     1     -10.277   6.154  69.260  1.00  0.00    -0.201 A  
HETATM   26  H1  UNL     1     -14.011   7.010  70.206  1.00  0.00     0.000 HD 
HETATM   27  H2  UNL     1     -13.364   8.224  71.116  1.00  0.00     0.000 HD 
HETATM   28  N   UNL     1      -9.227   6.437  70.063  1.00  0.00    -0.156 NA 
HETATM   29  C   UNL     1      -9.653   6.995  71.206  1.00  0.00    -0.164 A  
ENDBRANCH  17  18
ENDBRANCH  15  17
ENDBRANCH  14  15
ENDBRANCH  13  14
ENDBRANCH  11  13
BRANCH  11  30
HETATM   30  O   UNL     1      -8.096  11.127  67.338  1.00  0.00    -0.125 OA 
BRANCH  30  31
HETATM   31  C   UNL     1      -8.364  10.510  66.129  1.00  0.00    -0.155 A  
HETATM   32  C   UNL     1      -7.709   9.302  65.880  1.00  0.00    -0.098 A  
HETATM   33  C   UNL     1      -9.408  10.365  63.944  1.00  0.00    -0.322 A  
HETATM   34  C   UNL     1      -9.223  11.037  65.160  1.00  0.00    -0.227 A  
HETATM   35  C   UNL     1      -8.736   9.170  63.692  1.00  0.00    -0.148 A  
HETATM   36  C   UNL     1      -7.887   8.641  64.660  1.00  0.00    -0.129 A  
ENDBRANCH  30  31
ENDBRANCH  11  30
ENDBRANCH   9  11
ENDBRANCH   7   9
ENDBRANCH   5   7
ENDBRANCH   4   5
ENDBRANCH   2   4
TORSDOF 12
ENDMDL
MODEL      212
REMARK 921   NORMALIZED FREE ENERGY PREDICTED BY IDOCK:   -4.74 KCAL/MOL
REMARK 922        TOTAL FREE ENERGY PREDICTED BY IDOCK:   -9.78 KCAL/MOL
REMARK 923 INTER-LIGAND FREE ENERGY PREDICTED BY IDOCK:   -7.86 KCAL/MOL
REMARK 924 INTRA-LIGAND FREE ENERGY PREDICTED BY IDOCK:   -1.92 KCAL/MOL
REMARK 927      BINDING AFFINITY PREDICTED BY RF-SCORE:    0.00 PKD
ROOT
HETATM    1  C   UNL     1     -10.682  15.690  69.114  1.00  0.00    -0.243 C  
HETATM    2  C   UNL     1     -10.657  14.170  68.933  1.00  0.00    -0.239 C  
HETATM    3  C   UNL     1     -11.978  13.543  69.400  1.00  0.00    -0.383 C  
ENDROOT
BRANCH   2   4
HETATM    4  O   UNL     1     -10.183  13.771  67.605  1.00  0.00    -0.237 OA 
BRANCH   4   5
HETATM    5  C   UNL     1     -11.061  13.702  66.574  1.00  0.00    -0.305 C  
HETATM    6  O   UNL     1     -11.623  14.694  66.105  1.00  0.00    -0.360 OA 
BRANCH   5   7
HETATM    7  C   UNL     1     -11.356  12.288  65.997  1.00  0.00    -0.350 C  
HETATM    8  C   UNL     1     -12.530  12.377  65.023  1.00  0.00    -0.393 C  
BRANCH   7   9
HETATM    9  N   UNL     1     -11.514  11.116  66.943  1.00  0.00    -0.399 NA 
HETATM   10  H   UNL     1     -12.308  10.533  66.681  1.00  0.00     0.000 HD 
BRANCH   9  11
HETATM   11  P   UNL     1     -10.036  10.166  67.069  1.00  0.00    -0.246 P  
HETATM   12  O   UNL     1      -9.821  10.104  65.537  1.00  0.00    -0.258 OA 
BRANCH  11  13
HETATM   13  C   UNL     1     -10.369   8.282  67.063  1.00  0.00    -0.323 C  
BRANCH  13  14
HETATM   14  O   UNL     1      -9.155   7.478  67.314  1.00  0.00    -0.121 OA 
BRANCH  14  15
HETATM   15  C   UNL     1      -9.196   6.026  67.263  1.00  0.00    -0.114 C  
HETATM   16  C   UNL     1      -9.054   5.550  65.812  1.00  0.00    -0.152 C  
BRANCH  15  17
HETATM   17  C   UNL     1     -10.352   5.391  68.023  1.00  0.00    -0.152 C  
BRANCH  17  18
HETATM   18  N   UNL     1     -10.225   5.398  69.454  1.00  0.00    -0.243 NA 
HETATM   19  C   UNL     1      -9.295   4.746  70.218  1.00  0.00    -0.151 A  
HETATM   20  N   UNL     1      -9.419   5.043  71.493  1.00  0.00    -0.148 NA 
HETATM   21  C   UNL     1     -10.491   5.905  71.542  1.00  0.00    -0.233 A  
HETATM   22  C   UNL     1     -11.100   6.575  72.607  1.00  0.00    -0.257 A  
HETATM   23  N   UNL     1     -12.204   7.317  72.362  1.00  0.00    -0.137 NA 
HETATM   24  N   UNL     1     -10.607   6.488  73.900  1.00  0.00    -0.444 NA 
HETATM   25  C   UNL     1     -12.633   7.411  71.089  1.00  0.00    -0.293 A  
HETATM   26  H1  UNL     1     -11.052   6.976  74.678  1.00  0.00     0.000 HD 
HETATM   27  H2  UNL     1      -9.625   6.761  73.879  1.00  0.00     0.000 HD 
HETATM   28  N   UNL     1     -12.111   6.846  69.977  1.00  0.00    -0.093 NA 
HETATM   29  C   UNL     1     -11.036   6.108  70.291  1.00  0.00    -0.366 A  
ENDBRANCH  17  18
ENDBRANCH  15  17
ENDBRANCH  14  15
ENDBRANCH  13  14
ENDBRANCH  11  13
BRANCH  11  30
HETATM   30  O   UNL     1     -10.278  10.234  68.781  1.00  0.00    -0.174 OA 
BRANCH  30  31
HETATM   31  C   UNL     1      -9.174   9.963  69.570  1.00  0.00    -0.223 A  
HETATM   32  C   UNL     1      -7.976  10.585  69.213  1.00  0.00    -0.156 A  
HETATM   33  C   UNL     1      -8.022   8.848  71.391  1.00  0.00    -0.150 A  
HETATM   34  C   UNL     1      -9.197   9.098  70.668  1.00  0.00    -0.310 A  
HETATM   35  C   UNL     1      -6.825   9.455  71.018  1.00  0.00    -0.072 A  
HETATM   36  C   UNL     1      -6.803  10.322  69.930  1.00  0.00    -0.134 A  
ENDBRANCH  30  31
ENDBRANCH  11  30
ENDBRANCH   9  11
ENDBRANCH   7   9
ENDBRANCH   5   7
ENDBRANCH   4   5
ENDBRANCH   2   4
TORSDOF 12
ENDMDL
MODEL      213
REMARK 921   NORMALIZED FREE ENERGY PREDICTED BY IDOCK:   -4.74 KCAL/MOL
REMARK 922        TOTAL FREE ENERGY PREDICTED BY IDOCK:   -9.78 KCAL/MOL
REMARK 923 INTER-LIGAND FREE ENERGY PREDICTED BY IDOCK:   -8.40 KCAL/MOL
REMARK 924 INTRA-LIGAND FREE ENERGY PREDICTED BY IDOCK:   -1.38 KCAL/MOL
REMARK 927      BINDING AFFINITY PREDICTED BY RF-SCORE:    0.00 PKD
ROOT
HETATM    1  C   UNL     1     -12.856  12.003  71.374  1.00  0.00    -0.391 C  
HETATM    2  C   UNL     1     -11.920  11.321  70.373  1.00  0.00    -0.380 C  
HETATM    3  C   UNL     1     -11.379  10.002  70.942  1.00  0.00    -0.439 C  
ENDROOT
BRANCH   2   4
HETATM    4  O   UNL     1     -12.488  11.261  69.024  1.00  0.00    -0.417 OA 
BRANCH   4   5
HETATM    5  C   UNL     1     -12.034  12.109  68.068  1.00  0.00    -0.166 C  
HETATM    6  O   UNL     1     -12.104  11.859  66.863  1.00  0.00    -0.599 OA 
BRANCH   5   7
HETATM    7  C   UNL     1     -11.388  13.436  68.557  1.00  0.00    -0.289 C  
HETATM    8  C   UNL     1     -11.733  14.556  67.576  1.00  0.00    -0.413 C  
BRANCH   7   9
HETATM    9  N   UNL     1      -9.919  13.459  68.923  1.00  0.00    -0.431 NA 
HETATM   10  H   UNL     1      -9.558  12.516  69.065  1.00  0.00     0.000 HD 
BRANCH   9  11
HETATM   11  P   UNL     1      -8.957  14.340  67.739  1.00  0.00    -0.211 P  
HETATM   12  O   UNL     1      -9.059  13.225  66.670  1.00  0.00    -0.234 OA 
BRANCH  11  13
HETATM   13  C   UNL     1      -7.085  13.976  67.891  1.00  0.00    -0.160 C  
BRANCH  13  14
HETATM   14  O   UNL     1      -6.755  12.547  67.709  1.00  0.00    -0.093 OA 
BRANCH  14  15
HETATM   15  C   UNL     1      -7.002  11.581  68.767  1.00  0.00    -0.096 C  
HETATM   16  C   UNL     1      -6.168  11.938  70.004  1.00  0.00    -0.123 C  
BRANCH  15  17
HETATM   17  C   UNL     1      -6.901  10.123  68.339  1.00  0.00    -0.061 C  
BRANCH  17  18
HETATM   18  N   UNL     1      -8.147   9.409  68.292  1.00  0.00    -0.109 NA 
HETATM   19  C   UNL     1      -9.163   9.551  67.385  1.00  0.00    -0.133 A  
HETATM   20  N   UNL     1     -10.122   8.675  67.589  1.00  0.00    -0.198 NA 
HETATM   21  C   UNL     1      -9.705   7.958  68.689  1.00  0.00    -0.158 A  
HETATM   22  C   UNL     1     -10.282   6.887  69.377  1.00  0.00    -0.182 A  
HETATM   23  N   UNL     1      -9.667   6.422  70.489  1.00  0.00    -0.168 NA 
HETATM   24  N   UNL     1     -11.466   6.302  68.954  1.00  0.00    -0.495 NA 
HETATM   25  C   UNL     1      -8.499   6.988  70.849  1.00  0.00    -0.134 A  
HETATM   26  H1  UNL     1     -11.887   5.520  69.456  1.00  0.00     0.000 HD 
HETATM   27  H2  UNL     1     -11.345   6.021  67.981  1.00  0.00     0.000 HD 
HETATM   28  N   UNL     1      -7.827   7.995  70.249  1.00  0.00    -0.086 NA 
HETATM   29  C   UNL     1      -8.499   8.425  69.171  1.00  0.00    -0.123 A  
ENDBRANCH  17  18
ENDBRANCH  15  17
ENDBRANCH  14  15
ENDBRANCH  13  14
ENDBRANCH  11  13
BRANCH  11  30
HETATM   30  O   UNL     1      -8.843  15.587  68.934  1.00  0.00    -0.184 OA 
BRANCH  30  31
HETATM   31  C   UNL     1      -8.889  16.890  68.471  1.00  0.00    -0.251 A  
HETATM   32  C   UNL     1     -10.065  17.602  68.712  1.00  0.00    -0.377 A  
HETATM   33  C   UNL     1      -7.990  18.817  67.303  1.00  0.00    -0.251 A  
HETATM   34  C   UNL     1      -7.845  17.503  67.771  1.00  0.00    -0.209 A  
HETATM   35  C   UNL     1      -9.174  19.517  67.528  1.00  0.00    -0.391 A  
HETATM   36  C   UNL     1     -10.210  18.909  68.231  1.00  0.00    -0.442 A  
ENDBRANCH  30  31
ENDBRANCH  11  30
ENDBRANCH   9  11
ENDBRANCH   7   9
ENDBRANCH   5   7
ENDBRANCH   4   5
ENDBRANCH   2   4
TORSDOF 12
ENDMDL
MODEL      214
REMARK 921   NORMALIZED FREE ENERGY PREDICTED BY IDOCK:   -4.74 KCAL/MOL
REMARK 922        TOTAL FREE ENERGY PREDICTED BY IDOCK:   -9.78 KCAL/MOL
REMARK 923 INTER-LIGAND FREE ENERGY PREDICTED BY IDOCK:   -8.79 KCAL/MOL
REMARK 924 INTRA-LIGAND FREE ENERGY PREDICTED BY IDOCK:   -0.99 KCAL/MOL
REMARK 927      BINDING AFFINITY PREDICTED BY RF-SCORE:    0.00 PKD
ROOT
HETATM    1  C   UNL     1     -12.389  16.095  72.230  1.00  0.00    -0.538 C  
HETATM    2  C   UNL     1     -12.879  14.648  72.136  1.00  0.00    -0.333 C  
HETATM    3  C   UNL     1     -14.326  14.593  71.628  1.00  0.00    -0.601 C  
ENDROOT
BRANCH   2   4
HETATM    4  O   UNL     1     -11.919  13.774  71.457  1.00  0.00    -0.095 OA 
BRANCH   4   5
HETATM    5  C   UNL     1     -12.120  13.440  70.158  1.00  0.00    -0.344 C  
HETATM    6  O   UNL     1     -12.405  14.267  69.290  1.00  0.00    -0.293 OA 
BRANCH   5   7
HETATM    7  C   UNL     1     -11.993  11.933  69.793  1.00  0.00    -0.307 C  
HETATM    8  C   UNL     1     -12.577  11.090  70.927  1.00  0.00    -0.488 C  
BRANCH   7   9
HETATM    9  N   UNL     1     -10.658  11.388  69.334  1.00  0.00    -0.424 NA 
HETATM   10  H   UNL     1     -10.291  10.701  69.993  1.00  0.00     0.000 HD 
BRANCH   9  11
HETATM   11  P   UNL     1     -10.740  10.727  67.703  1.00  0.00    -0.298 P  
HETATM   12  O   UNL     1     -10.921   9.268  68.190  1.00  0.00    -0.138 OA 
BRANCH  11  13
HETATM   13  C   UNL     1      -9.021  10.248  67.014  1.00  0.00    -0.136 C  
BRANCH  13  14
HETATM   14  O   UNL     1      -9.090   9.248  65.928  1.00  0.00    -0.168 OA 
BRANCH  14  15
HETATM   15  C   UNL     1      -8.116   9.247  64.849  1.00  0.00    -0.130 C  
HETATM   16  C   UNL     1      -8.810   9.566  63.519  1.00  0.00    -0.235 C  
BRANCH  15  17
HETATM   17  C   UNL     1      -7.207   8.026  64.808  1.00  0.00    -0.078 C  
BRANCH  17  18
HETATM   18  N   UNL     1      -7.858   6.785  64.489  1.00  0.00    -0.113 NA 
HETATM   19  C   UNL     1      -7.896   6.144  63.280  1.00  0.00    -0.100 A  
HETATM   20  N   UNL     1      -8.509   4.984  63.365  1.00  0.00    -0.126 NA 
HETATM   21  C   UNL     1      -8.897   4.896  64.683  1.00  0.00    -0.139 A  
HETATM   22  C   UNL     1      -9.572   3.898  65.391  1.00  0.00    -0.185 A  
HETATM   23  N   UNL     1      -9.886   4.120  66.689  1.00  0.00    -0.216 NA 
HETATM   24  N   UNL     1      -9.934   2.699  64.795  1.00  0.00    -0.357 NA 
HETATM   25  C   UNL     1      -9.486   5.279  67.246  1.00  0.00    -0.127 A  
HETATM   26  H1  UNL     1     -10.428   1.971  65.312  1.00  0.00     0.000 HD 
HETATM   27  H2  UNL     1      -9.094   2.284  64.394  1.00  0.00     0.000 HD 
HETATM   28  N   UNL     1      -8.799   6.297  66.681  1.00  0.00    -0.127 NA 
HETATM   29  C   UNL     1      -8.541   6.024  65.393  1.00  0.00    -0.124 A  
ENDBRANCH  17  18
ENDBRANCH  15  17
ENDBRANCH  14  15
ENDBRANCH  13  14
ENDBRANCH  11  13
BRANCH  11  30
HETATM   30  O   UNL     1     -10.539  12.357  67.159  1.00  0.00    -0.221 OA 
BRANCH  30  31
HETATM   31  C   UNL     1     -11.072  12.663  65.919  1.00  0.00    -0.289 A  
HETATM   32  C   UNL     1     -11.303  14.012  65.648  1.00  0.00    -0.313 A  
HETATM   33  C   UNL     1     -11.976  12.096  63.740  1.00  0.00    -0.607 A  
HETATM   34  C   UNL     1     -11.403  11.703  64.957  1.00  0.00    -0.237 A  
HETATM   35  C   UNL     1     -12.223  13.444  63.482  1.00  0.00    -0.468 A  
HETATM   36  C   UNL     1     -11.887  14.399  64.437  1.00  0.00    -0.433 A  
ENDBRANCH  30  31
ENDBRANCH  11  30
ENDBRANCH   9  11
ENDBRANCH   7   9
ENDBRANCH   5   7
ENDBRANCH   4   5
ENDBRANCH   2   4
TORSDOF 12
ENDMDL
MODEL      215
REMARK 921   NORMALIZED FREE ENERGY PREDICTED BY IDOCK:   -4.73 KCAL/MOL
REMARK 922        TOTAL FREE ENERGY PREDICTED BY IDOCK:   -9.77 KCAL/MOL
REMARK 923 INTER-LIGAND FREE ENERGY PREDICTED BY IDOCK:   -8.61 KCAL/MOL
REMARK 924 INTRA-LIGAND FREE ENERGY PREDICTED BY IDOCK:   -1.16 KCAL/MOL
REMARK 927      BINDING AFFINITY PREDICTED BY RF-SCORE:    0.00 PKD
ROOT
HETATM    1  C   UNL     1      -8.402   7.292  72.883  1.00  0.00    -0.132 C  
HETATM    2  C   UNL     1      -9.797   7.307  72.254  1.00  0.00    -0.154 C  
HETATM    3  C   UNL     1     -10.883   7.400  73.335  1.00  0.00    -0.362 C  
ENDROOT
BRANCH   2   4
HETATM    4  O   UNL     1      -9.903   8.260  71.145  1.00  0.00    -0.165 OA 
BRANCH   4   5
HETATM    5  C   UNL     1     -11.080   8.391  70.486  1.00  0.00    -0.252 C  
HETATM    6  O   UNL     1     -11.761   7.427  70.132  1.00  0.00    -0.143 OA 
BRANCH   5   7
HETATM    7  C   UNL     1     -11.547   9.840  70.166  1.00  0.00    -0.182 C  
HETATM    8  C   UNL     1     -12.781  10.168  71.005  1.00  0.00    -0.481 C  
BRANCH   7   9
HETATM    9  N   UNL     1     -11.736  10.260  68.723  1.00  0.00    -0.581 NA 
HETATM   10  H   UNL     1     -12.488  10.943  68.632  1.00  0.00     0.000 HD 
BRANCH   9  11
HETATM   11  P   UNL     1     -10.241  10.856  68.008  1.00  0.00    -0.198 P  
HETATM   12  O   UNL     1      -9.626  11.259  69.370  1.00  0.00     0.066 OA 
BRANCH  11  13
HETATM   13  C   UNL     1     -10.333  12.708  67.539  1.00  0.00    -0.218 C  
BRANCH  13  14
HETATM   14  O   UNL     1     -11.402  13.435  68.255  1.00  0.00    -0.260 OA 
BRANCH  14  15
HETATM   15  C   UNL     1     -11.113  14.654  68.993  1.00  0.00    -0.259 C  
HETATM   16  C   UNL     1     -11.848  14.635  70.339  1.00  0.00    -0.365 C  
BRANCH  15  17
HETATM   17  C   UNL     1     -11.289  15.940  68.197  1.00  0.00    -0.311 C  
BRANCH  17  18
HETATM   18  N   UNL     1     -10.076  16.525  67.698  1.00  0.00    -0.259 NA 
HETATM   19  C   UNL     1      -8.868  15.912  67.498  1.00  0.00    -0.189 A  
HETATM   20  N   UNL     1      -7.995  16.726  66.948  1.00  0.00    -0.190 NA 
HETATM   21  C   UNL     1      -8.674  17.917  66.812  1.00  0.00    -0.254 A  
HETATM   22  C   UNL     1      -8.291  19.152  66.282  1.00  0.00    -0.299 A  
HETATM   23  N   UNL     1      -9.163  20.185  66.347  1.00  0.00    -0.333 NA 
HETATM   24  N   UNL     1      -7.044  19.344  65.707  1.00  0.00    -0.286 NA 
HETATM   25  C   UNL     1     -10.378  19.954  66.878  1.00  0.00    -0.468 A  
HETATM   26  H1  UNL     1      -6.765  20.246  65.320  1.00  0.00     0.000 HD 
HETATM   27  H2  UNL     1      -6.926  18.641  64.977  1.00  0.00     0.000 HD 
HETATM   28  N   UNL     1     -10.876  18.803  67.384  1.00  0.00    -0.423 NA 
HETATM   29  C   UNL     1      -9.957  17.828  67.311  1.00  0.00    -0.324 A  
ENDBRANCH  17  18
ENDBRANCH  15  17
ENDBRANCH  14  15
ENDBRANCH  13  14
ENDBRANCH  11  13
BRANCH  11  30
HETATM   30  O   UNL     1     -10.928  10.404  66.485  1.00  0.00    -0.097 OA 
BRANCH  30  31
HETATM   31  C   UNL     1     -10.055   9.886  65.545  1.00  0.00    -0.227 A  
HETATM   32  C   UNL     1     -10.040  10.501  64.292  1.00  0.00    -0.380 A  
HETATM   33  C   UNL     1      -8.394   8.302  64.758  1.00  0.00    -0.129 A  
HETATM   34  C   UNL     1      -9.222   8.787  65.780  1.00  0.00    -0.269 A  
HETATM   35  C   UNL     1      -8.399   8.906  63.502  1.00  0.00    -0.168 A  
HETATM   36  C   UNL     1      -9.222  10.005  63.271  1.00  0.00    -0.317 A  
ENDBRANCH  30  31
ENDBRANCH  11  30
ENDBRANCH   9  11
ENDBRANCH   7   9
ENDBRANCH   5   7
ENDBRANCH   4   5
ENDBRANCH   2   4
TORSDOF 12
ENDMDL
MODEL      216
REMARK 921   NORMALIZED FREE ENERGY PREDICTED BY IDOCK:   -4.73 KCAL/MOL
REMARK 922        TOTAL FREE ENERGY PREDICTED BY IDOCK:   -9.76 KCAL/MOL
REMARK 923 INTER-LIGAND FREE ENERGY PREDICTED BY IDOCK:   -8.74 KCAL/MOL
REMARK 924 INTRA-LIGAND FREE ENERGY PREDICTED BY IDOCK:   -1.02 KCAL/MOL
REMARK 927      BINDING AFFINITY PREDICTED BY RF-SCORE:    0.00 PKD
ROOT
HETATM    1  C   UNL     1     -14.160  13.697  72.350  1.00  0.00    -0.586 C  
HETATM    2  C   UNL     1     -12.896  14.229  71.669  1.00  0.00    -0.348 C  
HETATM    3  C   UNL     1     -12.122  15.164  72.608  1.00  0.00    -0.487 C  
ENDROOT
BRANCH   2   4
HETATM    4  O   UNL     1     -12.118  13.169  71.023  1.00  0.00    -0.263 OA 
BRANCH   4   5
HETATM    5  C   UNL     1     -11.925  13.203  69.681  1.00  0.00    -0.306 C  
HETATM    6  O   UNL     1     -12.284  12.295  68.930  1.00  0.00    -0.187 OA 
BRANCH   5   7
HETATM    7  C   UNL     1     -11.200  14.454  69.109  1.00  0.00    -0.272 C  
HETATM    8  C   UNL     1     -11.778  14.785  67.734  1.00  0.00    -0.368 C  
BRANCH   7   9
HETATM    9  N   UNL     1      -9.686  14.495  69.094  1.00  0.00    -0.394 NA 
HETATM   10  H   UNL     1      -9.290  13.765  69.686  1.00  0.00     0.000 HD 
BRANCH   9  11
HETATM   11  P   UNL     1      -9.040  14.410  67.457  1.00  0.00    -0.215 P  
HETATM   12  O   UNL     1      -9.718  13.053  67.147  1.00  0.00    -0.219 OA 
BRANCH  11  13
HETATM   13  C   UNL     1      -7.338  13.539  67.380  1.00  0.00    -0.109 C  
BRANCH  13  14
HETATM   14  O   UNL     1      -7.421  12.146  66.896  1.00  0.00    -0.117 OA 
BRANCH  14  15
HETATM   15  C   UNL     1      -7.039  11.033  67.749  1.00  0.00    -0.086 C  
HETATM   16  C   UNL     1      -5.515  11.009  67.923  1.00  0.00    -0.039 C  
BRANCH  15  17
HETATM   17  C   UNL     1      -7.650   9.692  67.365  1.00  0.00    -0.095 C  
BRANCH  17  18
HETATM   18  N   UNL     1      -8.729   9.246  68.202  1.00  0.00    -0.125 NA 
HETATM   19  C   UNL     1      -9.565  10.009  68.973  1.00  0.00    -0.196 A  
HETATM   20  N   UNL     1     -10.498   9.281  69.545  1.00  0.00    -0.214 NA 
HETATM   21  C   UNL     1     -10.229   7.994  69.135  1.00  0.00    -0.217 A  
HETATM   22  C   UNL     1     -10.872   6.780  69.394  1.00  0.00    -0.271 A  
HETATM   23  N   UNL     1     -10.330   5.641  68.904  1.00  0.00    -0.211 NA 
HETATM   24  N   UNL     1     -12.036   6.717  70.144  1.00  0.00    -0.633 NA 
HETATM   25  C   UNL     1      -9.221   5.742  68.148  1.00  0.00    -0.109 A  
HETATM   26  H1  UNL     1     -12.505   5.831  70.333  1.00  0.00     0.000 HD 
HETATM   27  H2  UNL     1     -12.717   7.347  69.718  1.00  0.00     0.000 HD 
HETATM   28  N   UNL     1      -8.534   6.853  67.798  1.00  0.00    -0.123 NA 
HETATM   29  C   UNL     1      -9.107   7.941  68.334  1.00  0.00    -0.135 A  
ENDBRANCH  17  18
ENDBRANCH  15  17
ENDBRANCH  14  15
ENDBRANCH  13  14
ENDBRANCH  11  13
BRANCH  11  30
HETATM   30  O   UNL     1      -8.282  15.927  67.804  1.00  0.00    -0.142 OA 
BRANCH  30  31
HETATM   31  C   UNL     1      -9.054  17.059  67.613  1.00  0.00    -0.229 A  
HETATM   32  C   UNL     1      -9.612  17.234  66.346  1.00  0.00    -0.290 A  
HETATM   33  C   UNL     1     -10.043  19.162  68.312  1.00  0.00    -0.499 A  
HETATM   34  C   UNL     1      -9.278  18.023  68.601  1.00  0.00    -0.276 A  
HETATM   35  C   UNL     1     -10.581  19.342  67.039  1.00  0.00    -0.586 A  
HETATM   36  C   UNL     1     -10.364  18.379  66.058  1.00  0.00    -0.397 A  
ENDBRANCH  30  31
ENDBRANCH  11  30
ENDBRANCH   9  11
ENDBRANCH   7   9
ENDBRANCH   5   7
ENDBRANCH   4   5
ENDBRANCH   2   4
TORSDOF 12
ENDMDL
MODEL      217
REMARK 921   NORMALIZED FREE ENERGY PREDICTED BY IDOCK:   -4.72 KCAL/MOL
REMARK 922        TOTAL FREE ENERGY PREDICTED BY IDOCK:   -9.74 KCAL/MOL
REMARK 923 INTER-LIGAND FREE ENERGY PREDICTED BY IDOCK:   -8.69 KCAL/MOL
REMARK 924 INTRA-LIGAND FREE ENERGY PREDICTED BY IDOCK:   -1.05 KCAL/MOL
REMARK 927      BINDING AFFINITY PREDICTED BY RF-SCORE:    0.00 PKD
ROOT
HETATM    1  C   UNL     1     -10.810   3.237  73.253  1.00  0.00    -0.283 C  
HETATM    2  C   UNL     1      -9.756   4.094  72.549  1.00  0.00    -0.149 C  
HETATM    3  C   UNL     1      -8.732   3.213  71.820  1.00  0.00    -0.113 C  
ENDROOT
BRANCH   2   4
HETATM    4  O   UNL     1     -10.349   5.182  71.766  1.00  0.00    -0.202 OA 
BRANCH   4   5
HETATM    5  C   UNL     1     -10.447   6.420  72.308  1.00  0.00    -0.197 C  
HETATM    6  O   UNL     1     -10.289   6.640  73.510  1.00  0.00    -0.239 OA 
BRANCH   5   7
HETATM    7  C   UNL     1     -10.795   7.586  71.338  1.00  0.00    -0.229 C  
HETATM    8  C   UNL     1     -11.909   8.434  71.949  1.00  0.00    -0.398 C  
BRANCH   7   9
HETATM    9  N   UNL     1     -11.070   7.283  69.880  1.00  0.00    -0.365 NA 
HETATM   10  H   UNL     1     -11.938   7.718  69.569  1.00  0.00     0.000 HD 
BRANCH   9  11
HETATM   11  P   UNL     1      -9.720   7.740  68.844  1.00  0.00    -0.167 P  
HETATM   12  O   UNL     1      -8.909   8.371  70.003  1.00  0.00    -0.134 OA 
BRANCH  11  13
HETATM   13  C   UNL     1      -9.929   9.484  68.086  1.00  0.00    -0.165 C  
BRANCH  13  14
HETATM   14  O   UNL     1      -8.703   9.982  67.430  1.00  0.00    -0.125 OA 
BRANCH  14  15
HETATM   15  C   UNL     1      -8.683  11.273  66.762  1.00  0.00    -0.166 C  
HETATM   16  C   UNL     1      -7.317  11.499  66.103  1.00  0.00     0.225 C  
BRANCH  15  17
HETATM   17  C   UNL     1      -9.174  12.440  67.608  1.00  0.00    -0.185 C  
BRANCH  17  18
HETATM   18  N   UNL     1      -9.533  13.623  66.876  1.00  0.00    -0.253 NA 
HETATM   19  C   UNL     1      -8.849  14.806  66.806  1.00  0.00    -0.252 A  
HETATM   20  N   UNL     1      -9.421  15.649  65.974  1.00  0.00    -0.338 NA 
HETATM   21  C   UNL     1     -10.530  14.977  65.513  1.00  0.00    -0.365 A  
HETATM   22  C   UNL     1     -11.524  15.336  64.599  1.00  0.00    -0.354 A  
HETATM   23  N   UNL     1     -12.554  14.483  64.388  1.00  0.00    -0.663 NA 
HETATM   24  N   UNL     1     -11.485  16.542  63.916  1.00  0.00    -1.599 NA 
HETATM   25  C   UNL     1     -12.540  13.304  65.039  1.00  0.00    -0.423 A  
HETATM   26  H1  UNL     1     -12.211  16.805  63.249  1.00  0.00     0.000 HD 
HETATM   27  H2  UNL     1     -10.586  16.603  63.439  1.00  0.00     0.000 HD 
HETATM   28  N   UNL     1     -11.623  12.829  65.911  1.00  0.00    -0.360 NA 
HETATM   29  C   UNL     1     -10.645  13.730  66.093  1.00  0.00    -0.291 A  
ENDBRANCH  17  18
ENDBRANCH  15  17
ENDBRANCH  14  15
ENDBRANCH  13  14
ENDBRANCH  11  13
BRANCH  11  30
HETATM   30  O   UNL     1     -10.627   7.035  67.550  1.00  0.00    -0.222 OA 
BRANCH  30  31
HETATM   31  C   UNL     1      -9.974   6.082  66.789  1.00  0.00    -0.174 A  
HETATM   32  C   UNL     1     -10.575   4.825  66.702  1.00  0.00    -0.109 A  
HETATM   33  C   UNL     1      -8.144   5.273  65.416  1.00  0.00    -0.121 A  
HETATM   34  C   UNL     1      -8.758   6.308  66.136  1.00  0.00    -0.148 A  
HETATM   35  C   UNL     1      -8.737   4.014  65.350  1.00  0.00    -0.120 A  
HETATM   36  C   UNL     1      -9.952   3.792  65.993  1.00  0.00    -0.008 A  
ENDBRANCH  30  31
ENDBRANCH  11  30
ENDBRANCH   9  11
ENDBRANCH   7   9
ENDBRANCH   5   7
ENDBRANCH   4   5
ENDBRANCH   2   4
TORSDOF 12
ENDMDL
MODEL      218
REMARK 921   NORMALIZED FREE ENERGY PREDICTED BY IDOCK:   -4.71 KCAL/MOL
REMARK 922        TOTAL FREE ENERGY PREDICTED BY IDOCK:   -9.72 KCAL/MOL
REMARK 923 INTER-LIGAND FREE ENERGY PREDICTED BY IDOCK:   -8.11 KCAL/MOL
REMARK 924 INTRA-LIGAND FREE ENERGY PREDICTED BY IDOCK:   -1.61 KCAL/MOL
REMARK 927      BINDING AFFINITY PREDICTED BY RF-SCORE:    0.00 PKD
ROOT
HETATM    1  C   UNL     1      -8.981   1.926  63.050  1.00  0.00    -0.087 C  
HETATM    2  C   UNL     1      -9.140   3.312  63.680  1.00  0.00    -0.096 C  
HETATM    3  C   UNL     1     -10.623   3.677  63.830  1.00  0.00    -0.284 C  
ENDROOT
BRANCH   2   4
HETATM    4  O   UNL     1      -8.305   3.486  64.872  1.00  0.00    -0.096 OA 
BRANCH   4   5
HETATM    5  C   UNL     1      -8.802   3.161  66.090  1.00  0.00    -0.141 C  
HETATM    6  O   UNL     1      -9.157   2.018  66.386  1.00  0.00    -0.116 OA 
BRANCH   5   7
HETATM    7  C   UNL     1      -8.931   4.314  67.126  1.00  0.00    -0.123 C  
HETATM    8  C   UNL     1      -8.753   3.748  68.534  1.00  0.00    -0.134 C  
BRANCH   7   9
HETATM    9  N   UNL     1     -10.119   5.250  67.055  1.00  0.00    -0.187 NA 
HETATM   10  H   UNL     1     -10.964   4.802  67.410  1.00  0.00     0.000 HD 
BRANCH   9  11
HETATM   11  P   UNL     1      -9.810   6.774  67.881  1.00  0.00    -0.142 P  
HETATM   12  O   UNL     1     -11.131   6.727  68.687  1.00  0.00    -0.219 OA 
BRANCH  11  13
HETATM   13  C   UNL     1     -10.488   8.284  66.922  1.00  0.00    -0.295 C  
BRANCH  13  14
HETATM   14  O   UNL     1     -10.907   9.392  67.805  1.00  0.00    -0.252 OA 
BRANCH  14  15
HETATM   15  C   UNL     1     -10.506  10.762  67.529  1.00  0.00    -0.220 C  
HETATM   16  C   UNL     1      -9.262  11.118  68.352  1.00  0.00    -0.175 C  
BRANCH  15  17
HETATM   17  C   UNL     1     -11.630  11.786  67.610  1.00  0.00    -0.294 C  
BRANCH  17  18
HETATM   18  N   UNL     1     -11.716  12.694  66.500  1.00  0.00    -0.386 NA 
HETATM   19  C   UNL     1     -12.461  12.558  65.360  1.00  0.00    -0.240 A  
HETATM   20  N   UNL     1     -12.370  13.620  64.589  1.00  0.00    -0.544 NA 
HETATM   21  C   UNL     1     -11.510  14.459  65.262  1.00  0.00    -0.350 A  
HETATM   22  C   UNL     1     -11.032  15.737  64.963  1.00  0.00    -0.417 A  
HETATM   23  N   UNL     1     -10.122  16.301  65.791  1.00  0.00    -0.420 NA 
HETATM   24  N   UNL     1     -11.458  16.431  63.841  1.00  0.00    -1.618 NA 
HETATM   25  C   UNL     1      -9.759  15.616  66.892  1.00  0.00    -0.230 A  
HETATM   26  H1  UNL     1     -11.109  17.365  63.623  1.00  0.00     0.000 HD 
HETATM   27  H2  UNL     1     -12.477  16.477  63.870  1.00  0.00     0.000 HD 
HETATM   28  N   UNL     1     -10.176  14.398  67.306  1.00  0.00    -0.251 NA 
HETATM   29  C   UNL     1     -11.055  13.886  66.432  1.00  0.00    -0.309 A  
ENDBRANCH  17  18
ENDBRANCH  15  17
ENDBRANCH  14  15
ENDBRANCH  13  14
ENDBRANCH  11  13
BRANCH  11  30
HETATM   30  O   UNL     1      -8.333   6.827  66.981  1.00  0.00    -0.112 OA 
BRANCH  30  31
HETATM   31  C   UNL     1      -7.413   7.788  67.362  1.00  0.00    -0.093 A  
HETATM   32  C   UNL     1      -6.756   8.471  66.338  1.00  0.00    -0.070 A  
HETATM   33  C   UNL     1      -6.129   9.045  68.992  1.00  0.00    -0.043 A  
HETATM   34  C   UNL     1      -7.104   8.083  68.693  1.00  0.00    -0.072 A  
HETATM   35  C   UNL     1      -5.461   9.711  67.966  1.00  0.00    -0.040 A  
HETATM   36  C   UNL     1      -5.774   9.422  66.640  1.00  0.00    -0.054 A  
ENDBRANCH  30  31
ENDBRANCH  11  30
ENDBRANCH   9  11
ENDBRANCH   7   9
ENDBRANCH   5   7
ENDBRANCH   4   5
ENDBRANCH   2   4
TORSDOF 12
ENDMDL
MODEL      219
REMARK 921   NORMALIZED FREE ENERGY PREDICTED BY IDOCK:   -4.70 KCAL/MOL
REMARK 922        TOTAL FREE ENERGY PREDICTED BY IDOCK:   -9.71 KCAL/MOL
REMARK 923 INTER-LIGAND FREE ENERGY PREDICTED BY IDOCK:   -7.79 KCAL/MOL
REMARK 924 INTRA-LIGAND FREE ENERGY PREDICTED BY IDOCK:   -1.91 KCAL/MOL
REMARK 927      BINDING AFFINITY PREDICTED BY RF-SCORE:    0.00 PKD
ROOT
HETATM    1  C   UNL     1      -9.814   3.996  70.442  1.00  0.00    -0.209 C  
HETATM    2  C   UNL     1      -8.829   3.982  71.613  1.00  0.00    -0.108 C  
HETATM    3  C   UNL     1      -7.582   4.816  71.287  1.00  0.00    -0.081 C  
ENDROOT
BRANCH   2   4
HETATM    4  O   UNL     1      -9.478   4.259  72.897  1.00  0.00    -0.121 OA 
BRANCH   4   5
HETATM    5  C   UNL     1     -10.460   5.192  72.962  1.00  0.00    -0.210 C  
HETATM    6  O   UNL     1     -11.653   4.902  73.066  1.00  0.00    -0.290 OA 
BRANCH   5   7
HETATM    7  C   UNL     1     -10.020   6.681  72.882  1.00  0.00    -0.172 C  
HETATM    8  C   UNL     1      -9.638   7.169  74.279  1.00  0.00    -0.218 C  
BRANCH   7   9
HETATM    9  N   UNL     1     -10.906   7.683  72.173  1.00  0.00    -0.233 NA 
HETATM   10  H   UNL     1     -11.320   8.343  72.832  1.00  0.00     0.000 HD 
BRANCH   9  11
HETATM   11  P   UNL     1     -10.054   8.521  70.879  1.00  0.00    -0.229 P  
HETATM   12  O   UNL     1      -9.151   9.321  71.850  1.00  0.00    -0.290 OA 
BRANCH  11  13
HETATM   13  C   UNL     1     -10.904  10.158  70.374  1.00  0.00    -0.301 C  
BRANCH  13  14
HETATM   14  O   UNL     1     -10.354  10.739  69.132  1.00  0.00    -0.205 OA 
BRANCH  14  15
HETATM   15  C   UNL     1     -11.107  10.699  67.890  1.00  0.00    -0.308 C  
HETATM   16  C   UNL     1     -10.149  10.524  66.704  1.00  0.00    -0.275 C  
BRANCH  15  17
HETATM   17  C   UNL     1     -12.121  11.821  67.719  1.00  0.00     0.138 C  
BRANCH  17  18
HETATM   18  N   UNL     1     -11.600  13.151  67.882  1.00  0.00    -0.314 NA 
HETATM   19  C   UNL     1     -10.936  13.911  66.957  1.00  0.00    -0.295 A  
HETATM   20  N   UNL     1     -10.675  15.116  67.416  1.00  0.00    -0.280 NA 
HETATM   21  C   UNL     1     -11.179  15.112  68.697  1.00  0.00    -0.286 A  
HETATM   22  C   UNL     1     -11.222  16.100  69.684  1.00  0.00    -0.331 A  
HETATM   23  N   UNL     1     -11.725  15.783  70.900  1.00  0.00    -0.370 NA 
HETATM   24  N   UNL     1     -10.754  17.384  69.451  1.00  0.00    -0.335 NA 
HETATM   25  C   UNL     1     -12.205  14.538  71.080  1.00  0.00    -0.345 A  
HETATM   26  H1  UNL     1     -10.785  18.106  70.172  1.00  0.00     0.000 HD 
HETATM   27  H2  UNL     1     -11.232  17.746  68.626  1.00  0.00     0.000 HD 
HETATM   28  N   UNL     1     -12.254  13.514  70.199  1.00  0.00    -0.340 NA 
HETATM   29  C   UNL     1     -11.720  13.886  69.025  1.00  0.00    -0.338 A  
ENDBRANCH  17  18
ENDBRANCH  15  17
ENDBRANCH  14  15
ENDBRANCH  13  14
ENDBRANCH  11  13
BRANCH  11  30
HETATM   30  O   UNL     1     -11.063   7.626  69.794  1.00  0.00    -0.212 OA 
BRANCH  30  31
HETATM   31  C   UNL     1     -10.454   7.129  68.655  1.00  0.00    -0.197 A  
HETATM   32  C   UNL     1      -9.087   7.375  68.514  1.00  0.00    -0.136 A  
HETATM   33  C   UNL     1     -10.447   5.994  66.511  1.00  0.00    -0.227 A  
HETATM   34  C   UNL     1     -11.133   6.429  67.654  1.00  0.00    -0.388 A  
HETATM   35  C   UNL     1      -9.086   6.260  66.365  1.00  0.00    -0.164 A  
HETATM   36  C   UNL     1      -8.409   6.950  67.366  1.00  0.00    -0.122 A  
ENDBRANCH  30  31
ENDBRANCH  11  30
ENDBRANCH   9  11
ENDBRANCH   7   9
ENDBRANCH   5   7
ENDBRANCH   4   5
ENDBRANCH   2   4
TORSDOF 12
ENDMDL
MODEL      220
REMARK 921   NORMALIZED FREE ENERGY PREDICTED BY IDOCK:   -4.69 KCAL/MOL
REMARK 922        TOTAL FREE ENERGY PREDICTED BY IDOCK:   -9.70 KCAL/MOL
REMARK 923 INTER-LIGAND FREE ENERGY PREDICTED BY IDOCK:   -8.42 KCAL/MOL
REMARK 924 INTRA-LIGAND FREE ENERGY PREDICTED BY IDOCK:   -1.28 KCAL/MOL
REMARK 927      BINDING AFFINITY PREDICTED BY RF-SCORE:    0.00 PKD
ROOT
HETATM    1  C   UNL     1      -5.630   8.874  63.560  1.00  0.00    -0.071 C  
HETATM    2  C   UNL     1      -6.717   8.465  64.557  1.00  0.00    -0.069 C  
HETATM    3  C   UNL     1      -8.040   8.174  63.833  1.00  0.00    -0.114 C  
ENDROOT
BRANCH   2   4
HETATM    4  O   UNL     1      -6.257   7.446  65.503  1.00  0.00    -0.037 OA 
BRANCH   4   5
HETATM    5  C   UNL     1      -7.139   6.889  66.368  1.00  0.00    -0.074 C  
HETATM    6  O   UNL     1      -7.518   5.719  66.280  1.00  0.00    -0.080 OA 
BRANCH   5   7
HETATM    7  C   UNL     1      -7.687   7.806  67.499  1.00  0.00    -0.117 C  
HETATM    8  C   UNL     1      -6.515   8.472  68.219  1.00  0.00    -0.060 C  
BRANCH   7   9
HETATM    9  N   UNL     1      -8.695   7.253  68.484  1.00  0.00    -0.124 NA 
HETATM   10  H   UNL     1      -8.361   7.340  69.444  1.00  0.00     0.000 HD 
BRANCH   9  11
HETATM   11  P   UNL     1     -10.282   7.992  68.290  1.00  0.00    -0.181 P  
HETATM   12  O   UNL     1     -10.383   7.631  66.788  1.00  0.00    -0.297 OA 
BRANCH  11  13
HETATM   13  C   UNL     1     -10.181   9.839  67.804  1.00  0.00    -0.208 C  
BRANCH  13  14
HETATM   14  O   UNL     1     -10.733  10.117  66.462  1.00  0.00    -0.153 OA 
BRANCH  14  15
HETATM   15  C   UNL     1     -10.500  11.394  65.807  1.00  0.00    -0.262 C  
HETATM   16  C   UNL     1      -9.179  11.999  66.299  1.00  0.00    -0.208 C  
BRANCH  15  17
HETATM   17  C   UNL     1     -11.682  12.353  65.836  1.00  0.00    -0.419 C  
BRANCH  17  18
HETATM   18  N   UNL     1     -11.628  13.365  66.854  1.00  0.00    -0.346 NA 
HETATM   19  C   UNL     1     -11.960  13.244  68.177  1.00  0.00    -0.304 A  
HETATM   20  N   UNL     1     -11.708  14.349  68.845  1.00  0.00    -0.303 NA 
HETATM   21  C   UNL     1     -11.212  15.217  67.898  1.00  0.00    -0.329 A  
HETATM   22  C   UNL     1     -10.754  16.533  67.990  1.00  0.00    -0.343 A  
HETATM   23  N   UNL     1     -10.384  17.174  66.857  1.00  0.00    -0.317 NA 
HETATM   24  N   UNL     1     -10.679  17.195  69.206  1.00  0.00    -0.358 NA 
HETATM   25  C   UNL     1     -10.433  16.489  65.699  1.00  0.00    -0.324 A  
HETATM   26  H1  UNL     1     -10.344  18.157  69.274  1.00  0.00     0.000 HD 
HETATM   27  H2  UNL     1     -10.119  16.624  69.839  1.00  0.00     0.000 HD 
HETATM   28  N   UNL     1     -10.819  15.211  65.488  1.00  0.00    -0.343 NA 
HETATM   29  C   UNL     1     -11.193  14.642  66.643  1.00  0.00    -0.349 A  
ENDBRANCH  17  18
ENDBRANCH  15  17
ENDBRANCH  14  15
ENDBRANCH  13  14
ENDBRANCH  11  13
BRANCH  11  30
HETATM   30  O   UNL     1     -10.170   8.395  69.969  1.00  0.00    -0.193 OA 
BRANCH  30  31
HETATM   31  C   UNL     1     -11.363   8.472  70.665  1.00  0.00    -0.241 A  
HETATM   32  C   UNL     1     -11.785   9.745  71.052  1.00  0.00    -0.453 A  
HETATM   33  C   UNL     1     -13.313   7.522  71.751  1.00  0.00    -0.370 A  
HETATM   34  C   UNL     1     -12.135   7.358  71.010  1.00  0.00    -0.330 A  
HETATM   35  C   UNL     1     -13.720   8.793  72.153  1.00  0.00    -0.498 A  
HETATM   36  C   UNL     1     -12.956   9.903  71.803  1.00  0.00    -0.549 A  
ENDBRANCH  30  31
ENDBRANCH  11  30
ENDBRANCH   9  11
ENDBRANCH   7   9
ENDBRANCH   5   7
ENDBRANCH   4   5
ENDBRANCH   2   4
TORSDOF 12
ENDMDL
MODEL      221
REMARK 921   NORMALIZED FREE ENERGY PREDICTED BY IDOCK:   -4.69 KCAL/MOL
REMARK 922        TOTAL FREE ENERGY PREDICTED BY IDOCK:   -9.69 KCAL/MOL
REMARK 923 INTER-LIGAND FREE ENERGY PREDICTED BY IDOCK:   -8.16 KCAL/MOL
REMARK 924 INTRA-LIGAND FREE ENERGY PREDICTED BY IDOCK:   -1.54 KCAL/MOL
REMARK 927      BINDING AFFINITY PREDICTED BY RF-SCORE:    0.00 PKD
ROOT
HETATM    1  C   UNL     1      -9.921   4.860  67.055  1.00  0.00    -0.238 C  
HETATM    2  C   UNL     1      -9.798   5.196  68.543  1.00  0.00    -0.155 C  
HETATM    3  C   UNL     1      -9.660   3.918  69.382  1.00  0.00    -0.239 C  
ENDROOT
BRANCH   2   4
HETATM    4  O   UNL     1      -8.815   6.251  68.802  1.00  0.00    -0.123 OA 
BRANCH   4   5
HETATM    5  C   UNL     1      -9.226   7.441  69.304  1.00  0.00    -0.147 C  
HETATM    6  O   UNL     1     -10.293   7.582  69.905  1.00  0.00    -0.212 OA 
BRANCH   5   7
HETATM    7  C   UNL     1      -8.288   8.661  69.075  1.00  0.00    -0.119 C  
HETATM    8  C   UNL     1      -8.329   9.565  70.306  1.00  0.00    -0.221 C  
BRANCH   7   9
HETATM    9  N   UNL     1      -8.411   9.465  67.797  1.00  0.00    -0.115 NA 
HETATM   10  H   UNL     1      -8.928   8.951  67.085  1.00  0.00     0.000 HD 
BRANCH   9  11
HETATM   11  P   UNL     1      -9.119  11.052  68.081  1.00  0.00    -0.167 P  
HETATM   12  O   UNL     1     -10.536  10.489  68.348  1.00  0.00    -0.176 OA 
BRANCH  11  13
HETATM   13  C   UNL     1      -9.779  11.862  66.479  1.00  0.00    -0.210 C  
BRANCH  13  14
HETATM   14  O   UNL     1     -11.253  11.962  66.444  1.00  0.00    -0.307 OA 
BRANCH  14  15
HETATM   15  C   UNL     1     -11.937  12.529  65.294  1.00  0.00    -0.438 C  
HETATM   16  C   UNL     1     -11.066  12.375  64.041  1.00  0.00    -0.452 C  
BRANCH  15  17
HETATM   17  C   UNL     1     -12.492  13.931  65.506  1.00  0.00    -0.511 C  
BRANCH  17  18
HETATM   18  N   UNL     1     -11.528  14.921  65.901  1.00  0.00    -0.318 NA 
HETATM   19  C   UNL     1     -10.689  15.644  65.096  1.00  0.00    -0.443 A  
HETATM   20  N   UNL     1      -9.997  16.526  65.784  1.00  0.00    -0.506 NA 
HETATM   21  C   UNL     1     -10.400  16.339  67.087  1.00  0.00    -0.285 A  
HETATM   22  C   UNL     1     -10.039  16.980  68.275  1.00  0.00    -0.306 A  
HETATM   23  N   UNL     1     -10.556  16.527  69.441  1.00  0.00    -0.315 NA 
HETATM   24  N   UNL     1      -9.162  18.054  68.286  1.00  0.00    -0.286 NA 
HETATM   25  C   UNL     1     -11.433  15.507  69.390  1.00  0.00    -0.337 A  
HETATM   26  H1  UNL     1      -8.899  18.522  69.154  1.00  0.00     0.000 HD 
HETATM   27  H2  UNL     1      -9.526  18.761  67.647  1.00  0.00     0.000 HD 
HETATM   28  N   UNL     1     -11.887  14.835  68.308  1.00  0.00    -0.310 NA 
HETATM   29  C   UNL     1     -11.321  15.316  67.191  1.00  0.00    -0.247 A  
ENDBRANCH  17  18
ENDBRANCH  15  17
ENDBRANCH  14  15
ENDBRANCH  13  14
ENDBRANCH  11  13
BRANCH  11  30
HETATM   30  O   UNL     1      -7.534  11.682  67.784  1.00  0.00    -0.099 OA 
BRANCH  30  31
HETATM   31  C   UNL     1      -7.122  12.722  68.598  1.00  0.00    -0.100 A  
HETATM   32  C   UNL     1      -6.074  12.454  69.479  1.00  0.00    -0.117 A  
HETATM   33  C   UNL     1      -7.255  14.978  69.480  1.00  0.00    -0.199 A  
HETATM   34  C   UNL     1      -7.709  13.992  68.594  1.00  0.00    -0.135 A  
HETATM   35  C   UNL     1      -6.221  14.700  70.373  1.00  0.00    -0.168 A  
HETATM   36  C   UNL     1      -5.633  13.438  70.371  1.00  0.00    -0.153 A  
ENDBRANCH  30  31
ENDBRANCH  11  30
ENDBRANCH   9  11
ENDBRANCH   7   9
ENDBRANCH   5   7
ENDBRANCH   4   5
ENDBRANCH   2   4
TORSDOF 12
ENDMDL
MODEL      222
REMARK 921   NORMALIZED FREE ENERGY PREDICTED BY IDOCK:   -4.68 KCAL/MOL
REMARK 922        TOTAL FREE ENERGY PREDICTED BY IDOCK:   -9.67 KCAL/MOL
REMARK 923 INTER-LIGAND FREE ENERGY PREDICTED BY IDOCK:   -8.87 KCAL/MOL
REMARK 924 INTRA-LIGAND FREE ENERGY PREDICTED BY IDOCK:   -0.80 KCAL/MOL
REMARK 927      BINDING AFFINITY PREDICTED BY RF-SCORE:    0.00 PKD
ROOT
HETATM    1  C   UNL     1     -13.860  13.499  72.397  1.00  0.00    -0.687 C  
HETATM    2  C   UNL     1     -13.154  12.695  71.303  1.00  0.00    -0.145 C  
HETATM    3  C   UNL     1     -12.303  13.612  70.414  1.00  0.00    -0.415 C  
ENDROOT
BRANCH   2   4
HETATM    4  O   UNL     1     -12.489  11.499  71.827  1.00  0.00    -0.169 OA 
BRANCH   4   5
HETATM    5  C   UNL     1     -12.586  10.328  71.149  1.00  0.00    -0.400 C  
HETATM    6  O   UNL     1     -13.605   9.635  71.153  1.00  0.00    -0.340 OA 
BRANCH   5   7
HETATM    7  C   UNL     1     -11.327   9.869  70.359  1.00  0.00    -0.307 C  
HETATM    8  C   UNL     1     -10.365   9.162  71.313  1.00  0.00    -0.405 C  
BRANCH   7   9
HETATM    9  N   UNL     1     -10.598  10.861  69.478  1.00  0.00    -0.375 NA 
HETATM   10  H   UNL     1      -9.724  11.165  69.907  1.00  0.00     0.000 HD 
BRANCH   9  11
HETATM   11  P   UNL     1     -10.328  10.229  67.856  1.00  0.00    -0.230 P  
HETATM   12  O   UNL     1     -10.645   8.768  68.258  1.00  0.00    -0.210 OA 
BRANCH  11  13
HETATM   13  C   UNL     1      -8.510   9.716  67.557  1.00  0.00    -0.125 C  
BRANCH  13  14
HETATM   14  O   UNL     1      -8.066   8.612  68.434  1.00  0.00    -0.115 OA 
BRANCH  14  15
HETATM   15  C   UNL     1      -6.926   7.784  68.076  1.00  0.00    -0.080 C  
HETATM   16  C   UNL     1      -6.390   8.202  66.701  1.00  0.00    -0.055 C  
BRANCH  15  17
HETATM   17  C   UNL     1      -7.147   6.287  68.238  1.00  0.00    -0.083 C  
BRANCH  17  18
HETATM   18  N   UNL     1      -8.357   5.777  67.655  1.00  0.00    -0.105 NA 
HETATM   19  C   UNL     1      -9.641   5.953  68.098  1.00  0.00    -0.120 A  
HETATM   20  N   UNL     1     -10.516   5.418  67.275  1.00  0.00    -0.224 NA 
HETATM   21  C   UNL     1      -9.751   4.859  66.276  1.00  0.00    -0.190 A  
HETATM   22  C   UNL     1     -10.099   4.165  65.114  1.00  0.00    -0.209 A  
HETATM   23  N   UNL     1      -9.111   3.659  64.339  1.00  0.00    -0.123 NA 
HETATM   24  N   UNL     1     -11.422   3.975  64.746  1.00  0.00    -0.787 NA 
HETATM   25  C   UNL     1      -7.837   3.894  64.705  1.00  0.00    -0.085 A  
HETATM   26  H1  UNL     1     -11.676   3.468  63.898  1.00  0.00     0.000 HD 
HETATM   27  H2  UNL     1     -11.870   4.891  64.710  1.00  0.00     0.000 HD 
HETATM   28  N   UNL     1      -7.377   4.578  65.776  1.00  0.00    -0.076 NA 
HETATM   29  C   UNL     1      -8.403   5.032  66.513  1.00  0.00    -0.107 A  
ENDBRANCH  17  18
ENDBRANCH  15  17
ENDBRANCH  14  15
ENDBRANCH  13  14
ENDBRANCH  11  13
BRANCH  11  30
HETATM   30  O   UNL     1      -9.974  11.862  67.406  1.00  0.00    -0.188 OA 
BRANCH  30  31
HETATM   31  C   UNL     1     -10.599  12.336  66.266  1.00  0.00    -0.251 A  
HETATM   32  C   UNL     1     -11.853  12.925  66.434  1.00  0.00    -0.478 A  
HETATM   33  C   UNL     1     -10.774  12.707  63.875  1.00  0.00    -0.465 A  
HETATM   34  C   UNL     1     -10.055  12.234  64.982  1.00  0.00    -0.277 A  
HETATM   35  C   UNL     1     -12.034  13.276  64.046  1.00  0.00    -0.525 A  
HETATM   36  C   UNL     1     -12.573  13.384  65.325  1.00  0.00    -0.518 A  
ENDBRANCH  30  31
ENDBRANCH  11  30
ENDBRANCH   9  11
ENDBRANCH   7   9
ENDBRANCH   5   7
ENDBRANCH   4   5
ENDBRANCH   2   4
TORSDOF 12
ENDMDL
MODEL      223
REMARK 921   NORMALIZED FREE ENERGY PREDICTED BY IDOCK:   -4.68 KCAL/MOL
REMARK 922        TOTAL FREE ENERGY PREDICTED BY IDOCK:   -9.67 KCAL/MOL
REMARK 923 INTER-LIGAND FREE ENERGY PREDICTED BY IDOCK:   -8.62 KCAL/MOL
REMARK 924 INTRA-LIGAND FREE ENERGY PREDICTED BY IDOCK:   -1.05 KCAL/MOL
REMARK 927      BINDING AFFINITY PREDICTED BY RF-SCORE:    0.00 PKD
ROOT
HETATM    1  C   UNL     1      -5.670   8.431  69.819  1.00  0.00    -0.026 C  
HETATM    2  C   UNL     1      -6.410   7.123  69.530  1.00  0.00    -0.035 C  
HETATM    3  C   UNL     1      -7.746   7.073  70.284  1.00  0.00    -0.099 C  
ENDROOT
BRANCH   2   4
HETATM    4  O   UNL     1      -6.461   6.812  68.099  1.00  0.00    -0.048 OA 
BRANCH   4   5
HETATM    5  C   UNL     1      -6.502   7.822  67.195  1.00  0.00    -0.055 C  
HETATM    6  O   UNL     1      -5.502   8.231  66.602  1.00  0.00    -0.031 OA 
BRANCH   5   7
HETATM    7  C   UNL     1      -7.889   8.477  66.938  1.00  0.00    -0.092 C  
HETATM    8  C   UNL     1      -8.048   8.747  65.442  1.00  0.00    -0.125 C  
BRANCH   7   9
HETATM    9  N   UNL     1      -8.311   9.675  67.762  1.00  0.00    -0.120 NA 
HETATM   10  H   UNL     1      -7.725   9.780  68.590  1.00  0.00     0.000 HD 
BRANCH   9  11
HETATM   11  P   UNL     1      -8.338  11.156  66.808  1.00  0.00    -0.158 P  
HETATM   12  O   UNL     1      -6.797  11.307  66.805  1.00  0.00    -0.125 OA 
BRANCH  11  13
HETATM   13  C   UNL     1      -8.457  12.728  67.890  1.00  0.00    -0.173 C  
BRANCH  13  14
HETATM   14  O   UNL     1      -9.032  13.885  67.172  1.00  0.00    -0.215 OA 
BRANCH  14  15
HETATM   15  C   UNL     1      -9.556  15.030  67.897  1.00  0.00    -0.203 C  
HETATM   16  C   UNL     1      -8.877  15.134  69.269  1.00  0.00    -0.207 C  
BRANCH  15  17
HETATM   17  C   UNL     1     -11.075  15.122  67.938  1.00  0.00    -0.321 C  
BRANCH  17  18
HETATM   18  N   UNL     1     -11.672  14.879  69.223  1.00  0.00    -0.299 NA 
HETATM   19  C   UNL     1     -12.099  15.803  70.138  1.00  0.00    -0.333 A  
HETATM   20  N   UNL     1     -12.675  15.232  71.173  1.00  0.00    -0.374 NA 
HETATM   21  C   UNL     1     -12.590  13.882  70.912  1.00  0.00    -0.361 A  
HETATM   22  C   UNL     1     -13.033  12.765  71.625  1.00  0.00    -0.303 A  
HETATM   23  N   UNL     1     -12.740  11.532  71.150  1.00  0.00    -0.391 NA 
HETATM   24  N   UNL     1     -13.751  12.892  72.804  1.00  0.00    -0.719 NA 
HETATM   25  C   UNL     1     -12.075  11.447  69.983  1.00  0.00    -0.340 A  
HETATM   26  H1  UNL     1     -14.074  12.076  73.326  1.00  0.00     0.000 HD 
HETATM   27  H2  UNL     1     -14.560  13.484  72.616  1.00  0.00     0.000 HD 
HETATM   28  N   UNL     1     -11.630  12.445  69.187  1.00  0.00    -0.294 NA 
HETATM   29  C   UNL     1     -11.931  13.637  69.724  1.00  0.00    -0.341 A  
ENDBRANCH  17  18
ENDBRANCH  15  17
ENDBRANCH  14  15
ENDBRANCH  13  14
ENDBRANCH  11  13
BRANCH  11  30
HETATM   30  O   UNL     1     -10.060  10.986  66.810  1.00  0.00    -0.206 OA 
BRANCH  30  31
HETATM   31  C   UNL     1     -10.729  11.483  65.705  1.00  0.00    -0.271 A  
HETATM   32  C   UNL     1     -11.889  12.219  65.950  1.00  0.00    -0.420 A  
HETATM   33  C   UNL     1     -11.077  11.775  63.322  1.00  0.00    -0.370 A  
HETATM   34  C   UNL     1     -10.318  11.268  64.386  1.00  0.00    -0.388 A  
HETATM   35  C   UNL     1     -12.246  12.491  63.571  1.00  0.00    -0.652 A  
HETATM   36  C   UNL     1     -12.651  12.712  64.885  1.00  0.00    -0.525 A  
ENDBRANCH  30  31
ENDBRANCH  11  30
ENDBRANCH   9  11
ENDBRANCH   7   9
ENDBRANCH   5   7
ENDBRANCH   4   5
ENDBRANCH   2   4
TORSDOF 12
ENDMDL
MODEL      224
REMARK 921   NORMALIZED FREE ENERGY PREDICTED BY IDOCK:   -4.66 KCAL/MOL
REMARK 922        TOTAL FREE ENERGY PREDICTED BY IDOCK:   -9.65 KCAL/MOL
REMARK 923 INTER-LIGAND FREE ENERGY PREDICTED BY IDOCK:   -8.95 KCAL/MOL
REMARK 924 INTRA-LIGAND FREE ENERGY PREDICTED BY IDOCK:   -0.71 KCAL/MOL
REMARK 927      BINDING AFFINITY PREDICTED BY RF-SCORE:    0.00 PKD
ROOT
HETATM    1  C   UNL     1     -13.150   9.095  72.421  1.00  0.00    -0.493 C  
HETATM    2  C   UNL     1     -12.041   8.250  71.789  1.00  0.00    -0.319 C  
HETATM    3  C   UNL     1     -10.663   8.683  72.307  1.00  0.00    -0.383 C  
ENDROOT
BRANCH   2   4
HETATM    4  O   UNL     1     -12.332   6.815  71.839  1.00  0.00    -0.339 OA 
BRANCH   4   5
HETATM    5  C   UNL     1     -11.373   5.925  71.482  1.00  0.00    -0.190 C  
HETATM    6  O   UNL     1     -10.707   5.292  72.304  1.00  0.00    -0.220 OA 
BRANCH   5   7
HETATM    7  C   UNL     1     -11.121   5.738  69.959  1.00  0.00    -0.258 C  
HETATM    8  C   UNL     1      -9.775   5.046  69.752  1.00  0.00    -0.266 C  
BRANCH   7   9
HETATM    9  N   UNL     1     -11.281   6.920  69.027  1.00  0.00    -0.505 NA 
HETATM   10  H   UNL     1     -11.556   7.760  69.537  1.00  0.00     0.000 HD 
BRANCH   9  11
HETATM   11  P   UNL     1      -9.832   7.203  68.065  1.00  0.00    -0.149 P  
HETATM   12  O   UNL     1      -9.079   7.913  69.216  1.00  0.00    -0.148 OA 
BRANCH  11  13
HETATM   13  C   UNL     1      -9.886   8.866  67.121  1.00  0.00    -0.207 C  
BRANCH  13  14
HETATM   14  O   UNL     1     -11.001   9.738  67.545  1.00  0.00    -0.275 OA 
BRANCH  14  15
HETATM   15  C   UNL     1     -10.749  10.998  68.225  1.00  0.00    -0.196 C  
HETATM   16  C   UNL     1      -9.741  10.783  69.362  1.00  0.00    -0.088 C  
BRANCH  15  17
HETATM   17  C   UNL     1     -11.997  11.769  68.628  1.00  0.00    -0.239 C  
BRANCH  17  18
HETATM   18  N   UNL     1     -11.760  13.008  69.316  1.00  0.00    -0.304 NA 
HETATM   19  C   UNL     1     -11.009  14.072  68.894  1.00  0.00    -0.259 A  
HETATM   20  N   UNL     1     -11.077  15.079  69.737  1.00  0.00    -0.265 NA 
HETATM   21  C   UNL     1     -11.891  14.625  70.750  1.00  0.00    -0.311 A  
HETATM   22  C   UNL     1     -12.351  15.235  71.921  1.00  0.00    -0.354 A  
HETATM   23  N   UNL     1     -13.097  14.506  72.783  1.00  0.00    -0.467 NA 
HETATM   24  N   UNL     1     -12.053  16.556  72.219  1.00  0.00    -0.584 NA 
HETATM   25  C   UNL     1     -13.398  13.239  72.444  1.00  0.00    -0.516 A  
HETATM   26  H1  UNL     1     -12.389  17.001  73.074  1.00  0.00     0.000 HD 
HETATM   27  H2  UNL     1     -12.351  17.129  71.430  1.00  0.00     0.000 HD 
HETATM   28  N   UNL     1     -13.048  12.555  71.332  1.00  0.00    -0.287 NA 
HETATM   29  C   UNL     1     -12.293  13.323  70.532  1.00  0.00    -0.316 A  
ENDBRANCH  17  18
ENDBRANCH  15  17
ENDBRANCH  14  15
ENDBRANCH  13  14
ENDBRANCH  11  13
BRANCH  11  30
HETATM   30  O   UNL     1     -10.674   6.409  66.778  1.00  0.00    -0.290 OA 
BRANCH  30  31
HETATM   31  C   UNL     1      -9.974   5.432  66.094  1.00  0.00    -0.132 A  
HETATM   32  C   UNL     1     -10.720   4.567  65.292  1.00  0.00    -0.145 A  
HETATM   33  C   UNL     1      -7.962   4.219  65.487  1.00  0.00    -0.094 A  
HETATM   34  C   UNL     1      -8.589   5.261  66.185  1.00  0.00    -0.120 A  
HETATM   35  C   UNL     1      -8.714   3.345  64.704  1.00  0.00    -0.102 A  
HETATM   36  C   UNL     1     -10.092   3.520  64.608  1.00  0.00    -0.124 A  
ENDBRANCH  30  31
ENDBRANCH  11  30
ENDBRANCH   9  11
ENDBRANCH   7   9
ENDBRANCH   5   7
ENDBRANCH   4   5
ENDBRANCH   2   4
TORSDOF 12
ENDMDL
MODEL      225
REMARK 921   NORMALIZED FREE ENERGY PREDICTED BY IDOCK:   -4.65 KCAL/MOL
REMARK 922        TOTAL FREE ENERGY PREDICTED BY IDOCK:   -9.62 KCAL/MOL
REMARK 923 INTER-LIGAND FREE ENERGY PREDICTED BY IDOCK:   -8.03 KCAL/MOL
REMARK 924 INTRA-LIGAND FREE ENERGY PREDICTED BY IDOCK:   -1.59 KCAL/MOL
REMARK 927      BINDING AFFINITY PREDICTED BY RF-SCORE:    0.00 PKD
ROOT
HETATM    1  C   UNL     1     -10.759   5.510  70.297  1.00  0.00    -0.333 C  
HETATM    2  C   UNL     1     -10.666   6.703  69.343  1.00  0.00    -0.259 C  
HETATM    3  C   UNL     1     -11.111   6.308  67.928  1.00  0.00    -0.360 C  
ENDROOT
BRANCH   2   4
HETATM    4  O   UNL     1     -11.273   7.915  69.899  1.00  0.00    -0.181 OA 
BRANCH   4   5
HETATM    5  C   UNL     1     -10.891   8.354  71.124  1.00  0.00    -0.237 C  
HETATM    6  O   UNL     1     -11.688   8.775  71.964  1.00  0.00    -0.336 OA 
BRANCH   5   7
HETATM    7  C   UNL     1      -9.367   8.324  71.435  1.00  0.00    -0.172 C  
HETATM    8  C   UNL     1      -9.156   7.847  72.871  1.00  0.00    -0.281 C  
BRANCH   7   9
HETATM    9  N   UNL     1      -8.520   9.542  71.130  1.00  0.00    -0.329 NA 
HETATM   10  H   UNL     1      -8.411  10.133  71.954  1.00  0.00     0.000 HD 
BRANCH   9  11
HETATM   11  P   UNL     1      -6.958   9.105  70.444  1.00  0.00    -0.096 P  
HETATM   12  O   UNL     1      -6.158   9.645  71.655  1.00  0.00    -0.242 OA 
BRANCH  11  13
HETATM   13  C   UNL     1      -6.208  10.499  69.370  1.00  0.00    -0.048 C  
BRANCH  13  14
HETATM   14  O   UNL     1      -7.121  11.647  69.189  1.00  0.00    -0.113 OA 
BRANCH  14  15
HETATM   15  C   UNL     1      -8.132  11.641  68.145  1.00  0.00    -0.148 C  
HETATM   16  C   UNL     1      -7.466  11.458  66.775  1.00  0.00    -0.137 C  
BRANCH  15  17
HETATM   17  C   UNL     1      -9.128  12.791  68.212  1.00  0.00    -0.180 C  
BRANCH  17  18
HETATM   18  N   UNL     1      -9.998  12.918  67.076  1.00  0.00    -0.239 NA 
HETATM   19  C   UNL     1     -10.812  11.961  66.531  1.00  0.00    -0.278 A  
HETATM   20  N   UNL     1     -11.538  12.444  65.547  1.00  0.00    -0.369 NA 
HETATM   21  C   UNL     1     -11.151  13.762  65.449  1.00  0.00    -0.302 A  
HETATM   22  C   UNL     1     -11.569  14.796  64.607  1.00  0.00    -0.399 A  
HETATM   23  N   UNL     1     -10.948  15.995  64.693  1.00  0.00    -0.621 NA 
HETATM   24  N   UNL     1     -12.590  14.618  63.686  1.00  0.00    -0.980 NA 
HETATM   25  C   UNL     1      -9.987  16.144  65.623  1.00  0.00    -0.297 A  
HETATM   26  H1  UNL     1     -12.895  15.373  63.071  1.00  0.00     0.000 HD 
HETATM   27  H2  UNL     1     -13.408  14.275  64.189  1.00  0.00     0.000 HD 
HETATM   28  N   UNL     1      -9.524  15.239  66.515  1.00  0.00    -0.263 NA 
HETATM   29  C   UNL     1     -10.163  14.069  66.362  1.00  0.00    -0.291 A  
ENDBRANCH  17  18
ENDBRANCH  15  17
ENDBRANCH  14  15
ENDBRANCH  13  14
ENDBRANCH  11  13
BRANCH  11  30
HETATM   30  O   UNL     1      -7.853   8.502  69.091  1.00  0.00    -0.096 OA 
BRANCH  30  31
HETATM   31  C   UNL     1      -7.414   7.308  68.545  1.00  0.00    -0.105 A  
HETATM   32  C   UNL     1      -7.424   7.211  67.153  1.00  0.00    -0.098 A  
HETATM   33  C   UNL     1      -6.598   5.027  68.674  1.00  0.00    -0.049 A  
HETATM   34  C   UNL     1      -6.991   6.215  69.307  1.00  0.00    -0.064 A  
HETATM   35  C   UNL     1      -6.630   4.928  67.284  1.00  0.00    -0.050 A  
HETATM   36  C   UNL     1      -7.043   6.019  66.526  1.00  0.00    -0.072 A  
ENDBRANCH  30  31
ENDBRANCH  11  30
ENDBRANCH   9  11
ENDBRANCH   7   9
ENDBRANCH   5   7
ENDBRANCH   4   5
ENDBRANCH   2   4
TORSDOF 12
ENDMDL
MODEL      226
REMARK 921   NORMALIZED FREE ENERGY PREDICTED BY IDOCK:   -4.64 KCAL/MOL
REMARK 922        TOTAL FREE ENERGY PREDICTED BY IDOCK:   -9.60 KCAL/MOL
REMARK 923 INTER-LIGAND FREE ENERGY PREDICTED BY IDOCK:   -8.40 KCAL/MOL
REMARK 924 INTRA-LIGAND FREE ENERGY PREDICTED BY IDOCK:   -1.20 KCAL/MOL
REMARK 927      BINDING AFFINITY PREDICTED BY RF-SCORE:    0.00 PKD
ROOT
HETATM    1  C   UNL     1      -9.773   4.813  68.516  1.00  0.00    -0.215 C  
HETATM    2  C   UNL     1      -9.833   5.581  69.838  1.00  0.00    -0.194 C  
HETATM    3  C   UNL     1     -11.283   5.721  70.323  1.00  0.00    -0.221 C  
ENDROOT
BRANCH   2   4
HETATM    4  O   UNL     1      -8.866   5.086  70.821  1.00  0.00    -0.125 OA 
BRANCH   4   5
HETATM    5  C   UNL     1      -7.631   5.642  70.883  1.00  0.00    -0.091 C  
HETATM    6  O   UNL     1      -6.614   5.060  70.499  1.00  0.00    -0.033 OA 
BRANCH   5   7
HETATM    7  C   UNL     1      -7.535   7.071  71.488  1.00  0.00    -0.084 C  
HETATM    8  C   UNL     1      -7.649   6.983  73.009  1.00  0.00    -0.088 C  
BRANCH   7   9
HETATM    9  N   UNL     1      -8.411   8.175  70.934  1.00  0.00    -0.124 NA 
HETATM   10  H   UNL     1      -8.797   8.752  71.682  1.00  0.00     0.000 HD 
BRANCH   9  11
HETATM   11  P   UNL     1      -7.564   9.157  69.743  1.00  0.00    -0.101 P  
HETATM   12  O   UNL     1      -6.914  10.075  70.807  1.00  0.00    -0.305 OA 
BRANCH  11  13
HETATM   13  C   UNL     1      -8.602  10.646  69.140  1.00  0.00    -0.128 C  
BRANCH  13  14
HETATM   14  O   UNL     1      -9.982  10.642  69.668  1.00  0.00    -0.177 OA 
BRANCH  14  15
HETATM   15  C   UNL     1     -10.982  11.564  69.154  1.00  0.00    -0.224 C  
HETATM   16  C   UNL     1     -12.274  11.439  69.970  1.00  0.00    -0.377 C  
BRANCH  15  17
HETATM   17  C   UNL     1     -11.183  11.514  67.645  1.00  0.00    -0.281 C  
BRANCH  17  18
HETATM   18  N   UNL     1     -11.464  12.777  67.020  1.00  0.00    -0.321 NA 
HETATM   19  C   UNL     1     -11.439  14.021  67.592  1.00  0.00    -0.334 A  
HETATM   20  N   UNL     1     -11.666  14.967  66.708  1.00  0.00    -0.293 NA 
HETATM   21  C   UNL     1     -11.865  14.290  65.525  1.00  0.00    -0.363 A  
HETATM   22  C   UNL     1     -12.131  14.739  64.228  1.00  0.00    -0.394 A  
HETATM   23  N   UNL     1     -12.355  13.824  63.257  1.00  0.00    -0.727 NA 
HETATM   24  N   UNL     1     -12.181  16.090  63.920  1.00  0.00    -1.180 NA 
HETATM   25  C   UNL     1     -12.261  12.521  63.582  1.00  0.00    -0.550 A  
HETATM   26  H1  UNL     1     -12.376  16.418  62.974  1.00  0.00     0.000 HD 
HETATM   27  H2  UNL     1     -11.303  16.512  64.223  1.00  0.00     0.000 HD 
HETATM   28  N   UNL     1     -11.974  11.967  64.782  1.00  0.00    -0.211 NA 
HETATM   29  C   UNL     1     -11.787  12.924  65.703  1.00  0.00    -0.417 A  
ENDBRANCH  17  18
ENDBRANCH  15  17
ENDBRANCH  14  15
ENDBRANCH  13  14
ENDBRANCH  11  13
BRANCH  11  30
HETATM   30  O   UNL     1      -8.289   8.130  68.554  1.00  0.00    -0.124 OA 
BRANCH  30  31
HETATM   31  C   UNL     1      -8.010   8.426  67.231  1.00  0.00    -0.105 A  
HETATM   32  C   UNL     1      -9.103   8.581  66.377  1.00  0.00    -0.229 A  
HETATM   33  C   UNL     1      -6.520   8.816  65.357  1.00  0.00    -0.067 A  
HETATM   34  C   UNL     1      -6.715   8.552  66.720  1.00  0.00    -0.061 A  
HETATM   35  C   UNL     1      -7.614   8.950  64.503  1.00  0.00    -0.109 A  
HETATM   36  C   UNL     1      -8.904   8.832  65.014  1.00  0.00    -0.151 A  
ENDBRANCH  30  31
ENDBRANCH  11  30
ENDBRANCH   9  11
ENDBRANCH   7   9
ENDBRANCH   5   7
ENDBRANCH   4   5
ENDBRANCH   2   4
TORSDOF 12
ENDMDL
MODEL      227
REMARK 921   NORMALIZED FREE ENERGY PREDICTED BY IDOCK:   -4.63 KCAL/MOL
REMARK 922        TOTAL FREE ENERGY PREDICTED BY IDOCK:   -9.60 KCAL/MOL
REMARK 923 INTER-LIGAND FREE ENERGY PREDICTED BY IDOCK:   -8.25 KCAL/MOL
REMARK 924 INTRA-LIGAND FREE ENERGY PREDICTED BY IDOCK:   -1.34 KCAL/MOL
REMARK 927      BINDING AFFINITY PREDICTED BY RF-SCORE:    0.00 PKD
ROOT
HETATM    1  C   UNL     1     -12.210  13.036  63.357  1.00  0.00    -0.552 C  
HETATM    2  C   UNL     1     -11.293  12.513  64.465  1.00  0.00    -0.330 C  
HETATM    3  C   UNL     1     -10.161  11.657  63.878  1.00  0.00    -0.395 C  
ENDROOT
BRANCH   2   4
HETATM    4  O   UNL     1     -10.892  13.564  65.404  1.00  0.00    -0.282 OA 
BRANCH   4   5
HETATM    5  C   UNL     1     -11.402  13.569  66.660  1.00  0.00    -0.322 C  
HETATM    6  O   UNL     1     -12.403  14.216  66.974  1.00  0.00    -0.396 OA 
BRANCH   5   7
HETATM    7  C   UNL     1     -10.650  12.721  67.726  1.00  0.00    -0.221 C  
HETATM    8  C   UNL     1     -11.670  12.034  68.633  1.00  0.00    -0.380 C  
BRANCH   7   9
HETATM    9  N   UNL     1      -9.536  13.356  68.532  1.00  0.00    -0.356 NA 
HETATM   10  H   UNL     1      -9.579  13.072  69.511  1.00  0.00     0.000 HD 
BRANCH   9  11
HETATM   11  P   UNL     1      -7.950  13.029  67.840  1.00  0.00    -0.188 P  
HETATM   12  O   UNL     1      -8.464  11.879  66.939  1.00  0.00    -0.168 OA 
BRANCH  11  13
HETATM   13  C   UNL     1      -6.954  11.746  68.850  1.00  0.00    -0.109 C  
BRANCH  13  14
HETATM   14  O   UNL     1      -7.566  10.401  68.844  1.00  0.00    -0.087 OA 
BRANCH  14  15
HETATM   15  C   UNL     1      -8.281   9.899  70.006  1.00  0.00    -0.168 C  
HETATM   16  C   UNL     1      -7.311   9.162  70.937  1.00  0.00    -0.129 C  
BRANCH  15  17
HETATM   17  C   UNL     1      -9.557   9.130  69.690  1.00  0.00    -0.176 C  
BRANCH  17  18
HETATM   18  N   UNL     1     -10.103   8.370  70.780  1.00  0.00    -0.190 NA 
HETATM   19  C   UNL     1     -10.836   8.831  71.840  1.00  0.00    -0.360 A  
HETATM   20  N   UNL     1     -11.250   7.847  72.609  1.00  0.00    -0.373 NA 
HETATM   21  C   UNL     1     -10.738   6.713  72.020  1.00  0.00    -0.219 A  
HETATM   22  C   UNL     1     -10.842   5.360  72.357  1.00  0.00    -0.241 A  
HETATM   23  N   UNL     1     -10.160   4.453  71.620  1.00  0.00    -0.182 NA 
HETATM   24  N   UNL     1     -11.614   4.933  73.426  1.00  0.00    -0.459 NA 
HETATM   25  C   UNL     1      -9.451   4.899  70.566  1.00  0.00    -0.166 A  
HETATM   26  H1  UNL     1     -11.690   3.945  73.672  1.00  0.00     0.000 HD 
HETATM   27  H2  UNL     1     -12.558   5.296  73.295  1.00  0.00     0.000 HD 
HETATM   28  N   UNL     1      -9.305   6.167  70.120  1.00  0.00    -0.154 NA 
HETATM   29  C   UNL     1      -9.984   7.016  70.905  1.00  0.00    -0.193 A  
ENDBRANCH  17  18
ENDBRANCH  15  17
ENDBRANCH  14  15
ENDBRANCH  13  14
ENDBRANCH  11  13
BRANCH  11  30
HETATM   30  O   UNL     1      -7.375  14.314  68.846  1.00  0.00    -0.120 OA 
BRANCH  30  31
HETATM   31  C   UNL     1      -7.407  15.585  68.300  1.00  0.00    -0.115 A  
HETATM   32  C   UNL     1      -7.598  15.673  66.920  1.00  0.00    -0.201 A  
HETATM   33  C   UNL     1      -7.246  18.003  68.407  1.00  0.00    -0.255 A  
HETATM   34  C   UNL     1      -7.239  16.756  69.046  1.00  0.00    -0.225 A  
HETATM   35  C   UNL     1      -7.416  18.085  67.026  1.00  0.00    -0.228 A  
HETATM   36  C   UNL     1      -7.591  16.920  66.284  1.00  0.00    -0.312 A  
ENDBRANCH  30  31
ENDBRANCH  11  30
ENDBRANCH   9  11
ENDBRANCH   7   9
ENDBRANCH   5   7
ENDBRANCH   4   5
ENDBRANCH   2   4
TORSDOF 12
ENDMDL
MODEL      228
REMARK 921   NORMALIZED FREE ENERGY PREDICTED BY IDOCK:   -4.63 KCAL/MOL
REMARK 922        TOTAL FREE ENERGY PREDICTED BY IDOCK:   -9.59 KCAL/MOL
REMARK 923 INTER-LIGAND FREE ENERGY PREDICTED BY IDOCK:   -8.26 KCAL/MOL
REMARK 924 INTRA-LIGAND FREE ENERGY PREDICTED BY IDOCK:   -1.32 KCAL/MOL
REMARK 927      BINDING AFFINITY PREDICTED BY RF-SCORE:    0.00 PKD
ROOT
HETATM    1  C   UNL     1     -12.194  14.962  64.580  1.00  0.00    -0.396 C  
HETATM    2  C   UNL     1     -11.268  13.965  65.281  1.00  0.00    -0.313 C  
HETATM    3  C   UNL     1     -12.021  13.199  66.378  1.00  0.00    -0.462 C  
ENDROOT
BRANCH   2   4
HETATM    4  O   UNL     1     -10.497  13.154  64.335  1.00  0.00    -0.393 OA 
BRANCH   4   5
HETATM    5  C   UNL     1     -10.843  11.860  64.127  1.00  0.00    -0.356 C  
HETATM    6  O   UNL     1     -11.893  11.528  63.573  1.00  0.00    -0.364 OA 
BRANCH   5   7
HETATM    7  C   UNL     1      -9.851  10.777  64.639  1.00  0.00    -0.307 C  
HETATM    8  C   UNL     1      -9.326   9.973  63.451  1.00  0.00    -0.300 C  
BRANCH   7   9
HETATM    9  N   UNL     1     -10.263   9.869  65.779  1.00  0.00    -0.235 NA 
HETATM   10  H   UNL     1     -10.299   8.894  65.481  1.00  0.00     0.000 HD 
BRANCH   9  11
HETATM   11  P   UNL     1      -9.228  10.069  67.190  1.00  0.00    -0.143 P  
HETATM   12  O   UNL     1      -9.637   8.711  67.813  1.00  0.00    -0.143 OA 
BRANCH  11  13
HETATM   13  C   UNL     1     -10.113  10.959  68.634  1.00  0.00    -0.191 C  
BRANCH  13  14
HETATM   14  O   UNL     1     -11.072  10.092  69.349  1.00  0.00    -0.232 OA 
BRANCH  14  15
HETATM   15  C   UNL     1     -12.079  10.659  70.231  1.00  0.00    -0.338 C  
HETATM   16  C   UNL     1     -12.023  12.191  70.170  1.00  0.00    -0.394 C  
BRANCH  15  17
HETATM   17  C   UNL     1     -12.090  10.086  71.641  1.00  0.00    -0.334 C  
BRANCH  17  18
HETATM   18  N   UNL     1     -11.843   8.673  71.733  1.00  0.00    -0.313 NA 
HETATM   19  C   UNL     1     -12.721   7.651  71.492  1.00  0.00    -0.345 A  
HETATM   20  N   UNL     1     -12.137   6.476  71.588  1.00  0.00    -0.346 NA 
HETATM   21  C   UNL     1     -10.834   6.768  71.927  1.00  0.00    -0.232 A  
HETATM   22  C   UNL     1      -9.725   5.949  72.153  1.00  0.00    -0.155 A  
HETATM   23  N   UNL     1      -8.564   6.521  72.548  1.00  0.00    -0.122 NA 
HETATM   24  N   UNL     1      -9.790   4.573  71.994  1.00  0.00    -0.170 NA 
HETATM   25  C   UNL     1      -8.525   7.862  72.657  1.00  0.00    -0.150 A  
HETATM   26  H1  UNL     1      -8.980   3.974  72.160  1.00  0.00     0.000 HD 
HETATM   27  H2  UNL     1     -10.131   4.383  71.051  1.00  0.00     0.000 HD 
HETATM   28  N   UNL     1      -9.512   8.758  72.429  1.00  0.00    -0.321 NA 
HETATM   29  C   UNL     1     -10.638   8.127  72.065  1.00  0.00    -0.269 A  
ENDBRANCH  17  18
ENDBRANCH  15  17
ENDBRANCH  14  15
ENDBRANCH  13  14
ENDBRANCH  11  13
BRANCH  11  30
HETATM   30  O   UNL     1      -8.771  11.586  66.493  1.00  0.00    -0.177 OA 
BRANCH  30  31
HETATM   31  C   UNL     1      -7.678  12.219  67.059  1.00  0.00    -0.089 A  
HETATM   32  C   UNL     1      -7.899  13.480  67.614  1.00  0.00    -0.178 A  
HETATM   33  C   UNL     1      -5.330  12.401  67.639  1.00  0.00    -0.103 A  
HETATM   34  C   UNL     1      -6.390  11.675  67.079  1.00  0.00    -0.149 A  
HETATM   35  C   UNL     1      -5.551  13.669  68.174  1.00  0.00    -0.115 A  
HETATM   36  C   UNL     1      -6.835  14.207  68.160  1.00  0.00    -0.129 A  
ENDBRANCH  30  31
ENDBRANCH  11  30
ENDBRANCH   9  11
ENDBRANCH   7   9
ENDBRANCH   5   7
ENDBRANCH   4   5
ENDBRANCH   2   4
TORSDOF 12
ENDMDL
MODEL      229
REMARK 921   NORMALIZED FREE ENERGY PREDICTED BY IDOCK:   -4.61 KCAL/MOL
REMARK 922        TOTAL FREE ENERGY PREDICTED BY IDOCK:   -9.56 KCAL/MOL
REMARK 923 INTER-LIGAND FREE ENERGY PREDICTED BY IDOCK:   -8.10 KCAL/MOL
REMARK 924 INTRA-LIGAND FREE ENERGY PREDICTED BY IDOCK:   -1.46 KCAL/MOL
REMARK 927      BINDING AFFINITY PREDICTED BY RF-SCORE:    0.00 PKD
ROOT
HETATM    1  C   UNL     1      -5.151  14.326  71.128  1.00  0.00    -0.130 C  
HETATM    2  C   UNL     1      -6.324  14.177  70.157  1.00  0.00    -0.125 C  
HETATM    3  C   UNL     1      -6.686  15.530  69.527  1.00  0.00    -0.179 C  
ENDROOT
BRANCH   2   4
HETATM    4  O   UNL     1      -6.147  13.056  69.230  1.00  0.00    -0.086 OA 
BRANCH   4   5
HETATM    5  C   UNL     1      -6.856  11.916  69.416  1.00  0.00    -0.048 C  
HETATM    6  O   UNL     1      -6.678  11.166  70.378  1.00  0.00    -0.233 OA 
BRANCH   5   7
HETATM    7  C   UNL     1      -7.918  11.565  68.335  1.00  0.00    -0.143 C  
HETATM    8  C   UNL     1      -8.567  12.854  67.832  1.00  0.00    -0.185 C  
BRANCH   7   9
HETATM    9  N   UNL     1      -8.958  10.505  68.629  1.00  0.00    -0.153 NA 
HETATM   10  H   UNL     1      -9.890  10.911  68.708  1.00  0.00     0.000 HD 
BRANCH   9  11
HETATM   11  P   UNL     1      -8.927   9.203  67.443  1.00  0.00    -0.116 P  
HETATM   12  O   UNL     1      -7.696   9.771  66.696  1.00  0.00    -0.101 OA 
BRANCH  11  13
HETATM   13  C   UNL     1      -9.995   9.583  65.903  1.00  0.00    -0.272 C  
BRANCH  13  14
HETATM   14  O   UNL     1      -9.441  10.667  65.066  1.00  0.00    -0.206 OA 
BRANCH  14  15
HETATM   15  C   UNL     1     -10.127  11.109  63.863  1.00  0.00    -0.348 C  
HETATM   16  C   UNL     1      -9.371  10.617  62.622  1.00  0.00    -0.332 C  
BRANCH  15  17
HETATM   17  C   UNL     1     -10.484  12.588  63.836  1.00  0.00    -0.434 C  
BRANCH  17  18
HETATM   18  N   UNL     1     -11.144  13.083  65.013  1.00  0.00    -0.287 NA 
HETATM   19  C   UNL     1     -12.149  12.485  65.726  1.00  0.00    -0.378 A  
HETATM   20  N   UNL     1     -12.460  13.177  66.800  1.00  0.00    -0.269 NA 
HETATM   21  C   UNL     1     -11.630  14.275  66.754  1.00  0.00    -0.391 A  
HETATM   22  C   UNL     1     -11.475  15.362  67.618  1.00  0.00    -0.251 A  
HETATM   23  N   UNL     1     -10.613  16.347  67.274  1.00  0.00    -0.313 NA 
HETATM   24  N   UNL     1     -12.186  15.457  68.805  1.00  0.00    -0.593 NA 
HETATM   25  C   UNL     1      -9.912  16.204  66.134  1.00  0.00    -0.335 A  
HETATM   26  H1  UNL     1     -12.073  16.251  69.435  1.00  0.00     0.000 HD 
HETATM   27  H2  UNL     1     -12.016  14.606  69.340  1.00  0.00     0.000 HD 
HETATM   28  N   UNL     1      -9.945  15.189  65.242  1.00  0.00    -0.325 NA 
HETATM   29  C   UNL     1     -10.832  14.260  65.628  1.00  0.00    -0.309 A  
ENDBRANCH  17  18
ENDBRANCH  15  17
ENDBRANCH  14  15
ENDBRANCH  13  14
ENDBRANCH  11  13
BRANCH  11  30
HETATM   30  O   UNL     1     -10.303   8.567  68.279  1.00  0.00    -0.204 OA 
BRANCH  30  31
HETATM   31  C   UNL     1     -10.048   7.620  69.254  1.00  0.00    -0.190 A  
HETATM   32  C   UNL     1     -11.151   6.946  69.781  1.00  0.00    -0.316 A  
HETATM   33  C   UNL     1      -8.603   6.380  70.758  1.00  0.00    -0.135 A  
HETATM   34  C   UNL     1      -8.769   7.329  69.739  1.00  0.00    -0.142 A  
HETATM   35  C   UNL     1      -9.709   5.725  71.296  1.00  0.00    -0.210 A  
HETATM   36  C   UNL     1     -10.981   6.009  70.807  1.00  0.00    -0.364 A  
ENDBRANCH  30  31
ENDBRANCH  11  30
ENDBRANCH   9  11
ENDBRANCH   7   9
ENDBRANCH   5   7
ENDBRANCH   4   5
ENDBRANCH   2   4
TORSDOF 12
ENDMDL
MODEL      230
REMARK 921   NORMALIZED FREE ENERGY PREDICTED BY IDOCK:   -4.61 KCAL/MOL
REMARK 922        TOTAL FREE ENERGY PREDICTED BY IDOCK:   -9.56 KCAL/MOL
REMARK 923 INTER-LIGAND FREE ENERGY PREDICTED BY IDOCK:   -8.05 KCAL/MOL
REMARK 924 INTRA-LIGAND FREE ENERGY PREDICTED BY IDOCK:   -1.51 KCAL/MOL
REMARK 927      BINDING AFFINITY PREDICTED BY RF-SCORE:    0.00 PKD
ROOT
HETATM    1  C   UNL     1     -10.987  10.827  70.225  1.00  0.00    -0.160 C  
HETATM    2  C   UNL     1     -10.345   9.442  70.335  1.00  0.00    -0.262 C  
HETATM    3  C   UNL     1     -10.461   8.679  69.007  1.00  0.00    -0.216 C  
ENDROOT
BRANCH   2   4
HETATM    4  O   UNL     1      -9.012   9.487  70.942  1.00  0.00    -0.218 OA 
BRANCH   4   5
HETATM    5  C   UNL     1      -7.936   9.075  70.227  1.00  0.00    -0.121 C  
HETATM    6  O   UNL     1      -7.770   7.903  69.882  1.00  0.00    -0.093 OA 
BRANCH   5   7
HETATM    7  C   UNL     1      -6.880  10.156  69.862  1.00  0.00    -0.124 C  
HETATM    8  C   UNL     1      -5.600   9.897  70.654  1.00  0.00    -0.062 C  
BRANCH   7   9
HETATM    9  N   UNL     1      -7.267  11.620  69.905  1.00  0.00    -0.321 NA 
HETATM   10  H   UNL     1      -6.710  12.130  70.590  1.00  0.00     0.000 HD 
BRANCH   9  11
HETATM   11  P   UNL     1      -7.176  12.374  68.316  1.00  0.00    -0.122 P  
HETATM   12  O   UNL     1      -5.821  13.065  68.606  1.00  0.00    -0.065 OA 
BRANCH  11  13
HETATM   13  C   UNL     1      -8.006  14.097  68.268  1.00  0.00    -0.140 C  
BRANCH  13  14
HETATM   14  O   UNL     1      -9.472  14.039  68.441  1.00  0.00    -0.209 OA 
BRANCH  14  15
HETATM   15  C   UNL     1     -10.282  15.245  68.370  1.00  0.00    -0.223 C  
HETATM   16  C   UNL     1     -11.710  14.941  68.839  1.00  0.00    -0.343 C  
BRANCH  15  17
HETATM   17  C   UNL     1     -10.198  15.995  67.049  1.00  0.00    -0.282 C  
BRANCH  17  18
HETATM   18  N   UNL     1      -9.814  17.376  67.148  1.00  0.00    -0.269 NA 
HETATM   19  C   UNL     1     -10.511  18.402  67.728  1.00  0.00    -0.409 A  
HETATM   20  N   UNL     1      -9.824  19.523  67.717  1.00  0.00    -0.344 NA 
HETATM   21  C   UNL     1      -8.646  19.198  67.082  1.00  0.00    -0.285 A  
HETATM   22  C   UNL     1      -7.511  19.955  66.780  1.00  0.00    -0.254 A  
HETATM   23  N   UNL     1      -6.514  19.377  66.071  1.00  0.00    -0.198 NA 
HETATM   24  N   UNL     1      -7.389  21.277  67.178  1.00  0.00    -0.785 NA 
HETATM   25  C   UNL     1      -6.648  18.080  65.733  1.00  0.00    -0.263 A  
HETATM   26  H1  UNL     1      -6.561  21.830  66.958  1.00  0.00     0.000 HD 
HETATM   27  H2  UNL     1      -7.530  21.314  68.188  1.00  0.00     0.000 HD 
HETATM   28  N   UNL     1      -7.672  17.239  65.998  1.00  0.00    -0.479 NA 
HETATM   29  C   UNL     1      -8.634  17.878  66.680  1.00  0.00    -0.262 A  
ENDBRANCH  17  18
ENDBRANCH  15  17
ENDBRANCH  14  15
ENDBRANCH  13  14
ENDBRANCH  11  13
BRANCH  11  30
HETATM   30  O   UNL     1      -8.689  11.601  67.991  1.00  0.00    -0.144 OA 
BRANCH  30  31
HETATM   31  C   UNL     1      -8.849  11.067  66.725  1.00  0.00    -0.156 A  
HETATM   32  C   UNL     1      -7.695  10.621  66.080  1.00  0.00    -0.151 A  
HETATM   33  C   UNL     1     -10.149  10.457  64.769  1.00  0.00    -0.387 A  
HETATM   34  C   UNL     1     -10.081  10.977  66.069  1.00  0.00    -0.297 A  
HETATM   35  C   UNL     1      -8.990  10.032  64.121  1.00  0.00    -0.268 A  
HETATM   36  C   UNL     1      -7.765  10.115  64.777  1.00  0.00    -0.141 A  
ENDBRANCH  30  31
ENDBRANCH  11  30
ENDBRANCH   9  11
ENDBRANCH   7   9
ENDBRANCH   5   7
ENDBRANCH   4   5
ENDBRANCH   2   4
TORSDOF 12
ENDMDL
MODEL      231
REMARK 921   NORMALIZED FREE ENERGY PREDICTED BY IDOCK:   -4.59 KCAL/MOL
REMARK 922        TOTAL FREE ENERGY PREDICTED BY IDOCK:   -9.52 KCAL/MOL
REMARK 923 INTER-LIGAND FREE ENERGY PREDICTED BY IDOCK:   -9.57 KCAL/MOL
REMARK 924 INTRA-LIGAND FREE ENERGY PREDICTED BY IDOCK:    0.04 KCAL/MOL
REMARK 927      BINDING AFFINITY PREDICTED BY RF-SCORE:    0.00 PKD
ROOT
HETATM    1  C   UNL     1     -12.695  14.850  73.512  1.00  0.00    -0.629 C  
HETATM    2  C   UNL     1     -13.020  14.345  72.105  1.00  0.00    -0.355 C  
HETATM    3  C   UNL     1     -14.267  15.045  71.547  1.00  0.00    -0.633 C  
ENDROOT
BRANCH   2   4
HETATM    4  O   UNL     1     -11.844  14.321  71.231  1.00  0.00    -0.307 OA 
BRANCH   4   5
HETATM    5  C   UNL     1     -11.397  15.476  70.679  1.00  0.00    -0.343 C  
HETATM    6  O   UNL     1     -11.647  16.586  71.153  1.00  0.00    -0.330 OA 
BRANCH   5   7
HETATM    7  C   UNL     1     -10.551  15.351  69.379  1.00  0.00    -0.251 C  
HETATM    8  C   UNL     1      -9.068  15.437  69.735  1.00  0.00    -0.069 C  
BRANCH   7   9
HETATM    9  N   UNL     1     -10.883  16.224  68.187  1.00  0.00    -0.330 NA 
HETATM   10  H   UNL     1     -10.351  17.094  68.206  1.00  0.00     0.000 HD 
BRANCH   9  11
HETATM   11  P   UNL     1     -10.661  15.371  66.662  1.00  0.00    -0.302 P  
HETATM   12  O   UNL     1     -11.910  14.478  66.858  1.00  0.00    -0.392 OA 
BRANCH  11  13
HETATM   13  C   UNL     1      -9.563  13.815  66.840  1.00  0.00    -0.262 C  
BRANCH  13  14
HETATM   14  O   UNL     1     -10.207  12.735  67.616  1.00  0.00    -0.213 OA 
BRANCH  14  15
HETATM   15  C   UNL     1      -9.832  11.345  67.418  1.00  0.00    -0.182 C  
HETATM   16  C   UNL     1     -11.087  10.493  67.193  1.00  0.00    -0.232 C  
BRANCH  15  17
HETATM   17  C   UNL     1      -8.871  10.787  68.458  1.00  0.00    -0.149 C  
BRANCH  17  18
HETATM   18  N   UNL     1      -9.395   9.728  69.275  1.00  0.00    -0.179 NA 
HETATM   19  C   UNL     1     -10.184   9.840  70.389  1.00  0.00    -0.281 A  
HETATM   20  N   UNL     1     -10.554   8.662  70.842  1.00  0.00    -0.205 NA 
HETATM   21  C   UNL     1      -9.955   7.762  69.989  1.00  0.00    -0.187 A  
HETATM   22  C   UNL     1      -9.981   6.366  69.939  1.00  0.00    -0.168 A  
HETATM   23  N   UNL     1      -9.224   5.734  69.013  1.00  0.00    -0.118 NA 
HETATM   24  N   UNL     1     -10.752   5.620  70.818  1.00  0.00    -0.264 NA 
HETATM   25  C   UNL     1      -8.517   6.490  68.151  1.00  0.00    -0.116 A  
HETATM   26  H1  UNL     1     -10.771   4.600  70.782  1.00  0.00     0.000 HD 
HETATM   27  H2  UNL     1     -11.713   5.953  70.750  1.00  0.00     0.000 HD 
HETATM   28  N   UNL     1      -8.441   7.838  68.074  1.00  0.00    -0.123 NA 
HETATM   29  C   UNL     1      -9.194   8.401  69.031  1.00  0.00    -0.147 A  
ENDBRANCH  17  18
ENDBRANCH  15  17
ENDBRANCH  14  15
ENDBRANCH  13  14
ENDBRANCH  11  13
BRANCH  11  30
HETATM   30  O   UNL     1      -9.265  16.370  66.443  1.00  0.00    -0.257 OA 
BRANCH  30  31
HETATM   31  C   UNL     1      -9.442  17.728  66.641  1.00  0.00    -0.292 A  
HETATM   32  C   UNL     1      -8.549  18.359  67.508  1.00  0.00    -0.264 A  
HETATM   33  C   UNL     1     -10.594  19.840  66.328  1.00  0.00    -0.572 A  
HETATM   34  C   UNL     1     -10.462  18.474  66.043  1.00  0.00    -0.433 A  
HETATM   35  C   UNL     1      -9.713  20.462  67.211  1.00  0.00    -0.602 A  
HETATM   36  C   UNL     1      -8.692  19.721  67.800  1.00  0.00    -0.380 A  
ENDBRANCH  30  31
ENDBRANCH  11  30
ENDBRANCH   9  11
ENDBRANCH   7   9
ENDBRANCH   5   7
ENDBRANCH   4   5
ENDBRANCH   2   4
TORSDOF 12
ENDMDL
MODEL      232
REMARK 921   NORMALIZED FREE ENERGY PREDICTED BY IDOCK:   -4.59 KCAL/MOL
REMARK 922        TOTAL FREE ENERGY PREDICTED BY IDOCK:   -9.52 KCAL/MOL
REMARK 923 INTER-LIGAND FREE ENERGY PREDICTED BY IDOCK:   -8.27 KCAL/MOL
REMARK 924 INTRA-LIGAND FREE ENERGY PREDICTED BY IDOCK:   -1.24 KCAL/MOL
REMARK 927      BINDING AFFINITY PREDICTED BY RF-SCORE:    0.00 PKD
ROOT
HETATM    1  C   UNL     1     -12.287  14.367  64.782  1.00  0.00    -0.427 C  
HETATM    2  C   UNL     1     -12.592  12.867  64.771  1.00  0.00    -0.425 C  
HETATM    3  C   UNL     1     -12.192  12.238  63.429  1.00  0.00    -0.630 C  
ENDROOT
BRANCH   2   4
HETATM    4  O   UNL     1     -12.108  12.187  65.976  1.00  0.00    -0.612 OA 
BRANCH   4   5
HETATM    5  C   UNL     1     -10.878  12.481  66.462  1.00  0.00    -0.256 C  
HETATM    6  O   UNL     1      -9.882  12.593  65.744  1.00  0.00    -0.264 OA 
BRANCH   5   7
HETATM    7  C   UNL     1     -10.756  12.661  68.002  1.00  0.00    -0.226 C  
HETATM    8  C   UNL     1     -11.114  14.100  68.371  1.00  0.00    -0.273 C  
BRANCH   7   9
HETATM    9  N   UNL     1      -9.495  12.209  68.708  1.00  0.00    -0.405 NA 
HETATM   10  H   UNL     1      -9.279  12.812  69.502  1.00  0.00     0.000 HD 
BRANCH   9  11
HETATM   11  P   UNL     1      -9.578  10.518  69.193  1.00  0.00    -0.129 P  
HETATM   12  O   UNL     1      -8.068  10.267  68.959  1.00  0.00    -0.112 OA 
BRANCH  11  13
HETATM   13  C   UNL     1      -9.965   9.349  67.730  1.00  0.00    -0.184 C  
BRANCH  13  14
HETATM   14  O   UNL     1      -8.813   8.512  67.335  1.00  0.00    -0.132 OA 
BRANCH  14  15
HETATM   15  C   UNL     1      -8.299   8.541  65.976  1.00  0.00    -0.130 C  
HETATM   16  C   UNL     1      -9.208   9.405  65.092  1.00  0.00    -0.287 C  
BRANCH  15  17
HETATM   17  C   UNL     1      -7.965   7.176  65.389  1.00  0.00    -0.125 C  
BRANCH  17  18
HETATM   18  N   UNL     1      -8.673   6.068  65.968  1.00  0.00    -0.149 NA 
HETATM   19  C   UNL     1     -10.007   5.779  65.867  1.00  0.00     0.147 A  
HETATM   20  N   UNL     1     -10.304   4.639  66.450  1.00  0.00    -0.262 NA 
HETATM   21  C   UNL     1      -9.106   4.194  66.963  1.00  0.00    -0.143 A  
HETATM   22  C   UNL     1      -8.768   3.040  67.674  1.00  0.00    -0.117 A  
HETATM   23  N   UNL     1      -7.498   2.899  68.121  1.00  0.00    -0.052 NA 
HETATM   24  N   UNL     1      -9.700   2.048  67.939  1.00  0.00    -0.365 NA 
HETATM   25  C   UNL     1      -6.610   3.863  67.813  1.00  0.00    -0.042 A  
HETATM   26  H1  UNL     1      -9.453   1.205  68.459  1.00  0.00     0.000 HD 
HETATM   27  H2  UNL     1     -10.110   1.759  67.051  1.00  0.00     0.000 HD 
HETATM   28  N   UNL     1      -6.804   4.998  67.105  1.00  0.00    -0.055 NA 
HETATM   29  C   UNL     1      -8.084   5.088  66.713  1.00  0.00    -0.108 A  
ENDBRANCH  17  18
ENDBRANCH  15  17
ENDBRANCH  14  15
ENDBRANCH  13  14
ENDBRANCH  11  13
BRANCH  11  30
HETATM   30  O   UNL     1     -11.266  10.799  69.456  1.00  0.00    -0.239 OA 
BRANCH  30  31
HETATM   31  C   UNL     1     -11.844  10.126  70.518  1.00  0.00    -0.321 A  
HETATM   32  C   UNL     1     -11.199   8.969  70.956  1.00  0.00    -0.361 A  
HETATM   33  C   UNL     1     -13.567   9.768  72.187  1.00  0.00    -0.432 A  
HETATM   34  C   UNL     1     -13.028  10.530  71.142  1.00  0.00    -0.506 A  
HETATM   35  C   UNL     1     -12.930   8.601  72.608  1.00  0.00    -0.261 A  
HETATM   36  C   UNL     1     -11.747   8.203  71.991  1.00  0.00    -0.389 A  
ENDBRANCH  30  31
ENDBRANCH  11  30
ENDBRANCH   9  11
ENDBRANCH   7   9
ENDBRANCH   5   7
ENDBRANCH   4   5
ENDBRANCH   2   4
TORSDOF 12
ENDMDL
MODEL      233
REMARK 921   NORMALIZED FREE ENERGY PREDICTED BY IDOCK:   -4.58 KCAL/MOL
REMARK 922        TOTAL FREE ENERGY PREDICTED BY IDOCK:   -9.52 KCAL/MOL
REMARK 923 INTER-LIGAND FREE ENERGY PREDICTED BY IDOCK:   -7.98 KCAL/MOL
REMARK 924 INTRA-LIGAND FREE ENERGY PREDICTED BY IDOCK:   -1.53 KCAL/MOL
REMARK 927      BINDING AFFINITY PREDICTED BY RF-SCORE:    0.00 PKD
ROOT
HETATM    1  C   UNL     1      -6.781   9.310  68.648  1.00  0.00    -0.054 C  
HETATM    2  C   UNL     1      -6.412  10.685  68.087  1.00  0.00    -0.062 C  
HETATM    3  C   UNL     1      -6.055  10.590  66.597  1.00  0.00    -0.073 C  
ENDROOT
BRANCH   2   4
HETATM    4  O   UNL     1      -7.380  11.721  68.457  1.00  0.00    -0.090 OA 
BRANCH   4   5
HETATM    5  C   UNL     1      -6.946  12.867  69.037  1.00  0.00    -0.058 C  
HETATM    6  O   UNL     1      -6.161  12.882  69.987  1.00  0.00    -0.127 OA 
BRANCH   5   7
HETATM    7  C   UNL     1      -7.501  14.200  68.457  1.00  0.00    -0.123 C  
HETATM    8  C   UNL     1      -6.446  14.832  67.550  1.00  0.00    -0.090 C  
BRANCH   7   9
HETATM    9  N   UNL     1      -8.106  15.224  69.394  1.00  0.00    -0.231 NA 
HETATM   10  H   UNL     1      -7.619  16.118  69.330  1.00  0.00     0.000 HD 
BRANCH   9  11
HETATM   11  P   UNL     1      -9.837  15.420  69.130  1.00  0.00    -0.271 P  
HETATM   12  O   UNL     1     -10.221  14.807  70.499  1.00  0.00     0.230 OA 
BRANCH  11  13
HETATM   13  C   UNL     1     -10.627  13.906  68.269  1.00  0.00    -0.257 C  
BRANCH  13  14
HETATM   14  O   UNL     1     -10.441  12.648  69.020  1.00  0.00    -0.135 OA 
BRANCH  14  15
HETATM   15  C   UNL     1     -11.568  11.779  69.317  1.00  0.00    -0.315 C  
HETATM   16  C   UNL     1     -11.170  10.756  70.388  1.00  0.00    -0.270 C  
BRANCH  15  17
HETATM   17  C   UNL     1     -12.253  11.180  68.097  1.00  0.00     0.400 C  
BRANCH  17  18
HETATM   18  N   UNL     1     -11.421  11.031  66.935  1.00  0.00    -0.353 NA 
HETATM   19  C   UNL     1     -10.365  10.177  66.763  1.00  0.00    -0.222 A  
HETATM   20  N   UNL     1      -9.880  10.244  65.542  1.00  0.00    -0.262 NA 
HETATM   21  C   UNL     1     -10.651  11.200  64.919  1.00  0.00    -0.289 A  
HETATM   22  C   UNL     1     -10.635  11.705  63.616  1.00  0.00    -0.433 A  
HETATM   23  N   UNL     1     -11.481  12.712  63.299  1.00  0.00    -0.430 NA 
HETATM   24  N   UNL     1      -9.772  11.207  62.652  1.00  0.00    -0.598 NA 
HETATM   25  C   UNL     1     -12.331  13.146  64.248  1.00  0.00    -0.351 A  
HETATM   26  H1  UNL     1      -9.760  11.575  61.700  1.00  0.00     0.000 HD 
HETATM   27  H2  UNL     1      -9.915  10.198  62.595  1.00  0.00     0.000 HD 
HETATM   28  N   UNL     1     -12.468  12.715  65.522  1.00  0.00    -0.648 NA 
HETATM   29  C   UNL     1     -11.588  11.735  65.778  1.00  0.00    -0.125 A  
ENDBRANCH  17  18
ENDBRANCH  15  17
ENDBRANCH  14  15
ENDBRANCH  13  14
ENDBRANCH  11  13
BRANCH  11  30
HETATM   30  O   UNL     1      -9.406  16.105  67.600  1.00  0.00    -0.212 OA 
BRANCH  30  31
HETATM   31  C   UNL     1      -9.698  17.446  67.422  1.00  0.00    -0.269 A  
HETATM   32  C   UNL     1     -10.218  17.817  66.181  1.00  0.00    -0.339 A  
HETATM   33  C   UNL     1      -9.768  19.768  68.119  1.00  0.00    -0.506 A  
HETATM   34  C   UNL     1      -9.480  18.424  68.396  1.00  0.00    -0.352 A  
HETATM   35  C   UNL     1     -10.268  20.137  66.871  1.00  0.00    -0.566 A  
HETATM   36  C   UNL     1     -10.492  19.161  65.904  1.00  0.00    -0.500 A  
ENDBRANCH  30  31
ENDBRANCH  11  30
ENDBRANCH   9  11
ENDBRANCH   7   9
ENDBRANCH   5   7
ENDBRANCH   4   5
ENDBRANCH   2   4
TORSDOF 12
ENDMDL
MODEL      234
REMARK 921   NORMALIZED FREE ENERGY PREDICTED BY IDOCK:   -4.58 KCAL/MOL
REMARK 922        TOTAL FREE ENERGY PREDICTED BY IDOCK:   -9.51 KCAL/MOL
REMARK 923 INTER-LIGAND FREE ENERGY PREDICTED BY IDOCK:   -8.20 KCAL/MOL
REMARK 924 INTRA-LIGAND FREE ENERGY PREDICTED BY IDOCK:   -1.31 KCAL/MOL
REMARK 927      BINDING AFFINITY PREDICTED BY RF-SCORE:    0.00 PKD
ROOT
HETATM    1  C   UNL     1      -7.613   6.022  73.580  1.00  0.00    -0.096 C  
HETATM    2  C   UNL     1      -8.911   6.594  73.006  1.00  0.00    -0.127 C  
HETATM    3  C   UNL     1      -9.375   7.814  73.813  1.00  0.00    -0.286 C  
ENDROOT
BRANCH   2   4
HETATM    4  O   UNL     1      -8.856   6.760  71.551  1.00  0.00    -0.137 OA 
BRANCH   4   5
HETATM    5  C   UNL     1      -9.940   6.446  70.800  1.00  0.00    -0.185 C  
HETATM    6  O   UNL     1     -10.171   5.302  70.404  1.00  0.00    -0.231 OA 
BRANCH   5   7
HETATM    7  C   UNL     1     -10.899   7.613  70.429  1.00  0.00    -0.244 C  
HETATM    8  C   UNL     1     -12.247   7.393  71.115  1.00  0.00    -0.357 C  
BRANCH   7   9
HETATM    9  N   UNL     1     -11.078   7.997  68.975  1.00  0.00    -0.412 NA 
HETATM   10  H   UNL     1     -12.065   8.046  68.724  1.00  0.00     0.000 HD 
BRANCH   9  11
HETATM   11  P   UNL     1     -10.242   9.496  68.581  1.00  0.00    -0.207 P  
HETATM   12  O   UNL     1     -10.324  10.045  70.026  1.00  0.00    -0.253 OA 
BRANCH  11  13
HETATM   13  C   UNL     1     -11.437  10.882  68.022  1.00  0.00    -0.281 C  
BRANCH  13  14
HETATM   14  O   UNL     1     -11.950  11.693  69.145  1.00  0.00    -0.323 OA 
BRANCH  14  15
HETATM   15  C   UNL     1     -11.746  13.131  69.184  1.00  0.00    -0.325 C  
HETATM   16  C   UNL     1     -12.366  13.711  70.462  1.00  0.00    -0.425 C  
BRANCH  15  17
HETATM   17  C   UNL     1     -12.128  13.867  67.908  1.00  0.00    -0.283 C  
BRANCH  17  18
HETATM   18  N   UNL     1     -11.041  14.500  67.213  1.00  0.00    -0.302 NA 
HETATM   19  C   UNL     1     -10.479  14.130  66.021  1.00  0.00    -0.304 A  
HETATM   20  N   UNL     1      -9.558  14.984  65.633  1.00  0.00    -0.306 NA 
HETATM   21  C   UNL     1      -9.519  15.927  66.635  1.00  0.00    -0.241 A  
HETATM   22  C   UNL     1      -8.758  17.088  66.794  1.00  0.00    -0.245 A  
HETATM   23  N   UNL     1      -8.885  17.798  67.940  1.00  0.00    -0.247 NA 
HETATM   24  N   UNL     1      -7.875  17.520  65.816  1.00  0.00    -0.518 NA 
HETATM   25  C   UNL     1      -9.779  17.371  68.851  1.00  0.00    -0.251 A  
HETATM   26  H1  UNL     1      -7.319  18.367  65.932  1.00  0.00     0.000 HD 
HETATM   27  H2  UNL     1      -8.393  17.603  64.942  1.00  0.00     0.000 HD 
HETATM   28  N   UNL     1     -10.595  16.294  68.797  1.00  0.00    -0.278 NA 
HETATM   29  C   UNL     1     -10.403  15.624  67.651  1.00  0.00    -0.275 A  
ENDBRANCH  17  18
ENDBRANCH  15  17
ENDBRANCH  14  15
ENDBRANCH  13  14
ENDBRANCH  11  13
BRANCH  11  30
HETATM   30  O   UNL     1     -10.149   8.882  66.966  1.00  0.00    -0.213 OA 
BRANCH  30  31
HETATM   31  C   UNL     1      -8.991   9.167  66.264  1.00  0.00    -0.158 A  
HETATM   32  C   UNL     1      -9.141   9.538  64.927  1.00  0.00    -0.276 A  
HETATM   33  C   UNL     1      -6.585   9.351  66.020  1.00  0.00    -0.073 A  
HETATM   34  C   UNL     1      -7.709   9.082  66.813  1.00  0.00    -0.093 A  
HETATM   35  C   UNL     1      -6.738   9.701  64.679  1.00  0.00    -0.101 A  
HETATM   36  C   UNL     1      -8.016   9.793  64.134  1.00  0.00    -0.143 A  
ENDBRANCH  30  31
ENDBRANCH  11  30
ENDBRANCH   9  11
ENDBRANCH   7   9
ENDBRANCH   5   7
ENDBRANCH   4   5
ENDBRANCH   2   4
TORSDOF 12
ENDMDL
MODEL      235
REMARK 921   NORMALIZED FREE ENERGY PREDICTED BY IDOCK:   -4.56 KCAL/MOL
REMARK 922        TOTAL FREE ENERGY PREDICTED BY IDOCK:   -9.48 KCAL/MOL
REMARK 923 INTER-LIGAND FREE ENERGY PREDICTED BY IDOCK:   -7.76 KCAL/MOL
REMARK 924 INTRA-LIGAND FREE ENERGY PREDICTED BY IDOCK:   -1.72 KCAL/MOL
REMARK 927      BINDING AFFINITY PREDICTED BY RF-SCORE:    0.00 PKD
ROOT
HETATM    1  C   UNL     1      -7.039   9.875  68.395  1.00  0.00    -0.072 C  
HETATM    2  C   UNL     1      -6.522  11.157  67.739  1.00  0.00    -0.063 C  
HETATM    3  C   UNL     1      -6.272  10.941  66.240  1.00  0.00    -0.134 C  
ENDROOT
BRANCH   2   4
HETATM    4  O   UNL     1      -7.317  12.333  68.101  1.00  0.00    -0.088 OA 
BRANCH   4   5
HETATM    5  C   UNL     1      -6.776  13.288  68.897  1.00  0.00    -0.110 C  
HETATM    6  O   UNL     1      -6.368  13.058  70.037  1.00  0.00    -0.098 OA 
BRANCH   5   7
HETATM    7  C   UNL     1      -6.703  14.728  68.314  1.00  0.00    -0.113 C  
HETATM    8  C   UNL     1      -5.293  14.985  67.783  1.00  0.00    -0.057 C  
BRANCH   7   9
HETATM    9  N   UNL     1      -7.198  15.894  69.144  1.00  0.00    -0.184 NA 
HETATM   10  H   UNL     1      -6.480  16.612  69.241  1.00  0.00     0.000 HD 
BRANCH   9  11
HETATM   11  P   UNL     1      -8.695  16.569  68.507  1.00  0.00    -0.244 P  
HETATM   12  O   UNL     1      -9.556  16.044  69.682  1.00  0.00    -0.236 OA 
BRANCH  11  13
HETATM   13  C   UNL     1      -9.611  15.363  67.340  1.00  0.00    -0.210 C  
BRANCH  13  14
HETATM   14  O   UNL     1     -10.153  14.179  68.038  1.00  0.00    -0.223 OA 
BRANCH  14  15
HETATM   15  C   UNL     1     -11.586  13.952  68.125  1.00  0.00    -0.335 C  
HETATM   16  C   UNL     1     -11.965  13.553  69.557  1.00  0.00    -0.390 C  
BRANCH  15  17
HETATM   17  C   UNL     1     -12.157  13.042  67.046  1.00  0.00    -0.267 C  
BRANCH  17  18
HETATM   18  N   UNL     1     -11.340  11.913  66.698  1.00  0.00    -0.350 NA 
HETATM   19  C   UNL     1     -10.975  10.863  67.497  1.00  0.00    -0.293 A  
HETATM   20  N   UNL     1     -10.291   9.959  66.830  1.00  0.00    -0.229 NA 
HETATM   21  C   UNL     1     -10.201  10.470  65.554  1.00  0.00    -0.256 A  
HETATM   22  C   UNL     1      -9.611   9.970  64.390  1.00  0.00    -0.258 A  
HETATM   23  N   UNL     1      -9.616  10.739  63.277  1.00  0.00    -0.317 NA 
HETATM   24  N   UNL     1      -9.016   8.718  64.354  1.00  0.00    -0.416 NA 
HETATM   25  C   UNL     1     -10.235  11.933  63.337  1.00  0.00    -0.449 A  
HETATM   26  H1  UNL     1      -8.586   8.353  63.504  1.00  0.00     0.000 HD 
HETATM   27  H2  UNL     1      -9.704   8.036  64.674  1.00  0.00     0.000 HD 
HETATM   28  N   UNL     1     -10.870  12.506  64.384  1.00  0.00    -0.319 NA 
HETATM   29  C   UNL     1     -10.809  11.705  65.459  1.00  0.00    -0.279 A  
ENDBRANCH  17  18
ENDBRANCH  15  17
ENDBRANCH  14  15
ENDBRANCH  13  14
ENDBRANCH  11  13
BRANCH  11  30
HETATM   30  O   UNL     1      -7.733  17.158  67.194  1.00  0.00    -0.162 OA 
BRANCH  30  31
HETATM   31  C   UNL     1      -7.240  18.445  67.321  1.00  0.00    -0.204 A  
HETATM   32  C   UNL     1      -8.024  19.473  66.796  1.00  0.00    -0.307 A  
HETATM   33  C   UNL     1      -5.569  20.081  67.967  1.00  0.00    -0.226 A  
HETATM   34  C   UNL     1      -6.012  18.752  67.915  1.00  0.00    -0.194 A  
HETATM   35  C   UNL     1      -6.346  21.102  67.424  1.00  0.00    -0.430 A  
HETATM   36  C   UNL     1      -7.572  20.797  66.839  1.00  0.00    -0.242 A  
ENDBRANCH  30  31
ENDBRANCH  11  30
ENDBRANCH   9  11
ENDBRANCH   7   9
ENDBRANCH   5   7
ENDBRANCH   4   5
ENDBRANCH   2   4
TORSDOF 12
ENDMDL
MODEL      236
REMARK 921   NORMALIZED FREE ENERGY PREDICTED BY IDOCK:   -4.56 KCAL/MOL
REMARK 922        TOTAL FREE ENERGY PREDICTED BY IDOCK:   -9.48 KCAL/MOL
REMARK 923 INTER-LIGAND FREE ENERGY PREDICTED BY IDOCK:   -7.79 KCAL/MOL
REMARK 924 INTRA-LIGAND FREE ENERGY PREDICTED BY IDOCK:   -1.69 KCAL/MOL
REMARK 927      BINDING AFFINITY PREDICTED BY RF-SCORE:    0.00 PKD
ROOT
HETATM    1  C   UNL     1     -11.938  12.372  63.380  1.00  0.00    -0.595 C  
HETATM    2  C   UNL     1     -11.775  13.001  64.766  1.00  0.00    -0.345 C  
HETATM    3  C   UNL     1     -12.253  14.460  64.763  1.00  0.00    -0.458 C  
ENDROOT
BRANCH   2   4
HETATM    4  O   UNL     1     -12.301  12.149  65.835  1.00  0.00    -0.561 OA 
BRANCH   4   5
HETATM    5  C   UNL     1     -11.680  12.127  67.040  1.00  0.00    -0.303 C  
HETATM    6  O   UNL     1     -11.776  13.042  67.860  1.00  0.00    -0.322 OA 
BRANCH   5   7
HETATM    7  C   UNL     1     -10.804  10.881  67.355  1.00  0.00    -0.279 C  
HETATM    8  C   UNL     1     -10.216  10.338  66.054  1.00  0.00    -0.298 C  
BRANCH   7   9
HETATM    9  N   UNL     1     -11.371   9.768  68.210  1.00  0.00    -0.521 NA 
HETATM   10  H   UNL     1     -11.493   8.911  67.669  1.00  0.00     0.000 HD 
BRANCH   9  11
HETATM   11  P   UNL     1     -10.401   9.481  69.651  1.00  0.00    -0.253 P  
HETATM   12  O   UNL     1      -9.413  10.632  69.343  1.00  0.00    -0.176 OA 
BRANCH  11  13
HETATM   13  C   UNL     1      -8.985   8.230  69.350  1.00  0.00    -0.147 C  
BRANCH  13  14
HETATM   14  O   UNL     1      -8.937   7.732  67.960  1.00  0.00    -0.127 OA 
BRANCH  14  15
HETATM   15  C   UNL     1      -7.800   6.964  67.480  1.00  0.00    -0.112 C  
HETATM   16  C   UNL     1      -7.842   5.547  68.067  1.00  0.00    -0.096 C  
BRANCH  15  17
HETATM   17  C   UNL     1      -6.453   7.661  67.615  1.00  0.00    -0.058 C  
BRANCH  17  18
HETATM   18  N   UNL     1      -6.430   9.038  67.207  1.00  0.00    -0.060 NA 
HETATM   19  C   UNL     1      -6.596   9.543  65.946  1.00  0.00    -0.078 A  
HETATM   20  N   UNL     1      -6.602  10.858  65.945  1.00  0.00    -0.091 NA 
HETATM   21  C   UNL     1      -6.409  11.203  67.264  1.00  0.00    -0.074 A  
HETATM   22  C   UNL     1      -6.334  12.444  67.902  1.00  0.00    -0.096 A  
HETATM   23  N   UNL     1      -6.061  12.479  69.227  1.00  0.00    -0.091 NA 
HETATM   24  N   UNL     1      -6.524  13.631  67.210  1.00  0.00    -0.447 NA 
HETATM   25  C   UNL     1      -5.920  11.307  69.874  1.00  0.00    -0.117 A  
HETATM   26  H1  UNL     1      -6.470  14.538  67.676  1.00  0.00     0.000 HD 
HETATM   27  H2  UNL     1      -7.425  13.576  66.736  1.00  0.00     0.000 HD 
HETATM   28  N   UNL     1      -6.007  10.052  69.380  1.00  0.00    -0.037 NA 
HETATM   29  C   UNL     1      -6.256  10.087  68.062  1.00  0.00    -0.053 A  
ENDBRANCH  17  18
ENDBRANCH  15  17
ENDBRANCH  14  15
ENDBRANCH  13  14
ENDBRANCH  11  13
BRANCH  11  30
HETATM   30  O   UNL     1     -11.506   8.194  69.996  1.00  0.00    -0.098 OA 
BRANCH  30  31
HETATM   31  C   UNL     1     -11.239   7.439  71.124  1.00  0.00    -0.258 A  
HETATM   32  C   UNL     1     -10.997   8.139  72.307  1.00  0.00    -0.399 A  
HETATM   33  C   UNL     1     -10.866   5.355  72.310  1.00  0.00    -0.286 A  
HETATM   34  C   UNL     1     -11.181   6.042  71.129  1.00  0.00    -0.328 A  
HETATM   35  C   UNL     1     -10.604   6.059  73.484  1.00  0.00    -0.284 A  
HETATM   36  C   UNL     1     -10.669   7.450  73.481  1.00  0.00    -0.347 A  
ENDBRANCH  30  31
ENDBRANCH  11  30
ENDBRANCH   9  11
ENDBRANCH   7   9
ENDBRANCH   5   7
ENDBRANCH   4   5
ENDBRANCH   2   4
TORSDOF 12
ENDMDL
MODEL      237
REMARK 921   NORMALIZED FREE ENERGY PREDICTED BY IDOCK:   -4.56 KCAL/MOL
REMARK 922        TOTAL FREE ENERGY PREDICTED BY IDOCK:   -9.47 KCAL/MOL
REMARK 923 INTER-LIGAND FREE ENERGY PREDICTED BY IDOCK:   -7.86 KCAL/MOL
REMARK 924 INTRA-LIGAND FREE ENERGY PREDICTED BY IDOCK:   -1.61 KCAL/MOL
REMARK 927      BINDING AFFINITY PREDICTED BY RF-SCORE:    0.00 PKD
ROOT
HETATM    1  C   UNL     1     -12.493  12.064  63.380  1.00  0.00    -0.625 C  
HETATM    2  C   UNL     1     -11.277  11.394  64.024  1.00  0.00    -0.269 C  
HETATM    3  C   UNL     1      -9.973  11.943  63.429  1.00  0.00    -0.435 C  
ENDROOT
BRANCH   2   4
HETATM    4  O   UNL     1     -11.361  11.365  65.487  1.00  0.00    -0.153 OA 
BRANCH   4   5
HETATM    5  C   UNL     1     -10.490  12.098  66.222  1.00  0.00    -0.239 C  
HETATM    6  O   UNL     1     -10.331  13.309  66.062  1.00  0.00    -0.277 OA 
BRANCH   5   7
HETATM    7  C   UNL     1      -9.660  11.333  67.293  1.00  0.00    -0.173 C  
HETATM    8  C   UNL     1      -8.195  11.292  66.860  1.00  0.00    -0.153 C  
BRANCH   7   9
HETATM    9  N   UNL     1     -10.131   9.976  67.771  1.00  0.00    -0.173 NA 
HETATM   10  H   UNL     1      -9.541   9.229  67.404  1.00  0.00     0.000 HD 
BRANCH   9  11
HETATM   11  P   UNL     1     -10.244   9.896  69.527  1.00  0.00    -0.256 P  
HETATM   12  O   UNL     1      -8.802   9.362  69.701  1.00  0.00    -0.146 OA 
BRANCH  11  13
HETATM   13  C   UNL     1     -10.907   8.213  70.148  1.00  0.00    -0.241 C  
BRANCH  13  14
HETATM   14  O   UNL     1      -9.863   7.169  70.218  1.00  0.00    -0.176 OA 
BRANCH  14  15
HETATM   15  C   UNL     1      -9.960   5.959  69.418  1.00  0.00    -0.178 C  
HETATM   16  C   UNL     1      -8.582   5.294  69.310  1.00  0.00    -0.102 C  
BRANCH  15  17
HETATM   17  C   UNL     1     -10.684   6.127  68.089  1.00  0.00    -0.294 C  
BRANCH  17  18
HETATM   18  N   UNL     1      -9.999   5.593  66.944  1.00  0.00    -0.157 NA 
HETATM   19  C   UNL     1     -10.040   4.311  66.465  1.00  0.00    -0.129 A  
HETATM   20  N   UNL     1      -9.359   4.189  65.346  1.00  0.00    -0.151 NA 
HETATM   21  C   UNL     1      -8.846   5.446  65.118  1.00  0.00    -0.108 A  
HETATM   22  C   UNL     1      -8.055   5.955  64.085  1.00  0.00    -0.110 A  
HETATM   23  N   UNL     1      -7.634   7.240  64.161  1.00  0.00    -0.106 NA 
HETATM   24  N   UNL     1      -7.686   5.178  62.998  1.00  0.00    -0.065 NA 
HETATM   25  C   UNL     1      -8.042   7.977  65.211  1.00  0.00    -0.138 A  
HETATM   26  H1  UNL     1      -7.108   5.550  62.244  1.00  0.00     0.000 HD 
HETATM   27  H2  UNL     1      -8.536   4.798  62.582  1.00  0.00     0.000 HD 
HETATM   28  N   UNL     1      -8.833   7.612  66.245  1.00  0.00    -0.151 NA 
HETATM   29  C   UNL     1      -9.195   6.326  66.121  1.00  0.00    -0.120 A  
ENDBRANCH  17  18
ENDBRANCH  15  17
ENDBRANCH  14  15
ENDBRANCH  13  14
ENDBRANCH  11  13
BRANCH  11  30
HETATM   30  O   UNL     1     -11.857  10.494  69.332  1.00  0.00    -0.261 OA 
BRANCH  30  31
HETATM   31  C   UNL     1     -12.185  11.627  70.055  1.00  0.00    -0.263 A  
HETATM   32  C   UNL     1     -12.937  11.437  71.215  1.00  0.00    -0.415 A  
HETATM   33  C   UNL     1     -12.233  14.021  70.445  1.00  0.00    -0.433 A  
HETATM   34  C   UNL     1     -11.826  12.924  69.674  1.00  0.00    -0.387 A  
HETATM   35  C   UNL     1     -13.001  13.828  71.592  1.00  0.00    -0.448 A  
HETATM   36  C   UNL     1     -13.353  12.537  71.975  1.00  0.00    -0.528 A  
ENDBRANCH  30  31
ENDBRANCH  11  30
ENDBRANCH   9  11
ENDBRANCH   7   9
ENDBRANCH   5   7
ENDBRANCH   4   5
ENDBRANCH   2   4
TORSDOF 12
ENDMDL
MODEL      238
REMARK 921   NORMALIZED FREE ENERGY PREDICTED BY IDOCK:   -4.52 KCAL/MOL
REMARK 922        TOTAL FREE ENERGY PREDICTED BY IDOCK:   -9.41 KCAL/MOL
REMARK 923 INTER-LIGAND FREE ENERGY PREDICTED BY IDOCK:   -7.41 KCAL/MOL
REMARK 924 INTRA-LIGAND FREE ENERGY PREDICTED BY IDOCK:   -2.00 KCAL/MOL
REMARK 927      BINDING AFFINITY PREDICTED BY RF-SCORE:    0.00 PKD
ROOT
HETATM    1  C   UNL     1     -13.025  13.597  65.275  1.00  0.00    -0.315 C  
HETATM    2  C   UNL     1     -11.637  13.005  65.530  1.00  0.00    -0.347 C  
HETATM    3  C   UNL     1     -11.350  11.848  64.563  1.00  0.00    -0.382 C  
ENDROOT
BRANCH   2   4
HETATM    4  O   UNL     1     -10.599  14.033  65.637  1.00  0.00    -0.287 OA 
BRANCH   4   5
HETATM    5  C   UNL     1     -10.724  15.017  66.561  1.00  0.00    -0.312 C  
HETATM    6  O   UNL     1     -10.766  16.213  66.265  1.00  0.00    -0.294 OA 
BRANCH   5   7
HETATM    7  C   UNL     1     -10.798  14.576  68.051  1.00  0.00    -0.244 C  
HETATM    8  C   UNL     1     -11.440  15.691  68.875  1.00  0.00    -0.367 C  
BRANCH   7   9
HETATM    9  N   UNL     1      -9.557  14.034  68.729  1.00  0.00    -0.372 NA 
HETATM   10  H   UNL     1      -9.628  13.028  68.881  1.00  0.00     0.000 HD 
BRANCH   9  11
HETATM   11  P   UNL     1      -8.089  14.446  67.847  1.00  0.00    -0.186 P  
HETATM   12  O   UNL     1      -8.062  13.113  67.060  1.00  0.00    -0.132 OA 
BRANCH  11  13
HETATM   13  C   UNL     1      -6.501  13.899  68.762  1.00  0.00    -0.094 C  
BRANCH  13  14
HETATM   14  O   UNL     1      -6.739  12.822  69.745  1.00  0.00     0.001 OA 
BRANCH  14  15
HETATM   15  C   UNL     1      -5.924  11.619  69.749  1.00  0.00    -0.123 C  
HETATM   16  C   UNL     1      -5.262  11.433  68.378  1.00  0.00    -0.039 C  
BRANCH  15  17
HETATM   17  C   UNL     1      -6.620  10.376  70.286  1.00  0.00    -0.141 C  
BRANCH  17  18
HETATM   18  N   UNL     1      -7.267   9.558  69.297  1.00  0.00    -0.061 NA 
HETATM   19  C   UNL     1      -6.788   8.422  68.703  1.00  0.00    -0.063 A  
HETATM   20  N   UNL     1      -7.680   7.878  67.904  1.00  0.00    -0.122 NA 
HETATM   21  C   UNL     1      -8.767   8.720  67.980  1.00  0.00    -0.141 A  
HETATM   22  C   UNL     1     -10.026   8.673  67.375  1.00  0.00    -0.210 A  
HETATM   23  N   UNL     1     -10.886   9.697  67.584  1.00  0.00    -0.265 NA 
HETATM   24  N   UNL     1     -10.407   7.613  66.566  1.00  0.00    -0.504 NA 
HETATM   25  C   UNL     1     -10.499  10.690  68.405  1.00  0.00    -0.188 A  
HETATM   26  H1  UNL     1     -11.326   7.579  66.124  1.00  0.00     0.000 HD 
HETATM   27  H2  UNL     1     -10.283   6.753  67.099  1.00  0.00     0.000 HD 
HETATM   28  N   UNL     1      -9.332  10.829  69.074  1.00  0.00    -0.181 NA 
HETATM   29  C   UNL     1      -8.518   9.796  68.807  1.00  0.00    -0.122 A  
ENDBRANCH  17  18
ENDBRANCH  15  17
ENDBRANCH  14  15
ENDBRANCH  13  14
ENDBRANCH  11  13
BRANCH  11  30
HETATM   30  O   UNL     1      -8.120  15.937  68.726  1.00  0.00    -0.164 OA 
BRANCH  30  31
HETATM   31  C   UNL     1      -7.979  17.094  67.981  1.00  0.00    -0.212 A  
HETATM   32  C   UNL     1      -7.293  16.984  66.771  1.00  0.00    -0.266 A  
HETATM   33  C   UNL     1      -8.240  19.474  67.588  1.00  0.00    -0.332 A  
HETATM   34  C   UNL     1      -8.460  18.343  68.386  1.00  0.00    -0.345 A  
HETATM   35  C   UNL     1      -7.536  19.362  66.390  1.00  0.00    -0.283 A  
HETATM   36  C   UNL     1      -7.064  18.118  65.983  1.00  0.00    -0.318 A  
ENDBRANCH  30  31
ENDBRANCH  11  30
ENDBRANCH   9  11
ENDBRANCH   7   9
ENDBRANCH   5   7
ENDBRANCH   4   5
ENDBRANCH   2   4
TORSDOF 12
ENDMDL
MODEL      239
REMARK 921   NORMALIZED FREE ENERGY PREDICTED BY IDOCK:   -4.52 KCAL/MOL
REMARK 922        TOTAL FREE ENERGY PREDICTED BY IDOCK:   -9.41 KCAL/MOL
REMARK 923 INTER-LIGAND FREE ENERGY PREDICTED BY IDOCK:   -8.28 KCAL/MOL
REMARK 924 INTRA-LIGAND FREE ENERGY PREDICTED BY IDOCK:   -1.12 KCAL/MOL
REMARK 927      BINDING AFFINITY PREDICTED BY RF-SCORE:    0.00 PKD
ROOT
HETATM    1  C   UNL     1      -7.282   2.131  68.249  1.00  0.00    -0.047 C  
HETATM    2  C   UNL     1      -7.173   3.618  67.903  1.00  0.00    -0.055 C  
HETATM    3  C   UNL     1      -6.153   4.318  68.811  1.00  0.00    -0.031 C  
ENDROOT
BRANCH   2   4
HETATM    4  O   UNL     1      -7.027   3.850  66.463  1.00  0.00    -0.057 OA 
BRANCH   4   5
HETATM    5  C   UNL     1      -7.760   4.820  65.863  1.00  0.00    -0.091 C  
HETATM    6  O   UNL     1      -7.550   5.202  64.710  1.00  0.00    -0.074 OA 
BRANCH   5   7
HETATM    7  C   UNL     1      -8.895   5.465  66.708  1.00  0.00    -0.112 C  
HETATM    8  C   UNL     1     -10.246   5.117  66.085  1.00  0.00    -0.258 C  
BRANCH   7   9
HETATM    9  N   UNL     1      -8.815   6.935  67.064  1.00  0.00    -0.117 NA 
HETATM   10  H   UNL     1      -8.881   7.521  66.232  1.00  0.00     0.000 HD 
BRANCH   9  11
HETATM   11  P   UNL     1     -10.021   7.390  68.264  1.00  0.00    -0.174 P  
HETATM   12  O   UNL     1     -10.885   8.180  67.251  1.00  0.00    -0.248 OA 
BRANCH  11  13
HETATM   13  C   UNL     1      -9.604   9.038  69.141  1.00  0.00    -0.161 C  
BRANCH  13  14
HETATM   14  O   UNL     1     -10.639  10.076  68.949  1.00  0.00    -0.200 OA 
BRANCH  14  15
HETATM   15  C   UNL     1     -11.328  10.664  70.086  1.00  0.00    -0.323 C  
HETATM   16  C   UNL     1     -12.087   9.575  70.855  1.00  0.00    -0.357 C  
BRANCH  15  17
HETATM   17  C   UNL     1     -12.156  11.900  69.762  1.00  0.00    -0.252 C  
BRANCH  17  18
HETATM   18  N   UNL     1     -12.606  12.653  70.900  1.00  0.00    -0.309 NA 
HETATM   19  C   UNL     1     -13.403  12.226  71.928  1.00  0.00    -0.329 A  
HETATM   20  N   UNL     1     -13.548  13.154  72.848  1.00  0.00    -0.458 NA 
HETATM   21  C   UNL     1     -12.827  14.226  72.371  1.00  0.00    -0.347 A  
HETATM   22  C   UNL     1     -12.586  15.497  72.901  1.00  0.00    -0.428 A  
HETATM   23  N   UNL     1     -11.884  16.387  72.162  1.00  0.00    -0.505 NA 
HETATM   24  N   UNL     1     -13.054  15.865  74.153  1.00  0.00    -0.873 NA 
HETATM   25  C   UNL     1     -11.412  15.984  70.967  1.00  0.00    -0.417 A  
HETATM   26  H1  UNL     1     -12.878  16.793  74.540  1.00  0.00     0.000 HD 
HETATM   27  H2  UNL     1     -12.719  15.176  74.827  1.00  0.00     0.000 HD 
HETATM   28  N   UNL     1     -11.545  14.779  70.367  1.00  0.00    -0.274 NA 
HETATM   29  C   UNL     1     -12.268  13.953  71.140  1.00  0.00    -0.308 A  
ENDBRANCH  17  18
ENDBRANCH  15  17
ENDBRANCH  14  15
ENDBRANCH  13  14
ENDBRANCH  11  13
BRANCH  11  30
HETATM   30  O   UNL     1      -9.056   6.507  69.397  1.00  0.00    -0.141 OA 
BRANCH  30  31
HETATM   31  C   UNL     1      -9.654   6.198  70.607  1.00  0.00    -0.173 A  
HETATM   32  C   UNL     1     -11.046   6.101  70.614  1.00  0.00    -0.384 A  
HETATM   33  C   UNL     1      -9.634   5.733  72.988  1.00  0.00    -0.157 A  
HETATM   34  C   UNL     1      -8.946   6.005  71.797  1.00  0.00    -0.138 A  
HETATM   35  C   UNL     1     -11.026   5.658  72.994  1.00  0.00    -0.325 A  
HETATM   36  C   UNL     1     -11.730   5.842  71.807  1.00  0.00    -0.163 A  
ENDBRANCH  30  31
ENDBRANCH  11  30
ENDBRANCH   9  11
ENDBRANCH   7   9
ENDBRANCH   5   7
ENDBRANCH   4   5
ENDBRANCH   2   4
TORSDOF 12
ENDMDL
MODEL      240
REMARK 921   NORMALIZED FREE ENERGY PREDICTED BY IDOCK:   -4.49 KCAL/MOL
REMARK 922        TOTAL FREE ENERGY PREDICTED BY IDOCK:   -9.36 KCAL/MOL
REMARK 923 INTER-LIGAND FREE ENERGY PREDICTED BY IDOCK:   -8.03 KCAL/MOL
REMARK 924 INTRA-LIGAND FREE ENERGY PREDICTED BY IDOCK:   -1.33 KCAL/MOL
REMARK 927      BINDING AFFINITY PREDICTED BY RF-SCORE:    0.00 PKD
ROOT
HETATM    1  C   UNL     1     -13.900  13.616  72.316  1.00  0.00    -0.689 C  
HETATM    2  C   UNL     1     -13.133  12.832  71.249  1.00  0.00    -0.157 C  
HETATM    3  C   UNL     1     -12.194  13.757  70.462  1.00  0.00    -0.440 C  
ENDROOT
BRANCH   2   4
HETATM    4  O   UNL     1     -12.540  11.600  71.774  1.00  0.00    -0.234 OA 
BRANCH   4   5
HETATM    5  C   UNL     1     -12.677  10.442  71.082  1.00  0.00    -0.415 C  
HETATM    6  O   UNL     1     -13.726   9.797  71.058  1.00  0.00    -0.277 OA 
BRANCH   5   7
HETATM    7  C   UNL     1     -11.426   9.933  70.311  1.00  0.00    -0.281 C  
HETATM    8  C   UNL     1     -10.377   9.455  71.314  1.00  0.00    -0.363 C  
BRANCH   7   9
HETATM    9  N   UNL     1     -10.805  10.805  69.240  1.00  0.00    -0.227 NA 
HETATM   10  H   UNL     1      -9.937  11.230  69.566  1.00  0.00     0.000 HD 
BRANCH   9  11
HETATM   11  P   UNL     1     -10.560   9.927  67.733  1.00  0.00    -0.258 P  
HETATM   12  O   UNL     1     -11.130   8.600  68.291  1.00  0.00     0.103 OA 
BRANCH  11  13
HETATM   13  C   UNL     1      -8.837   9.105  67.629  1.00  0.00    -0.120 C  
BRANCH  13  14
HETATM   14  O   UNL     1      -8.674   7.977  68.570  1.00  0.00    -0.131 OA 
BRANCH  14  15
HETATM   15  C   UNL     1      -7.995   6.757  68.166  1.00  0.00    -0.114 C  
HETATM   16  C   UNL     1      -8.970   5.845  67.410  1.00  0.00    -0.108 C  
BRANCH  15  17
HETATM   17  C   UNL     1      -7.213   6.063  69.272  1.00  0.00    -0.074 C  
BRANCH  17  18
HETATM   18  N   UNL     1      -7.880   5.986  70.542  1.00  0.00    -0.100 NA 
HETATM   19  C   UNL     1      -7.923   6.937  71.526  1.00  0.00    -0.104 A  
HETATM   20  N   UNL     1      -8.696   6.569  72.524  1.00  0.00    -0.126 NA 
HETATM   21  C   UNL     1      -9.147   5.319  72.166  1.00  0.00    -0.136 A  
HETATM   22  C   UNL     1     -10.009   4.421  72.802  1.00  0.00    -0.159 A  
HETATM   23  N   UNL     1     -10.220   3.210  72.236  1.00  0.00    -0.142 NA 
HETATM   24  N   UNL     1     -10.639   4.738  73.996  1.00  0.00    -0.273 NA 
HETATM   25  C   UNL     1      -9.621   2.950  71.058  1.00  0.00    -0.149 A  
HETATM   26  H1  UNL     1     -11.268   4.083  74.460  1.00  0.00     0.000 HD 
HETATM   27  H2  UNL     1     -11.145   5.613  73.859  1.00  0.00     0.000 HD 
HETATM   28  N   UNL     1      -8.804   3.744  70.331  1.00  0.00    -0.079 NA 
HETATM   29  C   UNL     1      -8.618   4.916  70.956  1.00  0.00    -0.121 A  
ENDBRANCH  17  18
ENDBRANCH  15  17
ENDBRANCH  14  15
ENDBRANCH  13  14
ENDBRANCH  11  13
BRANCH  11  30
HETATM   30  O   UNL     1      -9.924  11.411  67.108  1.00  0.00    -0.189 OA 
BRANCH  30  31
HETATM   31  C   UNL     1     -10.586  11.955  66.022  1.00  0.00    -0.265 A  
HETATM   32  C   UNL     1     -11.719  12.723  66.295  1.00  0.00    -0.460 A  
HETATM   33  C   UNL     1     -10.944  12.316  63.650  1.00  0.00    -0.532 A  
HETATM   34  C   UNL     1     -10.193  11.759  64.695  1.00  0.00    -0.326 A  
HETATM   35  C   UNL     1     -12.086  13.065  63.926  1.00  0.00    -0.541 A  
HETATM   36  C   UNL     1     -12.473  13.266  65.248  1.00  0.00    -0.543 A  
ENDBRANCH  30  31
ENDBRANCH  11  30
ENDBRANCH   9  11
ENDBRANCH   7   9
ENDBRANCH   5   7
ENDBRANCH   4   5
ENDBRANCH   2   4
TORSDOF 12
ENDMDL
MODEL      241
REMARK 921   NORMALIZED FREE ENERGY PREDICTED BY IDOCK:   -4.48 KCAL/MOL
REMARK 922        TOTAL FREE ENERGY PREDICTED BY IDOCK:   -9.34 KCAL/MOL
REMARK 923 INTER-LIGAND FREE ENERGY PREDICTED BY IDOCK:   -7.67 KCAL/MOL
REMARK 924 INTRA-LIGAND FREE ENERGY PREDICTED BY IDOCK:   -1.68 KCAL/MOL
REMARK 927      BINDING AFFINITY PREDICTED BY RF-SCORE:    0.00 PKD
ROOT
HETATM    1  C   UNL     1      -6.682   9.300  68.498  1.00  0.00    -0.058 C  
HETATM    2  C   UNL     1      -6.698  10.617  67.719  1.00  0.00    -0.068 C  
HETATM    3  C   UNL     1      -7.007  10.371  66.236  1.00  0.00    -0.118 C  
ENDROOT
BRANCH   2   4
HETATM    4  O   UNL     1      -7.494  11.653  68.385  1.00  0.00    -0.093 OA 
BRANCH   4   5
HETATM    5  C   UNL     1      -6.887  12.526  69.225  1.00  0.00    -0.019 C  
HETATM    6  O   UNL     1      -6.332  12.176  70.269  1.00  0.00    -0.106 OA 
BRANCH   5   7
HETATM    7  C   UNL     1      -6.930  14.029  68.827  1.00  0.00    -0.106 C  
HETATM    8  C   UNL     1      -5.507  14.584  68.801  1.00  0.00    -0.088 C  
BRANCH   7   9
HETATM    9  N   UNL     1      -7.873  14.965  69.553  1.00  0.00    -0.360 NA 
HETATM   10  H   UNL     1      -7.382  15.788  69.902  1.00  0.00     0.000 HD 
BRANCH   9  11
HETATM   11  P   UNL     1      -9.252  15.419  68.556  1.00  0.00    -0.218 P  
HETATM   12  O   UNL     1     -10.140  14.260  69.070  1.00  0.00    -0.209 OA 
BRANCH  11  13
HETATM   13  C   UNL     1      -9.222  14.587  66.834  1.00  0.00    -0.250 C  
BRANCH  13  14
HETATM   14  O   UNL     1      -9.894  13.271  66.813  1.00  0.00    -0.249 OA 
BRANCH  14  15
HETATM   15  C   UNL     1     -11.063  13.041  65.981  1.00  0.00    -0.278 C  
HETATM   16  C   UNL     1     -12.108  14.135  66.235  1.00  0.00    -0.463 C  
BRANCH  15  17
HETATM   17  C   UNL     1     -11.614  11.622  66.029  1.00  0.00    -0.026 C  
BRANCH  17  18
HETATM   18  N   UNL     1     -11.294  10.878  67.216  1.00  0.00    -0.444 NA 
HETATM   19  C   UNL     1     -11.579  11.205  68.514  1.00  0.00    -0.314 A  
HETATM   20  N   UNL     1     -11.215  10.254  69.346  1.00  0.00    -0.240 NA 
HETATM   21  C   UNL     1     -10.655   9.288  68.540  1.00  0.00    -0.183 A  
HETATM   22  C   UNL     1     -10.101   8.039  68.830  1.00  0.00    -0.201 A  
HETATM   23  N   UNL     1      -9.551   7.322  67.823  1.00  0.00    -0.137 NA 
HETATM   24  N   UNL     1     -10.094   7.526  70.118  1.00  0.00    -0.193 NA 
HETATM   25  C   UNL     1      -9.609   7.833  66.578  1.00  0.00    -0.201 A  
HETATM   26  H1  UNL     1      -9.690   6.613  70.330  1.00  0.00     0.000 HD 
HETATM   27  H2  UNL     1     -11.055   7.529  70.461  1.00  0.00     0.000 HD 
HETATM   28  N   UNL     1     -10.147   9.003  66.168  1.00  0.00    -0.256 NA 
HETATM   29  C   UNL     1     -10.653   9.673  67.215  1.00  0.00    -0.247 A  
ENDBRANCH  17  18
ENDBRANCH  15  17
ENDBRANCH  14  15
ENDBRANCH  13  14
ENDBRANCH  11  13
BRANCH  11  30
HETATM   30  O   UNL     1      -8.259  16.715  67.981  1.00  0.00    -0.178 OA 
BRANCH  30  31
HETATM   31  C   UNL     1      -8.915  17.877  67.614  1.00  0.00    -0.250 A  
HETATM   32  C   UNL     1      -8.303  19.082  67.963  1.00  0.00    -0.335 A  
HETATM   33  C   UNL     1     -10.758  19.122  66.646  1.00  0.00    -0.467 A  
HETATM   34  C   UNL     1     -10.143  17.899  66.947  1.00  0.00    -0.348 A  
HETATM   35  C   UNL     1     -10.153  20.322  67.015  1.00  0.00    -0.567 A  
HETATM   36  C   UNL     1      -8.927  20.301  67.673  1.00  0.00    -0.393 A  
ENDBRANCH  30  31
ENDBRANCH  11  30
ENDBRANCH   9  11
ENDBRANCH   7   9
ENDBRANCH   5   7
ENDBRANCH   4   5
ENDBRANCH   2   4
TORSDOF 12
ENDMDL
MODEL      242
REMARK 921   NORMALIZED FREE ENERGY PREDICTED BY IDOCK:   -4.46 KCAL/MOL
REMARK 922        TOTAL FREE ENERGY PREDICTED BY IDOCK:   -9.30 KCAL/MOL
REMARK 923 INTER-LIGAND FREE ENERGY PREDICTED BY IDOCK:   -7.78 KCAL/MOL
REMARK 924 INTRA-LIGAND FREE ENERGY PREDICTED BY IDOCK:   -1.52 KCAL/MOL
REMARK 927      BINDING AFFINITY PREDICTED BY RF-SCORE:    0.00 PKD
ROOT
HETATM    1  C   UNL     1     -12.291  14.779  64.344  1.00  0.00    -0.389 C  
HETATM    2  C   UNL     1     -12.289  13.329  64.835  1.00  0.00    -0.425 C  
HETATM    3  C   UNL     1     -12.194  12.353  63.655  1.00  0.00    -0.653 C  
ENDROOT
BRANCH   2   4
HETATM    4  O   UNL     1     -11.346  13.111  65.936  1.00  0.00    -0.299 OA 
BRANCH   4   5
HETATM    5  C   UNL     1     -11.342  11.921  66.586  1.00  0.00    -0.337 C  
HETATM    6  O   UNL     1     -12.154  11.637  67.469  1.00  0.00    -0.611 OA 
BRANCH   5   7
HETATM    7  C   UNL     1     -10.235  10.905  66.183  1.00  0.00    -0.249 C  
HETATM    8  C   UNL     1     -10.263   9.722  67.149  1.00  0.00    -0.288 C  
BRANCH   7   9
HETATM    9  N   UNL     1      -8.821  11.396  65.953  1.00  0.00    -0.310 NA 
HETATM   10  H   UNL     1      -8.815  12.335  65.556  1.00  0.00     0.000 HD 
BRANCH   9  11
HETATM   11  P   UNL     1      -7.849  11.317  67.420  1.00  0.00    -0.142 P  
HETATM   12  O   UNL     1      -8.588  12.496  68.099  1.00  0.00    -0.177 OA 
BRANCH  11  13
HETATM   13  C   UNL     1      -6.277  12.402  67.322  1.00  0.00    -0.144 C  
BRANCH  13  14
HETATM   14  O   UNL     1      -6.496  13.785  67.795  1.00  0.00    -0.150 OA 
BRANCH  14  15
HETATM   15  C   UNL     1      -5.875  14.265  69.018  1.00  0.00    -0.089 C  
HETATM   16  C   UNL     1      -5.185  13.103  69.743  1.00  0.00    -0.085 C  
BRANCH  15  17
HETATM   17  C   UNL     1      -6.776  15.114  69.904  1.00  0.00    -0.165 C  
BRANCH  17  18
HETATM   18  N   UNL     1      -7.438  16.204  69.243  1.00  0.00    -0.227 NA 
HETATM   19  C   UNL     1      -6.880  17.360  68.766  1.00  0.00    -0.228 A  
HETATM   20  N   UNL     1      -7.765  18.104  68.139  1.00  0.00    -0.265 NA 
HETATM   21  C   UNL     1      -8.942  17.397  68.241  1.00  0.00    -0.268 A  
HETATM   22  C   UNL     1     -10.230  17.658  67.765  1.00  0.00    -0.354 A  
HETATM   23  N   UNL     1     -11.227  16.801  68.084  1.00  0.00    -0.256 NA 
HETATM   24  N   UNL     1     -10.507  18.772  66.987  1.00  0.00    -0.398 NA 
HETATM   25  C   UNL     1     -10.915  15.711  68.809  1.00  0.00    -0.281 A  
HETATM   26  H1  UNL     1     -11.447  18.962  66.639  1.00  0.00     0.000 HD 
HETATM   27  H2  UNL     1      -9.874  18.760  66.187  1.00  0.00     0.000 HD 
HETATM   28  N   UNL     1      -9.711  15.331  69.292  1.00  0.00    -0.244 NA 
HETATM   29  C   UNL     1      -8.773  16.232  68.961  1.00  0.00    -0.246 A  
ENDBRANCH  17  18
ENDBRANCH  15  17
ENDBRANCH  14  15
ENDBRANCH  13  14
ENDBRANCH  11  13
BRANCH  11  30
HETATM   30  O   UNL     1      -7.024   9.998  66.661  1.00  0.00    -0.083 OA 
BRANCH  30  31
HETATM   31  C   UNL     1      -6.990   8.807  67.363  1.00  0.00    -0.075 A  
HETATM   32  C   UNL     1      -7.115   7.633  66.618  1.00  0.00    -0.079 A  
HETATM   33  C   UNL     1      -6.875   7.478  69.390  1.00  0.00    -0.048 A  
HETATM   34  C   UNL     1      -6.861   8.727  68.753  1.00  0.00    -0.062 A  
HETATM   35  C   UNL     1      -7.021   6.310  68.643  1.00  0.00    -0.080 A  
HETATM   36  C   UNL     1      -7.141   6.389  67.258  1.00  0.00    -0.073 A  
ENDBRANCH  30  31
ENDBRANCH  11  30
ENDBRANCH   9  11
ENDBRANCH   7   9
ENDBRANCH   5   7
ENDBRANCH   4   5
ENDBRANCH   2   4
TORSDOF 12
ENDMDL
MODEL      243
REMARK 921   NORMALIZED FREE ENERGY PREDICTED BY IDOCK:   -4.45 KCAL/MOL
REMARK 922        TOTAL FREE ENERGY PREDICTED BY IDOCK:   -9.29 KCAL/MOL
REMARK 923 INTER-LIGAND FREE ENERGY PREDICTED BY IDOCK:   -9.43 KCAL/MOL
REMARK 924 INTRA-LIGAND FREE ENERGY PREDICTED BY IDOCK:    0.14 KCAL/MOL
REMARK 927      BINDING AFFINITY PREDICTED BY RF-SCORE:    0.00 PKD
ROOT
HETATM    1  C   UNL     1      -7.569   4.477  67.758  1.00  0.00    -0.077 C  
HETATM    2  C   UNL     1      -8.817   5.071  67.099  1.00  0.00    -0.106 C  
HETATM    3  C   UNL     1      -9.882   3.989  66.871  1.00  0.00    -0.157 C  
ENDROOT
BRANCH   2   4
HETATM    4  O   UNL     1      -9.269   6.299  67.759  1.00  0.00    -0.118 OA 
BRANCH   4   5
HETATM    5  C   UNL     1      -9.663   7.356  67.007  1.00  0.00    -0.191 C  
HETATM    6  O   UNL     1     -10.773   7.881  67.118  1.00  0.00    -0.326 OA 
BRANCH   5   7
HETATM    7  C   UNL     1      -8.645   7.889  65.959  1.00  0.00    -0.150 C  
HETATM    8  C   UNL     1      -7.328   8.221  66.659  1.00  0.00    -0.082 C  
BRANCH   7   9
HETATM    9  N   UNL     1      -9.060   8.998  65.014  1.00  0.00    -0.404 NA 
HETATM   10  H   UNL     1     -10.035   8.897  64.731  1.00  0.00     0.000 HD 
BRANCH   9  11
HETATM   11  P   UNL     1      -8.753  10.594  65.693  1.00  0.00    -0.183 P  
HETATM   12  O   UNL     1      -7.229  10.528  65.429  1.00  0.00    -0.138 OA 
BRANCH  11  13
HETATM   13  C   UNL     1      -8.396  10.540  67.572  1.00  0.00    -0.118 C  
BRANCH  13  14
HETATM   14  O   UNL     1      -9.308  11.393  68.361  1.00  0.00    -0.183 OA 
BRANCH  14  15
HETATM   15  C   UNL     1      -9.979  10.878  69.543  1.00  0.00     0.025 C  
HETATM   16  C   UNL     1      -9.308   9.576  69.998  1.00  0.00    -0.265 C  
BRANCH  15  17
HETATM   17  C   UNL     1     -11.495  10.801  69.436  1.00  0.00    -0.295 C  
BRANCH  17  18
HETATM   18  N   UNL     1     -12.221  11.570  70.408  1.00  0.00    -0.358 NA 
HETATM   19  C   UNL     1     -12.893  11.113  71.510  1.00  0.00    -0.437 A  
HETATM   20  N   UNL     1     -13.374  12.101  72.231  1.00  0.00    -0.396 NA 
HETATM   21  C   UNL     1     -13.008  13.237  71.544  1.00  0.00    -0.337 A  
HETATM   22  C   UNL     1     -13.213  14.594  71.810  1.00  0.00    -0.350 A  
HETATM   23  N   UNL     1     -12.795  15.505  70.901  1.00  0.00    -0.475 NA 
HETATM   24  N   UNL     1     -13.839  15.022  72.970  1.00  0.00    -0.539 NA 
HETATM   25  C   UNL     1     -12.157  15.056  69.804  1.00  0.00    -0.314 A  
HETATM   26  H1  UNL     1     -13.989  16.013  73.165  1.00  0.00     0.000 HD 
HETATM   27  H2  UNL     1     -13.338  14.620  73.763  1.00  0.00     0.000 HD 
HETATM   28  N   UNL     1     -11.867  13.783  69.455  1.00  0.00    -0.320 NA 
HETATM   29  C   UNL     1     -12.328  12.931  70.383  1.00  0.00    -0.258 A  
ENDBRANCH  17  18
ENDBRANCH  15  17
ENDBRANCH  14  15
ENDBRANCH  13  14
ENDBRANCH  11  13
BRANCH  11  30
HETATM   30  O   UNL     1     -10.457  10.667  65.988  1.00  0.00    -0.239 OA 
BRANCH  30  31
HETATM   31  C   UNL     1     -11.126  11.758  65.463  1.00  0.00    -0.280 A  
HETATM   32  C   UNL     1     -11.139  11.879  64.073  1.00  0.00    -0.459 A  
HETATM   33  C   UNL     1     -12.380  13.828  65.631  1.00  0.00    -0.517 A  
HETATM   34  C   UNL     1     -11.756  12.732  66.244  1.00  0.00    -0.460 A  
HETATM   35  C   UNL     1     -12.372  13.956  64.243  1.00  0.00    -0.390 A  
HETATM   36  C   UNL     1     -11.752  12.982  63.466  1.00  0.00    -0.532 A  
ENDBRANCH  30  31
ENDBRANCH  11  30
ENDBRANCH   9  11
ENDBRANCH   7   9
ENDBRANCH   5   7
ENDBRANCH   4   5
ENDBRANCH   2   4
TORSDOF 12
ENDMDL
MODEL      244
REMARK 921   NORMALIZED FREE ENERGY PREDICTED BY IDOCK:   -4.43 KCAL/MOL
REMARK 922        TOTAL FREE ENERGY PREDICTED BY IDOCK:   -9.25 KCAL/MOL
REMARK 923 INTER-LIGAND FREE ENERGY PREDICTED BY IDOCK:   -7.62 KCAL/MOL
REMARK 924 INTRA-LIGAND FREE ENERGY PREDICTED BY IDOCK:   -1.63 KCAL/MOL
REMARK 927      BINDING AFFINITY PREDICTED BY RF-SCORE:    0.00 PKD
ROOT
HETATM    1  C   UNL     1     -10.969  15.905  64.918  1.00  0.00    -0.427 C  
HETATM    2  C   UNL     1     -10.543  15.819  66.385  1.00  0.00    -0.307 C  
HETATM    3  C   UNL     1     -10.168  17.206  66.927  1.00  0.00    -0.315 C  
ENDROOT
BRANCH   2   4
HETATM    4  O   UNL     1     -11.480  15.037  67.196  1.00  0.00    -0.347 OA 
BRANCH   4   5
HETATM    5  C   UNL     1     -11.002  14.198  68.148  1.00  0.00    -0.249 C  
HETATM    6  O   UNL     1     -10.579  14.590  69.237  1.00  0.00    -0.250 OA 
BRANCH   5   7
HETATM    7  C   UNL     1     -10.990  12.681  67.803  1.00  0.00    -0.234 C  
HETATM    8  C   UNL     1     -11.682  12.465  66.458  1.00  0.00    -0.443 C  
BRANCH   7   9
HETATM    9  N   UNL     1     -11.465  11.679  68.833  1.00  0.00    -0.259 NA 
HETATM   10  H   UNL     1     -12.369  11.283  68.575  1.00  0.00     0.000 HD 
BRANCH   9  11
HETATM   11  P   UNL     1     -10.274  10.414  69.124  1.00  0.00    -0.238 P  
HETATM   12  O   UNL     1      -9.110  11.222  68.499  1.00  0.00    -0.168 OA 
BRANCH  11  13
HETATM   13  C   UNL     1     -10.146   9.174  67.674  1.00  0.00    -0.220 C  
BRANCH  13  14
HETATM   14  O   UNL     1      -8.838   8.490  67.609  1.00  0.00    -0.135 OA 
BRANCH  14  15
HETATM   15  C   UNL     1      -8.588   7.278  68.370  1.00  0.00    -0.124 C  
HETATM   16  C   UNL     1      -7.817   7.617  69.652  1.00  0.00    -0.108 C  
BRANCH  15  17
HETATM   17  C   UNL     1      -7.998   6.127  67.567  1.00  0.00    -0.106 C  
BRANCH  17  18
HETATM   18  N   UNL     1      -8.945   5.354  66.813  1.00  0.00    -0.112 NA 
HETATM   19  C   UNL     1     -10.311   5.386  66.896  1.00  0.00    -0.260 A  
HETATM   20  N   UNL     1     -10.872   4.607  65.997  1.00  0.00    -0.109 NA 
HETATM   21  C   UNL     1      -9.812   4.038  65.327  1.00  0.00    -0.197 A  
HETATM   22  C   UNL     1      -9.759   3.138  64.260  1.00  0.00    -0.156 A  
HETATM   23  N   UNL     1      -8.551   2.689  63.846  1.00  0.00    -0.086 NA 
HETATM   24  N   UNL     1     -10.909   2.691  63.626  1.00  0.00    -0.418 NA 
HETATM   25  C   UNL     1      -7.454   3.173  64.459  1.00  0.00    -0.075 A  
HETATM   26  H1  UNL     1     -10.871   2.034  62.846  1.00  0.00     0.000 HD 
HETATM   27  H2  UNL     1     -11.435   3.510  63.320  1.00  0.00     0.000 HD 
HETATM   28  N   UNL     1      -7.374   4.068  65.469  1.00  0.00    -0.075 NA 
HETATM   29  C   UNL     1      -8.603   4.454  65.846  1.00  0.00    -0.114 A  
ENDBRANCH  17  18
ENDBRANCH  15  17
ENDBRANCH  14  15
ENDBRANCH  13  14
ENDBRANCH  11  13
BRANCH  11  30
HETATM   30  O   UNL     1     -11.575   9.512  69.823  1.00  0.00    -0.092 OA 
BRANCH  30  31
HETATM   31  C   UNL     1     -11.231   8.582  70.788  1.00  0.00    -0.257 A  
HETATM   32  C   UNL     1     -11.732   7.290  70.623  1.00  0.00    -0.310 A  
HETATM   33  C   UNL     1     -10.173   7.882  72.855  1.00  0.00    -0.397 A  
HETATM   34  C   UNL     1     -10.442   8.876  71.904  1.00  0.00    -0.415 A  
HETATM   35  C   UNL     1     -10.693   6.599  72.698  1.00  0.00    -0.265 A  
HETATM   36  C   UNL     1     -11.472   6.304  71.582  1.00  0.00    -0.351 A  
ENDBRANCH  30  31
ENDBRANCH  11  30
ENDBRANCH   9  11
ENDBRANCH   7   9
ENDBRANCH   5   7
ENDBRANCH   4   5
ENDBRANCH   2   4
TORSDOF 12
ENDMDL
MODEL      245
REMARK 921   NORMALIZED FREE ENERGY PREDICTED BY IDOCK:   -4.43 KCAL/MOL
REMARK 922        TOTAL FREE ENERGY PREDICTED BY IDOCK:   -9.25 KCAL/MOL
REMARK 923 INTER-LIGAND FREE ENERGY PREDICTED BY IDOCK:   -7.91 KCAL/MOL
REMARK 924 INTRA-LIGAND FREE ENERGY PREDICTED BY IDOCK:   -1.33 KCAL/MOL
REMARK 927      BINDING AFFINITY PREDICTED BY RF-SCORE:    0.00 PKD
ROOT
HETATM    1  C   UNL     1     -13.428  10.838  71.815  1.00  0.00    -0.303 C  
HETATM    2  C   UNL     1     -12.417   9.715  72.057  1.00  0.00    -0.332 C  
HETATM    3  C   UNL     1     -13.088   8.340  71.936  1.00  0.00    -0.367 C  
ENDROOT
BRANCH   2   4
HETATM    4  O   UNL     1     -11.178   9.902  71.296  1.00  0.00    -0.361 OA 
BRANCH   4   5
HETATM    5  C   UNL     1     -10.268   8.898  71.243  1.00  0.00    -0.291 C  
HETATM    6  O   UNL     1      -9.683   8.471  72.240  1.00  0.00    -0.280 OA 
BRANCH   5   7
HETATM    7  C   UNL     1      -9.964   8.300  69.840  1.00  0.00    -0.190 C  
HETATM    8  C   UNL     1     -10.733   6.990  69.674  1.00  0.00    -0.265 C  
BRANCH   7   9
HETATM    9  N   UNL     1      -8.527   8.156  69.387  1.00  0.00    -0.126 NA 
HETATM   10  H   UNL     1      -8.390   7.296  68.856  1.00  0.00     0.000 HD 
BRANCH   9  11
HETATM   11  P   UNL     1      -7.976   9.561  68.480  1.00  0.00    -0.094 P  
HETATM   12  O   UNL     1      -7.143  10.126  69.657  1.00  0.00    -0.083 OA 
BRANCH  11  13
HETATM   13  C   UNL     1      -9.159  11.055  68.643  1.00  0.00    -0.174 C  
BRANCH  13  14
HETATM   14  O   UNL     1      -8.479  12.356  68.470  1.00  0.00    -0.150 OA 
BRANCH  14  15
HETATM   15  C   UNL     1      -9.219  13.539  68.062  1.00  0.00    -0.209 C  
HETATM   16  C   UNL     1      -9.551  13.456  66.567  1.00  0.00    -0.277 C  
BRANCH  15  17
HETATM   17  C   UNL     1      -8.603  14.861  68.498  1.00  0.00    -0.162 C  
BRANCH  17  18
HETATM   18  N   UNL     1      -9.239  16.038  67.974  1.00  0.00    -0.193 NA 
HETATM   19  C   UNL     1     -10.529  16.452  68.168  1.00  0.00    -0.302 A  
HETATM   20  N   UNL     1     -10.753  17.622  67.611  1.00  0.00    -0.358 NA 
HETATM   21  C   UNL     1      -9.556  17.955  67.018  1.00  0.00    -0.286 A  
HETATM   22  C   UNL     1      -9.158  19.078  66.289  1.00  0.00    -0.287 A  
HETATM   23  N   UNL     1      -7.914  19.101  65.756  1.00  0.00    -0.441 NA 
HETATM   24  N   UNL     1     -10.006  20.158  66.093  1.00  0.00    -0.575 NA 
HETATM   25  C   UNL     1      -7.104  18.053  65.998  1.00  0.00    -0.295 A  
HETATM   26  H1  UNL     1      -9.715  20.978  65.560  1.00  0.00     0.000 HD 
HETATM   27  H2  UNL     1     -10.324  20.475  67.008  1.00  0.00     0.000 HD 
HETATM   28  N   UNL     1      -7.358  16.934  66.714  1.00  0.00    -0.210 NA 
HETATM   29  C   UNL     1      -8.611  16.965  67.194  1.00  0.00    -0.197 A  
ENDBRANCH  17  18
ENDBRANCH  15  17
ENDBRANCH  14  15
ENDBRANCH  13  14
ENDBRANCH  11  13
BRANCH  11  30
HETATM   30  O   UNL     1      -8.905   8.929  67.164  1.00  0.00    -0.122 OA 
BRANCH  30  31
HETATM   31  C   UNL     1      -8.541   9.347  65.896  1.00  0.00    -0.141 A  
HETATM   32  C   UNL     1      -7.179   9.554  65.669  1.00  0.00    -0.094 A  
HETATM   33  C   UNL     1      -9.002  10.045  63.619  1.00  0.00    -0.280 A  
HETATM   34  C   UNL     1      -9.453   9.586  64.864  1.00  0.00    -0.230 A  
HETATM   35  C   UNL     1      -7.644  10.270  63.403  1.00  0.00    -0.112 A  
HETATM   36  C   UNL     1      -6.734  10.024  64.428  1.00  0.00    -0.128 A  
ENDBRANCH  30  31
ENDBRANCH  11  30
ENDBRANCH   9  11
ENDBRANCH   7   9
ENDBRANCH   5   7
ENDBRANCH   4   5
ENDBRANCH   2   4
TORSDOF 12
ENDMDL
MODEL      246
REMARK 921   NORMALIZED FREE ENERGY PREDICTED BY IDOCK:   -4.43 KCAL/MOL
REMARK 922        TOTAL FREE ENERGY PREDICTED BY IDOCK:   -9.25 KCAL/MOL
REMARK 923 INTER-LIGAND FREE ENERGY PREDICTED BY IDOCK:   -9.30 KCAL/MOL
REMARK 924 INTRA-LIGAND FREE ENERGY PREDICTED BY IDOCK:    0.05 KCAL/MOL
REMARK 927      BINDING AFFINITY PREDICTED BY RF-SCORE:    0.00 PKD
ROOT
HETATM    1  C   UNL     1     -12.283  13.680  66.347  1.00  0.00    -0.472 C  
HETATM    2  C   UNL     1     -11.702  12.554  65.488  1.00  0.00    -0.409 C  
HETATM    3  C   UNL     1     -12.335  12.552  64.090  1.00  0.00    -0.548 C  
ENDROOT
BRANCH   2   4
HETATM    4  O   UNL     1     -10.238  12.509  65.538  1.00  0.00    -0.269 OA 
BRANCH   4   5
HETATM    5  C   UNL     1      -9.611  11.321  65.720  1.00  0.00    -0.227 C  
HETATM    6  O   UNL     1      -9.921  10.298  65.106  1.00  0.00    -0.299 OA 
BRANCH   5   7
HETATM    7  C   UNL     1      -8.467  11.286  66.773  1.00  0.00    -0.161 C  
HETATM    8  C   UNL     1      -7.707   9.966  66.647  1.00  0.00    -0.106 C  
BRANCH   7   9
HETATM    9  N   UNL     1      -8.776  11.606  68.220  1.00  0.00    -0.159 NA 
HETATM   10  H   UNL     1      -9.335  12.456  68.300  1.00  0.00     0.000 HD 
BRANCH   9  11
HETATM   11  P   UNL     1      -9.547  10.254  69.046  1.00  0.00    -0.215 P  
HETATM   12  O   UNL     1      -8.205   9.563  69.390  1.00  0.00    -0.107 OA 
BRANCH  11  13
HETATM   13  C   UNL     1      -9.954   8.804  67.867  1.00  0.00    -0.187 C  
BRANCH  13  14
HETATM   14  O   UNL     1      -9.281   7.544  68.244  1.00  0.00    -0.139 OA 
BRANCH  14  15
HETATM   15  C   UNL     1      -9.701   6.273  67.676  1.00  0.00    -0.119 C  
HETATM   16  C   UNL     1     -11.000   6.461  66.882  1.00  0.00    -0.413 C  
BRANCH  15  17
HETATM   17  C   UNL     1      -9.726   5.110  68.658  1.00  0.00    -0.151 C  
BRANCH  17  18
HETATM   18  N   UNL     1      -9.512   5.463  70.034  1.00  0.00    -0.153 NA 
HETATM   19  C   UNL     1      -8.406   5.215  70.802  1.00  0.00    -0.113 A  
HETATM   20  N   UNL     1      -8.514   5.753  71.997  1.00  0.00    -0.126 NA 
HETATM   21  C   UNL     1      -9.755   6.351  71.994  1.00  0.00    -0.150 A  
HETATM   22  C   UNL     1     -10.434   7.092  72.964  1.00  0.00    -0.277 A  
HETATM   23  N   UNL     1     -11.697   7.504  72.702  1.00  0.00    -0.271 NA 
HETATM   24  N   UNL     1      -9.853   7.403  74.184  1.00  0.00    -0.418 NA 
HETATM   25  C   UNL     1     -12.217   7.217  71.494  1.00  0.00    -0.360 A  
HETATM   26  H1  UNL     1     -10.349   7.944  74.892  1.00  0.00     0.000 HD 
HETATM   27  H2  UNL     1      -8.966   7.872  73.996  1.00  0.00     0.000 HD 
HETATM   28  N   UNL     1     -11.649   6.546  70.466  1.00  0.00    -0.384 NA 
HETATM   29  C   UNL     1     -10.412   6.147  70.798  1.00  0.00    -0.230 A  
ENDBRANCH  17  18
ENDBRANCH  15  17
ENDBRANCH  14  15
ENDBRANCH  13  14
ENDBRANCH  11  13
BRANCH  11  30
HETATM   30  O   UNL     1     -11.047  11.028  68.662  1.00  0.00    -0.201 OA 
BRANCH  30  31
HETATM   31  C   UNL     1     -11.759  11.554  69.726  1.00  0.00    -0.353 A  
HETATM   32  C   UNL     1     -11.792  12.945  69.835  1.00  0.00    -0.373 A  
HETATM   33  C   UNL     1     -13.078  11.389  71.755  1.00  0.00    -0.523 A  
HETATM   34  C   UNL     1     -12.411  10.774  70.686  1.00  0.00    -0.461 A  
HETATM   35  C   UNL     1     -13.091  12.777  71.871  1.00  0.00    -0.474 A  
HETATM   36  C   UNL     1     -12.448  13.554  70.911  1.00  0.00    -0.448 A  
ENDBRANCH  30  31
ENDBRANCH  11  30
ENDBRANCH   9  11
ENDBRANCH   7   9
ENDBRANCH   5   7
ENDBRANCH   4   5
ENDBRANCH   2   4
TORSDOF 12
ENDMDL
MODEL      247
REMARK 921   NORMALIZED FREE ENERGY PREDICTED BY IDOCK:   -4.43 KCAL/MOL
REMARK 922        TOTAL FREE ENERGY PREDICTED BY IDOCK:   -9.24 KCAL/MOL
REMARK 923 INTER-LIGAND FREE ENERGY PREDICTED BY IDOCK:   -7.70 KCAL/MOL
REMARK 924 INTRA-LIGAND FREE ENERGY PREDICTED BY IDOCK:   -1.55 KCAL/MOL
REMARK 927      BINDING AFFINITY PREDICTED BY RF-SCORE:    0.00 PKD
ROOT
HETATM    1  C   UNL     1      -8.948  17.121  66.207  1.00  0.00    -0.262 C  
HETATM    2  C   UNL     1     -10.320  16.452  66.325  1.00  0.00    -0.329 C  
HETATM    3  C   UNL     1     -10.583  15.530  65.126  1.00  0.00    -0.455 C  
ENDROOT
BRANCH   2   4
HETATM    4  O   UNL     1     -10.550  15.872  67.651  1.00  0.00    -0.292 OA 
BRANCH   4   5
HETATM    5  C   UNL     1     -11.072  14.625  67.755  1.00  0.00    -0.298 C  
HETATM    6  O   UNL     1     -12.273  14.388  67.617  1.00  0.00    -0.328 OA 
BRANCH   5   7
HETATM    7  C   UNL     1     -10.078  13.474  68.082  1.00  0.00    -0.250 C  
HETATM    8  C   UNL     1      -8.699  14.066  68.371  1.00  0.00    -0.179 C  
BRANCH   7   9
HETATM    9  N   UNL     1      -9.982  12.286  67.149  1.00  0.00    -0.204 NA 
HETATM   10  H   UNL     1      -9.039  12.185  66.774  1.00  0.00     0.000 HD 
BRANCH   9  11
HETATM   11  P   UNL     1     -10.528  10.797  67.916  1.00  0.00    -0.235 P  
HETATM   12  O   UNL     1     -12.023  11.068  67.619  1.00  0.00    -0.583 OA 
BRANCH  11  13
HETATM   13  C   UNL     1     -10.892  11.019  69.780  1.00  0.00    -0.144 C  
BRANCH  13  14
HETATM   14  O   UNL     1     -12.162  10.392  70.202  1.00  0.00    -0.273 OA 
BRANCH  14  15
HETATM   15  C   UNL     1     -12.184   9.359  71.224  1.00  0.00    -0.345 C  
HETATM   16  C   UNL     1     -13.349   9.607  72.191  1.00  0.00    -0.545 C  
BRANCH  15  17
HETATM   17  C   UNL     1     -10.846   9.103  71.904  1.00  0.00    -0.283 C  
BRANCH  17  18
HETATM   18  N   UNL     1     -10.379   7.745  71.850  1.00  0.00    -0.201 NA 
HETATM   19  C   UNL     1      -9.958   6.960  72.890  1.00  0.00    -0.181 A  
HETATM   20  N   UNL     1      -9.680   5.737  72.494  1.00  0.00    -0.158 NA 
HETATM   21  C   UNL     1      -9.916   5.753  71.138  1.00  0.00    -0.192 A  
HETATM   22  C   UNL     1      -9.817   4.757  70.163  1.00  0.00    -0.238 A  
HETATM   23  N   UNL     1     -10.049   5.086  68.871  1.00  0.00    -0.169 NA 
HETATM   24  N   UNL     1      -9.479   3.452  70.487  1.00  0.00    -0.169 NA 
HETATM   25  C   UNL     1     -10.411   6.353  68.597  1.00  0.00    -0.223 A  
HETATM   26  H1  UNL     1      -9.407   2.724  69.775  1.00  0.00     0.000 HD 
HETATM   27  H2  UNL     1     -10.132   3.128  71.200  1.00  0.00     0.000 HD 
HETATM   28  N   UNL     1     -10.578   7.389  69.449  1.00  0.00    -0.228 NA 
HETATM   29  C   UNL     1     -10.311   7.003  70.707  1.00  0.00    -0.206 A  
ENDBRANCH  17  18
ENDBRANCH  15  17
ENDBRANCH  14  15
ENDBRANCH  13  14
ENDBRANCH  11  13
BRANCH  11  30
HETATM   30  O   UNL     1      -8.856  10.494  68.247  1.00  0.00    -0.130 OA 
BRANCH  30  31
HETATM   31  C   UNL     1      -8.113   9.948  67.215  1.00  0.00    -0.113 A  
HETATM   32  C   UNL     1      -8.679   8.870  66.533  1.00  0.00    -0.145 A  
HETATM   33  C   UNL     1      -6.141   9.768  65.813  1.00  0.00    -0.065 A  
HETATM   34  C   UNL     1      -6.843  10.403  66.848  1.00  0.00    -0.088 A  
HETATM   35  C   UNL     1      -6.702   8.679  65.149  1.00  0.00    -0.064 A  
HETATM   36  C   UNL     1      -7.969   8.231  65.510  1.00  0.00    -0.120 A  
ENDBRANCH  30  31
ENDBRANCH  11  30
ENDBRANCH   9  11
ENDBRANCH   7   9
ENDBRANCH   5   7
ENDBRANCH   4   5
ENDBRANCH   2   4
TORSDOF 12
ENDMDL
MODEL      248
REMARK 921   NORMALIZED FREE ENERGY PREDICTED BY IDOCK:   -4.41 KCAL/MOL
REMARK 922        TOTAL FREE ENERGY PREDICTED BY IDOCK:   -9.23 KCAL/MOL
REMARK 923 INTER-LIGAND FREE ENERGY PREDICTED BY IDOCK:   -7.46 KCAL/MOL
REMARK 924 INTRA-LIGAND FREE ENERGY PREDICTED BY IDOCK:   -1.77 KCAL/MOL
REMARK 927      BINDING AFFINITY PREDICTED BY RF-SCORE:    0.00 PKD
ROOT
HETATM    1  C   UNL     1     -10.954  15.452  64.888  1.00  0.00    -0.453 C  
HETATM    2  C   UNL     1     -10.365  15.705  66.278  1.00  0.00    -0.306 C  
HETATM    3  C   UNL     1     -10.243  17.211  66.553  1.00  0.00    -0.322 C  
ENDROOT
BRANCH   2   4
HETATM    4  O   UNL     1     -11.018  14.906  67.319  1.00  0.00    -0.305 OA 
BRANCH   4   5
HETATM    5  C   UNL     1     -10.275  14.069  68.084  1.00  0.00    -0.243 C  
HETATM    6  O   UNL     1      -9.331  14.455  68.777  1.00  0.00    -0.200 OA 
BRANCH   5   7
HETATM    7  C   UNL     1     -10.653  12.561  68.044  1.00  0.00    -0.223 C  
HETATM    8  C   UNL     1     -11.893  12.376  67.171  1.00  0.00    -0.361 C  
BRANCH   7   9
HETATM    9  N   UNL     1     -10.772  11.788  69.341  1.00  0.00    -0.448 NA 
HETATM   10  H   UNL     1     -11.749  11.638  69.593  1.00  0.00     0.000 HD 
BRANCH   9  11
HETATM   11  P   UNL     1      -9.884  10.268  69.288  1.00  0.00    -0.211 P  
HETATM   12  O   UNL     1      -8.548  10.941  68.887  1.00  0.00    -0.158 OA 
BRANCH  11  13
HETATM   13  C   UNL     1      -9.943   9.438  67.566  1.00  0.00    -0.199 C  
BRANCH  13  14
HETATM   14  O   UNL     1      -8.619   9.353  66.916  1.00  0.00    -0.126 OA 
BRANCH  14  15
HETATM   15  C   UNL     1      -8.494   9.354  65.468  1.00  0.00    -0.143 C  
HETATM   16  C   UNL     1      -9.757   9.954  64.836  1.00  0.00    -0.332 C  
BRANCH  15  17
HETATM   17  C   UNL     1      -8.058   8.027  64.862  1.00  0.00    -0.147 C  
BRANCH  17  18
HETATM   18  N   UNL     1      -7.601   7.042  65.804  1.00  0.00    -0.090 NA 
HETATM   19  C   UNL     1      -6.321   6.829  66.241  1.00  0.00    -0.046 A  
HETATM   20  N   UNL     1      -6.274   5.900  67.170  1.00  0.00    -0.032 NA 
HETATM   21  C   UNL     1      -7.580   5.490  67.313  1.00  0.00    -0.089 A  
HETATM   22  C   UNL     1      -8.173   4.542  68.151  1.00  0.00    -0.090 A  
HETATM   23  N   UNL     1      -9.497   4.295  68.019  1.00  0.00    -0.155 NA 
HETATM   24  N   UNL     1      -7.439   3.849  69.101  1.00  0.00    -0.053 NA 
HETATM   25  C   UNL     1     -10.187   5.013  67.113  1.00  0.00    -0.186 A  
HETATM   26  H1  UNL     1      -7.872   3.157  69.714  1.00  0.00     0.000 HD 
HETATM   27  H2  UNL     1      -6.964   4.533  69.690  1.00  0.00     0.000 HD 
HETATM   28  N   UNL     1      -9.738   5.976  66.277  1.00  0.00    -0.122 NA 
HETATM   29  C   UNL     1      -8.418   6.156  66.442  1.00  0.00    -0.123 A  
ENDBRANCH  17  18
ENDBRANCH  15  17
ENDBRANCH  14  15
ENDBRANCH  13  14
ENDBRANCH  11  13
BRANCH  11  30
HETATM   30  O   UNL     1     -11.376   9.516  69.737  1.00  0.00    -0.195 OA 
BRANCH  30  31
HETATM   31  C   UNL     1     -11.289   8.451  70.615  1.00  0.00    -0.244 A  
HETATM   32  C   UNL     1     -11.192   8.760  71.972  1.00  0.00    -0.443 A  
HETATM   33  C   UNL     1     -11.143   6.093  71.167  1.00  0.00    -0.360 A  
HETATM   34  C   UNL     1     -11.273   7.112  70.213  1.00  0.00    -0.309 A  
HETATM   35  C   UNL     1     -11.025   6.407  72.519  1.00  0.00    -0.283 A  
HETATM   36  C   UNL     1     -11.049   7.740  72.920  1.00  0.00    -0.457 A  
ENDBRANCH  30  31
ENDBRANCH  11  30
ENDBRANCH   9  11
ENDBRANCH   7   9
ENDBRANCH   5   7
ENDBRANCH   4   5
ENDBRANCH   2   4
TORSDOF 12
ENDMDL
MODEL      249
REMARK 921   NORMALIZED FREE ENERGY PREDICTED BY IDOCK:   -4.41 KCAL/MOL
REMARK 922        TOTAL FREE ENERGY PREDICTED BY IDOCK:   -9.21 KCAL/MOL
REMARK 923 INTER-LIGAND FREE ENERGY PREDICTED BY IDOCK:   -7.81 KCAL/MOL
REMARK 924 INTRA-LIGAND FREE ENERGY PREDICTED BY IDOCK:   -1.41 KCAL/MOL
REMARK 927      BINDING AFFINITY PREDICTED BY RF-SCORE:    0.00 PKD
ROOT
HETATM    1  C   UNL     1     -11.108   6.949  67.049  1.00  0.00    -0.315 C  
HETATM    2  C   UNL     1     -10.506   5.769  67.816  1.00  0.00    -0.226 C  
HETATM    3  C   UNL     1      -9.811   4.792  66.857  1.00  0.00    -0.225 C  
ENDROOT
BRANCH   2   4
HETATM    4  O   UNL     1      -9.729   6.195  68.983  1.00  0.00    -0.131 OA 
BRANCH   4   5
HETATM    5  C   UNL     1     -10.300   7.008  69.906  1.00  0.00    -0.210 C  
HETATM    6  O   UNL     1     -11.345   6.725  70.494  1.00  0.00    -0.297 OA 
BRANCH   5   7
HETATM    7  C   UNL     1      -9.580   8.358  70.192  1.00  0.00    -0.165 C  
HETATM    8  C   UNL     1      -9.572   8.614  71.698  1.00  0.00    -0.344 C  
BRANCH   7   9
HETATM    9  N   UNL     1      -9.990   9.597  69.425  1.00  0.00    -0.185 NA 
HETATM   10  H   UNL     1     -10.098  10.399  70.047  1.00  0.00     0.000 HD 
BRANCH   9  11
HETATM   11  P   UNL     1      -8.879   9.956  68.106  1.00  0.00    -0.118 P  
HETATM   12  O   UNL     1      -7.949   8.760  68.424  1.00  0.00    -0.106 OA 
BRANCH  11  13
HETATM   13  C   UNL     1      -7.474  11.144  68.628  1.00  0.00    -0.119 C  
BRANCH  13  14
HETATM   14  O   UNL     1      -7.919  12.546  68.767  1.00  0.00    -0.065 OA 
BRANCH  14  15
HETATM   15  C   UNL     1      -6.985  13.647  68.605  1.00  0.00    -0.103 C  
HETATM   16  C   UNL     1      -5.622  13.112  68.148  1.00  0.00    -0.097 C  
BRANCH  15  17
HETATM   17  C   UNL     1      -6.920  14.609  69.784  1.00  0.00    -0.130 C  
BRANCH  17  18
HETATM   18  N   UNL     1      -7.289  15.966  69.491  1.00  0.00    -0.206 NA 
HETATM   19  C   UNL     1      -6.477  17.068  69.451  1.00  0.00    -0.236 A  
HETATM   20  N   UNL     1      -7.132  18.141  69.065  1.00  0.00    -0.262 NA 
HETATM   21  C   UNL     1      -8.423  17.704  68.871  1.00  0.00    -0.127 A  
HETATM   22  C   UNL     1      -9.578  18.368  68.448  1.00  0.00    -0.345 A  
HETATM   23  N   UNL     1     -10.746  17.686  68.419  1.00  0.00    -0.301 NA 
HETATM   24  N   UNL     1      -9.554  19.702  68.071  1.00  0.00    -0.353 NA 
HETATM   25  C   UNL     1     -10.726  16.383  68.756  1.00  0.00    -0.321 A  
HETATM   26  H1  UNL     1     -10.397  20.187  67.762  1.00  0.00     0.000 HD 
HETATM   27  H2  UNL     1      -8.848  19.809  67.343  1.00  0.00     0.000 HD 
HETATM   28  N   UNL     1      -9.675  15.625  69.141  1.00  0.00    -0.231 NA 
HETATM   29  C   UNL     1      -8.555  16.364  69.172  1.00  0.00    -0.182 A  
ENDBRANCH  17  18
ENDBRANCH  15  17
ENDBRANCH  14  15
ENDBRANCH  13  14
ENDBRANCH  11  13
BRANCH  11  30
HETATM   30  O   UNL     1      -9.919  11.293  67.750  1.00  0.00    -0.172 OA 
BRANCH  30  31
HETATM   31  C   UNL     1     -10.346  11.409  66.440  1.00  0.00    -0.242 A  
HETATM   32  C   UNL     1      -9.734  10.576  65.502  1.00  0.00    -0.298 A  
HETATM   33  C   UNL     1     -11.671  12.395  64.662  1.00  0.00    -0.426 A  
HETATM   34  C   UNL     1     -11.324  12.315  66.018  1.00  0.00    -0.398 A  
HETATM   35  C   UNL     1     -11.042  11.575  63.727  1.00  0.00    -0.471 A  
HETATM   36  C   UNL     1     -10.074  10.668  64.147  1.00  0.00    -0.402 A  
ENDBRANCH  30  31
ENDBRANCH  11  30
ENDBRANCH   9  11
ENDBRANCH   7   9
ENDBRANCH   5   7
ENDBRANCH   4   5
ENDBRANCH   2   4
TORSDOF 12
ENDMDL
MODEL      250
REMARK 921   NORMALIZED FREE ENERGY PREDICTED BY IDOCK:   -4.40 KCAL/MOL
REMARK 922        TOTAL FREE ENERGY PREDICTED BY IDOCK:   -9.20 KCAL/MOL
REMARK 923 INTER-LIGAND FREE ENERGY PREDICTED BY IDOCK:   -8.46 KCAL/MOL
REMARK 924 INTRA-LIGAND FREE ENERGY PREDICTED BY IDOCK:   -0.74 KCAL/MOL
REMARK 927      BINDING AFFINITY PREDICTED BY RF-SCORE:    0.00 PKD
ROOT
HETATM    1  C   UNL     1      -8.054  11.557  66.548  1.00  0.00    -0.112 C  
HETATM    2  C   UNL     1      -8.509  10.405  67.447  1.00  0.00    -0.121 C  
HETATM    3  C   UNL     1      -8.674  10.877  68.899  1.00  0.00    -0.144 C  
ENDROOT
BRANCH   2   4
HETATM    4  O   UNL     1      -9.633   9.658  66.876  1.00  0.00    -0.153 OA 
BRANCH   4   5
HETATM    5  C   UNL     1      -9.496   8.334  66.621  1.00  0.00    -0.209 C  
HETATM    6  O   UNL     1      -8.901   7.899  65.633  1.00  0.00    -0.155 OA 
BRANCH   5   7
HETATM    7  C   UNL     1     -10.149   7.353  67.637  1.00  0.00    -0.186 C  
HETATM    8  C   UNL     1     -11.020   6.351  66.880  1.00  0.00    -0.413 C  
BRANCH   7   9
HETATM    9  N   UNL     1     -10.872   7.906  68.847  1.00  0.00    -0.418 NA 
HETATM   10  H   UNL     1     -11.868   8.023  68.662  1.00  0.00     0.000 HD 
BRANCH   9  11
HETATM   11  P   UNL     1     -10.599   6.926  70.285  1.00  0.00    -0.239 P  
HETATM   12  O   UNL     1     -11.999   6.268  70.230  1.00  0.00    -0.273 OA 
BRANCH  11  13
HETATM   13  C   UNL     1     -11.119   7.817  71.895  1.00  0.00    -0.257 C  
BRANCH  13  14
HETATM   14  O   UNL     1     -11.921   9.034  71.652  1.00  0.00    -0.309 OA 
BRANCH  14  15
HETATM   15  C   UNL     1     -13.272   9.156  72.174  1.00  0.00    -0.458 C  
HETATM   16  C   UNL     1     -14.217   8.230  71.396  1.00  0.00    -0.427 C  
BRANCH  15  17
HETATM   17  C   UNL     1     -13.774  10.585  72.324  1.00  0.00     0.156 C  
BRANCH  17  18
HETATM   18  N   UNL     1     -13.094  11.563  71.521  1.00  0.00    -0.398 NA 
HETATM   19  C   UNL     1     -12.206  11.343  70.503  1.00  0.00    -0.386 A  
HETATM   20  N   UNL     1     -11.839  12.466  69.926  1.00  0.00    -0.328 NA 
HETATM   21  C   UNL     1     -12.510  13.446  70.624  1.00  0.00    -0.311 A  
HETATM   22  C   UNL     1     -12.545  14.835  70.479  1.00  0.00    -0.359 A  
HETATM   23  N   UNL     1     -13.252  15.564  71.374  1.00  0.00    -0.495 NA 
HETATM   24  N   UNL     1     -11.869  15.478  69.454  1.00  0.00    -0.366 NA 
HETATM   25  C   UNL     1     -13.927  14.905  72.334  1.00  0.00    -0.481 A  
HETATM   26  H1  UNL     1     -11.894  16.493  69.348  1.00  0.00     0.000 HD 
HETATM   27  H2  UNL     1     -12.171  15.064  68.572  1.00  0.00     0.000 HD 
HETATM   28  N   UNL     1     -14.002  13.573  72.553  1.00  0.00    -0.766 NA 
HETATM   29  C   UNL     1     -13.263  12.911  71.649  1.00  0.00    -0.324 A  
ENDBRANCH  17  18
ENDBRANCH  15  17
ENDBRANCH  14  15
ENDBRANCH  13  14
ENDBRANCH  11  13
BRANCH  11  30
HETATM   30  O   UNL     1      -9.034   7.661  70.346  1.00  0.00    -0.149 OA 
BRANCH  30  31
HETATM   31  C   UNL     1      -7.958   6.807  70.514  1.00  0.00    -0.114 A  
HETATM   32  C   UNL     1      -7.642   6.444  71.824  1.00  0.00    -0.095 A  
HETATM   33  C   UNL     1      -6.082   5.489  69.721  1.00  0.00    -0.022 A  
HETATM   34  C   UNL     1      -7.179   6.321  69.459  1.00  0.00    -0.078 A  
HETATM   35  C   UNL     1      -5.757   5.146  71.032  1.00  0.00    -0.012 A  
HETATM   36  C   UNL     1      -6.537   5.624  72.082  1.00  0.00    -0.058 A  
ENDBRANCH  30  31
ENDBRANCH  11  30
ENDBRANCH   9  11
ENDBRANCH   7   9
ENDBRANCH   5   7
ENDBRANCH   4   5
ENDBRANCH   2   4
TORSDOF 12
ENDMDL
MODEL      251
REMARK 921   NORMALIZED FREE ENERGY PREDICTED BY IDOCK:   -4.40 KCAL/MOL
REMARK 922        TOTAL FREE ENERGY PREDICTED BY IDOCK:   -9.20 KCAL/MOL
REMARK 923 INTER-LIGAND FREE ENERGY PREDICTED BY IDOCK:   -7.79 KCAL/MOL
REMARK 924 INTRA-LIGAND FREE ENERGY PREDICTED BY IDOCK:   -1.40 KCAL/MOL
REMARK 927      BINDING AFFINITY PREDICTED BY RF-SCORE:    0.00 PKD
ROOT
HETATM    1  C   UNL     1      -8.954  11.934  67.483  1.00  0.00    -0.171 C  
HETATM    2  C   UNL     1      -7.596  12.639  67.522  1.00  0.00    -0.160 C  
HETATM    3  C   UNL     1      -7.771  14.164  67.492  1.00  0.00    -0.201 C  
ENDROOT
BRANCH   2   4
HETATM    4  O   UNL     1      -6.717  12.108  68.568  1.00  0.00    -0.061 OA 
BRANCH   4   5
HETATM    5  C   UNL     1      -6.312  10.816  68.508  1.00  0.00    -0.050 C  
HETATM    6  O   UNL     1      -5.759  10.332  67.518  1.00  0.00    -0.045 OA 
BRANCH   5   7
HETATM    7  C   UNL     1      -6.591   9.934  69.759  1.00  0.00    -0.066 C  
HETATM    8  C   UNL     1      -6.304   8.473  69.419  1.00  0.00    -0.037 C  
BRANCH   7   9
HETATM    9  N   UNL     1      -7.907  10.080  70.493  1.00  0.00    -0.426 NA 
HETATM   10  H   UNL     1      -8.572  10.636  69.956  1.00  0.00     0.000 HD 
BRANCH   9  11
HETATM   11  P   UNL     1      -8.592   8.519  70.937  1.00  0.00    -0.192 P  
HETATM   12  O   UNL     1      -9.474   8.427  69.668  1.00  0.00    -0.164 OA 
BRANCH  11  13
HETATM   13  C   UNL     1     -10.182   8.683  71.988  1.00  0.00    -0.337 C  
BRANCH  13  14
HETATM   14  O   UNL     1     -11.391   8.932  71.177  1.00  0.00    -0.257 OA 
BRANCH  14  15
HETATM   15  C   UNL     1     -12.472   9.763  71.681  1.00  0.00    -0.410 C  
HETATM   16  C   UNL     1     -13.610   8.878  72.205  1.00  0.00    -0.513 C  
BRANCH  15  17
HETATM   17  C   UNL     1     -12.920  10.871  70.738  1.00  0.00    -0.222 C  
BRANCH  17  18
HETATM   18  N   UNL     1     -12.936  12.192  71.304  1.00  0.00    -0.284 NA 
HETATM   19  C   UNL     1     -13.564  12.608  72.447  1.00  0.00    -0.333 A  
HETATM   20  N   UNL     1     -13.298  13.867  72.717  1.00  0.00    -0.617 NA 
HETATM   21  C   UNL     1     -12.480  14.274  71.686  1.00  0.00    -0.339 A  
HETATM   22  C   UNL     1     -11.857  15.495  71.418  1.00  0.00    -0.401 A  
HETATM   23  N   UNL     1     -11.155  15.629  70.269  1.00  0.00    -0.316 NA 
HETATM   24  N   UNL     1     -11.949  16.568  72.292  1.00  0.00    -0.620 NA 
HETATM   25  C   UNL     1     -11.055  14.556  69.462  1.00  0.00    -0.253 A  
HETATM   26  H1  UNL     1     -11.494  17.460  72.096  1.00  0.00     0.000 HD 
HETATM   27  H2  UNL     1     -11.636  16.252  73.209  1.00  0.00     0.000 HD 
HETATM   28  N   UNL     1     -11.576  13.319  69.629  1.00  0.00    -0.281 NA 
HETATM   29  C   UNL     1     -12.276  13.261  70.772  1.00  0.00    -0.308 A  
ENDBRANCH  17  18
ENDBRANCH  15  17
ENDBRANCH  14  15
ENDBRANCH  13  14
ENDBRANCH  11  13
BRANCH  11  30
HETATM   30  O   UNL     1      -7.606   8.621  72.355  1.00  0.00    -0.296 OA 
BRANCH  30  31
HETATM   31  C   UNL     1      -7.163   7.423  72.885  1.00  0.00    -0.073 A  
HETATM   32  C   UNL     1      -6.279   7.499  73.963  1.00  0.00    -0.076 A  
HETATM   33  C   UNL     1      -7.006   5.003  72.960  1.00  0.00    -0.078 A  
HETATM   34  C   UNL     1      -7.533   6.169  72.388  1.00  0.00    -0.094 A  
HETATM   35  C   UNL     1      -6.108   5.085  74.023  1.00  0.00    -0.054 A  
HETATM   36  C   UNL     1      -5.746   6.333  74.522  1.00  0.00    -0.059 A  
ENDBRANCH  30  31
ENDBRANCH  11  30
ENDBRANCH   9  11
ENDBRANCH   7   9
ENDBRANCH   5   7
ENDBRANCH   4   5
ENDBRANCH   2   4
TORSDOF 12
ENDMDL
MODEL      252
REMARK 921   NORMALIZED FREE ENERGY PREDICTED BY IDOCK:   -4.39 KCAL/MOL
REMARK 922        TOTAL FREE ENERGY PREDICTED BY IDOCK:   -9.18 KCAL/MOL
REMARK 923 INTER-LIGAND FREE ENERGY PREDICTED BY IDOCK:   -7.70 KCAL/MOL
REMARK 924 INTRA-LIGAND FREE ENERGY PREDICTED BY IDOCK:   -1.48 KCAL/MOL
REMARK 927      BINDING AFFINITY PREDICTED BY RF-SCORE:    0.00 PKD
ROOT
HETATM    1  C   UNL     1      -8.952   2.324  73.199  1.00  0.00    -0.076 C  
HETATM    2  C   UNL     1      -7.896   3.407  72.966  1.00  0.00    -0.065 C  
HETATM    3  C   UNL     1      -6.484   2.855  73.206  1.00  0.00    -0.021 C  
ENDROOT
BRANCH   2   4
HETATM    4  O   UNL     1      -8.104   4.133  71.710  1.00  0.00    -0.086 OA 
BRANCH   4   5
HETATM    5  C   UNL     1      -8.526   5.420  71.743  1.00  0.00    -0.127 C  
HETATM    6  O   UNL     1      -8.401   6.142  72.735  1.00  0.00    -0.117 OA 
BRANCH   5   7
HETATM    7  C   UNL     1      -9.209   5.968  70.457  1.00  0.00    -0.156 C  
HETATM    8  C   UNL     1     -10.199   4.929  69.932  1.00  0.00    -0.299 C  
BRANCH   7   9
HETATM    9  N   UNL     1      -8.354   6.526  69.340  1.00  0.00    -0.122 NA 
HETATM   10  H   UNL     1      -8.451   5.974  68.488  1.00  0.00     0.000 HD 
BRANCH   9  11
HETATM   11  P   UNL     1      -8.690   8.229  69.039  1.00  0.00    -0.143 P  
HETATM   12  O   UNL     1      -8.078   8.696  70.382  1.00  0.00    -0.091 OA 
BRANCH  11  13
HETATM   13  C   UNL     1     -10.412   8.765  69.676  1.00  0.00    -0.220 C  
BRANCH  13  14
HETATM   14  O   UNL     1     -10.355   9.497  70.958  1.00  0.00    -0.298 OA 
BRANCH  14  15
HETATM   15  C   UNL     1     -11.568   9.818  71.691  1.00  0.00    -0.274 C  
HETATM   16  C   UNL     1     -12.076   8.573  72.428  1.00  0.00    -0.436 C  
BRANCH  15  17
HETATM   17  C   UNL     1     -12.630  10.549  70.882  1.00  0.00    -0.398 C  
BRANCH  17  18
HETATM   18  N   UNL     1     -12.610  11.982  70.992  1.00  0.00    -0.336 NA 
HETATM   19  C   UNL     1     -13.163  12.756  71.977  1.00  0.00    -0.436 A  
HETATM   20  N   UNL     1     -12.881  14.029  71.809  1.00  0.00    -0.334 NA 
HETATM   21  C   UNL     1     -12.133  14.066  70.653  1.00  0.00    -0.354 A  
HETATM   22  C   UNL     1     -11.530  15.124  69.967  1.00  0.00    -0.286 A  
HETATM   23  N   UNL     1     -10.905  14.866  68.795  1.00  0.00    -0.243 NA 
HETATM   24  N   UNL     1     -11.566  16.422  70.452  1.00  0.00    -0.456 NA 
HETATM   25  C   UNL     1     -10.857  13.588  68.372  1.00  0.00    -0.267 A  
HETATM   26  H1  UNL     1     -11.126  17.194  69.951  1.00  0.00     0.000 HD 
HETATM   27  H2  UNL     1     -11.193  16.412  71.401  1.00  0.00     0.000 HD 
HETATM   28  N   UNL     1     -11.364  12.482  68.961  1.00  0.00    -0.273 NA 
HETATM   29  C   UNL     1     -11.988  12.809  70.103  1.00  0.00    -0.296 A  
ENDBRANCH  17  18
ENDBRANCH  15  17
ENDBRANCH  14  15
ENDBRANCH  13  14
ENDBRANCH  11  13
BRANCH  11  30
HETATM   30  O   UNL     1      -9.374   7.707  67.537  1.00  0.00    -0.136 OA 
BRANCH  30  31
HETATM   31  C   UNL     1      -9.211   8.558  66.457  1.00  0.00    -0.190 A  
HETATM   32  C   UNL     1      -8.209   8.229  65.543  1.00  0.00    -0.138 A  
HETATM   33  C   UNL     1      -9.714  10.542  65.156  1.00  0.00    -0.341 A  
HETATM   34  C   UNL     1      -9.971   9.714  66.258  1.00  0.00    -0.335 A  
HETATM   35  C   UNL     1      -8.699  10.221  64.257  1.00  0.00    -0.217 A  
HETATM   36  C   UNL     1      -7.947   9.066  64.452  1.00  0.00    -0.133 A  
ENDBRANCH  30  31
ENDBRANCH  11  30
ENDBRANCH   9  11
ENDBRANCH   7   9
ENDBRANCH   5   7
ENDBRANCH   4   5
ENDBRANCH   2   4
TORSDOF 12
ENDMDL
MODEL      253
REMARK 921   NORMALIZED FREE ENERGY PREDICTED BY IDOCK:   -4.38 KCAL/MOL
REMARK 922        TOTAL FREE ENERGY PREDICTED BY IDOCK:   -9.17 KCAL/MOL
REMARK 923 INTER-LIGAND FREE ENERGY PREDICTED BY IDOCK:   -8.59 KCAL/MOL
REMARK 924 INTRA-LIGAND FREE ENERGY PREDICTED BY IDOCK:   -0.58 KCAL/MOL
REMARK 927      BINDING AFFINITY PREDICTED BY RF-SCORE:    0.00 PKD
ROOT
HETATM    1  C   UNL     1      -9.331   6.388  74.315  1.00  0.00    -0.205 C  
HETATM    2  C   UNL     1      -9.977   6.716  72.967  1.00  0.00    -0.174 C  
HETATM    3  C   UNL     1     -11.040   5.671  72.602  1.00  0.00    -0.331 C  
ENDROOT
BRANCH   2   4
HETATM    4  O   UNL     1     -10.386   8.120  72.867  1.00  0.00    -0.318 OA 
BRANCH   4   5
HETATM    5  C   UNL     1      -9.894   8.890  71.866  1.00  0.00    -0.294 C  
HETATM    6  O   UNL     1      -8.688   9.017  71.648  1.00  0.00    -0.331 OA 
BRANCH   5   7
HETATM    7  C   UNL     1     -10.933   9.644  70.986  1.00  0.00    -0.361 C  
HETATM    8  C   UNL     1     -12.243   9.780  71.761  1.00  0.00    -0.449 C  
BRANCH   7   9
HETATM    9  N   UNL     1     -11.179   9.184  69.565  1.00  0.00    -0.437 NA 
HETATM   10  H   UNL     1     -12.142   8.873  69.438  1.00  0.00     0.000 HD 
BRANCH   9  11
HETATM   11  P   UNL     1     -10.746  10.419  68.387  1.00  0.00    -0.261 P  
HETATM   12  O   UNL     1      -9.435   9.710  67.968  1.00  0.00    -0.132 OA 
BRANCH  11  13
HETATM   13  C   UNL     1      -9.700  11.829  69.146  1.00  0.00     0.266 C  
BRANCH  13  14
HETATM   14  O   UNL     1      -8.698  12.379  68.210  1.00  0.00    -0.183 OA 
BRANCH  14  15
HETATM   15  C   UNL     1      -9.089  13.285  67.143  1.00  0.00    -0.231 C  
HETATM   16  C   UNL     1      -9.267  12.504  65.835  1.00  0.00     0.044 C  
BRANCH  15  17
HETATM   17  C   UNL     1      -8.229  14.535  67.018  1.00  0.00    -0.135 C  
BRANCH  17  18
HETATM   18  N   UNL     1      -8.676  15.668  67.779  1.00  0.00    -0.168 NA 
HETATM   19  C   UNL     1      -8.505  15.901  69.118  1.00  0.00    -0.254 A  
HETATM   20  N   UNL     1      -8.968  17.080  69.469  1.00  0.00     0.276 NA 
HETATM   21  C   UNL     1      -9.475  17.611  68.304  1.00  0.00    -0.295 A  
HETATM   22  C   UNL     1     -10.085  18.838  68.027  1.00  0.00    -0.369 A  
HETATM   23  N   UNL     1     -10.557  19.062  66.779  1.00  0.00    -0.424 NA 
HETATM   24  N   UNL     1     -10.224  19.818  68.998  1.00  0.00    -0.615 NA 
HETATM   25  C   UNL     1     -10.372  18.103  65.852  1.00  0.00    -0.277 A  
HETATM   26  H1  UNL     1     -10.669  20.713  68.796  1.00  0.00     0.000 HD 
HETATM   27  H2  UNL     1      -9.299  20.008  69.385  1.00  0.00     0.000 HD 
HETATM   28  N   UNL     1      -9.768  16.901  65.986  1.00  0.00    -0.461 NA 
HETATM   29  C   UNL     1      -9.344  16.733  67.248  1.00  0.00    -0.231 A  
ENDBRANCH  17  18
ENDBRANCH  15  17
ENDBRANCH  14  15
ENDBRANCH  13  14
ENDBRANCH  11  13
BRANCH  11  30
HETATM   30  O   UNL     1     -12.212  11.212  68.854  1.00  0.00    -0.522 OA 
BRANCH  30  31
HETATM   31  C   UNL     1     -12.132  12.577  69.068  1.00  0.00    -0.135 A  
HETATM   32  C   UNL     1     -12.064  13.003  70.395  1.00  0.00    -0.391 A  
HETATM   33  C   UNL     1     -12.095  14.893  68.348  1.00  0.00    -0.167 A  
HETATM   34  C   UNL     1     -12.140  13.526  68.041  1.00  0.00    -0.298 A  
HETATM   35  C   UNL     1     -12.048  15.315  69.675  1.00  0.00    -0.342 A  
HETATM   36  C   UNL     1     -12.032  14.369  70.697  1.00  0.00    -0.393 A  
ENDBRANCH  30  31
ENDBRANCH  11  30
ENDBRANCH   9  11
ENDBRANCH   7   9
ENDBRANCH   5   7
ENDBRANCH   4   5
ENDBRANCH   2   4
TORSDOF 12
ENDMDL
MODEL      254
REMARK 921   NORMALIZED FREE ENERGY PREDICTED BY IDOCK:   -4.38 KCAL/MOL
REMARK 922        TOTAL FREE ENERGY PREDICTED BY IDOCK:   -9.16 KCAL/MOL
REMARK 923 INTER-LIGAND FREE ENERGY PREDICTED BY IDOCK:   -7.55 KCAL/MOL
REMARK 924 INTRA-LIGAND FREE ENERGY PREDICTED BY IDOCK:   -1.61 KCAL/MOL
REMARK 927      BINDING AFFINITY PREDICTED BY RF-SCORE:    0.00 PKD
ROOT
HETATM    1  C   UNL     1      -5.334  10.551  69.151  1.00  0.00    -0.038 C  
HETATM    2  C   UNL     1      -5.625  11.870  68.432  1.00  0.00    -0.049 C  
HETATM    3  C   UNL     1      -5.532  11.694  66.909  1.00  0.00    -0.129 C  
ENDROOT
BRANCH   2   4
HETATM    4  O   UNL     1      -6.832  12.530  68.936  1.00  0.00    -0.092 OA 
BRANCH   4   5
HETATM    5  C   UNL     1      -6.766  13.819  69.352  1.00  0.00    -0.079 C  
HETATM    6  O   UNL     1      -6.262  14.150  70.427  1.00  0.00    -0.171 OA 
BRANCH   5   7
HETATM    7  C   UNL     1      -7.380  14.893  68.410  1.00  0.00    -0.114 C  
HETATM    8  C   UNL     1      -6.255  15.615  67.669  1.00  0.00    -0.179 C  
BRANCH   7   9
HETATM    9  N   UNL     1      -8.394  15.874  68.960  1.00  0.00    -0.225 NA 
HETATM   10  H   UNL     1      -8.141  16.835  68.732  1.00  0.00     0.000 HD 
BRANCH   9  11
HETATM   11  P   UNL     1     -10.031  15.499  68.428  1.00  0.00    -0.222 P  
HETATM   12  O   UNL     1     -10.434  14.853  69.776  1.00  0.00    -0.212 OA 
BRANCH  11  13
HETATM   13  C   UNL     1     -10.163  13.779  67.602  1.00  0.00    -0.242 C  
BRANCH  13  14
HETATM   14  O   UNL     1     -10.171  12.667  68.575  1.00  0.00    -0.229 OA 
BRANCH  14  15
HETATM   15  C   UNL     1     -10.623  11.340  68.191  1.00  0.00    -0.192 C  
HETATM   16  C   UNL     1     -11.855  10.950  69.017  1.00  0.00    -0.370 C  
BRANCH  15  17
HETATM   17  C   UNL     1      -9.532  10.280  68.150  1.00  0.00    -0.147 C  
BRANCH  17  18
HETATM   18  N   UNL     1      -9.527   9.358  69.252  1.00  0.00    -0.158 NA 
HETATM   19  C   UNL     1      -9.070   9.573  70.524  1.00  0.00    -0.219 A  
HETATM   20  N   UNL     1      -9.298   8.539  71.304  1.00  0.00    -0.183 NA 
HETATM   21  C   UNL     1      -9.910   7.618  70.483  1.00  0.00    -0.183 A  
HETATM   22  C   UNL     1     -10.404   6.334  70.728  1.00  0.00    -0.206 A  
HETATM   23  N   UNL     1     -10.900   5.619  69.691  1.00  0.00    -0.337 NA 
HETATM   24  N   UNL     1     -10.390   5.778  71.998  1.00  0.00    -0.201 NA 
HETATM   25  C   UNL     1     -10.933   6.204  68.479  1.00  0.00    -0.320 A  
HETATM   26  H1  UNL     1     -10.751   4.841  72.177  1.00  0.00     0.000 HD 
HETATM   27  H2  UNL     1     -10.868   6.423  72.627  1.00  0.00     0.000 HD 
HETATM   28  N   UNL     1     -10.524   7.443  68.126  1.00  0.00    -0.202 NA 
HETATM   29  C   UNL     1     -10.024   8.088  69.191  1.00  0.00    -0.188 A  
ENDBRANCH  17  18
ENDBRANCH  15  17
ENDBRANCH  14  15
ENDBRANCH  13  14
ENDBRANCH  11  13
BRANCH  11  30
HETATM   30  O   UNL     1      -9.580  16.223  66.922  1.00  0.00    -0.222 OA 
BRANCH  30  31
HETATM   31  C   UNL     1      -9.561  17.606  66.884  1.00  0.00    -0.286 A  
HETATM   32  C   UNL     1     -10.693  18.264  67.367  1.00  0.00    -0.377 A  
HETATM   33  C   UNL     1      -8.575  19.754  66.339  1.00  0.00    -0.398 A  
HETATM   34  C   UNL     1      -8.496  18.355  66.376  1.00  0.00    -0.264 A  
HETATM   35  C   UNL     1      -9.715  20.406  66.804  1.00  0.00    -0.528 A  
HETATM   36  C   UNL     1     -10.773  19.660  67.316  1.00  0.00    -0.583 A  
ENDBRANCH  30  31
ENDBRANCH  11  30
ENDBRANCH   9  11
ENDBRANCH   7   9
ENDBRANCH   5   7
ENDBRANCH   4   5
ENDBRANCH   2   4
TORSDOF 12
ENDMDL
MODEL      255
REMARK 921   NORMALIZED FREE ENERGY PREDICTED BY IDOCK:   -4.37 KCAL/MOL
REMARK 922        TOTAL FREE ENERGY PREDICTED BY IDOCK:   -9.15 KCAL/MOL
REMARK 923 INTER-LIGAND FREE ENERGY PREDICTED BY IDOCK:   -9.29 KCAL/MOL
REMARK 924 INTRA-LIGAND FREE ENERGY PREDICTED BY IDOCK:    0.13 KCAL/MOL
REMARK 927      BINDING AFFINITY PREDICTED BY RF-SCORE:    0.00 PKD
ROOT
HETATM    1  C   UNL     1     -10.894   5.819  66.636  1.00  0.00    -0.290 C  
HETATM    2  C   UNL     1     -10.478   5.772  68.108  1.00  0.00    -0.217 C  
HETATM    3  C   UNL     1      -9.574   4.562  68.381  1.00  0.00    -0.207 C  
ENDROOT
BRANCH   2   4
HETATM    4  O   UNL     1      -9.996   7.066  68.596  1.00  0.00    -0.149 OA 
BRANCH   4   5
HETATM    5  C   UNL     1     -10.521   7.592  69.731  1.00  0.00    -0.230 C  
HETATM    6  O   UNL     1     -11.088   6.908  70.585  1.00  0.00    -0.250 OA 
BRANCH   5   7
HETATM    7  C   UNL     1     -10.395   9.131  69.915  1.00  0.00    -0.212 C  
HETATM    8  C   UNL     1     -10.374   9.459  71.407  1.00  0.00    -0.326 C  
BRANCH   7   9
HETATM    9  N   UNL     1     -11.333  10.050  69.162  1.00  0.00    -0.428 NA 
HETATM   10  H   UNL     1     -11.848  10.657  69.800  1.00  0.00     0.000 HD 
BRANCH   9  11
HETATM   11  P   UNL     1     -10.493  10.987  67.929  1.00  0.00    -0.223 P  
HETATM   12  O   UNL     1      -9.213  10.118  67.992  1.00  0.00    -0.137 OA 
BRANCH  11  13
HETATM   13  C   UNL     1      -9.498  12.447  68.662  1.00  0.00    -0.011 C  
BRANCH  13  14
HETATM   14  O   UNL     1      -8.983  13.373  67.632  1.00  0.00    -0.181 OA 
BRANCH  14  15
HETATM   15  C   UNL     1      -8.005  14.394  67.966  1.00  0.00    -0.139 C  
HETATM   16  C   UNL     1      -6.668  13.735  68.331  1.00  0.00    -0.100 C  
BRANCH  15  17
HETATM   17  C   UNL     1      -8.484  15.439  68.964  1.00  0.00    -0.229 C  
BRANCH  17  18
HETATM   18  N   UNL     1      -8.048  16.783  68.705  1.00  0.00    -0.247 NA 
HETATM   19  C   UNL     1      -6.789  17.300  68.854  1.00  0.00    -0.226 A  
HETATM   20  N   UNL     1      -6.725  18.548  68.443  1.00  0.00    -0.233 NA 
HETATM   21  C   UNL     1      -8.007  18.842  68.035  1.00  0.00    -0.281 A  
HETATM   22  C   UNL     1      -8.569  19.999  67.489  1.00  0.00    -0.340 A  
HETATM   23  N   UNL     1      -9.900  20.023  67.246  1.00  0.00    -0.399 NA 
HETATM   24  N   UNL     1      -7.801  21.117  67.203  1.00  0.00    -0.675 NA 
HETATM   25  C   UNL     1     -10.609  18.907  67.501  1.00  0.00    -0.451 A  
HETATM   26  H1  UNL     1      -8.211  21.962  66.805  1.00  0.00     0.000 HD 
HETATM   27  H2  UNL     1      -7.036  20.824  66.595  1.00  0.00     0.000 HD 
HETATM   28  N   UNL     1     -10.177  17.722  67.989  1.00  0.00    -0.356 NA 
HETATM   29  C   UNL     1      -8.858  17.773  68.229  1.00  0.00    -0.277 A  
ENDBRANCH  17  18
ENDBRANCH  15  17
ENDBRANCH  14  15
ENDBRANCH  13  14
ENDBRANCH  11  13
BRANCH  11  30
HETATM   30  O   UNL     1     -11.925  11.957  67.858  1.00  0.00    -0.556 OA 
BRANCH  30  31
HETATM   31  C   UNL     1     -12.072  12.911  68.850  1.00  0.00    -0.142 A  
HETATM   32  C   UNL     1     -11.902  14.243  68.472  1.00  0.00    -0.382 A  
HETATM   33  C   UNL     1     -12.449  13.633  71.135  1.00  0.00    -0.442 A  
HETATM   34  C   UNL     1     -12.354  12.606  70.185  1.00  0.00    -0.222 A  
HETATM   35  C   UNL     1     -12.258  14.961  70.757  1.00  0.00    -0.387 A  
HETATM   36  C   UNL     1     -11.985  15.264  69.426  1.00  0.00    -0.342 A  
ENDBRANCH  30  31
ENDBRANCH  11  30
ENDBRANCH   9  11
ENDBRANCH   7   9
ENDBRANCH   5   7
ENDBRANCH   4   5
ENDBRANCH   2   4
TORSDOF 12
ENDMDL
MODEL      256
REMARK 921   NORMALIZED FREE ENERGY PREDICTED BY IDOCK:   -4.35 KCAL/MOL
REMARK 922        TOTAL FREE ENERGY PREDICTED BY IDOCK:   -9.12 KCAL/MOL
REMARK 923 INTER-LIGAND FREE ENERGY PREDICTED BY IDOCK:   -8.09 KCAL/MOL
REMARK 924 INTRA-LIGAND FREE ENERGY PREDICTED BY IDOCK:   -1.03 KCAL/MOL
REMARK 927      BINDING AFFINITY PREDICTED BY RF-SCORE:    0.00 PKD
ROOT
HETATM    1  C   UNL     1      -9.668   7.894  66.225  1.00  0.00    -0.170 C  
HETATM    2  C   UNL     1      -9.466   9.301  66.792  1.00  0.00    -0.175 C  
HETATM    3  C   UNL     1     -10.752   9.812  67.456  1.00  0.00    -0.327 C  
ENDROOT
BRANCH   2   4
HETATM    4  O   UNL     1      -8.238   9.417  67.582  1.00  0.00    -0.113 OA 
BRANCH   4   5
HETATM    5  C   UNL     1      -7.578   8.296  67.962  1.00  0.00    -0.102 C  
HETATM    6  O   UNL     1      -6.684   7.783  67.286  1.00  0.00    -0.064 OA 
BRANCH   5   7
HETATM    7  C   UNL     1      -8.011   7.650  69.309  1.00  0.00    -0.126 C  
HETATM    8  C   UNL     1      -6.868   7.773  70.316  1.00  0.00    -0.046 C  
BRANCH   7   9
HETATM    9  N   UNL     1      -8.597   6.254  69.311  1.00  0.00    -0.124 NA 
HETATM   10  H   UNL     1      -7.890   5.555  69.538  1.00  0.00     0.000 HD 
BRANCH   9  11
HETATM   11  P   UNL     1      -9.991   6.124  70.381  1.00  0.00    -0.194 P  
HETATM   12  O   UNL     1     -10.979   6.699  69.336  1.00  0.00    -0.265 OA 
BRANCH  11  13
HETATM   13  C   UNL     1     -10.254   7.694  71.442  1.00  0.00    -0.185 C  
BRANCH  13  14
HETATM   14  O   UNL     1     -10.934   8.782  70.711  1.00  0.00    -0.230 OA 
BRANCH  14  15
HETATM   15  C   UNL     1     -11.851   9.682  71.390  1.00  0.00    -0.406 C  
HETATM   16  C   UNL     1     -12.761   8.885  72.333  1.00  0.00    -0.436 C  
BRANCH  15  17
HETATM   17  C   UNL     1     -12.586  10.655  70.479  1.00  0.00    -0.348 C  
BRANCH  17  18
HETATM   18  N   UNL     1     -12.768  11.978  71.011  1.00  0.00    -0.304 NA 
HETATM   19  C   UNL     1     -13.536  12.354  72.081  1.00  0.00    -0.378 A  
HETATM   20  N   UNL     1     -13.405  13.636  72.345  1.00  0.00    -0.515 NA 
HETATM   21  C   UNL     1     -12.531  14.097  71.386  1.00  0.00    -0.359 A  
HETATM   22  C   UNL     1     -11.992  15.364  71.149  1.00  0.00    -0.362 A  
HETATM   23  N   UNL     1     -11.198  15.541  70.068  1.00  0.00    -0.285 NA 
HETATM   24  N   UNL     1     -12.258  16.437  71.986  1.00  0.00    -0.588 NA 
HETATM   25  C   UNL     1     -10.929  14.469  69.299  1.00  0.00    -0.260 A  
HETATM   26  H1  UNL     1     -11.864  17.363  71.813  1.00  0.00     0.000 HD 
HETATM   27  H2  UNL     1     -12.007  16.163  72.936  1.00  0.00     0.000 HD 
HETATM   28  N   UNL     1     -11.356  13.195  69.445  1.00  0.00    -0.243 NA 
HETATM   29  C   UNL     1     -12.155  13.092  70.518  1.00  0.00    -0.306 A  
ENDBRANCH  17  18
ENDBRANCH  15  17
ENDBRANCH  14  15
ENDBRANCH  13  14
ENDBRANCH  11  13
BRANCH  11  30
HETATM   30  O   UNL     1      -8.887   5.482  71.548  1.00  0.00    -0.134 OA 
BRANCH  30  31
HETATM   31  C   UNL     1      -9.413   4.595  72.470  1.00  0.00    -0.136 A  
HETATM   32  C   UNL     1      -8.514   3.730  73.096  1.00  0.00    -0.091 A  
HETATM   33  C   UNL     1     -11.228   3.556  73.700  1.00  0.00    -0.278 A  
HETATM   34  C   UNL     1     -10.774   4.512  72.780  1.00  0.00    -0.258 A  
HETATM   35  C   UNL     1     -10.329   2.681  74.307  1.00  0.00    -0.202 A  
HETATM   36  C   UNL     1      -8.973   2.769  74.004  1.00  0.00    -0.079 A  
ENDBRANCH  30  31
ENDBRANCH  11  30
ENDBRANCH   9  11
ENDBRANCH   7   9
ENDBRANCH   5   7
ENDBRANCH   4   5
ENDBRANCH   2   4
TORSDOF 12
ENDMDL
MODEL      257
REMARK 921   NORMALIZED FREE ENERGY PREDICTED BY IDOCK:   -4.34 KCAL/MOL
REMARK 922        TOTAL FREE ENERGY PREDICTED BY IDOCK:   -9.10 KCAL/MOL
REMARK 923 INTER-LIGAND FREE ENERGY PREDICTED BY IDOCK:   -9.78 KCAL/MOL
REMARK 924 INTRA-LIGAND FREE ENERGY PREDICTED BY IDOCK:    0.68 KCAL/MOL
REMARK 927      BINDING AFFINITY PREDICTED BY RF-SCORE:    0.00 PKD
ROOT
HETATM    1  C   UNL     1     -13.357   9.006  71.740  1.00  0.00    -0.453 C  
HETATM    2  C   UNL     1     -11.830   8.902  71.701  1.00  0.00    -0.345 C  
HETATM    3  C   UNL     1     -11.316   7.991  72.825  1.00  0.00    -0.439 C  
ENDROOT
BRANCH   2   4
HETATM    4  O   UNL     1     -11.321   8.623  70.355  1.00  0.00    -0.257 OA 
BRANCH   4   5
HETATM    5  C   UNL     1     -11.006   7.350  70.010  1.00  0.00    -0.248 C  
HETATM    6  O   UNL     1     -11.857   6.486  69.787  1.00  0.00    -0.345 OA 
BRANCH   5   7
HETATM    7  C   UNL     1      -9.493   7.002  69.918  1.00  0.00    -0.157 C  
HETATM    8  C   UNL     1      -8.682   8.296  69.870  1.00  0.00    -0.134 C  
BRANCH   7   9
HETATM    9  N   UNL     1      -9.018   6.016  68.872  1.00  0.00    -0.123 NA 
HETATM   10  H   UNL     1      -9.466   5.107  68.989  1.00  0.00     0.000 HD 
BRANCH   9  11
HETATM   11  P   UNL     1      -9.239   6.630  67.236  1.00  0.00    -0.131 P  
HETATM   12  O   UNL     1      -8.207   7.771  67.412  1.00  0.00    -0.120 OA 
BRANCH  11  13
HETATM   13  C   UNL     1     -10.623   7.945  67.122  1.00  0.00    -0.313 C  
BRANCH  13  14
HETATM   14  O   UNL     1     -10.216   9.154  66.377  1.00  0.00    -0.281 OA 
BRANCH  14  15
HETATM   15  C   UNL     1      -9.867  10.381  67.074  1.00  0.00    -0.191 C  
HETATM   16  C   UNL     1     -11.111  10.964  67.757  1.00  0.00    -0.371 C  
BRANCH  15  17
HETATM   17  C   UNL     1      -9.075  11.384  66.247  1.00  0.00    -0.202 C  
BRANCH  17  18
HETATM   18  N   UNL     1      -9.741  12.631  65.990  1.00  0.00    -0.251 NA 
HETATM   19  C   UNL     1      -9.518  13.842  66.590  1.00  0.00    -0.279 A  
HETATM   20  N   UNL     1     -10.248  14.793  66.051  1.00  0.00    -0.288 NA 
HETATM   21  C   UNL     1     -10.983  14.153  65.078  1.00  0.00    -0.384 A  
HETATM   22  C   UNL     1     -11.924  14.625  64.159  1.00  0.00    -0.292 A  
HETATM   23  N   UNL     1     -12.550  13.735  63.355  1.00  0.00    -0.789 NA 
HETATM   24  N   UNL     1     -12.234  15.973  64.061  1.00  0.00    -1.053 NA 
HETATM   25  C   UNL     1     -12.198  12.439  63.450  1.00  0.00    -0.523 A  
HETATM   26  H1  UNL     1     -12.921  16.318  63.390  1.00  0.00     0.000 HD 
HETATM   27  H2  UNL     1     -11.364  16.483  63.909  1.00  0.00     0.000 HD 
HETATM   28  N   UNL     1     -11.282  11.869  64.266  1.00  0.00    -0.342 NA 
HETATM   29  C   UNL     1     -10.716  12.799  65.050  1.00  0.00    -0.296 A  
ENDBRANCH  17  18
ENDBRANCH  15  17
ENDBRANCH  14  15
ENDBRANCH  13  14
ENDBRANCH  11  13
BRANCH  11  30
HETATM   30  O   UNL     1     -10.392   5.355  67.039  1.00  0.00    -0.205 OA 
BRANCH  30  31
HETATM   31  C   UNL     1     -10.192   4.504  65.966  1.00  0.00    -0.260 A  
HETATM   32  C   UNL     1      -9.077   3.667  66.026  1.00  0.00    -0.155 A  
HETATM   33  C   UNL     1     -10.726   3.595  63.781  1.00  0.00    -0.271 A  
HETATM   34  C   UNL     1     -11.023   4.461  64.843  1.00  0.00    -0.040 A  
HETATM   35  C   UNL     1      -9.600   2.776  63.837  1.00  0.00    -0.127 A  
HETATM   36  C   UNL     1      -8.777   2.813  64.958  1.00  0.00    -0.116 A  
ENDBRANCH  30  31
ENDBRANCH  11  30
ENDBRANCH   9  11
ENDBRANCH   7   9
ENDBRANCH   5   7
ENDBRANCH   4   5
ENDBRANCH   2   4
TORSDOF 12
ENDMDL
MODEL      258
REMARK 921   NORMALIZED FREE ENERGY PREDICTED BY IDOCK:   -4.34 KCAL/MOL
REMARK 922        TOTAL FREE ENERGY PREDICTED BY IDOCK:   -9.10 KCAL/MOL
REMARK 923 INTER-LIGAND FREE ENERGY PREDICTED BY IDOCK:   -7.69 KCAL/MOL
REMARK 924 INTRA-LIGAND FREE ENERGY PREDICTED BY IDOCK:   -1.41 KCAL/MOL
REMARK 927      BINDING AFFINITY PREDICTED BY RF-SCORE:    0.00 PKD
ROOT
HETATM    1  C   UNL     1      -7.583   4.566  64.686  1.00  0.00    -0.073 C  
HETATM    2  C   UNL     1      -8.703   5.212  65.505  1.00  0.00    -0.147 C  
HETATM    3  C   UNL     1      -9.482   4.152  66.297  1.00  0.00    -0.193 C  
ENDROOT
BRANCH   2   4
HETATM    4  O   UNL     1      -8.243   6.380  66.262  1.00  0.00    -0.110 OA 
BRANCH   4   5
HETATM    5  C   UNL     1      -7.869   7.502  65.600  1.00  0.00    -0.110 C  
HETATM    6  O   UNL     1      -8.403   7.871  64.552  1.00  0.00    -0.117 OA 
BRANCH   5   7
HETATM    7  C   UNL     1      -6.698   8.321  66.214  1.00  0.00    -0.057 C  
HETATM    8  C   UNL     1      -5.780   7.381  66.994  1.00  0.00    -0.030 C  
BRANCH   7   9
HETATM    9  N   UNL     1      -7.002   9.575  67.006  1.00  0.00    -0.084 NA 
HETATM   10  H   UNL     1      -6.697  10.411  66.508  1.00  0.00     0.000 HD 
BRANCH   9  11
HETATM   11  P   UNL     1      -8.703   9.681  67.449  1.00  0.00    -0.128 P  
HETATM   12  O   UNL     1      -9.101  10.434  66.156  1.00  0.00    -0.154 OA 
BRANCH  11  13
HETATM   13  C   UNL     1      -9.108  11.258  68.451  1.00  0.00    -0.170 C  
BRANCH  13  14
HETATM   14  O   UNL     1      -9.913  12.238  67.692  1.00  0.00    -0.193 OA 
BRANCH  14  15
HETATM   15  C   UNL     1     -11.272  12.562  68.093  1.00  0.00    -0.267 C  
HETATM   16  C   UNL     1     -12.015  11.282  68.498  1.00  0.00    -0.288 C  
BRANCH  15  17
HETATM   17  C   UNL     1     -12.033  13.450  67.119  1.00  0.00    -0.366 C  
BRANCH  17  18
HETATM   18  N   UNL     1     -11.286  14.552  66.579  1.00  0.00    -0.337 NA 
HETATM   19  C   UNL     1     -10.876  14.735  65.285  1.00  0.00    -0.383 A  
HETATM   20  N   UNL     1     -10.286  15.899  65.122  1.00  0.00    -0.518 NA 
HETATM   21  C   UNL     1     -10.304  16.471  66.375  1.00  0.00    -0.311 A  
HETATM   22  C   UNL     1      -9.842  17.704  66.842  1.00  0.00    -0.306 A  
HETATM   23  N   UNL     1      -9.932  17.973  68.166  1.00  0.00    -0.332 NA 
HETATM   24  N   UNL     1      -9.291  18.647  65.989  1.00  0.00    -0.486 NA 
HETATM   25  C   UNL     1     -10.508  17.051  68.960  1.00  0.00    -0.337 A  
HETATM   26  H1  UNL     1      -8.954  19.548  66.330  1.00  0.00     0.000 HD 
HETATM   27  H2  UNL     1      -9.964  18.827  65.244  1.00  0.00     0.000 HD 
HETATM   28  N   UNL     1     -11.023  15.847  68.624  1.00  0.00    -0.300 NA 
HETATM   29  C   UNL     1     -10.882  15.633  67.307  1.00  0.00    -0.298 A  
ENDBRANCH  17  18
ENDBRANCH  15  17
ENDBRANCH  14  15
ENDBRANCH  13  14
ENDBRANCH  11  13
BRANCH  11  30
HETATM   30  O   UNL     1      -8.258   8.839  68.894  1.00  0.00    -0.115 OA 
BRANCH  30  31
HETATM   31  C   UNL     1      -9.082   7.795  69.277  1.00  0.00    -0.145 A  
HETATM   32  C   UNL     1      -8.586   6.926  70.250  1.00  0.00    -0.140 A  
HETATM   33  C   UNL     1     -11.102   6.458  69.148  1.00  0.00    -0.428 A  
HETATM   34  C   UNL     1     -10.348   7.563  68.730  1.00  0.00    -0.212 A  
HETATM   35  C   UNL     1     -10.594   5.582  70.106  1.00  0.00    -0.367 A  
HETATM   36  C   UNL     1      -9.337   5.817  70.655  1.00  0.00    -0.186 A  
ENDBRANCH  30  31
ENDBRANCH  11  30
ENDBRANCH   9  11
ENDBRANCH   7   9
ENDBRANCH   5   7
ENDBRANCH   4   5
ENDBRANCH   2   4
TORSDOF 12
ENDMDL
MODEL      259
REMARK 921   NORMALIZED FREE ENERGY PREDICTED BY IDOCK:   -4.33 KCAL/MOL
REMARK 922        TOTAL FREE ENERGY PREDICTED BY IDOCK:   -9.08 KCAL/MOL
REMARK 923 INTER-LIGAND FREE ENERGY PREDICTED BY IDOCK:   -7.77 KCAL/MOL
REMARK 924 INTRA-LIGAND FREE ENERGY PREDICTED BY IDOCK:   -1.31 KCAL/MOL
REMARK 927      BINDING AFFINITY PREDICTED BY RF-SCORE:    0.00 PKD
ROOT
HETATM    1  C   UNL     1      -8.950   4.366  64.113  1.00  0.00    -0.151 C  
HETATM    2  C   UNL     1      -7.493   3.972  64.365  1.00  0.00    -0.071 C  
HETATM    3  C   UNL     1      -6.626   4.266  63.132  1.00  0.00    -0.030 C  
ENDROOT
BRANCH   2   4
HETATM    4  O   UNL     1      -6.989   4.473  65.646  1.00  0.00    -0.060 OA 
BRANCH   4   5
HETATM    5  C   UNL     1      -7.552   4.040  66.802  1.00  0.00    -0.088 C  
HETATM    6  O   UNL     1      -7.489   2.869  67.180  1.00  0.00    -0.067 OA 
BRANCH   5   7
HETATM    7  C   UNL     1      -8.317   5.097  67.649  1.00  0.00    -0.105 C  
HETATM    8  C   UNL     1      -9.802   4.740  67.678  1.00  0.00    -0.201 C  
BRANCH   7   9
HETATM    9  N   UNL     1      -8.111   6.570  67.364  1.00  0.00    -0.119 NA 
HETATM   10  H   UNL     1      -7.927   6.734  66.374  1.00  0.00     0.000 HD 
BRANCH   9  11
HETATM   11  P   UNL     1      -9.460   7.548  67.934  1.00  0.00    -0.146 P  
HETATM   12  O   UNL     1     -10.040   7.763  66.514  1.00  0.00    -0.233 OA 
BRANCH  11  13
HETATM   13  C   UNL     1      -9.041   9.412  68.008  1.00  0.00    -0.127 C  
BRANCH  13  14
HETATM   14  O   UNL     1     -10.191  10.280  67.682  1.00  0.00    -0.184 OA 
BRANCH  14  15
HETATM   15  C   UNL     1     -10.011  11.701  67.436  1.00  0.00    -0.183 C  
HETATM   16  C   UNL     1      -8.916  12.255  68.356  1.00  0.00    -0.141 C  
BRANCH  15  17
HETATM   17  C   UNL     1     -11.296  12.517  67.425  1.00  0.00    -0.313 C  
BRANCH  17  18
HETATM   18  N   UNL     1     -11.636  13.146  68.671  1.00  0.00    -0.298 NA 
HETATM   19  C   UNL     1     -11.585  14.478  68.981  1.00  0.00    -0.298 A  
HETATM   20  N   UNL     1     -12.050  14.715  70.188  1.00  0.00    -0.308 NA 
HETATM   21  C   UNL     1     -12.392  13.472  70.674  1.00  0.00    -0.358 A  
HETATM   22  C   UNL     1     -12.950  13.069  71.890  1.00  0.00    -0.312 A  
HETATM   23  N   UNL     1     -13.113  11.746  72.123  1.00  0.00    -0.373 NA 
HETATM   24  N   UNL     1     -13.328  13.986  72.858  1.00  0.00    -0.648 NA 
HETATM   25  C   UNL     1     -12.771  10.885  71.146  1.00  0.00    -0.429 A  
HETATM   26  H1  UNL     1     -13.736  13.691  73.746  1.00  0.00     0.000 HD 
HETATM   27  H2  UNL     1     -13.969  14.651  72.426  1.00  0.00     0.000 HD 
HETATM   28  N   UNL     1     -12.261  11.153  69.922  1.00  0.00    -0.321 NA 
HETATM   29  C   UNL     1     -12.103  12.476  69.764  1.00  0.00    -0.224 A  
ENDBRANCH  17  18
ENDBRANCH  15  17
ENDBRANCH  14  15
ENDBRANCH  13  14
ENDBRANCH  11  13
BRANCH  11  30
HETATM   30  O   UNL     1      -8.812   7.307  69.520  1.00  0.00    -0.137 OA 
BRANCH  30  31
HETATM   31  C   UNL     1      -9.698   7.445  70.574  1.00  0.00    -0.175 A  
HETATM   32  C   UNL     1     -10.985   6.941  70.385  1.00  0.00    -0.315 A  
HETATM   33  C   UNL     1     -10.346   8.202  72.786  1.00  0.00    -0.384 A  
HETATM   34  C   UNL     1      -9.376   8.070  71.783  1.00  0.00    -0.218 A  
HETATM   35  C   UNL     1     -11.636   7.715  72.585  1.00  0.00    -0.371 A  
HETATM   36  C   UNL     1     -11.954   7.086  71.385  1.00  0.00    -0.380 A  
ENDBRANCH  30  31
ENDBRANCH  11  30
ENDBRANCH   9  11
ENDBRANCH   7   9
ENDBRANCH   5   7
ENDBRANCH   4   5
ENDBRANCH   2   4
TORSDOF 12
ENDMDL
MODEL      260
REMARK 921   NORMALIZED FREE ENERGY PREDICTED BY IDOCK:   -4.33 KCAL/MOL
REMARK 922        TOTAL FREE ENERGY PREDICTED BY IDOCK:   -9.08 KCAL/MOL
REMARK 923 INTER-LIGAND FREE ENERGY PREDICTED BY IDOCK:   -7.33 KCAL/MOL
REMARK 924 INTRA-LIGAND FREE ENERGY PREDICTED BY IDOCK:   -1.75 KCAL/MOL
REMARK 927      BINDING AFFINITY PREDICTED BY RF-SCORE:    0.00 PKD
ROOT
HETATM    1  C   UNL     1     -10.454   5.605  66.606  1.00  0.00    -0.340 C  
HETATM    2  C   UNL     1      -9.433   5.331  67.713  1.00  0.00    -0.124 C  
HETATM    3  C   UNL     1      -9.213   3.822  67.891  1.00  0.00    -0.218 C  
ENDROOT
BRANCH   2   4
HETATM    4  O   UNL     1      -8.226   6.152  67.579  1.00  0.00    -0.109 OA 
BRANCH   4   5
HETATM    5  C   UNL     1      -7.942   7.082  68.523  1.00  0.00    -0.123 C  
HETATM    6  O   UNL     1      -8.381   7.025  69.674  1.00  0.00    -0.129 OA 
BRANCH   5   7
HETATM    7  C   UNL     1      -7.032   8.266  68.089  1.00  0.00    -0.077 C  
HETATM    8  C   UNL     1      -6.932   9.271  69.236  1.00  0.00    -0.053 C  
BRANCH   7   9
HETATM    9  N   UNL     1      -7.293   8.962  66.770  1.00  0.00    -0.082 NA 
HETATM   10  H   UNL     1      -7.660   8.311  66.075  1.00  0.00     0.000 HD 
BRANCH   9  11
HETATM   11  P   UNL     1      -8.347  10.360  66.957  1.00  0.00    -0.129 P  
HETATM   12  O   UNL     1      -9.615   9.503  67.196  1.00  0.00    -0.150 OA 
BRANCH  11  13
HETATM   13  C   UNL     1      -9.097  10.946  65.298  1.00  0.00    -0.197 C  
BRANCH  13  14
HETATM   14  O   UNL     1     -10.573  10.868  65.268  1.00  0.00    -0.261 OA 
BRANCH  14  15
HETATM   15  C   UNL     1     -11.353  11.780  64.449  1.00  0.00    -0.301 C  
HETATM   16  C   UNL     1     -10.417  12.685  63.638  1.00  0.00    -0.348 C  
BRANCH  15  17
HETATM   17  C   UNL     1     -12.457  12.521  65.190  1.00  0.00    -0.379 C  
BRANCH  17  18
HETATM   18  N   UNL     1     -12.036  13.242  66.360  1.00  0.00    -0.407 NA 
HETATM   19  C   UNL     1     -11.643  14.551  66.443  1.00  0.00    -0.364 A  
HETATM   20  N   UNL     1     -11.405  14.909  67.686  1.00  0.00    -0.328 NA 
HETATM   21  C   UNL     1     -11.638  13.769  68.422  1.00  0.00    -0.334 A  
HETATM   22  C   UNL     1     -11.570  13.516  69.795  1.00  0.00    -0.244 A  
HETATM   23  N   UNL     1     -11.788  12.255  70.235  1.00  0.00    -0.294 NA 
HETATM   24  N   UNL     1     -11.277  14.519  70.707  1.00  0.00    -0.509 NA 
HETATM   25  C   UNL     1     -12.108  11.315  69.326  1.00  0.00    -0.303 A  
HETATM   26  H1  UNL     1     -11.227  14.334  71.709  1.00  0.00     0.000 HD 
HETATM   27  H2  UNL     1     -11.942  15.278  70.561  1.00  0.00     0.000 HD 
HETATM   28  N   UNL     1     -12.241  11.443  67.987  1.00  0.00    -0.471 NA 
HETATM   29  C   UNL     1     -11.990  12.707  67.614  1.00  0.00    -0.247 A  
ENDBRANCH  17  18
ENDBRANCH  15  17
ENDBRANCH  14  15
ENDBRANCH  13  14
ENDBRANCH  11  13
BRANCH  11  30
HETATM   30  O   UNL     1      -6.930  11.317  66.691  1.00  0.00    -0.138 OA 
BRANCH  30  31
HETATM   31  C   UNL     1      -6.834  12.490  67.418  1.00  0.00    -0.145 A  
HETATM   32  C   UNL     1      -5.675  12.669  68.173  1.00  0.00    -0.075 A  
HETATM   33  C   UNL     1      -7.669  14.614  68.241  1.00  0.00    -0.123 A  
HETATM   34  C   UNL     1      -7.831  13.471  67.446  1.00  0.00    -0.157 A  
HETATM   35  C   UNL     1      -6.518  14.778  69.010  1.00  0.00    -0.096 A  
HETATM   36  C   UNL     1      -5.523  13.806  68.976  1.00  0.00    -0.076 A  
ENDBRANCH  30  31
ENDBRANCH  11  30
ENDBRANCH   9  11
ENDBRANCH   7   9
ENDBRANCH   5   7
ENDBRANCH   4   5
ENDBRANCH   2   4
TORSDOF 12
ENDMDL
MODEL      261
REMARK 921   NORMALIZED FREE ENERGY PREDICTED BY IDOCK:   -4.33 KCAL/MOL
REMARK 922        TOTAL FREE ENERGY PREDICTED BY IDOCK:   -9.07 KCAL/MOL
REMARK 923 INTER-LIGAND FREE ENERGY PREDICTED BY IDOCK:   -7.28 KCAL/MOL
REMARK 924 INTRA-LIGAND FREE ENERGY PREDICTED BY IDOCK:   -1.79 KCAL/MOL
REMARK 927      BINDING AFFINITY PREDICTED BY RF-SCORE:    0.00 PKD
ROOT
HETATM    1  C   UNL     1     -11.210   6.097  69.297  1.00  0.00    -0.438 C  
HETATM    2  C   UNL     1     -10.561   7.382  68.774  1.00  0.00    -0.168 C  
HETATM    3  C   UNL     1     -10.809   7.545  67.268  1.00  0.00    -0.297 C  
ENDROOT
BRANCH   2   4
HETATM    4  O   UNL     1     -10.866   8.545  69.611  1.00  0.00    -0.225 OA 
BRANCH   4   5
HETATM    5  C   UNL     1     -11.217   8.363  70.908  1.00  0.00    -0.262 C  
HETATM    6  O   UNL     1     -12.356   8.570  71.329  1.00  0.00    -0.307 OA 
BRANCH   5   7
HETATM    7  C   UNL     1     -10.097   7.888  71.878  1.00  0.00    -0.194 C  
HETATM    8  C   UNL     1     -10.736   7.221  73.095  1.00  0.00    -0.411 C  
BRANCH   7   9
HETATM    9  N   UNL     1      -9.007   8.856  72.289  1.00  0.00    -0.365 NA 
HETATM   10  H   UNL     1      -9.101   9.124  73.268  1.00  0.00     0.000 HD 
BRANCH   9  11
HETATM   11  P   UNL     1      -7.399   8.222  71.950  1.00  0.00    -0.096 P  
HETATM   12  O   UNL     1      -6.692   9.213  72.907  1.00  0.00    -0.313 OA 
BRANCH  11  13
HETATM   13  C   UNL     1      -6.557   9.100  70.474  1.00  0.00    -0.061 C  
BRANCH  13  14
HETATM   14  O   UNL     1      -7.449  10.050  69.777  1.00  0.00    -0.115 OA 
BRANCH  14  15
HETATM   15  C   UNL     1      -7.930   9.776  68.433  1.00  0.00    -0.089 C  
HETATM   16  C   UNL     1      -7.132   8.620  67.819  1.00  0.00    -0.079 C  
BRANCH  15  17
HETATM   17  C   UNL     1      -8.056  11.000  67.537  1.00  0.00    -0.117 C  
BRANCH  17  18
HETATM   18  N   UNL     1      -9.398  11.363  67.175  1.00  0.00    -0.171 NA 
HETATM   19  C   UNL     1     -10.406  11.782  68.002  1.00  0.00    -0.198 A  
HETATM   20  N   UNL     1     -11.484  12.113  67.324  1.00  0.00    -0.339 NA 
HETATM   21  C   UNL     1     -11.151  11.872  66.010  1.00  0.00    -0.322 A  
HETATM   22  C   UNL     1     -11.866  12.040  64.822  1.00  0.00    -0.254 A  
HETATM   23  N   UNL     1     -11.298  11.645  63.659  1.00  0.00    -0.426 NA 
HETATM   24  N   UNL     1     -13.139  12.590  64.809  1.00  0.00    -0.814 NA 
HETATM   25  C   UNL     1     -10.046  11.150  63.703  1.00  0.00    -0.379 A  
HETATM   26  H1  UNL     1     -13.662  12.713  63.941  1.00  0.00     0.000 HD 
HETATM   27  H2  UNL     1     -13.093  13.495  65.277  1.00  0.00     0.000 HD 
HETATM   28  N   UNL     1      -9.243  10.975  64.777  1.00  0.00    -0.199 NA 
HETATM   29  C   UNL     1      -9.873  11.364  65.896  1.00  0.00    -0.226 A  
ENDBRANCH  17  18
ENDBRANCH  15  17
ENDBRANCH  14  15
ENDBRANCH  13  14
ENDBRANCH  11  13
BRANCH  11  30
HETATM   30  O   UNL     1      -8.189   7.114  70.881  1.00  0.00    -0.113 OA 
BRANCH  30  31
HETATM   31  C   UNL     1      -7.573   5.889  70.698  1.00  0.00    -0.092 A  
HETATM   32  C   UNL     1      -6.833   5.390  71.771  1.00  0.00    -0.065 A  
HETATM   33  C   UNL     1      -6.950   3.940  69.395  1.00  0.00    -0.046 A  
HETATM   34  C   UNL     1      -7.637   5.156  69.509  1.00  0.00    -0.065 A  
HETATM   35  C   UNL     1      -6.196   3.456  70.463  1.00  0.00    -0.023 A  
HETATM   36  C   UNL     1      -6.138   4.181  71.649  1.00  0.00    -0.017 A  
ENDBRANCH  30  31
ENDBRANCH  11  30
ENDBRANCH   9  11
ENDBRANCH   7   9
ENDBRANCH   5   7
ENDBRANCH   4   5
ENDBRANCH   2   4
TORSDOF 12
ENDMDL
MODEL      262
REMARK 921   NORMALIZED FREE ENERGY PREDICTED BY IDOCK:   -4.31 KCAL/MOL
REMARK 922        TOTAL FREE ENERGY PREDICTED BY IDOCK:   -9.05 KCAL/MOL
REMARK 923 INTER-LIGAND FREE ENERGY PREDICTED BY IDOCK:   -7.95 KCAL/MOL
REMARK 924 INTRA-LIGAND FREE ENERGY PREDICTED BY IDOCK:   -1.11 KCAL/MOL
REMARK 927      BINDING AFFINITY PREDICTED BY RF-SCORE:    0.00 PKD
ROOT
HETATM    1  C   UNL     1     -11.658  11.875  70.036  1.00  0.00    -0.301 C  
HETATM    2  C   UNL     1     -11.195  10.419  69.955  1.00  0.00    -0.306 C  
HETATM    3  C   UNL     1     -11.230   9.915  68.505  1.00  0.00    -0.129 C  
ENDROOT
BRANCH   2   4
HETATM    4  O   UNL     1      -9.953  10.182  70.694  1.00  0.00    -0.016 OA 
BRANCH   4   5
HETATM    5  C   UNL     1      -8.988   9.400  70.150  1.00  0.00    -0.227 C  
HETATM    6  O   UNL     1      -8.947   8.178  70.309  1.00  0.00    -0.143 OA 
BRANCH   5   7
HETATM    7  C   UNL     1      -7.895  10.118  69.309  1.00  0.00    -0.134 C  
HETATM    8  C   UNL     1      -6.568   9.377  69.471  1.00  0.00    -0.044 C  
BRANCH   7   9
HETATM    9  N   UNL     1      -7.710  11.614  69.449  1.00  0.00    -0.342 NA 
HETATM   10  H   UNL     1      -6.956  11.835  70.099  1.00  0.00     0.000 HD 
BRANCH   9  11
HETATM   11  P   UNL     1      -7.461  12.399  67.892  1.00  0.00    -0.152 P  
HETATM   12  O   UNL     1      -6.353  13.339  68.424  1.00  0.00    -0.072 OA 
BRANCH  11  13
HETATM   13  C   UNL     1      -8.589  13.923  67.645  1.00  0.00    -0.190 C  
BRANCH  13  14
HETATM   14  O   UNL     1      -9.715  13.669  66.722  1.00  0.00    -0.258 OA 
BRANCH  14  15
HETATM   15  C   UNL     1     -11.087  13.650  67.202  1.00  0.00    -0.297 C  
HETATM   16  C   UNL     1     -11.950  12.782  66.278  1.00  0.00    -0.460 C  
BRANCH  15  17
HETATM   17  C   UNL     1     -11.676  15.019  67.512  1.00  0.00    -0.253 C  
BRANCH  17  18
HETATM   18  N   UNL     1     -11.083  16.118  66.803  1.00  0.00    -0.071 NA 
HETATM   19  C   UNL     1     -11.026  16.311  65.448  1.00  0.00    -0.197 A  
HETATM   20  N   UNL     1     -10.484  17.470  65.145  1.00  0.00    -0.416 NA 
HETATM   21  C   UNL     1     -10.163  18.029  66.362  1.00  0.00    -0.393 A  
HETATM   22  C   UNL     1      -9.579  19.252  66.701  1.00  0.00    -0.349 A  
HETATM   23  N   UNL     1      -9.314  19.507  68.004  1.00  0.00    -0.325 NA 
HETATM   24  N   UNL     1      -9.259  20.198  65.740  1.00  0.00    -0.503 NA 
HETATM   25  C   UNL     1      -9.673  18.583  68.914  1.00  0.00    -0.308 A  
HETATM   26  H1  UNL     1      -8.832  21.091  65.987  1.00  0.00     0.000 HD 
HETATM   27  H2  UNL     1     -10.102  20.393  65.200  1.00  0.00     0.000 HD 
HETATM   28  N   UNL     1     -10.274  17.388  68.716  1.00  0.00    -0.346 NA 
HETATM   29  C   UNL     1     -10.487  17.187  67.407  1.00  0.00    -0.334 A  
ENDBRANCH  17  18
ENDBRANCH  15  17
ENDBRANCH  14  15
ENDBRANCH  13  14
ENDBRANCH  11  13
BRANCH  11  30
HETATM   30  O   UNL     1      -8.700  11.347  67.297  1.00  0.00    -0.141 OA 
BRANCH  30  31
HETATM   31  C   UNL     1      -8.489  10.792  66.047  1.00  0.00    -0.169 A  
HETATM   32  C   UNL     1      -9.552  10.851  65.145  1.00  0.00    -0.291 A  
HETATM   33  C   UNL     1      -7.179   9.599  64.389  1.00  0.00    -0.122 A  
HETATM   34  C   UNL     1      -7.296  10.171  65.664  1.00  0.00    -0.144 A  
HETATM   35  C   UNL     1      -8.251   9.643  63.498  1.00  0.00    -0.158 A  
HETATM   36  C   UNL     1      -9.435  10.267  63.878  1.00  0.00    -0.356 A  
ENDBRANCH  30  31
ENDBRANCH  11  30
ENDBRANCH   9  11
ENDBRANCH   7   9
ENDBRANCH   5   7
ENDBRANCH   4   5
ENDBRANCH   2   4
TORSDOF 12
ENDMDL
MODEL      263
REMARK 921   NORMALIZED FREE ENERGY PREDICTED BY IDOCK:   -4.30 KCAL/MOL
REMARK 922        TOTAL FREE ENERGY PREDICTED BY IDOCK:   -9.03 KCAL/MOL
REMARK 923 INTER-LIGAND FREE ENERGY PREDICTED BY IDOCK:   -9.45 KCAL/MOL
REMARK 924 INTRA-LIGAND FREE ENERGY PREDICTED BY IDOCK:    0.42 KCAL/MOL
REMARK 927      BINDING AFFINITY PREDICTED BY RF-SCORE:    0.00 PKD
ROOT
HETATM    1  C   UNL     1     -10.338  12.173  63.813  1.00  0.00    -0.465 C  
HETATM    2  C   UNL     1     -11.642  12.882  63.439  1.00  0.00    -0.403 C  
HETATM    3  C   UNL     1     -12.845  11.947  63.624  1.00  0.00    -0.429 C  
ENDROOT
BRANCH   2   4
HETATM    4  O   UNL     1     -11.752  14.210  64.048  1.00  0.00    -0.328 OA 
BRANCH   4   5
HETATM    5  C   UNL     1     -12.013  14.319  65.374  1.00  0.00    -0.383 C  
HETATM    6  O   UNL     1     -12.905  13.681  65.936  1.00  0.00    -0.413 OA 
BRANCH   5   7
HETATM    7  C   UNL     1     -11.136  15.317  66.182  1.00  0.00    -0.280 C  
HETATM    8  C   UNL     1      -9.680  15.182  65.737  1.00  0.00    -0.379 C  
BRANCH   7   9
HETATM    9  N   UNL     1     -11.248  15.355  67.692  1.00  0.00    -0.324 NA 
HETATM   10  H   UNL     1     -12.223  15.325  67.992  1.00  0.00     0.000 HD 
BRANCH   9  11
HETATM   11  P   UNL     1     -10.306  14.077  68.456  1.00  0.00    -0.231 P  
HETATM   12  O   UNL     1      -9.003  14.912  68.486  1.00  0.00    -0.166 OA 
BRANCH  11  13
HETATM   13  C   UNL     1      -9.487  12.905  67.187  1.00  0.00    -0.229 C  
BRANCH  13  14
HETATM   14  O   UNL     1      -8.285  12.227  67.714  1.00  0.00    -0.139 OA 
BRANCH  14  15
HETATM   15  C   UNL     1      -8.002  10.840  67.384  1.00  0.00    -0.112 C  
HETATM   16  C   UNL     1      -7.368  10.754  65.990  1.00  0.00    -0.114 C  
BRANCH  15  17
HETATM   17  C   UNL     1      -9.162   9.880  67.609  1.00  0.00    -0.133 C  
BRANCH  17  18
HETATM   18  N   UNL     1      -9.250   9.319  68.929  1.00  0.00    -0.141 NA 
HETATM   19  C   UNL     1      -8.738   9.827  70.092  1.00  0.00    -0.180 A  
HETATM   20  N   UNL     1      -9.079   9.098  71.132  1.00  0.00    -0.236 NA 
HETATM   21  C   UNL     1      -9.824   8.069  70.601  1.00  0.00    -0.184 A  
HETATM   22  C   UNL     1     -10.474   6.985  71.197  1.00  0.00    -0.211 A  
HETATM   23  N   UNL     1     -11.083   6.075  70.402  1.00  0.00    -0.334 NA 
HETATM   24  N   UNL     1     -10.501   6.818  72.573  1.00  0.00    -0.203 NA 
HETATM   25  C   UNL     1     -11.070   6.288  69.073  1.00  0.00    -0.378 A  
HETATM   26  H1  UNL     1     -10.975   6.027  73.009  1.00  0.00     0.000 HD 
HETATM   27  H2  UNL     1     -10.876   7.673  72.985  1.00  0.00     0.000 HD 
HETATM   28  N   UNL     1     -10.513   7.310  68.385  1.00  0.00    -0.199 NA 
HETATM   29  C   UNL     1      -9.908   8.161  69.227  1.00  0.00    -0.182 A  
ENDBRANCH  17  18
ENDBRANCH  15  17
ENDBRANCH  14  15
ENDBRANCH  13  14
ENDBRANCH  11  13
BRANCH  11  30
HETATM   30  O   UNL     1     -11.764  13.145  68.424  1.00  0.00    -0.310 OA 
BRANCH  30  31
HETATM   31  C   UNL     1     -12.136  12.542  69.612  1.00  0.00    -0.207 A  
HETATM   32  C   UNL     1     -12.148  11.147  69.634  1.00  0.00    -0.406 A  
HETATM   33  C   UNL     1     -12.913  12.559  71.910  1.00  0.00    -0.406 A  
HETATM   34  C   UNL     1     -12.512  13.250  70.758  1.00  0.00    -0.403 A  
HETATM   35  C   UNL     1     -12.943  11.166  71.920  1.00  0.00    -0.477 A  
HETATM   36  C   UNL     1     -12.561  10.461  70.782  1.00  0.00    -0.462 A  
ENDBRANCH  30  31
ENDBRANCH  11  30
ENDBRANCH   9  11
ENDBRANCH   7   9
ENDBRANCH   5   7
ENDBRANCH   4   5
ENDBRANCH   2   4
TORSDOF 12
ENDMDL
MODEL      264
REMARK 921   NORMALIZED FREE ENERGY PREDICTED BY IDOCK:   -4.30 KCAL/MOL
REMARK 922        TOTAL FREE ENERGY PREDICTED BY IDOCK:   -9.03 KCAL/MOL
REMARK 923 INTER-LIGAND FREE ENERGY PREDICTED BY IDOCK:   -7.38 KCAL/MOL
REMARK 924 INTRA-LIGAND FREE ENERGY PREDICTED BY IDOCK:   -1.64 KCAL/MOL
REMARK 927      BINDING AFFINITY PREDICTED BY RF-SCORE:    0.00 PKD
ROOT
HETATM    1  C   UNL     1     -12.237  12.383  63.470  1.00  0.00    -0.661 C  
HETATM    2  C   UNL     1     -11.971  12.997  64.846  1.00  0.00    -0.396 C  
HETATM    3  C   UNL     1     -12.704  14.337  64.998  1.00  0.00    -0.297 C  
ENDROOT
BRANCH   2   4
HETATM    4  O   UNL     1     -12.150  12.032  65.935  1.00  0.00    -0.546 OA 
BRANCH   4   5
HETATM    5  C   UNL     1     -11.240  11.979  66.938  1.00  0.00    -0.320 C  
HETATM    6  O   UNL     1     -11.014  12.931  67.689  1.00  0.00    -0.236 OA 
BRANCH   5   7
HETATM    7  C   UNL     1     -10.455  10.646  67.105  1.00  0.00    -0.245 C  
HETATM    8  C   UNL     1     -10.062  10.119  65.726  1.00  0.00    -0.324 C  
BRANCH   7   9
HETATM    9  N   UNL     1     -11.032   9.546  67.971  1.00  0.00    -0.486 NA 
HETATM   10  H   UNL     1     -11.097   8.667  67.458  1.00  0.00     0.000 HD 
BRANCH   9  11
HETATM   11  P   UNL     1     -10.130   9.346  69.471  1.00  0.00    -0.234 P  
HETATM   12  O   UNL     1      -9.340  10.666  69.295  1.00  0.00    -0.187 OA 
BRANCH  11  13
HETATM   13  C   UNL     1      -8.500   8.376  69.227  1.00  0.00    -0.125 C  
BRANCH  13  14
HETATM   14  O   UNL     1      -8.331   7.859  67.853  1.00  0.00    -0.124 OA 
BRANCH  14  15
HETATM   15  C   UNL     1      -7.104   8.093  67.111  1.00  0.00    -0.079 C  
HETATM   16  C   UNL     1      -6.692   9.566  67.236  1.00  0.00    -0.072 C  
BRANCH  15  17
HETATM   17  C   UNL     1      -7.107   7.560  65.685  1.00  0.00    -0.061 C  
BRANCH  17  18
HETATM   18  N   UNL     1      -6.860   6.150  65.555  1.00  0.00    -0.051 NA 
HETATM   19  C   UNL     1      -5.650   5.513  65.482  1.00  0.00    -0.013 A  
HETATM   20  N   UNL     1      -5.791   4.206  65.454  1.00  0.00    -0.022 NA 
HETATM   21  C   UNL     1      -7.153   4.006  65.490  1.00  0.00    -0.063 A  
HETATM   22  C   UNL     1      -7.923   2.840  65.500  1.00  0.00    -0.085 A  
HETATM   23  N   UNL     1      -9.271   2.952  65.465  1.00  0.00    -0.145 NA 
HETATM   24  N   UNL     1      -7.341   1.582  65.534  1.00  0.00    -0.052 NA 
HETATM   25  C   UNL     1      -9.804   4.188  65.471  1.00  0.00    -0.207 A  
HETATM   26  H1  UNL     1      -7.904   0.731  65.540  1.00  0.00     0.000 HD 
HETATM   27  H2  UNL     1      -6.714   1.549  66.338  1.00  0.00     0.000 HD 
HETATM   28  N   UNL     1      -9.170   5.382  65.500  1.00  0.00    -0.125 NA 
HETATM   29  C   UNL     1      -7.840   5.202  65.510  1.00  0.00    -0.092 A  
ENDBRANCH  17  18
ENDBRANCH  15  17
ENDBRANCH  14  15
ENDBRANCH  13  14
ENDBRANCH  11  13
BRANCH  11  30
HETATM   30  O   UNL     1     -11.014   7.871  69.667  1.00  0.00    -0.214 OA 
BRANCH  30  31
HETATM   31  C   UNL     1     -10.887   7.234  70.889  1.00  0.00    -0.243 A  
HETATM   32  C   UNL     1     -10.790   8.051  72.017  1.00  0.00    -0.333 A  
HETATM   33  C   UNL     1     -10.659   5.283  72.312  1.00  0.00    -0.280 A  
HETATM   34  C   UNL     1     -10.829   5.846  71.040  1.00  0.00    -0.339 A  
HETATM   35  C   UNL     1     -10.543   6.103  73.433  1.00  0.00    -0.288 A  
HETATM   36  C   UNL     1     -10.608   7.485  73.284  1.00  0.00    -0.438 A  
ENDBRANCH  30  31
ENDBRANCH  11  30
ENDBRANCH   9  11
ENDBRANCH   7   9
ENDBRANCH   5   7
ENDBRANCH   4   5
ENDBRANCH   2   4
TORSDOF 12
ENDMDL
MODEL      265
REMARK 921   NORMALIZED FREE ENERGY PREDICTED BY IDOCK:   -4.30 KCAL/MOL
REMARK 922        TOTAL FREE ENERGY PREDICTED BY IDOCK:   -9.03 KCAL/MOL
REMARK 923 INTER-LIGAND FREE ENERGY PREDICTED BY IDOCK:   -8.01 KCAL/MOL
REMARK 924 INTRA-LIGAND FREE ENERGY PREDICTED BY IDOCK:   -1.02 KCAL/MOL
REMARK 927      BINDING AFFINITY PREDICTED BY RF-SCORE:    0.00 PKD
ROOT
HETATM    1  C   UNL     1      -8.727   7.051  65.095  1.00  0.00     0.134 C  
HETATM    2  C   UNL     1      -7.966   8.378  65.165  1.00  0.00    -0.136 C  
HETATM    3  C   UNL     1      -8.852   9.541  64.697  1.00  0.00    -0.250 C  
ENDROOT
BRANCH   2   4
HETATM    4  O   UNL     1      -7.275   8.562  66.444  1.00  0.00    -0.077 OA 
BRANCH   4   5
HETATM    5  C   UNL     1      -6.939   7.478  67.185  1.00  0.00    -0.083 C  
HETATM    6  O   UNL     1      -6.180   6.597  66.777  1.00  0.00    -0.037 OA 
BRANCH   5   7
HETATM    7  C   UNL     1      -7.574   7.372  68.601  1.00  0.00    -0.110 C  
HETATM    8  C   UNL     1      -6.514   7.696  69.653  1.00  0.00    -0.031 C  
BRANCH   7   9
HETATM    9  N   UNL     1      -8.359   6.133  68.974  1.00  0.00    -0.112 NA 
HETATM   10  H   UNL     1      -7.857   5.568  69.659  1.00  0.00     0.000 HD 
BRANCH   9  11
HETATM   11  P   UNL     1      -9.983   6.523  69.534  1.00  0.00    -0.169 P  
HETATM   12  O   UNL     1     -10.588   6.525  68.109  1.00  0.00    -0.198 OA 
BRANCH  11  13
HETATM   13  C   UNL     1     -10.296   8.407  69.633  1.00  0.00    -0.218 C  
BRANCH  13  14
HETATM   14  O   UNL     1     -10.736   8.991  68.349  1.00  0.00    -0.186 OA 
BRANCH  14  15
HETATM   15  C   UNL     1     -10.493  10.390  68.041  1.00  0.00    -0.196 C  
HETATM   16  C   UNL     1      -9.420  10.953  68.982  1.00  0.00    -0.160 C  
BRANCH  15  17
HETATM   17  C   UNL     1     -11.746  11.248  67.930  1.00  0.00    -0.214 C  
BRANCH  17  18
HETATM   18  N   UNL     1     -11.556  12.539  67.328  1.00  0.00    -0.348 NA 
HETATM   19  C   UNL     1     -11.014  13.660  67.899  1.00  0.00    -0.259 A  
HETATM   20  N   UNL     1     -10.913  14.645  67.034  1.00  0.00    -0.309 NA 
HETATM   21  C   UNL     1     -11.434  14.133  65.867  1.00  0.00    -0.338 A  
HETATM   22  C   UNL     1     -11.589  14.687  64.594  1.00  0.00    -0.402 A  
HETATM   23  N   UNL     1     -12.211  13.957  63.639  1.00  0.00    -0.656 NA 
HETATM   24  N   UNL     1     -11.131  15.960  64.293  1.00  0.00    -0.936 NA 
HETATM   25  C   UNL     1     -12.609  12.711  63.955  1.00  0.00    -0.337 A  
HETATM   26  H1  UNL     1     -11.244  16.365  63.363  1.00  0.00     0.000 HD 
HETATM   27  H2  UNL     1     -10.141  16.002  64.534  1.00  0.00     0.000 HD 
HETATM   28  N   UNL     1     -12.482  12.054  65.130  1.00  0.00    -0.340 NA 
HETATM   29  C   UNL     1     -11.880  12.838  66.037  1.00  0.00    -0.439 A  
ENDBRANCH  17  18
ENDBRANCH  15  17
ENDBRANCH  14  15
ENDBRANCH  13  14
ENDBRANCH  11  13
BRANCH  11  30
HETATM   30  O   UNL     1      -9.306   6.520  71.127  1.00  0.00    -0.163 OA 
BRANCH  30  31
HETATM   31  C   UNL     1      -9.738   5.517  71.978  1.00  0.00    -0.160 A  
HETATM   32  C   UNL     1     -10.029   5.888  73.291  1.00  0.00    -0.190 A  
HETATM   33  C   UNL     1     -10.277   3.218  72.533  1.00  0.00    -0.218 A  
HETATM   34  C   UNL     1      -9.870   4.179  71.596  1.00  0.00    -0.254 A  
HETATM   35  C   UNL     1     -10.548   3.590  73.849  1.00  0.00    -0.281 A  
HETATM   36  C   UNL     1     -10.423   4.924  74.226  1.00  0.00    -0.336 A  
ENDBRANCH  30  31
ENDBRANCH  11  30
ENDBRANCH   9  11
ENDBRANCH   7   9
ENDBRANCH   5   7
ENDBRANCH   4   5
ENDBRANCH   2   4
TORSDOF 12
ENDMDL
MODEL      266
REMARK 921   NORMALIZED FREE ENERGY PREDICTED BY IDOCK:   -4.28 KCAL/MOL
REMARK 922        TOTAL FREE ENERGY PREDICTED BY IDOCK:   -9.00 KCAL/MOL
REMARK 923 INTER-LIGAND FREE ENERGY PREDICTED BY IDOCK:   -7.28 KCAL/MOL
REMARK 924 INTRA-LIGAND FREE ENERGY PREDICTED BY IDOCK:   -1.72 KCAL/MOL
REMARK 927      BINDING AFFINITY PREDICTED BY RF-SCORE:    0.00 PKD
ROOT
HETATM    1  C   UNL     1     -14.158   8.929  72.307  1.00  0.00    -0.512 C  
HETATM    2  C   UNL     1     -12.859   8.207  71.942  1.00  0.00    -0.335 C  
HETATM    3  C   UNL     1     -13.091   6.694  71.820  1.00  0.00    -0.147 C  
ENDROOT
BRANCH   2   4
HETATM    4  O   UNL     1     -12.154   8.847  70.829  1.00  0.00    -0.234 OA 
BRANCH   4   5
HETATM    5  C   UNL     1     -11.013   9.539  71.068  1.00  0.00    -0.353 C  
HETATM    6  O   UNL     1     -10.097   9.100  71.766  1.00  0.00    -0.329 OA 
BRANCH   5   7
HETATM    7  C   UNL     1     -10.903  10.953  70.429  1.00  0.00     0.286 C  
HETATM    8  C   UNL     1     -12.284  11.605  70.410  1.00  0.00    -0.434 C  
BRANCH   7   9
HETATM    9  N   UNL     1     -10.199  11.115  69.098  1.00  0.00    -0.367 NA 
HETATM   10  H   UNL     1     -10.115  10.222  68.612  1.00  0.00     0.000 HD 
BRANCH   9  11
HETATM   11  P   UNL     1     -10.980  12.323  68.081  1.00  0.00    -0.269 P  
HETATM   12  O   UNL     1     -12.032  11.331  67.528  1.00  0.00    -0.612 OA 
BRANCH  11  13
HETATM   13  C   UNL     1     -10.209  12.427  66.334  1.00  0.00    -0.234 C  
BRANCH  13  14
HETATM   14  O   UNL     1      -8.732  12.362  66.346  1.00  0.00    -0.119 OA 
BRANCH  14  15
HETATM   15  C   UNL     1      -8.038  11.217  66.910  1.00  0.00    -0.150 C  
HETATM   16  C   UNL     1      -6.557  11.555  67.117  1.00  0.00    -0.124 C  
BRANCH  15  17
HETATM   17  C   UNL     1      -8.289   9.899  66.190  1.00  0.00    -0.122 C  
BRANCH  17  18
HETATM   18  N   UNL     1      -9.091   8.948  66.908  1.00  0.00    -0.129 NA 
HETATM   19  C   UNL     1     -10.368   8.544  66.625  1.00  0.00    -0.233 A  
HETATM   20  N   UNL     1     -10.770   7.594  67.442  1.00  0.00    -0.274 NA 
HETATM   21  C   UNL     1      -9.706   7.403  68.295  1.00  0.00    -0.152 A  
HETATM   22  C   UNL     1      -9.516   6.523  69.364  1.00  0.00    -0.145 A  
HETATM   23  N   UNL     1      -8.371   6.610  70.081  1.00  0.00    -0.133 NA 
HETATM   24  N   UNL     1     -10.470   5.579  69.710  1.00  0.00    -0.297 NA 
HETATM   25  C   UNL     1      -7.450   7.512  69.694  1.00  0.00    -0.092 A  
HETATM   26  H1  UNL     1     -10.332   4.937  70.491  1.00  0.00     0.000 HD 
HETATM   27  H2  UNL     1     -10.674   5.023  68.880  1.00  0.00     0.000 HD 
HETATM   28  N   UNL     1      -7.500   8.384  68.663  1.00  0.00    -0.091 NA 
HETATM   29  C   UNL     1      -8.666   8.264  68.009  1.00  0.00    -0.135 A  
ENDBRANCH  17  18
ENDBRANCH  15  17
ENDBRANCH  14  15
ENDBRANCH  13  14
ENDBRANCH  11  13
BRANCH  11  30
HETATM   30  O   UNL     1      -9.805  13.432  68.700  1.00  0.00    -0.205 OA 
BRANCH  30  31
HETATM   31  C   UNL     1     -10.072  14.778  68.519  1.00  0.00    -0.230 A  
HETATM   32  C   UNL     1      -9.131  15.515  67.799  1.00  0.00    -0.178 A  
HETATM   33  C   UNL     1     -11.379  16.798  68.832  1.00  0.00    -0.016 A  
HETATM   34  C   UNL     1     -11.204  15.421  69.030  1.00  0.00    -0.295 A  
HETATM   35  C   UNL     1     -10.426  17.534  68.131  1.00  0.00    -0.386 A  
HETATM   36  C   UNL     1      -9.303  16.892  67.616  1.00  0.00    -0.233 A  
ENDBRANCH  30  31
ENDBRANCH  11  30
ENDBRANCH   9  11
ENDBRANCH   7   9
ENDBRANCH   5   7
ENDBRANCH   4   5
ENDBRANCH   2   4
TORSDOF 12
ENDMDL
MODEL      267
REMARK 921   NORMALIZED FREE ENERGY PREDICTED BY IDOCK:   -4.27 KCAL/MOL
REMARK 922        TOTAL FREE ENERGY PREDICTED BY IDOCK:   -8.98 KCAL/MOL
REMARK 923 INTER-LIGAND FREE ENERGY PREDICTED BY IDOCK:   -8.09 KCAL/MOL
REMARK 924 INTRA-LIGAND FREE ENERGY PREDICTED BY IDOCK:   -0.89 KCAL/MOL
REMARK 927      BINDING AFFINITY PREDICTED BY RF-SCORE:    0.00 PKD
ROOT
HETATM    1  C   UNL     1      -6.321  15.283  69.865  1.00  0.00    -0.164 C  
HETATM    2  C   UNL     1      -6.541  16.754  69.503  1.00  0.00    -0.207 C  
HETATM    3  C   UNL     1      -5.458  17.639  70.136  1.00  0.00    -0.243 C  
ENDROOT
BRANCH   2   4
HETATM    4  O   UNL     1      -6.784  16.949  68.071  1.00  0.00    -0.142 OA 
BRANCH   4   5
HETATM    5  C   UNL     1      -8.038  17.222  67.637  1.00  0.00    -0.191 C  
HETATM    6  O   UNL     1      -8.651  18.243  67.956  1.00  0.00    -0.257 OA 
BRANCH   5   7
HETATM    7  C   UNL     1      -8.705  16.166  66.709  1.00  0.00    -0.240 C  
HETATM    8  C   UNL     1     -10.213  16.161  66.956  1.00  0.00    -0.285 C  
BRANCH   7   9
HETATM    9  N   UNL     1      -8.150  14.758  66.665  1.00  0.00    -0.326 NA 
HETATM   10  H   UNL     1      -7.215  14.715  67.070  1.00  0.00     0.000 HD 
BRANCH   9  11
HETATM   11  P   UNL     1      -9.232  13.597  67.430  1.00  0.00    -0.245 P  
HETATM   12  O   UNL     1      -9.282  14.369  68.771  1.00  0.00    -0.197 OA 
BRANCH  11  13
HETATM   13  C   UNL     1      -8.292  12.187  68.317  1.00  0.00    -0.172 C  
BRANCH  13  14
HETATM   14  O   UNL     1      -9.190  11.205  68.959  1.00  0.00    -0.140 OA 
BRANCH  14  15
HETATM   15  C   UNL     1      -9.675  10.044  68.230  1.00  0.00    -0.141 C  
HETATM   16  C   UNL     1     -11.206   9.991  68.293  1.00  0.00    -0.195 C  
BRANCH  15  17
HETATM   17  C   UNL     1      -8.984   8.734  68.580  1.00  0.00    -0.138 C  
BRANCH  17  18
HETATM   18  N   UNL     1      -8.665   8.559  69.970  1.00  0.00    -0.133 NA 
HETATM   19  C   UNL     1      -7.477   8.821  70.598  1.00  0.00    -0.079 A  
HETATM   20  N   UNL     1      -7.560   8.627  71.896  1.00  0.00    -0.247 NA 
HETATM   21  C   UNL     1      -8.854   8.201  72.097  1.00  0.00    -0.178 A  
HETATM   22  C   UNL     1      -9.550   7.851  73.257  1.00  0.00    -0.285 A  
HETATM   23  N   UNL     1     -10.819   7.393  73.141  1.00  0.00    -0.376 NA 
HETATM   24  N   UNL     1      -8.972   7.953  74.513  1.00  0.00    -0.346 NA 
HETATM   25  C   UNL     1     -11.362   7.343  71.910  1.00  0.00    -0.260 A  
HETATM   26  H1  UNL     1      -9.480   7.697  75.360  1.00  0.00     0.000 HD 
HETATM   27  H2  UNL     1      -8.636   8.909  74.626  1.00  0.00     0.000 HD 
HETATM   28  N   UNL     1     -10.809   7.688  70.726  1.00  0.00    -0.234 NA 
HETATM   29  C   UNL     1      -9.548   8.110  70.908  1.00  0.00    -0.162 A  
ENDBRANCH  17  18
ENDBRANCH  15  17
ENDBRANCH  14  15
ENDBRANCH  13  14
ENDBRANCH  11  13
BRANCH  11  30
HETATM   30  O   UNL     1      -9.176  12.734  65.931  1.00  0.00    -0.063 OA 
BRANCH  30  31
HETATM   31  C   UNL     1     -10.378  12.579  65.264  1.00  0.00    -0.287 A  
HETATM   32  C   UNL     1     -10.321  12.033  63.982  1.00  0.00    -0.406 A  
HETATM   33  C   UNL     1     -12.783  12.799  65.037  1.00  0.00    -0.455 A  
HETATM   34  C   UNL     1     -11.615  12.955  65.796  1.00  0.00    -0.411 A  
HETATM   35  C   UNL     1     -12.719  12.272  63.748  1.00  0.00    -0.516 A  
HETATM   36  C   UNL     1     -11.488  11.890  63.222  1.00  0.00    -0.376 A  
ENDBRANCH  30  31
ENDBRANCH  11  30
ENDBRANCH   9  11
ENDBRANCH   7   9
ENDBRANCH   5   7
ENDBRANCH   4   5
ENDBRANCH   2   4
TORSDOF 12
ENDMDL
MODEL      268
REMARK 921   NORMALIZED FREE ENERGY PREDICTED BY IDOCK:   -4.27 KCAL/MOL
REMARK 922        TOTAL FREE ENERGY PREDICTED BY IDOCK:   -8.98 KCAL/MOL
REMARK 923 INTER-LIGAND FREE ENERGY PREDICTED BY IDOCK:   -8.04 KCAL/MOL
REMARK 924 INTRA-LIGAND FREE ENERGY PREDICTED BY IDOCK:   -0.94 KCAL/MOL
REMARK 927      BINDING AFFINITY PREDICTED BY RF-SCORE:    0.00 PKD
ROOT
HETATM    1  C   UNL     1     -10.544  19.504  65.918  1.00  0.00    -0.572 C  
HETATM    2  C   UNL     1      -9.209  18.897  66.358  1.00  0.00    -0.313 C  
HETATM    3  C   UNL     1      -9.024  19.026  67.876  1.00  0.00    -0.338 C  
ENDROOT
BRANCH   2   4
HETATM    4  O   UNL     1      -8.983  17.566  65.787  1.00  0.00    -0.512 OA 
BRANCH   4   5
HETATM    5  C   UNL     1      -8.536  16.564  66.583  1.00  0.00    -0.263 C  
HETATM    6  O   UNL     1      -7.342  16.387  66.832  1.00  0.00    -0.193 OA 
BRANCH   5   7
HETATM    7  C   UNL     1      -9.610  15.606  67.174  1.00  0.00    -0.218 C  
HETATM    8  C   UNL     1      -9.340  15.407  68.665  1.00  0.00    -0.202 C  
BRANCH   7   9
HETATM    9  N   UNL     1      -9.892  14.288  66.486  1.00  0.00    -0.278 NA 
HETATM   10  H   UNL     1      -9.332  14.185  65.639  1.00  0.00     0.000 HD 
BRANCH   9  11
HETATM   11  P   UNL     1      -9.671  12.916  67.569  1.00  0.00    -0.218 P  
HETATM   12  O   UNL     1      -8.133  12.890  67.392  1.00  0.00    -0.167 OA 
BRANCH  11  13
HETATM   13  C   UNL     1      -9.771  11.236  66.661  1.00  0.00    -0.196 C  
BRANCH  13  14
HETATM   14  O   UNL     1      -8.612  10.983  65.780  1.00  0.00    -0.180 OA 
BRANCH  14  15
HETATM   15  C   UNL     1      -7.965   9.681  65.750  1.00  0.00    -0.109 C  
HETATM   16  C   UNL     1      -6.887   9.660  64.658  1.00  0.00    -0.109 C  
BRANCH  15  17
HETATM   17  C   UNL     1      -8.916   8.494  65.718  1.00  0.00    -0.182 C  
BRANCH  17  18
HETATM   18  N   UNL     1      -9.015   7.752  66.945  1.00  0.00    -0.128 NA 
HETATM   19  C   UNL     1      -8.854   8.217  68.222  1.00  0.00    -0.133 A  
HETATM   20  N   UNL     1      -9.100   7.282  69.114  1.00  0.00    -0.138 NA 
HETATM   21  C   UNL     1      -9.410   6.168  68.367  1.00  0.00    -0.116 A  
HETATM   22  C   UNL     1      -9.775   4.870  68.736  1.00  0.00    -0.165 A  
HETATM   23  N   UNL     1      -9.956   3.945  67.766  1.00  0.00     0.014 NA 
HETATM   24  N   UNL     1      -9.945   4.511  70.065  1.00  0.00    -0.228 NA 
HETATM   25  C   UNL     1      -9.820   4.337  66.485  1.00  0.00    -0.219 A  
HETATM   26  H1  UNL     1     -10.212   3.564  70.335  1.00  0.00     0.000 HD 
HETATM   27  H2  UNL     1     -10.619   5.156  70.479  1.00  0.00     0.000 HD 
HETATM   28  N   UNL     1      -9.511   5.562  66.003  1.00  0.00    -0.153 NA 
HETATM   29  C   UNL     1      -9.322   6.424  67.014  1.00  0.00    -0.131 A  
ENDBRANCH  17  18
ENDBRANCH  15  17
ENDBRANCH  14  15
ENDBRANCH  13  14
ENDBRANCH  11  13
BRANCH  11  30
HETATM   30  O   UNL     1     -11.390  12.947  67.767  1.00  0.00    -0.264 OA 
BRANCH  30  31
HETATM   31  C   UNL     1     -11.870  12.658  69.032  1.00  0.00    -0.294 A  
HETATM   32  C   UNL     1     -12.323  13.736  69.794  1.00  0.00    -0.311 A  
HETATM   33  C   UNL     1     -12.367  11.171  70.884  1.00  0.00    -0.500 A  
HETATM   34  C   UNL     1     -11.900  11.371  69.577  1.00  0.00    -0.426 A  
HETATM   35  C   UNL     1     -12.799  12.254  71.649  1.00  0.00    -0.378 A  
HETATM   36  C   UNL     1     -12.776  13.534  71.103  1.00  0.00    -0.425 A  
ENDBRANCH  30  31
ENDBRANCH  11  30
ENDBRANCH   9  11
ENDBRANCH   7   9
ENDBRANCH   5   7
ENDBRANCH   4   5
ENDBRANCH   2   4
TORSDOF 12
ENDMDL
MODEL      269
REMARK 921   NORMALIZED FREE ENERGY PREDICTED BY IDOCK:   -4.26 KCAL/MOL
REMARK 922        TOTAL FREE ENERGY PREDICTED BY IDOCK:   -8.97 KCAL/MOL
REMARK 923 INTER-LIGAND FREE ENERGY PREDICTED BY IDOCK:   -8.25 KCAL/MOL
REMARK 924 INTRA-LIGAND FREE ENERGY PREDICTED BY IDOCK:   -0.72 KCAL/MOL
REMARK 927      BINDING AFFINITY PREDICTED BY RF-SCORE:    0.00 PKD
ROOT
HETATM    1  C   UNL     1      -7.891   6.114  63.309  1.00  0.00    -0.100 C  
HETATM    2  C   UNL     1      -8.700   6.127  64.608  1.00  0.00     0.220 C  
HETATM    3  C   UNL     1      -9.058   4.700  65.044  1.00  0.00    -0.156 C  
ENDROOT
BRANCH   2   4
HETATM    4  O   UNL     1      -8.103   6.988  65.633  1.00  0.00    -0.115 OA 
BRANCH   4   5
HETATM    5  C   UNL     1      -8.319   8.326  65.593  1.00  0.00    -0.148 C  
HETATM    6  O   UNL     1      -7.963   9.034  64.649  1.00  0.00    -0.115 OA 
BRANCH   5   7
HETATM    7  C   UNL     1      -9.037   8.957  66.820  1.00  0.00    -0.143 C  
HETATM    8  C   UNL     1     -10.437   8.360  66.946  1.00  0.00    -0.359 C  
BRANCH   7   9
HETATM    9  N   UNL     1      -9.065  10.463  66.972  1.00  0.00    -0.139 NA 
HETATM   10  H   UNL     1      -8.785  10.928  66.108  1.00  0.00     0.000 HD 
BRANCH   9  11
HETATM   11  P   UNL     1     -10.633  11.041  67.530  1.00  0.00    -0.262 P  
HETATM   12  O   UNL     1     -11.197  11.211  66.098  1.00  0.00    -0.161 OA 
BRANCH  11  13
HETATM   13  C   UNL     1     -10.686  12.942  67.740  1.00  0.00    -0.224 C  
BRANCH  13  14
HETATM   14  O   UNL     1     -11.507  13.616  66.712  1.00  0.00    -0.320 OA 
BRANCH  14  15
HETATM   15  C   UNL     1     -11.052  14.842  66.078  1.00  0.00    -0.334 C  
HETATM   16  C   UNL     1     -11.076  14.680  64.553  1.00  0.00    -0.269 C  
BRANCH  15  17
HETATM   17  C   UNL     1      -9.749  15.404  66.630  1.00  0.00    -0.253 C  
BRANCH  17  18
HETATM   18  N   UNL     1      -9.626  16.834  66.582  1.00  0.00    -0.246 NA 
HETATM   19  C   UNL     1     -10.631  17.761  66.500  1.00  0.00    -0.220 A  
HETATM   20  N   UNL     1     -10.166  18.989  66.564  1.00  0.00    -0.390 NA 
HETATM   21  C   UNL     1      -8.802  18.834  66.670  1.00  0.00    -0.314 A  
HETATM   22  C   UNL     1      -7.766  19.764  66.788  1.00  0.00    -0.281 A  
HETATM   23  N   UNL     1      -6.489  19.316  66.803  1.00  0.00    -0.187 NA 
HETATM   24  N   UNL     1      -8.014  21.125  66.880  1.00  0.00    -0.601 NA 
HETATM   25  C   UNL     1      -6.285  17.986  66.751  1.00  0.00    -0.169 A  
HETATM   26  H1  UNL     1      -7.257  21.804  66.966  1.00  0.00     0.000 HD 
HETATM   27  H2  UNL     1      -8.658  21.274  67.657  1.00  0.00     0.000 HD 
HETATM   28  N   UNL     1      -7.198  16.993  66.675  1.00  0.00    -0.230 NA 
HETATM   29  C   UNL     1      -8.439  17.504  66.640  1.00  0.00    -0.259 A  
ENDBRANCH  17  18
ENDBRANCH  15  17
ENDBRANCH  14  15
ENDBRANCH  13  14
ENDBRANCH  11  13
BRANCH  11  30
HETATM   30  O   UNL     1     -10.002  10.851  69.130  1.00  0.00    -0.210 OA 
BRANCH  30  31
HETATM   31  C   UNL     1     -10.823  10.216  70.045  1.00  0.00    -0.307 A  
HETATM   32  C   UNL     1     -10.524   8.886  70.343  1.00  0.00    -0.245 A  
HETATM   33  C   UNL     1     -12.730  10.097  71.540  1.00  0.00    -0.541 A  
HETATM   34  C   UNL     1     -11.925  10.825  70.653  1.00  0.00    -0.466 A  
HETATM   35  C   UNL     1     -12.439   8.762  71.819  1.00  0.00    -0.407 A  
HETATM   36  C   UNL     1     -11.337   8.159  71.220  1.00  0.00    -0.300 A  
ENDBRANCH  30  31
ENDBRANCH  11  30
ENDBRANCH   9  11
ENDBRANCH   7   9
ENDBRANCH   5   7
ENDBRANCH   4   5
ENDBRANCH   2   4
TORSDOF 12
ENDMDL
MODEL      270
REMARK 921   NORMALIZED FREE ENERGY PREDICTED BY IDOCK:   -4.26 KCAL/MOL
REMARK 922        TOTAL FREE ENERGY PREDICTED BY IDOCK:   -8.96 KCAL/MOL
REMARK 923 INTER-LIGAND FREE ENERGY PREDICTED BY IDOCK:   -7.86 KCAL/MOL
REMARK 924 INTRA-LIGAND FREE ENERGY PREDICTED BY IDOCK:   -1.10 KCAL/MOL
REMARK 927      BINDING AFFINITY PREDICTED BY RF-SCORE:    0.00 PKD
ROOT
HETATM    1  C   UNL     1     -13.569   9.394  72.204  1.00  0.00    -0.528 C  
HETATM    2  C   UNL     1     -13.004  10.530  71.349  1.00  0.00    -0.440 C  
HETATM    3  C   UNL     1     -13.326  11.896  71.972  1.00  0.00    -0.425 C  
ENDROOT
BRANCH   2   4
HETATM    4  O   UNL     1     -11.607  10.304  70.968  1.00  0.00    -0.351 OA 
BRANCH   4   5
HETATM    5  C   UNL     1     -11.288  10.138  69.660  1.00  0.00    -0.235 C  
HETATM    6  O   UNL     1     -11.843  10.759  68.751  1.00  0.00    -0.359 OA 
BRANCH   5   7
HETATM    7  C   UNL     1     -10.181   9.095  69.336  1.00  0.00    -0.210 C  
HETATM    8  C   UNL     1     -10.664   7.704  69.746  1.00  0.00    -0.243 C  
BRANCH   7   9
HETATM    9  N   UNL     1      -8.763   9.344  69.803  1.00  0.00    -0.164 NA 
HETATM   10  H   UNL     1      -8.335   8.490  70.161  1.00  0.00     0.000 HD 
BRANCH   9  11
HETATM   11  P   UNL     1      -7.772  10.076  68.543  1.00  0.00    -0.094 P  
HETATM   12  O   UNL     1      -7.219  11.182  69.474  1.00  0.00    -0.121 OA 
BRANCH  11  13
HETATM   13  C   UNL     1      -8.708  11.421  67.557  1.00  0.00    -0.140 C  
BRANCH  13  14
HETATM   14  O   UNL     1      -8.230  12.789  67.844  1.00  0.00    -0.144 OA 
BRANCH  14  15
HETATM   15  C   UNL     1      -9.111  13.936  67.695  1.00  0.00    -0.197 C  
HETATM   16  C   UNL     1     -10.365  13.745  68.557  1.00  0.00    -0.244 C  
BRANCH  15  17
HETATM   17  C   UNL     1      -9.393  14.344  66.256  1.00  0.00    -0.232 C  
BRANCH  17  18
HETATM   18  N   UNL     1      -9.628  15.746  66.049  1.00  0.00    -0.328 NA 
HETATM   19  C   UNL     1     -10.728  16.339  65.490  1.00  0.00    -0.313 A  
HETATM   20  N   UNL     1     -10.649  17.651  65.535  1.00  0.00    -0.615 NA 
HETATM   21  C   UNL     1      -9.433  17.901  66.131  1.00  0.00    -0.153 A  
HETATM   22  C   UNL     1      -8.789  19.095  66.469  1.00  0.00    -0.334 A  
HETATM   23  N   UNL     1      -7.542  19.035  66.992  1.00  0.00    -0.225 NA 
HETATM   24  N   UNL     1      -9.390  20.328  66.272  1.00  0.00    -0.615 NA 
HETATM   25  C   UNL     1      -7.004  17.819  67.205  1.00  0.00    -0.177 A  
HETATM   26  H1  UNL     1      -8.919  21.200  66.518  1.00  0.00     0.000 HD 
HETATM   27  H2  UNL     1     -10.293  20.315  66.746  1.00  0.00     0.000 HD 
HETATM   28  N   UNL     1      -7.538  16.602  66.959  1.00  0.00    -0.180 NA 
HETATM   29  C   UNL     1      -8.761  16.732  66.421  1.00  0.00    -0.302 A  
ENDBRANCH  17  18
ENDBRANCH  15  17
ENDBRANCH  14  15
ENDBRANCH  13  14
ENDBRANCH  11  13
BRANCH  11  30
HETATM   30  O   UNL     1      -8.390   8.838  67.503  1.00  0.00    -0.109 OA 
BRANCH  30  31
HETATM   31  C   UNL     1      -7.593   7.719  67.337  1.00  0.00    -0.105 A  
HETATM   32  C   UNL     1      -6.214   7.907  67.439  1.00  0.00    -0.054 A  
HETATM   33  C   UNL     1      -7.213   5.370  66.864  1.00  0.00    -0.078 A  
HETATM   34  C   UNL     1      -8.094   6.444  67.056  1.00  0.00    -0.112 A  
HETATM   35  C   UNL     1      -5.836   5.567  66.947  1.00  0.00    -0.018 A  
HETATM   36  C   UNL     1      -5.338   6.835  67.234  1.00  0.00    -0.009 A  
ENDBRANCH  30  31
ENDBRANCH  11  30
ENDBRANCH   9  11
ENDBRANCH   7   9
ENDBRANCH   5   7
ENDBRANCH   4   5
ENDBRANCH   2   4
TORSDOF 12
ENDMDL
MODEL      271
REMARK 921   NORMALIZED FREE ENERGY PREDICTED BY IDOCK:   -4.25 KCAL/MOL
REMARK 922        TOTAL FREE ENERGY PREDICTED BY IDOCK:   -8.95 KCAL/MOL
REMARK 923 INTER-LIGAND FREE ENERGY PREDICTED BY IDOCK:   -7.52 KCAL/MOL
REMARK 924 INTRA-LIGAND FREE ENERGY PREDICTED BY IDOCK:   -1.43 KCAL/MOL
REMARK 927      BINDING AFFINITY PREDICTED BY RF-SCORE:    0.00 PKD
ROOT
HETATM    1  C   UNL     1      -5.596  10.334  62.944  1.00  0.00    -0.131 C  
HETATM    2  C   UNL     1      -6.429   9.955  64.171  1.00  0.00    -0.126 C  
HETATM    3  C   UNL     1      -7.884   9.666  63.774  1.00  0.00    -0.139 C  
ENDROOT
BRANCH   2   4
HETATM    4  O   UNL     1      -5.772   8.947  65.007  1.00  0.00    -0.053 OA 
BRANCH   4   5
HETATM    5  C   UNL     1      -6.504   7.938  65.539  1.00  0.00    -0.042 C  
HETATM    6  O   UNL     1      -6.654   6.851  64.977  1.00  0.00    -0.041 OA 
BRANCH   5   7
HETATM    7  C   UNL     1      -7.183   8.211  66.911  1.00  0.00    -0.083 C  
HETATM    8  C   UNL     1      -6.218   8.990  67.804  1.00  0.00    -0.051 C  
BRANCH   7   9
HETATM    9  N   UNL     1      -7.828   7.067  67.664  1.00  0.00    -0.111 NA 
HETATM   10  H   UNL     1      -7.329   6.866  68.531  1.00  0.00     0.000 HD 
BRANCH   9  11
HETATM   11  P   UNL     1      -9.539   7.355  67.964  1.00  0.00    -0.147 P  
HETATM   12  O   UNL     1      -9.883   7.520  66.464  1.00  0.00    -0.208 OA 
BRANCH  11  13
HETATM   13  C   UNL     1      -9.941   9.206  68.226  1.00  0.00    -0.175 C  
BRANCH  13  14
HETATM   14  O   UNL     1     -10.531   9.846  67.031  1.00  0.00    -0.237 OA 
BRANCH  14  15
HETATM   15  C   UNL     1     -10.310  11.255  66.751  1.00  0.00    -0.238 C  
HETATM   16  C   UNL     1      -9.082  11.754  67.524  1.00  0.00    -0.175 C  
BRANCH  15  17
HETATM   17  C   UNL     1     -11.542  12.137  66.891  1.00  0.00    -0.341 C  
BRANCH  17  18
HETATM   18  N   UNL     1     -11.834  12.581  68.226  1.00  0.00    -0.333 NA 
HETATM   19  C   UNL     1     -12.255  11.826  69.288  1.00  0.00    -0.140 A  
HETATM   20  N   UNL     1     -12.343  12.542  70.388  1.00  0.00    -0.279 NA 
HETATM   21  C   UNL     1     -11.981  13.812  70.001  1.00  0.00    -0.338 A  
HETATM   22  C   UNL     1     -11.864  15.007  70.717  1.00  0.00    -0.320 A  
HETATM   23  N   UNL     1     -11.550  16.139  70.046  1.00  0.00    -0.294 NA 
HETATM   24  N   UNL     1     -12.070  15.058  72.087  1.00  0.00    -0.367 NA 
HETATM   25  C   UNL     1     -11.319  16.046  68.723  1.00  0.00    -0.380 A  
HETATM   26  H1  UNL     1     -11.985  15.930  72.610  1.00  0.00     0.000 HD 
HETATM   27  H2  UNL     1     -11.454  14.371  72.522  1.00  0.00     0.000 HD 
HETATM   28  N   UNL     1     -11.363  14.951  67.931  1.00  0.00    -0.315 NA 
HETATM   29  C   UNL     1     -11.701  13.871  68.651  1.00  0.00    -0.361 A  
ENDBRANCH  17  18
ENDBRANCH  15  17
ENDBRANCH  14  15
ENDBRANCH  13  14
ENDBRANCH  11  13
BRANCH  11  30
HETATM   30  O   UNL     1      -9.156   7.169  69.642  1.00  0.00    -0.141 OA 
BRANCH  30  31
HETATM   31  C   UNL     1     -10.177   7.429  70.539  1.00  0.00    -0.193 A  
HETATM   32  C   UNL     1     -11.343   6.676  70.400  1.00  0.00    -0.421 A  
HETATM   33  C   UNL     1     -11.199   8.626  72.385  1.00  0.00    -0.339 A  
HETATM   34  C   UNL     1     -10.102   8.401  71.541  1.00  0.00    -0.293 A  
HETATM   35  C   UNL     1     -12.369   7.887  72.229  1.00  0.00    -0.299 A  
HETATM   36  C   UNL     1     -12.441   6.913  71.236  1.00  0.00    -0.409 A  
ENDBRANCH  30  31
ENDBRANCH  11  30
ENDBRANCH   9  11
ENDBRANCH   7   9
ENDBRANCH   5   7
ENDBRANCH   4   5
ENDBRANCH   2   4
TORSDOF 12
ENDMDL
MODEL      272
REMARK 921   NORMALIZED FREE ENERGY PREDICTED BY IDOCK:   -4.25 KCAL/MOL
REMARK 922        TOTAL FREE ENERGY PREDICTED BY IDOCK:   -8.94 KCAL/MOL
REMARK 923 INTER-LIGAND FREE ENERGY PREDICTED BY IDOCK:   -8.61 KCAL/MOL
REMARK 924 INTRA-LIGAND FREE ENERGY PREDICTED BY IDOCK:   -0.32 KCAL/MOL
REMARK 927      BINDING AFFINITY PREDICTED BY RF-SCORE:    0.00 PKD
ROOT
HETATM    1  C   UNL     1      -5.530  10.653  62.918  1.00  0.00    -0.168 C  
HETATM    2  C   UNL     1      -6.533  10.563  64.070  1.00  0.00     0.064 C  
HETATM    3  C   UNL     1      -7.917  10.140  63.558  1.00  0.00    -0.161 C  
ENDROOT
BRANCH   2   4
HETATM    4  O   UNL     1      -6.008   9.812  65.214  1.00  0.00    -0.064 OA 
BRANCH   4   5
HETATM    5  C   UNL     1      -6.666   8.711  65.652  1.00  0.00    -0.064 C  
HETATM    6  O   UNL     1      -6.520   7.597  65.144  1.00  0.00    -0.041 OA 
BRANCH   5   7
HETATM    7  C   UNL     1      -7.653   8.909  66.837  1.00  0.00    -0.087 C  
HETATM    8  C   UNL     1      -6.962   9.712  67.938  1.00  0.00    -0.079 C  
BRANCH   7   9
HETATM    9  N   UNL     1      -8.383   7.711  67.407  1.00  0.00    -0.115 NA 
HETATM   10  H   UNL     1      -8.118   7.541  68.377  1.00  0.00     0.000 HD 
BRANCH   9  11
HETATM   11  P   UNL     1     -10.130   7.861  67.239  1.00  0.00    -0.293 P  
HETATM   12  O   UNL     1     -10.038   8.986  66.179  1.00  0.00    -0.290 OA 
BRANCH  11  13
HETATM   13  C   UNL     1     -10.883   9.123  68.464  1.00  0.00    -0.043 C  
BRANCH  13  14
HETATM   14  O   UNL     1     -11.087  10.459  67.867  1.00  0.00    -0.284 OA 
BRANCH  14  15
HETATM   15  C   UNL     1     -10.313  11.605  68.314  1.00  0.00    -0.200 C  
HETATM   16  C   UNL     1     -11.246  12.657  68.929  1.00  0.00    -0.329 C  
BRANCH  15  17
HETATM   17  C   UNL     1      -9.334  12.157  67.288  1.00  0.00    -0.183 C  
BRANCH  17  18
HETATM   18  N   UNL     1      -9.918  12.958  66.248  1.00  0.00    -0.266 NA 
HETATM   19  C   UNL     1     -10.618  12.530  65.151  1.00  0.00    -0.293 A  
HETATM   20  N   UNL     1     -11.085  13.539  64.449  1.00  0.00    -0.382 NA 
HETATM   21  C   UNL     1     -10.643  14.658  65.120  1.00  0.00    -0.421 A  
HETATM   22  C   UNL     1     -10.824  16.022  64.877  1.00  0.00    -0.372 A  
HETATM   23  N   UNL     1     -10.201  16.914  65.681  1.00  0.00    -0.590 NA 
HETATM   24  N   UNL     1     -11.615  16.478  63.833  1.00  0.00    -1.578 NA 
HETATM   25  C   UNL     1      -9.472  16.438  66.708  1.00  0.00    -0.247 A  
HETATM   26  H1  UNL     1     -11.747  17.474  63.655  1.00  0.00     0.000 HD 
HETATM   27  H2  UNL     1     -12.537  16.052  63.930  1.00  0.00     0.000 HD 
HETATM   28  N   UNL     1      -9.254  15.153  67.067  1.00  0.00    -0.211 NA 
HETATM   29  C   UNL     1      -9.879  14.322  66.218  1.00  0.00    -0.307 A  
ENDBRANCH  17  18
ENDBRANCH  15  17
ENDBRANCH  14  15
ENDBRANCH  13  14
ENDBRANCH  11  13
BRANCH  11  30
HETATM   30  O   UNL     1     -10.234   6.603  68.424  1.00  0.00    -0.152 OA 
BRANCH  30  31
HETATM   31  C   UNL     1     -10.132   6.994  69.747  1.00  0.00    -0.189 A  
HETATM   32  C   UNL     1     -11.262   6.814  70.545  1.00  0.00    -0.370 A  
HETATM   33  C   UNL     1      -8.978   7.970  71.645  1.00  0.00    -0.192 A  
HETATM   34  C   UNL     1      -8.983   7.567  70.302  1.00  0.00    -0.147 A  
HETATM   35  C   UNL     1     -10.116   7.807  72.432  1.00  0.00    -0.284 A  
HETATM   36  C   UNL     1     -11.257   7.230  71.882  1.00  0.00    -0.281 A  
ENDBRANCH  30  31
ENDBRANCH  11  30
ENDBRANCH   9  11
ENDBRANCH   7   9
ENDBRANCH   5   7
ENDBRANCH   4   5
ENDBRANCH   2   4
TORSDOF 12
ENDMDL
MODEL      273
REMARK 921   NORMALIZED FREE ENERGY PREDICTED BY IDOCK:   -4.24 KCAL/MOL
REMARK 922        TOTAL FREE ENERGY PREDICTED BY IDOCK:   -8.93 KCAL/MOL
REMARK 923 INTER-LIGAND FREE ENERGY PREDICTED BY IDOCK:   -7.93 KCAL/MOL
REMARK 924 INTRA-LIGAND FREE ENERGY PREDICTED BY IDOCK:   -1.00 KCAL/MOL
REMARK 927      BINDING AFFINITY PREDICTED BY RF-SCORE:    0.00 PKD
ROOT
HETATM    1  C   UNL     1      -6.724   9.955  69.219  1.00  0.00    -0.055 C  
HETATM    2  C   UNL     1      -5.979  11.221  69.648  1.00  0.00    -0.090 C  
HETATM    3  C   UNL     1      -5.297  11.019  71.008  1.00  0.00    -0.100 C  
ENDROOT
BRANCH   2   4
HETATM    4  O   UNL     1      -5.142  11.770  68.577  1.00  0.00    -0.043 OA 
BRANCH   4   5
HETATM    5  C   UNL     1      -5.722  12.226  67.440  1.00  0.00    -0.139 C  
HETATM    6  O   UNL     1      -5.357  11.878  66.315  1.00  0.00    -0.308 OA 
BRANCH   5   7
HETATM    7  C   UNL     1      -6.886  13.244  67.607  1.00  0.00    -0.163 C  
HETATM    8  C   UNL     1      -8.196  12.588  67.171  1.00  0.00    -0.168 C  
BRANCH   7   9
HETATM    9  N   UNL     1      -6.748  14.635  67.025  1.00  0.00    -0.278 NA 
HETATM   10  H   UNL     1      -7.608  14.931  66.564  1.00  0.00     0.000 HD 
BRANCH   9  11
HETATM   11  P   UNL     1      -6.233  15.809  68.233  1.00  0.00    -0.133 P  
HETATM   12  O   UNL     1      -6.691  14.936  69.428  1.00  0.00    -0.128 OA 
BRANCH  11  13
HETATM   13  C   UNL     1      -7.605  17.067  68.670  1.00  0.00    -0.238 C  
BRANCH  13  14
HETATM   14  O   UNL     1      -8.968  16.528  68.486  1.00  0.00    -0.213 OA 
BRANCH  14  15
HETATM   15  C   UNL     1     -10.030  17.349  67.929  1.00  0.00    -0.301 C  
HETATM   16  C   UNL     1     -10.089  18.694  68.664  1.00  0.00    -0.412 C  
BRANCH  15  17
HETATM   17  C   UNL     1     -11.374  16.649  67.788  1.00  0.00     0.058 C  
BRANCH  17  18
HETATM   18  N   UNL     1     -11.515  15.431  68.536  1.00  0.00    -0.335 NA 
HETATM   19  C   UNL     1     -11.572  15.283  69.896  1.00  0.00    -0.311 A  
HETATM   20  N   UNL     1     -11.791  14.033  70.240  1.00  0.00    -0.309 NA 
HETATM   21  C   UNL     1     -11.855  13.354  69.044  1.00  0.00    -0.335 A  
HETATM   22  C   UNL     1     -12.079  12.007  68.748  1.00  0.00    -0.110 A  
HETATM   23  N   UNL     1     -12.015  11.605  67.457  1.00  0.00    -0.621 NA 
HETATM   24  N   UNL     1     -12.354  11.078  69.741  1.00  0.00    -0.319 NA 
HETATM   25  C   UNL     1     -11.783  12.539  66.515  1.00  0.00    -0.391 A  
HETATM   26  H1  UNL     1     -12.518  10.095  69.525  1.00  0.00     0.000 HD 
HETATM   27  H2  UNL     1     -13.154  11.419  70.274  1.00  0.00     0.000 HD 
HETATM   28  N   UNL     1     -11.590  13.868  66.671  1.00  0.00    -0.355 NA 
HETATM   29  C   UNL     1     -11.643  14.196  67.971  1.00  0.00    -0.334 A  
ENDBRANCH  17  18
ENDBRANCH  15  17
ENDBRANCH  14  15
ENDBRANCH  13  14
ENDBRANCH  11  13
BRANCH  11  30
HETATM   30  O   UNL     1      -5.721  16.783  66.898  1.00  0.00    -0.180 OA 
BRANCH  30  31
HETATM   31  C   UNL     1      -6.180  18.088  66.876  1.00  0.00    -0.164 A  
HETATM   32  C   UNL     1      -5.593  18.977  67.778  1.00  0.00    -0.179 A  
HETATM   33  C   UNL     1      -7.627  19.873  66.098  1.00  0.00    -0.338 A  
HETATM   34  C   UNL     1      -7.195  18.542  66.028  1.00  0.00    -0.290 A  
HETATM   35  C   UNL     1      -7.052  20.752  67.015  1.00  0.00    -0.383 A  
HETATM   36  C   UNL     1      -6.036  20.302  67.854  1.00  0.00    -0.267 A  
ENDBRANCH  30  31
ENDBRANCH  11  30
ENDBRANCH   9  11
ENDBRANCH   7   9
ENDBRANCH   5   7
ENDBRANCH   4   5
ENDBRANCH   2   4
TORSDOF 12
ENDMDL
MODEL      274
REMARK 921   NORMALIZED FREE ENERGY PREDICTED BY IDOCK:   -4.23 KCAL/MOL
REMARK 922        TOTAL FREE ENERGY PREDICTED BY IDOCK:   -8.91 KCAL/MOL
REMARK 923 INTER-LIGAND FREE ENERGY PREDICTED BY IDOCK:   -8.27 KCAL/MOL
REMARK 924 INTRA-LIGAND FREE ENERGY PREDICTED BY IDOCK:   -0.64 KCAL/MOL
REMARK 927      BINDING AFFINITY PREDICTED BY RF-SCORE:    0.00 PKD
ROOT
HETATM    1  C   UNL     1     -12.955  12.582  70.709  1.00  0.00     0.032 C  
HETATM    2  C   UNL     1     -11.991  11.473  70.280  1.00  0.00    -0.368 C  
HETATM    3  C   UNL     1     -12.118  10.252  71.202  1.00  0.00    -0.494 C  
ENDROOT
BRANCH   2   4
HETATM    4  O   UNL     1     -12.045  11.207  68.840  1.00  0.00    -0.475 OA 
BRANCH   4   5
HETATM    5  C   UNL     1     -11.907  12.233  67.965  1.00  0.00    -0.305 C  
HETATM    6  O   UNL     1     -12.083  12.106  66.751  1.00  0.00    -0.609 OA 
BRANCH   5   7
HETATM    7  C   UNL     1     -11.491  13.610  68.557  1.00  0.00    -0.312 C  
HETATM    8  C   UNL     1     -12.089  14.727  67.703  1.00  0.00    -0.138 C  
BRANCH   7   9
HETATM    9  N   UNL     1     -10.033  13.876  68.869  1.00  0.00    -0.410 NA 
HETATM   10  H   UNL     1      -9.538  13.012  69.091  1.00  0.00     0.000 HD 
BRANCH   9  11
HETATM   11  P   UNL     1      -9.231  14.757  67.572  1.00  0.00    -0.212 P  
HETATM   12  O   UNL     1      -9.110  13.513  66.658  1.00  0.00    -0.234 OA 
BRANCH  11  13
HETATM   13  C   UNL     1      -7.327  14.766  67.754  1.00  0.00    -0.170 C  
BRANCH  13  14
HETATM   14  O   UNL     1      -6.675  13.617  67.092  1.00  0.00    -0.164 OA 
BRANCH  14  15
HETATM   15  C   UNL     1      -5.824  12.707  67.841  1.00  0.00    -0.111 C  
HETATM   16  C   UNL     1      -5.591  11.426  67.029  1.00  0.00    -0.101 C  
BRANCH  15  17
HETATM   17  C   UNL     1      -6.252  12.470  69.282  1.00  0.00    -0.105 C  
BRANCH  17  18
HETATM   18  N   UNL     1      -7.120  11.343  69.489  1.00  0.00    -0.071 NA 
HETATM   19  C   UNL     1      -8.296  11.061  68.847  1.00  0.00    -0.123 A  
HETATM   20  N   UNL     1      -8.789   9.901  69.224  1.00  0.00    -0.161 NA 
HETATM   21  C   UNL     1      -7.896   9.438  70.164  1.00  0.00    -0.142 A  
HETATM   22  C   UNL     1      -7.860   8.259  70.914  1.00  0.00    -0.091 A  
HETATM   23  N   UNL     1      -6.878   8.102  71.832  1.00  0.00    -0.069 NA 
HETATM   24  N   UNL     1      -8.807   7.260  70.747  1.00  0.00    -0.149 NA 
HETATM   25  C   UNL     1      -5.954   9.075  71.941  1.00  0.00    -0.073 A  
HETATM   26  H1  UNL     1      -8.782   6.400  71.295  1.00  0.00     0.000 HD 
HETATM   27  H2  UNL     1      -8.819   7.003  69.761  1.00  0.00     0.000 HD 
HETATM   28  N   UNL     1      -5.859  10.233  71.251  1.00  0.00    -0.288 NA 
HETATM   29  C   UNL     1      -6.872  10.338  70.377  1.00  0.00    -0.102 A  
ENDBRANCH  17  18
ENDBRANCH  15  17
ENDBRANCH  14  15
ENDBRANCH  13  14
ENDBRANCH  11  13
BRANCH  11  30
HETATM   30  O   UNL     1      -9.366  16.148  68.593  1.00  0.00    -0.204 OA 
BRANCH  30  31
HETATM   31  C   UNL     1      -9.731  17.332  67.976  1.00  0.00    -0.277 A  
HETATM   32  C   UNL     1      -9.785  18.471  68.781  1.00  0.00    -0.390 A  
HETATM   33  C   UNL     1     -10.459  18.665  66.084  1.00  0.00    -0.473 A  
HETATM   34  C   UNL     1     -10.062  17.432  66.622  1.00  0.00    -0.317 A  
HETATM   35  C   UNL     1     -10.531  19.795  66.897  1.00  0.00    -0.596 A  
HETATM   36  C   UNL     1     -10.194  19.697  68.244  1.00  0.00    -0.567 A  
ENDBRANCH  30  31
ENDBRANCH  11  30
ENDBRANCH   9  11
ENDBRANCH   7   9
ENDBRANCH   5   7
ENDBRANCH   4   5
ENDBRANCH   2   4
TORSDOF 12
ENDMDL
MODEL      275
REMARK 921   NORMALIZED FREE ENERGY PREDICTED BY IDOCK:   -4.21 KCAL/MOL
REMARK 922        TOTAL FREE ENERGY PREDICTED BY IDOCK:   -8.88 KCAL/MOL
REMARK 923 INTER-LIGAND FREE ENERGY PREDICTED BY IDOCK:   -7.84 KCAL/MOL
REMARK 924 INTRA-LIGAND FREE ENERGY PREDICTED BY IDOCK:   -1.04 KCAL/MOL
REMARK 927      BINDING AFFINITY PREDICTED BY RF-SCORE:    0.00 PKD
ROOT
HETATM    1  C   UNL     1      -9.678   2.002  70.456  1.00  0.00    -0.051 C  
HETATM    2  C   UNL     1      -9.789   3.087  71.530  1.00  0.00    -0.122 C  
HETATM    3  C   UNL     1      -9.831   2.465  72.932  1.00  0.00    -0.180 C  
ENDROOT
BRANCH   2   4
HETATM    4  O   UNL     1      -8.826   4.174  71.331  1.00  0.00    -0.103 OA 
BRANCH   4   5
HETATM    5  C   UNL     1      -9.082   5.398  71.854  1.00  0.00    -0.138 C  
HETATM    6  O   UNL     1      -8.935   5.660  73.050  1.00  0.00    -0.124 OA 
BRANCH   5   7
HETATM    7  C   UNL     1      -9.598   6.488  70.871  1.00  0.00    -0.175 C  
HETATM    8  C   UNL     1     -11.084   6.258  70.601  1.00  0.00    -0.389 C  
BRANCH   7   9
HETATM    9  N   UNL     1      -8.839   6.751  69.587  1.00  0.00    -0.143 NA 
HETATM   10  H   UNL     1      -9.399   6.506  68.770  1.00  0.00     0.000 HD 
BRANCH   9  11
HETATM   11  P   UNL     1      -8.261   8.412  69.491  1.00  0.00    -0.121 P  
HETATM   12  O   UNL     1      -8.758   8.779  70.911  1.00  0.00    -0.157 OA 
BRANCH  11  13
HETATM   13  C   UNL     1      -9.565   9.607  68.763  1.00  0.00    -0.152 C  
BRANCH  13  14
HETATM   14  O   UNL     1      -9.815  10.785  69.619  1.00  0.00    -0.105 OA 
BRANCH  14  15
HETATM   15  C   UNL     1     -11.028  11.572  69.474  1.00  0.00    -0.125 C  
HETATM   16  C   UNL     1     -12.065  11.127  70.514  1.00  0.00    -0.474 C  
BRANCH  15  17
HETATM   17  C   UNL     1     -11.564  11.667  68.052  1.00  0.00    -0.313 C  
BRANCH  17  18
HETATM   18  N   UNL     1     -11.399  12.945  67.417  1.00  0.00    -0.291 NA 
HETATM   19  C   UNL     1     -10.747  14.046  67.903  1.00  0.00    -0.240 A  
HETATM   20  N   UNL     1     -10.715  15.021  67.021  1.00  0.00    -0.298 NA 
HETATM   21  C   UNL     1     -11.397  14.522  65.933  1.00  0.00    -0.341 A  
HETATM   22  C   UNL     1     -11.687  15.074  64.682  1.00  0.00    -0.382 A  
HETATM   23  N   UNL     1     -12.451  14.364  63.820  1.00  0.00    -0.786 NA 
HETATM   24  N   UNL     1     -11.220  16.326  64.312  1.00  0.00    -1.202 NA 
HETATM   25  C   UNL     1     -12.856  13.136  64.198  1.00  0.00     0.064 A  
HETATM   26  H1  UNL     1     -11.432  16.728  63.399  1.00  0.00     0.000 HD 
HETATM   27  H2  UNL     1     -10.207  16.328  64.428  1.00  0.00     0.000 HD 
HETATM   28  N   UNL     1     -12.610  12.483  65.356  1.00  0.00    -0.615 NA 
HETATM   29  C   UNL     1     -11.869  13.248  66.172  1.00  0.00    -0.390 A  
ENDBRANCH  17  18
ENDBRANCH  15  17
ENDBRANCH  14  15
ENDBRANCH  13  14
ENDBRANCH  11  13
BRANCH  11  30
HETATM   30  O   UNL     1      -7.705   8.002  67.904  1.00  0.00    -0.109 OA 
BRANCH  30  31
HETATM   31  C   UNL     1      -7.131   9.025  67.170  1.00  0.00    -0.079 A  
HETATM   32  C   UNL     1      -7.159   8.894  65.781  1.00  0.00    -0.084 A  
HETATM   33  C   UNL     1      -5.927  11.117  66.924  1.00  0.00    -0.103 A  
HETATM   34  C   UNL     1      -6.519  10.144  67.742  1.00  0.00    -0.062 A  
HETATM   35  C   UNL     1      -5.940  10.972  65.538  1.00  0.00     0.060 A  
HETATM   36  C   UNL     1      -6.555   9.861  64.968  1.00  0.00    -0.110 A  
ENDBRANCH  30  31
ENDBRANCH  11  30
ENDBRANCH   9  11
ENDBRANCH   7   9
ENDBRANCH   5   7
ENDBRANCH   4   5
ENDBRANCH   2   4
TORSDOF 12
ENDMDL
MODEL      276
REMARK 921   NORMALIZED FREE ENERGY PREDICTED BY IDOCK:   -4.21 KCAL/MOL
REMARK 922        TOTAL FREE ENERGY PREDICTED BY IDOCK:   -8.88 KCAL/MOL
REMARK 923 INTER-LIGAND FREE ENERGY PREDICTED BY IDOCK:   -7.01 KCAL/MOL
REMARK 924 INTRA-LIGAND FREE ENERGY PREDICTED BY IDOCK:   -1.87 KCAL/MOL
REMARK 927      BINDING AFFINITY PREDICTED BY RF-SCORE:    0.00 PKD
ROOT
HETATM    1  C   UNL     1      -8.470   4.479  64.625  1.00  0.00    -0.130 C  
HETATM    2  C   UNL     1      -9.264   5.195  65.721  1.00  0.00    -0.156 C  
HETATM    3  C   UNL     1      -9.862   4.185  66.710  1.00  0.00    -0.203 C  
ENDROOT
BRANCH   2   4
HETATM    4  O   UNL     1      -8.526   6.317  66.307  1.00  0.00    -0.123 OA 
BRANCH   4   5
HETATM    5  C   UNL     1      -8.629   7.549  65.750  1.00  0.00    -0.142 C  
HETATM    6  O   UNL     1      -8.054   7.862  64.705  1.00  0.00    -0.144 OA 
BRANCH   5   7
HETATM    7  C   UNL     1      -9.506   8.589  66.504  1.00  0.00    -0.218 C  
HETATM    8  C   UNL     1      -9.808   9.762  65.572  1.00  0.00    -0.378 C  
BRANCH   7   9
HETATM    9  N   UNL     1      -9.079   9.070  67.874  1.00  0.00    -0.135 NA 
HETATM   10  H   UNL     1      -8.464   8.395  68.329  1.00  0.00     0.000 HD 
BRANCH   9  11
HETATM   11  P   UNL     1      -8.338  10.667  67.812  1.00  0.00    -0.117 P  
HETATM   12  O   UNL     1      -7.082  10.170  67.056  1.00  0.00    -0.087 OA 
BRANCH  11  13
HETATM   13  C   UNL     1      -7.238  11.030  69.334  1.00  0.00    -0.114 C  
BRANCH  13  14
HETATM   14  O   UNL     1      -6.394   9.882  69.726  1.00  0.00    -0.044 OA 
BRANCH  14  15
HETATM   15  C   UNL     1      -6.554   9.243  71.022  1.00  0.00    -0.091 C  
HETATM   16  C   UNL     1      -5.238   9.318  71.807  1.00  0.00    -0.060 C  
BRANCH  15  17
HETATM   17  C   UNL     1      -7.184   7.858  70.979  1.00  0.00    -0.057 C  
BRANCH  17  18
HETATM   18  N   UNL     1      -8.489   7.757  71.571  1.00  0.00    -0.113 NA 
HETATM   19  C   UNL     1      -8.877   8.155  72.822  1.00  0.00    -0.231 A  
HETATM   20  N   UNL     1     -10.169   7.992  73.005  1.00  0.00    -0.322 NA 
HETATM   21  C   UNL     1     -10.617   7.445  71.824  1.00  0.00    -0.201 A  
HETATM   22  C   UNL     1     -11.891   7.061  71.399  1.00  0.00    -0.320 A  
HETATM   23  N   UNL     1     -12.024   6.474  70.186  1.00  0.00    -0.294 NA 
HETATM   24  N   UNL     1     -13.013   7.257  72.190  1.00  0.00    -0.522 NA 
HETATM   25  C   UNL     1     -10.919   6.334  69.429  1.00  0.00    -0.375 A  
HETATM   26  H1  UNL     1     -13.944   6.976  71.880  1.00  0.00     0.000 HD 
HETATM   27  H2  UNL     1     -13.051   8.245  72.439  1.00  0.00     0.000 HD 
HETATM   28  N   UNL     1      -9.648   6.697  69.710  1.00  0.00    -0.150 NA 
HETATM   29  C   UNL     1      -9.582   7.249  70.931  1.00  0.00    -0.170 A  
ENDBRANCH  17  18
ENDBRANCH  15  17
ENDBRANCH  14  15
ENDBRANCH  13  14
ENDBRANCH  11  13
BRANCH  11  30
HETATM   30  O   UNL     1      -9.743  11.222  68.657  1.00  0.00    -0.196 OA 
BRANCH  30  31
HETATM   31  C   UNL     1     -10.342  12.369  68.168  1.00  0.00    -0.226 A  
HETATM   32  C   UNL     1     -11.497  12.199  67.402  1.00  0.00    -0.415 A  
HETATM   33  C   UNL     1     -10.493  14.765  67.817  1.00  0.00    -0.254 A  
HETATM   34  C   UNL     1      -9.844  13.658  68.382  1.00  0.00    -0.223 A  
HETATM   35  C   UNL     1     -11.633  14.589  67.036  1.00  0.00    -0.402 A  
HETATM   36  C   UNL     1     -12.134  13.306  66.829  1.00  0.00    -0.403 A  
ENDBRANCH  30  31
ENDBRANCH  11  30
ENDBRANCH   9  11
ENDBRANCH   7   9
ENDBRANCH   5   7
ENDBRANCH   4   5
ENDBRANCH   2   4
TORSDOF 12
ENDMDL
MODEL      277
REMARK 921   NORMALIZED FREE ENERGY PREDICTED BY IDOCK:   -4.21 KCAL/MOL
REMARK 922        TOTAL FREE ENERGY PREDICTED BY IDOCK:   -8.88 KCAL/MOL
REMARK 923 INTER-LIGAND FREE ENERGY PREDICTED BY IDOCK:   -7.94 KCAL/MOL
REMARK 924 INTRA-LIGAND FREE ENERGY PREDICTED BY IDOCK:   -0.94 KCAL/MOL
REMARK 927      BINDING AFFINITY PREDICTED BY RF-SCORE:    0.00 PKD
ROOT
HETATM    1  C   UNL     1     -12.922  10.087  71.081  1.00  0.00    -0.478 C  
HETATM    2  C   UNL     1     -11.984   8.968  71.538  1.00  0.00    -0.344 C  
HETATM    3  C   UNL     1     -12.758   7.661  71.756  1.00  0.00    -0.356 C  
ENDROOT
BRANCH   2   4
HETATM    4  O   UNL     1     -10.776   8.876  70.712  1.00  0.00    -0.208 OA 
BRANCH   4   5
HETATM    5  C   UNL     1     -10.229   7.662  70.460  1.00  0.00    -0.201 C  
HETATM    6  O   UNL     1      -9.481   7.086  71.253  1.00  0.00    -0.164 OA 
BRANCH   5   7
HETATM    7  C   UNL     1     -10.571   7.008  69.091  1.00  0.00    -0.219 C  
HETATM    8  C   UNL     1     -10.447   5.490  69.213  1.00  0.00    -0.336 C  
BRANCH   7   9
HETATM    9  N   UNL     1      -9.897   7.516  67.834  1.00  0.00    -0.149 NA 
HETATM   10  H   UNL     1      -9.701   8.515  67.897  1.00  0.00     0.000 HD 
BRANCH   9  11
HETATM   11  P   UNL     1      -8.442   6.601  67.449  1.00  0.00    -0.120 P  
HETATM   12  O   UNL     1      -7.727   6.982  68.769  1.00  0.00    -0.105 OA 
BRANCH  11  13
HETATM   13  C   UNL     1      -7.151   7.638  66.491  1.00  0.00    -0.075 C  
BRANCH  13  14
HETATM   14  O   UNL     1      -7.747   8.773  65.757  1.00  0.00    -0.091 OA 
BRANCH  14  15
HETATM   15  C   UNL     1      -7.611  10.135  66.245  1.00  0.00    -0.111 C  
HETATM   16  C   UNL     1      -6.477  10.208  67.277  1.00  0.00    -0.068 C  
BRANCH  15  17
HETATM   17  C   UNL     1      -8.911  10.788  66.692  1.00  0.00    -0.153 C  
BRANCH  17  18
HETATM   18  N   UNL     1      -9.708  11.355  65.640  1.00  0.00    -0.224 NA 
HETATM   19  C   UNL     1     -10.218  10.722  64.539  1.00  0.00    -0.359 A  
HETATM   20  N   UNL     1     -10.975  11.525  63.823  1.00  0.00    -0.397 NA 
HETATM   21  C   UNL     1     -10.925  12.728  64.491  1.00  0.00    -0.341 A  
HETATM   22  C   UNL     1     -11.532  13.961  64.235  1.00  0.00    -0.318 A  
HETATM   23  N   UNL     1     -11.239  15.009  65.040  1.00  0.00    -0.390 NA 
HETATM   24  N   UNL     1     -12.413  14.135  63.178  1.00  0.00    -1.037 NA 
HETATM   25  C   UNL     1     -10.409  14.796  66.078  1.00  0.00    -0.305 A  
HETATM   26  H1  UNL     1     -12.855  15.035  62.992  1.00  0.00     0.000 HD 
HETATM   27  H2  UNL     1     -13.150  13.436  63.268  1.00  0.00     0.000 HD 
HETATM   28  N   UNL     1      -9.795  13.650  66.449  1.00  0.00    -0.290 NA 
HETATM   29  C   UNL     1     -10.108  12.659  65.600  1.00  0.00    -0.272 A  
ENDBRANCH  17  18
ENDBRANCH  15  17
ENDBRANCH  14  15
ENDBRANCH  13  14
ENDBRANCH  11  13
BRANCH  11  30
HETATM   30  O   UNL     1      -9.241   6.176  65.974  1.00  0.00    -0.157 OA 
BRANCH  30  31
HETATM   31  C   UNL     1      -8.831   5.002  65.368  1.00  0.00    -0.152 A  
HETATM   32  C   UNL     1      -8.374   5.098  64.053  1.00  0.00    -0.132 A  
HETATM   33  C   UNL     1      -8.474   2.603  65.290  1.00  0.00    -0.099 A  
HETATM   34  C   UNL     1      -8.873   3.750  65.991  1.00  0.00    -0.126 A  
HETATM   35  C   UNL     1      -8.038   2.702  63.970  1.00  0.00    -0.082 A  
HETATM   36  C   UNL     1      -7.989   3.949  63.353  1.00  0.00    -0.083 A  
ENDBRANCH  30  31
ENDBRANCH  11  30
ENDBRANCH   9  11
ENDBRANCH   7   9
ENDBRANCH   5   7
ENDBRANCH   4   5
ENDBRANCH   2   4
TORSDOF 12
ENDMDL
MODEL      278
REMARK 921   NORMALIZED FREE ENERGY PREDICTED BY IDOCK:   -4.20 KCAL/MOL
REMARK 922        TOTAL FREE ENERGY PREDICTED BY IDOCK:   -8.87 KCAL/MOL
REMARK 923 INTER-LIGAND FREE ENERGY PREDICTED BY IDOCK:   -7.35 KCAL/MOL
REMARK 924 INTRA-LIGAND FREE ENERGY PREDICTED BY IDOCK:   -1.52 KCAL/MOL
REMARK 927      BINDING AFFINITY PREDICTED BY RF-SCORE:    0.00 PKD
ROOT
HETATM    1  C   UNL     1      -8.160   5.921  64.622  1.00  0.00    -0.132 C  
HETATM    2  C   UNL     1      -8.466   6.944  65.718  1.00  0.00    -0.146 C  
HETATM    3  C   UNL     1      -9.572   6.432  66.651  1.00  0.00    -0.194 C  
ENDROOT
BRANCH   2   4
HETATM    4  O   UNL     1      -7.254   7.452  66.367  1.00  0.00    -0.075 OA 
BRANCH   4   5
HETATM    5  C   UNL     1      -6.720   8.630  65.960  1.00  0.00    -0.061 C  
HETATM    6  O   UNL     1      -6.782   9.027  64.795  1.00  0.00    -0.075 OA 
BRANCH   5   7
HETATM    7  C   UNL     1      -5.991   9.480  67.040  1.00  0.00    -0.056 C  
HETATM    8  C   UNL     1      -5.507   8.561  68.161  1.00  0.00    -0.035 C  
BRANCH   7   9
HETATM    9  N   UNL     1      -6.667  10.716  67.596  1.00  0.00    -0.071 NA 
HETATM   10  H   UNL     1      -6.391  11.552  67.080  1.00  0.00     0.000 HD 
BRANCH   9  11
HETATM   11  P   UNL     1      -8.419  10.545  67.646  1.00  0.00    -0.114 P  
HETATM   12  O   UNL     1      -8.618  11.080  66.207  1.00  0.00    -0.159 OA 
BRANCH  11  13
HETATM   13  C   UNL     1      -9.294  12.110  68.312  1.00  0.00    -0.198 C  
BRANCH  13  14
HETATM   14  O   UNL     1     -10.743  11.917  68.530  1.00  0.00    -0.208 OA 
BRANCH  14  15
HETATM   15  C   UNL     1     -11.444  12.637  69.580  1.00  0.00    -0.225 C  
HETATM   16  C   UNL     1     -12.085  11.642  70.555  1.00  0.00    -0.458 C  
BRANCH  15  17
HETATM   17  C   UNL     1     -12.383  13.730  69.089  1.00  0.00    -0.101 C  
BRANCH  17  18
HETATM   18  N   UNL     1     -11.740  14.915  68.591  1.00  0.00    -0.331 NA 
HETATM   19  C   UNL     1     -11.278  15.984  69.309  1.00  0.00    -0.346 A  
HETATM   20  N   UNL     1     -10.666  16.858  68.541  1.00  0.00    -0.357 NA 
HETATM   21  C   UNL     1     -10.763  16.328  67.274  1.00  0.00    -0.265 A  
HETATM   22  C   UNL     1     -10.296  16.780  66.036  1.00  0.00    -0.335 A  
HETATM   23  N   UNL     1     -10.608  16.072  64.926  1.00  0.00    -0.612 NA 
HETATM   24  N   UNL     1      -9.535  17.933  65.921  1.00  0.00    -0.520 NA 
HETATM   25  C   UNL     1     -11.316  14.937  65.078  1.00  0.00    -0.398 A  
HETATM   26  H1  UNL     1      -9.194  18.263  65.018  1.00  0.00     0.000 HD 
HETATM   27  H2  UNL     1      -8.732  17.841  66.544  1.00  0.00     0.000 HD 
HETATM   28  N   UNL     1     -11.788  14.380  66.216  1.00  0.00    -0.387 NA 
HETATM   29  C   UNL     1     -11.465  15.140  67.273  1.00  0.00    -0.279 A  
ENDBRANCH  17  18
ENDBRANCH  15  17
ENDBRANCH  14  15
ENDBRANCH  13  14
ENDBRANCH  11  13
BRANCH  11  30
HETATM   30  O   UNL     1      -8.196   9.947  69.255  1.00  0.00    -0.114 OA 
BRANCH  30  31
HETATM   31  C   UNL     1      -8.925   8.822  69.600  1.00  0.00    -0.145 A  
HETATM   32  C   UNL     1      -8.200   7.707  70.021  1.00  0.00    -0.125 A  
HETATM   33  C   UNL     1     -10.978   7.555  69.860  1.00  0.00    -0.223 A  
HETATM   34  C   UNL     1     -10.320   8.748  69.527  1.00  0.00    -0.213 A  
HETATM   35  C   UNL     1     -10.248   6.437  70.259  1.00  0.00    -0.236 A  
HETATM   36  C   UNL     1      -8.860   6.514  70.339  1.00  0.00    -0.151 A  
ENDBRANCH  30  31
ENDBRANCH  11  30
ENDBRANCH   9  11
ENDBRANCH   7   9
ENDBRANCH   5   7
ENDBRANCH   4   5
ENDBRANCH   2   4
TORSDOF 12
ENDMDL
MODEL      279
REMARK 921   NORMALIZED FREE ENERGY PREDICTED BY IDOCK:   -4.20 KCAL/MOL
REMARK 922        TOTAL FREE ENERGY PREDICTED BY IDOCK:   -8.86 KCAL/MOL
REMARK 923 INTER-LIGAND FREE ENERGY PREDICTED BY IDOCK:   -7.54 KCAL/MOL
REMARK 924 INTRA-LIGAND FREE ENERGY PREDICTED BY IDOCK:   -1.32 KCAL/MOL
REMARK 927      BINDING AFFINITY PREDICTED BY RF-SCORE:    0.00 PKD
ROOT
HETATM    1  C   UNL     1     -11.155  10.406  70.409  1.00  0.00    -0.371 C  
HETATM    2  C   UNL     1     -12.022  11.235  69.459  1.00  0.00    -0.351 C  
HETATM    3  C   UNL     1     -11.736  12.734  69.626  1.00  0.00    -0.372 C  
ENDROOT
BRANCH   2   4
HETATM    4  O   UNL     1     -12.003  10.720  68.087  1.00  0.00    -0.527 OA 
BRANCH   4   5
HETATM    5  C   UNL     1     -11.470  11.475  67.096  1.00  0.00    -0.237 C  
HETATM    6  O   UNL     1     -12.066  12.423  66.581  1.00  0.00    -0.592 OA 
BRANCH   5   7
HETATM    7  C   UNL     1     -10.047  11.084  66.604  1.00  0.00    -0.220 C  
HETATM    8  C   UNL     1     -10.145  10.499  65.195  1.00  0.00    -0.383 C  
BRANCH   7   9
HETATM    9  N   UNL     1      -9.159  10.236  67.490  1.00  0.00    -0.137 NA 
HETATM   10  H   UNL     1      -9.557  10.135  68.424  1.00  0.00     0.000 HD 
BRANCH   9  11
HETATM   11  P   UNL     1      -8.812   8.667  66.771  1.00  0.00    -0.146 P  
HETATM   12  O   UNL     1     -10.190   8.071  67.148  1.00  0.00    -0.233 OA 
BRANCH  11  13
HETATM   13  C   UNL     1      -7.990   7.456  68.002  1.00  0.00    -0.119 C  
BRANCH  13  14
HETATM   14  O   UNL     1      -8.290   6.039  67.711  1.00  0.00    -0.112 OA 
BRANCH  14  15
HETATM   15  C   UNL     1      -8.095   5.010  68.720  1.00  0.00    -0.084 C  
HETATM   16  C   UNL     1      -7.186   3.905  68.168  1.00  0.00    -0.059 C  
BRANCH  15  17
HETATM   17  C   UNL     1      -9.373   4.505  69.374  1.00  0.00    -0.149 C  
BRANCH  17  18
HETATM   18  N   UNL     1     -10.179   5.511  70.010  1.00  0.00    -0.242 NA 
HETATM   19  C   UNL     1     -11.254   6.179  69.488  1.00  0.00    -0.411 A  
HETATM   20  N   UNL     1     -11.810   6.973  70.376  1.00  0.00    -0.284 NA 
HETATM   21  C   UNL     1     -11.039   6.818  71.506  1.00  0.00    -0.251 A  
HETATM   22  C   UNL     1     -11.132   7.381  72.782  1.00  0.00    -0.346 A  
HETATM   23  N   UNL     1     -10.172   7.092  73.691  1.00  0.00    -0.340 NA 
HETATM   24  N   UNL     1     -12.171   8.231  73.130  1.00  0.00    -0.480 NA 
HETATM   25  C   UNL     1      -9.199   6.234  73.332  1.00  0.00    -0.131 A  
HETATM   26  H1  UNL     1     -12.238   8.642  74.061  1.00  0.00     0.000 HD 
HETATM   27  H2  UNL     1     -13.048   7.747  72.937  1.00  0.00     0.000 HD 
HETATM   28  N   UNL     1      -9.024   5.599  72.151  1.00  0.00    -0.137 NA 
HETATM   29  C   UNL     1      -9.992   5.946  71.290  1.00  0.00    -0.187 A  
ENDBRANCH  17  18
ENDBRANCH  15  17
ENDBRANCH  14  15
ENDBRANCH  13  14
ENDBRANCH  11  13
BRANCH  11  30
HETATM   30  O   UNL     1      -7.271   9.333  66.349  1.00  0.00    -0.087 OA 
BRANCH  30  31
HETATM   31  C   UNL     1      -6.835   9.104  65.056  1.00  0.00    -0.080 A  
HETATM   32  C   UNL     1      -6.358  10.209  64.348  1.00  0.00    -0.127 A  
HETATM   33  C   UNL     1      -6.442   7.716  63.105  1.00  0.00    -0.062 A  
HETATM   34  C   UNL     1      -6.869   7.853  64.434  1.00  0.00    -0.063 A  
HETATM   35  C   UNL     1      -5.987   8.826  62.396  1.00  0.00    -0.091 A  
HETATM   36  C   UNL     1      -5.946  10.071  63.018  1.00  0.00    -0.127 A  
ENDBRANCH  30  31
ENDBRANCH  11  30
ENDBRANCH   9  11
ENDBRANCH   7   9
ENDBRANCH   5   7
ENDBRANCH   4   5
ENDBRANCH   2   4
TORSDOF 12
ENDMDL
MODEL      280
REMARK 921   NORMALIZED FREE ENERGY PREDICTED BY IDOCK:   -4.19 KCAL/MOL
REMARK 922        TOTAL FREE ENERGY PREDICTED BY IDOCK:   -8.85 KCAL/MOL
REMARK 923 INTER-LIGAND FREE ENERGY PREDICTED BY IDOCK:   -7.45 KCAL/MOL
REMARK 924 INTRA-LIGAND FREE ENERGY PREDICTED BY IDOCK:   -1.39 KCAL/MOL
REMARK 927      BINDING AFFINITY PREDICTED BY RF-SCORE:    0.00 PKD
ROOT
HETATM    1  C   UNL     1     -12.019  16.437  72.458  1.00  0.00    -0.579 C  
HETATM    2  C   UNL     1     -12.477  14.977  72.460  1.00  0.00    -0.358 C  
HETATM    3  C   UNL     1     -13.954  14.867  72.055  1.00  0.00    -0.591 C  
ENDROOT
BRANCH   2   4
HETATM    4  O   UNL     1     -11.544  14.094  71.755  1.00  0.00     0.218 OA 
BRANCH   4   5
HETATM    5  C   UNL     1     -11.725  13.847  70.434  1.00  0.00    -0.199 C  
HETATM    6  O   UNL     1     -11.715  14.735  69.579  1.00  0.00    -0.286 OA 
BRANCH   5   7
HETATM    7  C   UNL     1     -11.969  12.367  70.024  1.00  0.00    -0.299 C  
HETATM    8  C   UNL     1     -12.728  11.653  71.142  1.00  0.00    -0.426 C  
BRANCH   7   9
HETATM    9  N   UNL     1     -10.809  11.531  69.526  1.00  0.00    -0.440 NA 
HETATM   10  H   UNL     1     -10.661  10.713  70.116  1.00  0.00     0.000 HD 
BRANCH   9  11
HETATM   11  P   UNL     1     -11.002  11.073  67.836  1.00  0.00    -0.307 P  
HETATM   12  O   UNL     1     -11.137   9.563  68.152  1.00  0.00    -0.140 OA 
BRANCH  11  13
HETATM   13  C   UNL     1      -9.333  10.709  66.975  1.00  0.00    -0.155 C  
BRANCH  13  14
HETATM   14  O   UNL     1      -8.312  10.165  67.894  1.00  0.00    -0.116 OA 
BRANCH  14  15
HETATM   15  C   UNL     1      -7.125   9.500  67.384  1.00  0.00    -0.086 C  
HETATM   16  C   UNL     1      -7.126   8.028  67.814  1.00  0.00    -0.086 C  
BRANCH  15  17
HETATM   17  C   UNL     1      -5.817  10.232  67.651  1.00  0.00    -0.045 C  
BRANCH  17  18
HETATM   18  N   UNL     1      -5.702  10.834  68.950  1.00  0.00    -0.041 NA 
HETATM   19  C   UNL     1      -5.276  10.248  70.112  1.00  0.00    -0.040 A  
HETATM   20  N   UNL     1      -5.214  11.114  71.099  1.00  0.00    -0.185 NA 
HETATM   21  C   UNL     1      -5.642  12.299  70.543  1.00  0.00    -0.168 A  
HETATM   22  C   UNL     1      -5.783  13.582  71.079  1.00  0.00    -0.188 A  
HETATM   23  N   UNL     1      -6.304  14.558  70.299  1.00  0.00    -0.177 NA 
HETATM   24  N   UNL     1      -5.414  13.872  72.384  1.00  0.00    -0.372 NA 
HETATM   25  C   UNL     1      -6.616  14.251  69.026  1.00  0.00    -0.105 A  
HETATM   26  H1  UNL     1      -5.518  14.809  72.775  1.00  0.00     0.000 HD 
HETATM   27  H2  UNL     1      -4.442  13.588  72.504  1.00  0.00     0.000 HD 
HETATM   28  N   UNL     1      -6.490  13.067  68.386  1.00  0.00    -0.076 NA 
HETATM   29  C   UNL     1      -5.992  12.140  69.218  1.00  0.00    -0.086 A  
ENDBRANCH  17  18
ENDBRANCH  15  17
ENDBRANCH  14  15
ENDBRANCH  13  14
ENDBRANCH  11  13
BRANCH  11  30
HETATM   30  O   UNL     1     -10.851  12.761  67.483  1.00  0.00    -0.231 OA 
BRANCH  30  31
HETATM   31  C   UNL     1     -11.289  13.171  66.237  1.00  0.00    -0.315 A  
HETATM   32  C   UNL     1     -10.857  14.423  65.798  1.00  0.00    -0.308 A  
HETATM   33  C   UNL     1     -12.569  12.924  64.190  1.00  0.00    -0.343 A  
HETATM   34  C   UNL     1     -12.142  12.416  65.425  1.00  0.00    -0.428 A  
HETATM   35  C   UNL     1     -12.151  14.184  63.766  1.00  0.00    -0.192 A  
HETATM   36  C   UNL     1     -11.296  14.932  64.570  1.00  0.00    -0.306 A  
ENDBRANCH  30  31
ENDBRANCH  11  30
ENDBRANCH   9  11
ENDBRANCH   7   9
ENDBRANCH   5   7
ENDBRANCH   4   5
ENDBRANCH   2   4
TORSDOF 12
ENDMDL
MODEL      281
REMARK 921   NORMALIZED FREE ENERGY PREDICTED BY IDOCK:   -4.18 KCAL/MOL
REMARK 922        TOTAL FREE ENERGY PREDICTED BY IDOCK:   -8.83 KCAL/MOL
REMARK 923 INTER-LIGAND FREE ENERGY PREDICTED BY IDOCK:   -7.41 KCAL/MOL
REMARK 924 INTRA-LIGAND FREE ENERGY PREDICTED BY IDOCK:   -1.42 KCAL/MOL
REMARK 927      BINDING AFFINITY PREDICTED BY RF-SCORE:    0.00 PKD
ROOT
HETATM    1  C   UNL     1     -11.289   6.212  69.774  1.00  0.00    -0.452 C  
HETATM    2  C   UNL     1     -10.387   7.059  68.873  1.00  0.00    -0.190 C  
HETATM    3  C   UNL     1     -10.327   6.474  67.455  1.00  0.00    -0.263 C  
ENDROOT
BRANCH   2   4
HETATM    4  O   UNL     1     -10.681   8.492  68.972  1.00  0.00    -0.193 OA 
BRANCH   4   5
HETATM    5  C   UNL     1     -10.368   9.162  70.108  1.00  0.00    -0.213 C  
HETATM    6  O   UNL     1     -11.024  10.120  70.522  1.00  0.00    -0.299 OA 
BRANCH   5   7
HETATM    7  C   UNL     1      -9.109   8.679  70.883  1.00  0.00    -0.187 C  
HETATM    8  C   UNL     1      -9.491   8.397  72.336  1.00  0.00    -0.365 C  
BRANCH   7   9
HETATM    9  N   UNL     1      -7.828   9.481  70.796  1.00  0.00    -0.296 NA 
HETATM   10  H   UNL     1      -7.598   9.911  71.693  1.00  0.00     0.000 HD 
BRANCH   9  11
HETATM   11  P   UNL     1      -6.485   8.518  70.187  1.00  0.00    -0.040 P  
HETATM   12  O   UNL     1      -5.521   9.726  70.099  1.00  0.00    -0.038 OA 
BRANCH  11  13
HETATM   13  C   UNL     1      -6.465   8.406  68.278  1.00  0.00    -0.059 C  
BRANCH  13  14
HETATM   14  O   UNL     1      -7.551   9.178  67.639  1.00  0.00    -0.085 OA 
BRANCH  14  15
HETATM   15  C   UNL     1      -7.259  10.195  66.643  1.00  0.00    -0.105 C  
HETATM   16  C   UNL     1      -5.785  10.606  66.733  1.00  0.00    -0.062 C  
BRANCH  15  17
HETATM   17  C   UNL     1      -8.237  11.361  66.614  1.00  0.00    -0.163 C  
BRANCH  17  18
HETATM   18  N   UNL     1      -9.192  11.337  65.540  1.00  0.00    -0.216 NA 
HETATM   19  C   UNL     1      -9.114  10.643  64.362  1.00  0.00    -0.215 A  
HETATM   20  N   UNL     1     -10.205  10.782  63.643  1.00  0.00    -0.315 NA 
HETATM   21  C   UNL     1     -11.004  11.620  64.389  1.00  0.00    -0.337 A  
HETATM   22  C   UNL     1     -12.287  12.127  64.166  1.00  0.00    -0.409 A  
HETATM   23  N   UNL     1     -12.804  13.004  65.058  1.00  0.00    -0.753 NA 
HETATM   24  N   UNL     1     -13.033  11.760  63.056  1.00  0.00    -0.850 NA 
HETATM   25  C   UNL     1     -12.068  13.308  66.143  1.00  0.00    -0.421 A  
HETATM   26  H1  UNL     1     -13.970  12.130  62.893  1.00  0.00     0.000 HD 
HETATM   27  H2  UNL     1     -13.091  10.742  63.041  1.00  0.00     0.000 HD 
HETATM   28  N   UNL     1     -10.840  12.858  66.487  1.00  0.00    -0.268 NA 
HETATM   29  C   UNL     1     -10.377  12.014  65.553  1.00  0.00    -0.263 A  
ENDBRANCH  17  18
ENDBRANCH  15  17
ENDBRANCH  14  15
ENDBRANCH  13  14
ENDBRANCH  11  13
BRANCH  11  30
HETATM   30  O   UNL     1      -7.563   7.168  70.286  1.00  0.00    -0.087 OA 
BRANCH  30  31
HETATM   31  C   UNL     1      -7.103   6.061  70.977  1.00  0.00    -0.069 A  
HETATM   32  C   UNL     1      -7.875   4.902  70.896  1.00  0.00    -0.083 A  
HETATM   33  C   UNL     1      -5.563   4.903  72.452  1.00  0.00    -0.008 A  
HETATM   34  C   UNL     1      -5.938   6.058  71.752  1.00  0.00    -0.035 A  
HETATM   35  C   UNL     1      -6.349   3.754  72.385  1.00  0.00    -0.014 A  
HETATM   36  C   UNL     1      -7.504   3.755  71.607  1.00  0.00    -0.055 A  
ENDBRANCH  30  31
ENDBRANCH  11  30
ENDBRANCH   9  11
ENDBRANCH   7   9
ENDBRANCH   5   7
ENDBRANCH   4   5
ENDBRANCH   2   4
TORSDOF 12
ENDMDL
MODEL      282
REMARK 921   NORMALIZED FREE ENERGY PREDICTED BY IDOCK:   -4.16 KCAL/MOL
REMARK 922        TOTAL FREE ENERGY PREDICTED BY IDOCK:   -8.79 KCAL/MOL
REMARK 923 INTER-LIGAND FREE ENERGY PREDICTED BY IDOCK:   -7.48 KCAL/MOL
REMARK 924 INTRA-LIGAND FREE ENERGY PREDICTED BY IDOCK:   -1.31 KCAL/MOL
REMARK 927      BINDING AFFINITY PREDICTED BY RF-SCORE:    0.00 PKD
ROOT
HETATM    1  C   UNL     1      -8.911   4.738  64.496  1.00  0.00    -0.147 C  
HETATM    2  C   UNL     1      -9.109   5.331  65.892  1.00  0.00    -0.155 C  
HETATM    3  C   UNL     1      -9.420   4.230  66.915  1.00  0.00    -0.205 C  
ENDROOT
BRANCH   2   4
HETATM    4  O   UNL     1      -8.049   6.275  66.257  1.00  0.00    -0.107 OA 
BRANCH   4   5
HETATM    5  C   UNL     1      -7.853   7.386  65.505  1.00  0.00    -0.115 C  
HETATM    6  O   UNL     1      -6.814   7.594  64.876  1.00  0.00    -0.050 OA 
BRANCH   5   7
HETATM    7  C   UNL     1      -9.010   8.425  65.475  1.00  0.00    -0.098 C  
HETATM    8  C   UNL     1      -8.911   9.252  64.194  1.00  0.00    -0.178 C  
BRANCH   7   9
HETATM    9  N   UNL     1      -9.248   9.308  66.682  1.00  0.00    -0.141 NA 
HETATM   10  H   UNL     1      -8.735   8.970  67.496  1.00  0.00     0.000 HD 
BRANCH   9  11
HETATM   11  P   UNL     1      -8.875  10.997  66.349  1.00  0.00    -0.184 P  
HETATM   12  O   UNL     1      -7.381  10.718  66.053  1.00  0.00    -0.142 OA 
BRANCH  11  13
HETATM   13  C   UNL     1      -8.350  11.960  67.916  1.00  0.00    -0.152 C  
BRANCH  13  14
HETATM   14  O   UNL     1      -7.135  11.412  68.554  1.00  0.00    -0.073 OA 
BRANCH  14  15
HETATM   15  C   UNL     1      -7.214  10.674  69.803  1.00  0.00    -0.131 C  
HETATM   16  C   UNL     1      -5.879  10.770  70.551  1.00  0.00    -0.119 C  
BRANCH  15  17
HETATM   17  C   UNL     1      -7.764   9.260  69.677  1.00  0.00    -0.087 C  
BRANCH  17  18
HETATM   18  N   UNL     1      -9.136   9.096  70.072  1.00  0.00    -0.176 NA 
HETATM   19  C   UNL     1     -10.121  10.048  70.101  1.00  0.00    -0.211 A  
HETATM   20  N   UNL     1     -11.284   9.533  70.432  1.00  0.00    -0.257 NA 
HETATM   21  C   UNL     1     -11.022   8.198  70.643  1.00  0.00    -0.244 A  
HETATM   22  C   UNL     1     -11.849   7.130  71.002  1.00  0.00    -0.333 A  
HETATM   23  N   UNL     1     -11.291   5.916  71.211  1.00  0.00    -0.225 NA 
HETATM   24  N   UNL     1     -13.218   7.289  71.156  1.00  0.00    -0.574 NA 
HETATM   25  C   UNL     1      -9.965   5.788  71.016  1.00  0.00    -0.190 A  
HETATM   26  H1  UNL     1     -13.823   6.510  71.417  1.00  0.00     0.000 HD 
HETATM   27  H2  UNL     1     -13.585   7.694  70.294  1.00  0.00     0.000 HD 
HETATM   28  N   UNL     1      -9.071   6.728  70.635  1.00  0.00    -0.155 NA 
HETATM   29  C   UNL     1      -9.683   7.910  70.467  1.00  0.00    -0.174 A  
ENDBRANCH  17  18
ENDBRANCH  15  17
ENDBRANCH  14  15
ENDBRANCH  13  14
ENDBRANCH  11  13
BRANCH  11  30
HETATM   30  O   UNL     1     -10.545  11.309  66.679  1.00  0.00    -0.241 OA 
BRANCH  30  31
HETATM   31  C   UNL     1     -11.202  12.147  65.795  1.00  0.00    -0.339 A  
HETATM   32  C   UNL     1     -10.985  11.922  64.435  1.00  0.00    -0.392 A  
HETATM   33  C   UNL     1     -12.631  14.025  65.231  1.00  0.00    -0.495 A  
HETATM   34  C   UNL     1     -12.034  13.198  66.193  1.00  0.00    -0.478 A  
HETATM   35  C   UNL     1     -12.396  13.808  63.875  1.00  0.00    -0.346 A  
HETATM   36  C   UNL     1     -11.573  12.758  63.479  1.00  0.00    -0.565 A  
ENDBRANCH  30  31
ENDBRANCH  11  30
ENDBRANCH   9  11
ENDBRANCH   7   9
ENDBRANCH   5   7
ENDBRANCH   4   5
ENDBRANCH   2   4
TORSDOF 12
ENDMDL
MODEL      283
REMARK 921   NORMALIZED FREE ENERGY PREDICTED BY IDOCK:   -4.16 KCAL/MOL
REMARK 922        TOTAL FREE ENERGY PREDICTED BY IDOCK:   -8.79 KCAL/MOL
REMARK 923 INTER-LIGAND FREE ENERGY PREDICTED BY IDOCK:   -8.22 KCAL/MOL
REMARK 924 INTRA-LIGAND FREE ENERGY PREDICTED BY IDOCK:   -0.57 KCAL/MOL
REMARK 927      BINDING AFFINITY PREDICTED BY RF-SCORE:    0.00 PKD
ROOT
HETATM    1  C   UNL     1     -13.357   9.207  72.378  1.00  0.00    -0.527 C  
HETATM    2  C   UNL     1     -12.323   8.677  71.382  1.00  0.00    -0.304 C  
HETATM    3  C   UNL     1     -10.897   8.898  71.906  1.00  0.00    -0.433 C  
ENDROOT
BRANCH   2   4
HETATM    4  O   UNL     1     -12.639   7.326  70.911  1.00  0.00    -0.293 OA 
BRANCH   4   5
HETATM    5  C   UNL     1     -11.670   6.377  70.900  1.00  0.00    -0.303 C  
HETATM    6  O   UNL     1     -11.189   5.899  71.929  1.00  0.00    -0.268 OA 
BRANCH   5   7
HETATM    7  C   UNL     1     -11.160   5.912  69.506  1.00  0.00    -0.332 C  
HETATM    8  C   UNL     1      -9.815   5.207  69.672  1.00  0.00    -0.286 C  
BRANCH   7   9
HETATM    9  N   UNL     1     -11.126   6.900  68.358  1.00  0.00    -0.496 NA 
HETATM   10  H   UNL     1     -11.605   7.767  68.601  1.00  0.00     0.000 HD 
BRANCH   9  11
HETATM   11  P   UNL     1      -9.483   7.212  67.805  1.00  0.00    -0.128 P  
HETATM   12  O   UNL     1      -9.069   7.939  69.109  1.00  0.00    -0.145 OA 
BRANCH  11  13
HETATM   13  C   UNL     1      -9.323   8.873  66.869  1.00  0.00    -0.168 C  
BRANCH  13  14
HETATM   14  O   UNL     1     -10.347   9.863  67.264  1.00  0.00    -0.214 OA 
BRANCH  14  15
HETATM   15  C   UNL     1     -10.148  11.282  67.022  1.00  0.00    -0.206 C  
HETATM   16  C   UNL     1      -8.775  11.714  67.551  1.00  0.00    -0.156 C  
BRANCH  15  17
HETATM   17  C   UNL     1     -11.301  12.174  67.461  1.00  0.00    -0.326 C  
BRANCH  17  18
HETATM   18  N   UNL     1     -11.000  13.577  67.535  1.00  0.00    -0.264 NA 
HETATM   19  C   UNL     1     -10.537  14.390  66.535  1.00  0.00    -0.296 A  
HETATM   20  N   UNL     1     -10.451  15.642  66.928  1.00  0.00    -0.302 NA 
HETATM   21  C   UNL     1     -10.859  15.618  68.243  1.00  0.00    -0.298 A  
HETATM   22  C   UNL     1     -10.999  16.633  69.193  1.00  0.00    -0.276 A  
HETATM   23  N   UNL     1     -11.358  16.297  70.454  1.00  0.00    -0.357 NA 
HETATM   24  N   UNL     1     -10.770  17.963  68.878  1.00  0.00    -0.288 NA 
HETATM   25  C   UNL     1     -11.610  15.001  70.716  1.00  0.00    -0.317 A  
HETATM   26  H1  UNL     1     -10.872  18.704  69.572  1.00  0.00     0.000 HD 
HETATM   27  H2  UNL     1     -11.357  18.201  68.078  1.00  0.00     0.000 HD 
HETATM   28  N   UNL     1     -11.547  13.941  69.879  1.00  0.00    -0.262 NA 
HETATM   29  C   UNL     1     -11.164  14.337  68.656  1.00  0.00    -0.264 A  
ENDBRANCH  17  18
ENDBRANCH  15  17
ENDBRANCH  14  15
ENDBRANCH  13  14
ENDBRANCH  11  13
BRANCH  11  30
HETATM   30  O   UNL     1      -9.945   6.400  66.348  1.00  0.00    -0.134 OA 
BRANCH  30  31
HETATM   31  C   UNL     1      -9.024   5.512  65.820  1.00  0.00    -0.154 A  
HETATM   32  C   UNL     1      -7.776   5.454  66.442  1.00  0.00    -0.099 A  
HETATM   33  C   UNL     1      -8.271   3.860  64.211  1.00  0.00    -0.090 A  
HETATM   34  C   UNL     1      -9.274   4.706  64.705  1.00  0.00    -0.133 A  
HETATM   35  C   UNL     1      -7.019   3.821  64.823  1.00  0.00    -0.050 A  
HETATM   36  C   UNL     1      -6.774   4.619  65.937  1.00  0.00    -0.053 A  
ENDBRANCH  30  31
ENDBRANCH  11  30
ENDBRANCH   9  11
ENDBRANCH   7   9
ENDBRANCH   5   7
ENDBRANCH   4   5
ENDBRANCH   2   4
TORSDOF 12
ENDMDL
MODEL      284
REMARK 921   NORMALIZED FREE ENERGY PREDICTED BY IDOCK:   -4.16 KCAL/MOL
REMARK 922        TOTAL FREE ENERGY PREDICTED BY IDOCK:   -8.79 KCAL/MOL
REMARK 923 INTER-LIGAND FREE ENERGY PREDICTED BY IDOCK:   -6.92 KCAL/MOL
REMARK 924 INTRA-LIGAND FREE ENERGY PREDICTED BY IDOCK:   -1.87 KCAL/MOL
REMARK 927      BINDING AFFINITY PREDICTED BY RF-SCORE:    0.00 PKD
ROOT
HETATM    1  C   UNL     1     -12.490  14.351  64.668  1.00  0.00    -0.364 C  
HETATM    2  C   UNL     1     -11.816  12.992  64.868  1.00  0.00    -0.361 C  
HETATM    3  C   UNL     1     -11.724  12.226  63.541  1.00  0.00    -0.584 C  
ENDROOT
BRANCH   2   4
HETATM    4  O   UNL     1     -10.579  13.088  65.648  1.00  0.00    -0.274 OA 
BRANCH   4   5
HETATM    5  C   UNL     1     -10.202  12.051  66.436  1.00  0.00    -0.216 C  
HETATM    6  O   UNL     1      -9.544  11.096  66.018  1.00  0.00    -0.202 OA 
BRANCH   5   7
HETATM    7  C   UNL     1     -10.656  12.099  67.923  1.00  0.00    -0.207 C  
HETATM    8  C   UNL     1     -11.294  13.457  68.211  1.00  0.00    -0.330 C  
BRANCH   7   9
HETATM    9  N   UNL     1      -9.679  11.709  69.013  1.00  0.00    -0.413 NA 
HETATM   10  H   UNL     1      -9.850  12.235  69.870  1.00  0.00     0.000 HD 
BRANCH   9  11
HETATM   11  P   UNL     1      -9.686   9.974  69.316  1.00  0.00    -0.235 P  
HETATM   12  O   UNL     1     -11.231   9.873  69.309  1.00  0.00    -0.211 OA 
BRANCH  11  13
HETATM   13  C   UNL     1      -9.701   9.551  71.181  1.00  0.00    -0.063 C  
BRANCH  13  14
HETATM   14  O   UNL     1      -9.796   8.100  71.446  1.00  0.00    -0.163 OA 
BRANCH  14  15
HETATM   15  C   UNL     1     -10.950   7.539  72.129  1.00  0.00    -0.250 C  
HETATM   16  C   UNL     1     -10.541   7.042  73.522  1.00  0.00    -0.405 C  
BRANCH  15  17
HETATM   17  C   UNL     1     -11.750   6.534  71.313  1.00  0.00    -0.331 C  
BRANCH  17  18
HETATM   18  N   UNL     1     -11.064   5.975  70.181  1.00  0.00    -0.361 NA 
HETATM   19  C   UNL     1     -11.144   6.370  68.872  1.00  0.00    -0.348 A  
HETATM   20  N   UNL     1     -10.314   5.693  68.109  1.00  0.00    -0.195 NA 
HETATM   21  C   UNL     1      -9.695   4.814  68.969  1.00  0.00    -0.178 A  
HETATM   22  C   UNL     1      -8.708   3.847  68.762  1.00  0.00    -0.099 A  
HETATM   23  N   UNL     1      -8.335   3.066  69.803  1.00  0.00    -0.050 NA 
HETATM   24  N   UNL     1      -8.114   3.665  67.523  1.00  0.00    -0.089 NA 
HETATM   25  C   UNL     1      -8.905   3.295  71.001  1.00  0.00    -0.084 A  
HETATM   26  H1  UNL     1      -7.394   2.959  67.372  1.00  0.00     0.000 HD 
HETATM   27  H2  UNL     1      -7.739   4.565  67.221  1.00  0.00     0.000 HD 
HETATM   28  N   UNL     1      -9.835   4.218  71.333  1.00  0.00    -0.187 NA 
HETATM   29  C   UNL     1     -10.177   4.941  70.256  1.00  0.00    -0.229 A  
ENDBRANCH  17  18
ENDBRANCH  15  17
ENDBRANCH  14  15
ENDBRANCH  13  14
ENDBRANCH  11  13
BRANCH  11  30
HETATM   30  O   UNL     1      -7.959  10.087  69.323  1.00  0.00    -0.105 OA 
BRANCH  30  31
HETATM   31  C   UNL     1      -7.283   9.233  68.470  1.00  0.00    -0.072 A  
HETATM   32  C   UNL     1      -6.324   9.808  67.634  1.00  0.00    -0.060 A  
HETATM   33  C   UNL     1      -6.821   7.071  67.471  1.00  0.00    -0.073 A  
HETATM   34  C   UNL     1      -7.526   7.858  68.393  1.00  0.00    -0.100 A  
HETATM   35  C   UNL     1      -5.879   7.652  66.625  1.00  0.00    -0.039 A  
HETATM   36  C   UNL     1      -5.632   9.020  66.707  1.00  0.00    -0.040 A  
ENDBRANCH  30  31
ENDBRANCH  11  30
ENDBRANCH   9  11
ENDBRANCH   7   9
ENDBRANCH   5   7
ENDBRANCH   4   5
ENDBRANCH   2   4
TORSDOF 12
ENDMDL
MODEL      285
REMARK 921   NORMALIZED FREE ENERGY PREDICTED BY IDOCK:   -4.15 KCAL/MOL
REMARK 922        TOTAL FREE ENERGY PREDICTED BY IDOCK:   -8.77 KCAL/MOL
REMARK 923 INTER-LIGAND FREE ENERGY PREDICTED BY IDOCK:   -7.96 KCAL/MOL
REMARK 924 INTRA-LIGAND FREE ENERGY PREDICTED BY IDOCK:   -0.82 KCAL/MOL
REMARK 927      BINDING AFFINITY PREDICTED BY RF-SCORE:    0.00 PKD
ROOT
HETATM    1  C   UNL     1      -9.545   2.518  70.113  1.00  0.00    -0.085 C  
HETATM    2  C   UNL     1      -9.738   3.536  71.240  1.00  0.00    -0.166 C  
HETATM    3  C   UNL     1      -9.749   2.840  72.608  1.00  0.00    -0.190 C  
ENDROOT
BRANCH   2   4
HETATM    4  O   UNL     1      -8.849   4.694  71.108  1.00  0.00    -0.113 OA 
BRANCH   4   5
HETATM    5  C   UNL     1      -9.269   5.911  71.533  1.00  0.00    -0.146 C  
HETATM    6  O   UNL     1      -9.274   6.241  72.720  1.00  0.00    -0.139 OA 
BRANCH   5   7
HETATM    7  C   UNL     1      -9.773   6.899  70.442  1.00  0.00    -0.172 C  
HETATM    8  C   UNL     1     -11.248   6.619  70.154  1.00  0.00    -0.416 C  
BRANCH   7   9
HETATM    9  N   UNL     1      -8.984   7.060  69.160  1.00  0.00    -0.135 NA 
HETATM   10  H   UNL     1      -9.578   6.934  68.341  1.00  0.00     0.000 HD 
BRANCH   9  11
HETATM   11  P   UNL     1      -8.130   8.600  69.100  1.00  0.00    -0.119 P  
HETATM   12  O   UNL     1      -8.722   9.100  70.440  1.00  0.00    -0.173 OA 
BRANCH  11  13
HETATM   13  C   UNL     1      -9.123   9.959  68.191  1.00  0.00    -0.121 C  
BRANCH  13  14
HETATM   14  O   UNL     1      -9.611  11.022  69.094  1.00  0.00    -0.166 OA 
BRANCH  14  15
HETATM   15  C   UNL     1     -10.968  11.531  68.985  1.00  0.00    -0.234 C  
HETATM   16  C   UNL     1     -11.830  10.963  70.119  1.00  0.00    -0.438 C  
BRANCH  15  17
HETATM   17  C   UNL     1     -11.589  11.409  67.601  1.00  0.00    -0.238 C  
BRANCH  17  18
HETATM   18  N   UNL     1     -11.791  12.650  66.905  1.00  0.00    -0.463 NA 
HETATM   19  C   UNL     1     -11.750  13.918  67.421  1.00  0.00    -0.389 A  
HETATM   20  N   UNL     1     -11.895  14.828  66.484  1.00  0.00    -0.289 NA 
HETATM   21  C   UNL     1     -12.057  14.105  65.324  1.00  0.00    -0.405 A  
HETATM   22  C   UNL     1     -12.238  14.501  63.996  1.00  0.00    -0.229 A  
HETATM   23  N   UNL     1     -12.444  13.549  63.056  1.00  0.00    -0.600 NA 
HETATM   24  N   UNL     1     -12.223  15.837  63.625  1.00  0.00    -1.001 NA 
HETATM   25  C   UNL     1     -12.415  12.261  63.444  1.00  0.00    -0.481 A  
HETATM   26  H1  UNL     1     -12.355  16.126  62.656  1.00  0.00     0.000 HD 
HETATM   27  H2  UNL     1     -11.347  16.243  63.956  1.00  0.00     0.000 HD 
HETATM   28  N   UNL     1     -12.212  11.754  64.681  1.00  0.00    -0.150 NA 
HETATM   29  C   UNL     1     -12.038  12.746  65.567  1.00  0.00    -0.465 A  
ENDBRANCH  17  18
ENDBRANCH  15  17
ENDBRANCH  14  15
ENDBRANCH  13  14
ENDBRANCH  11  13
BRANCH  11  30
HETATM   30  O   UNL     1      -7.467   8.039  67.603  1.00  0.00    -0.093 OA 
BRANCH  30  31
HETATM   31  C   UNL     1      -7.027   6.728  67.576  1.00  0.00    -0.083 A  
HETATM   32  C   UNL     1      -7.445   5.945  66.498  1.00  0.00    -0.087 A  
HETATM   33  C   UNL     1      -5.853   4.808  68.483  1.00  0.00    -0.025 A  
HETATM   34  C   UNL     1      -6.222   6.158  68.567  1.00  0.00    -0.035 A  
HETATM   35  C   UNL     1      -6.289   4.025  67.415  1.00  0.00    -0.037 A  
HETATM   36  C   UNL     1      -7.085   4.595  66.425  1.00  0.00    -0.075 A  
ENDBRANCH  30  31
ENDBRANCH  11  30
ENDBRANCH   9  11
ENDBRANCH   7   9
ENDBRANCH   5   7
ENDBRANCH   4   5
ENDBRANCH   2   4
TORSDOF 12
ENDMDL
MODEL      286
REMARK 921   NORMALIZED FREE ENERGY PREDICTED BY IDOCK:   -4.14 KCAL/MOL
REMARK 922        TOTAL FREE ENERGY PREDICTED BY IDOCK:   -8.76 KCAL/MOL
REMARK 923 INTER-LIGAND FREE ENERGY PREDICTED BY IDOCK:   -8.30 KCAL/MOL
REMARK 924 INTRA-LIGAND FREE ENERGY PREDICTED BY IDOCK:   -0.47 KCAL/MOL
REMARK 927      BINDING AFFINITY PREDICTED BY RF-SCORE:    0.00 PKD
ROOT
HETATM    1  C   UNL     1     -12.966   9.869  70.891  1.00  0.00    -0.351 C  
HETATM    2  C   UNL     1     -12.675   8.805  71.953  1.00  0.00    -0.374 C  
HETATM    3  C   UNL     1     -12.815   7.394  71.365  1.00  0.00    -0.408 C  
ENDROOT
BRANCH   2   4
HETATM    4  O   UNL     1     -11.443   9.079  72.698  1.00  0.00    -0.017 OA 
BRANCH   4   5
HETATM    5  C   UNL     1     -10.439   8.168  72.686  1.00  0.00    -0.330 C  
HETATM    6  O   UNL     1     -10.226   7.394  73.621  1.00  0.00    -0.341 OA 
BRANCH   5   7
HETATM    7  C   UNL     1      -9.527   8.146  71.426  1.00  0.00    -0.166 C  
HETATM    8  C   UNL     1      -8.127   7.680  71.826  1.00  0.00    -0.112 C  
BRANCH   7   9
HETATM    9  N   UNL     1      -9.465   9.364  70.530  1.00  0.00    -0.259 NA 
HETATM   10  H   UNL     1      -9.629  10.222  71.058  1.00  0.00     0.000 HD 
BRANCH   9  11
HETATM   11  P   UNL     1      -7.953   9.447  69.630  1.00  0.00    -0.141 P  
HETATM   12  O   UNL     1      -7.153  10.025  70.823  1.00  0.00    -0.324 OA 
BRANCH  11  13
HETATM   13  C   UNL     1      -7.728  11.112  68.716  1.00  0.00    -0.136 C  
BRANCH  13  14
HETATM   14  O   UNL     1      -9.007  11.722  68.298  1.00  0.00    -0.171 OA 
BRANCH  14  15
HETATM   15  C   UNL     1      -9.064  13.099  67.834  1.00  0.00    -0.207 C  
HETATM   16  C   UNL     1      -7.654  13.703  67.822  1.00  0.00    -0.167 C  
BRANCH  15  17
HETATM   17  C   UNL     1     -10.113  13.962  68.520  1.00  0.00    -0.234 C  
BRANCH  17  18
HETATM   18  N   UNL     1     -10.156  15.333  68.093  1.00  0.00    -0.227 NA 
HETATM   19  C   UNL     1      -9.778  16.445  68.797  1.00  0.00    -0.250 A  
HETATM   20  N   UNL     1      -9.871  17.536  68.069  1.00  0.00    -0.285 NA 
HETATM   21  C   UNL     1     -10.350  17.099  66.854  1.00  0.00    -0.308 A  
HETATM   22  C   UNL     1     -10.642  17.779  65.669  1.00  0.00    -0.123 A  
HETATM   23  N   UNL     1     -11.178  17.086  64.637  1.00  0.00    -0.972 NA 
HETATM   24  N   UNL     1     -10.407  19.138  65.531  1.00  0.00    -0.440 NA 
HETATM   25  C   UNL     1     -11.358  15.761  64.792  1.00  0.00    -0.314 A  
HETATM   26  H1  UNL     1     -10.621  19.635  64.666  1.00  0.00     0.000 HD 
HETATM   27  H2  UNL     1      -9.427  19.310  65.757  1.00  0.00     0.000 HD 
HETATM   28  N   UNL     1     -11.081  14.989  65.867  1.00  0.00    -0.339 NA 
HETATM   29  C   UNL     1     -10.576  15.738  66.859  1.00  0.00    -0.317 A  
ENDBRANCH  17  18
ENDBRANCH  15  17
ENDBRANCH  14  15
ENDBRANCH  13  14
ENDBRANCH  11  13
BRANCH  11  30
HETATM   30  O   UNL     1      -8.848   8.801  68.297  1.00  0.00    -0.140 OA 
BRANCH  30  31
HETATM   31  C   UNL     1      -8.839   7.424  68.159  1.00  0.00    -0.127 A  
HETATM   32  C   UNL     1     -10.075   6.801  67.984  1.00  0.00    -0.183 A  
HETATM   33  C   UNL     1      -7.763   5.250  68.098  1.00  0.00    -0.084 A  
HETATM   34  C   UNL     1      -7.678   6.646  68.208  1.00  0.00    -0.105 A  
HETATM   35  C   UNL     1      -9.002   4.631  67.943  1.00  0.00    -0.128 A  
HETATM   36  C   UNL     1     -10.156   5.407  67.887  1.00  0.00    -0.215 A  
ENDBRANCH  30  31
ENDBRANCH  11  30
ENDBRANCH   9  11
ENDBRANCH   7   9
ENDBRANCH   5   7
ENDBRANCH   4   5
ENDBRANCH   2   4
TORSDOF 12
ENDMDL
MODEL      287
REMARK 921   NORMALIZED FREE ENERGY PREDICTED BY IDOCK:   -4.13 KCAL/MOL
REMARK 922        TOTAL FREE ENERGY PREDICTED BY IDOCK:   -8.75 KCAL/MOL
REMARK 923 INTER-LIGAND FREE ENERGY PREDICTED BY IDOCK:   -8.19 KCAL/MOL
REMARK 924 INTRA-LIGAND FREE ENERGY PREDICTED BY IDOCK:   -0.55 KCAL/MOL
REMARK 927      BINDING AFFINITY PREDICTED BY RF-SCORE:    0.00 PKD
ROOT
HETATM    1  C   UNL     1      -8.544  17.534  66.472  1.00  0.00    -0.293 C  
HETATM    2  C   UNL     1      -9.797  17.180  67.277  1.00  0.00    -0.265 C  
HETATM    3  C   UNL     1     -10.658  18.427  67.522  1.00  0.00    -0.447 C  
ENDROOT
BRANCH   2   4
HETATM    4  O   UNL     1     -10.493  16.005  66.745  1.00  0.00    -0.303 OA 
BRANCH   4   5
HETATM    5  C   UNL     1     -10.179  14.773  67.214  1.00  0.00    -0.241 C  
HETATM    6  O   UNL     1      -9.790  14.573  68.367  1.00  0.00    -0.214 OA 
BRANCH   5   7
HETATM    7  C   UNL     1     -10.313  13.587  66.216  1.00  0.00    -0.293 C  
HETATM    8  C   UNL     1     -10.929  14.094  64.912  1.00  0.00    -0.405 C  
BRANCH   7   9
HETATM    9  N   UNL     1     -10.969  12.301  66.671  1.00  0.00    -0.265 NA 
HETATM   10  H   UNL     1     -11.824  12.115  66.146  1.00  0.00     0.000 HD 
BRANCH   9  11
HETATM   11  P   UNL     1      -9.863  10.932  66.595  1.00  0.00    -0.211 P  
HETATM   12  O   UNL     1     -10.233  10.579  65.134  1.00  0.00    -0.305 OA 
BRANCH  11  13
HETATM   13  C   UNL     1     -10.674   9.295  67.161  1.00  0.00    -0.152 C  
BRANCH  13  14
HETATM   14  O   UNL     1     -10.162   8.113  66.438  1.00  0.00    -0.239 OA 
BRANCH  14  15
HETATM   15  C   UNL     1      -9.467   7.048  67.143  1.00  0.00    -0.145 C  
HETATM   16  C   UNL     1      -8.945   6.013  66.139  1.00  0.00    -0.160 C  
BRANCH  15  17
HETATM   17  C   UNL     1     -10.230   6.455  68.320  1.00  0.00    -0.171 C  
BRANCH  17  18
HETATM   18  N   UNL     1      -9.487   6.349  69.545  1.00  0.00    -0.145 NA 
HETATM   19  C   UNL     1      -8.131   6.432  69.713  1.00  0.00    -0.121 A  
HETATM   20  N   UNL     1      -7.795   6.377  70.984  1.00  0.00    -0.108 NA 
HETATM   21  C   UNL     1      -8.992   6.232  71.649  1.00  0.00    -0.144 A  
HETATM   22  C   UNL     1      -9.295   6.131  73.010  1.00  0.00    -0.139 A  
HETATM   23  N   UNL     1     -10.581   5.920  73.375  1.00  0.00    -0.244 NA 
HETATM   24  N   UNL     1      -8.315   6.233  73.984  1.00  0.00    -0.111 NA 
HETATM   25  C   UNL     1     -11.513   5.864  72.405  1.00  0.00    -0.306 A  
HETATM   26  H1  UNL     1      -8.536   6.160  74.978  1.00  0.00     0.000 HD 
HETATM   27  H2  UNL     1      -7.819   7.113  73.838  1.00  0.00     0.000 HD 
HETATM   28  N   UNL     1     -11.351   5.985  71.068  1.00  0.00    -0.273 NA 
HETATM   29  C   UNL     1     -10.055   6.169  70.772  1.00  0.00    -0.193 A  
ENDBRANCH  17  18
ENDBRANCH  15  17
ENDBRANCH  14  15
ENDBRANCH  13  14
ENDBRANCH  11  13
BRANCH  11  30
HETATM   30  O   UNL     1      -9.449  11.328  68.228  1.00  0.00    -0.175 OA 
BRANCH  30  31
HETATM   31  C   UNL     1     -10.387  11.014  69.195  1.00  0.00    -0.188 A  
HETATM   32  C   UNL     1     -10.074   9.965  70.060  1.00  0.00    -0.308 A  
HETATM   33  C   UNL     1     -12.527  11.263  70.312  1.00  0.00    -0.330 A  
HETATM   34  C   UNL     1     -11.615  11.670  69.327  1.00  0.00    -0.385 A  
HETATM   35  C   UNL     1     -12.218  10.201  71.160  1.00  0.00    -0.490 A  
HETATM   36  C   UNL     1     -10.992   9.554  71.033  1.00  0.00    -0.424 A  
ENDBRANCH  30  31
ENDBRANCH  11  30
ENDBRANCH   9  11
ENDBRANCH   7   9
ENDBRANCH   5   7
ENDBRANCH   4   5
ENDBRANCH   2   4
TORSDOF 12
ENDMDL
MODEL      288
REMARK 921   NORMALIZED FREE ENERGY PREDICTED BY IDOCK:   -4.13 KCAL/MOL
REMARK 922        TOTAL FREE ENERGY PREDICTED BY IDOCK:   -8.74 KCAL/MOL
REMARK 923 INTER-LIGAND FREE ENERGY PREDICTED BY IDOCK:   -7.44 KCAL/MOL
REMARK 924 INTRA-LIGAND FREE ENERGY PREDICTED BY IDOCK:   -1.30 KCAL/MOL
REMARK 927      BINDING AFFINITY PREDICTED BY RF-SCORE:    0.00 PKD
ROOT
HETATM    1  C   UNL     1      -6.217  15.100  69.969  1.00  0.00    -0.152 C  
HETATM    2  C   UNL     1      -6.718  16.452  69.454  1.00  0.00    -0.215 C  
HETATM    3  C   UNL     1      -5.873  17.600  70.024  1.00  0.00    -0.229 C  
ENDROOT
BRANCH   2   4
HETATM    4  O   UNL     1      -6.927  16.457  68.004  1.00  0.00    -0.132 OA 
BRANCH   4   5
HETATM    5  C   UNL     1      -8.165  16.699  67.508  1.00  0.00    -0.164 C  
HETATM    6  O   UNL     1      -8.787  17.739  67.734  1.00  0.00    -0.242 OA 
BRANCH   5   7
HETATM    7  C   UNL     1      -8.801  15.582  66.632  1.00  0.00    -0.290 C  
HETATM    8  C   UNL     1     -10.311  15.556  66.867  1.00  0.00    -0.290 C  
BRANCH   7   9
HETATM    9  N   UNL     1      -8.215  14.186  66.665  1.00  0.00    -0.335 NA 
HETATM   10  H   UNL     1      -7.284  14.185  67.081  1.00  0.00     0.000 HD 
BRANCH   9  11
HETATM   11  P   UNL     1      -9.279  13.042  67.478  1.00  0.00    -0.217 P  
HETATM   12  O   UNL     1      -9.344  13.869  68.784  1.00  0.00    -0.149 OA 
BRANCH  11  13
HETATM   13  C   UNL     1      -8.319  11.685  68.424  1.00  0.00    -0.157 C  
BRANCH  13  14
HETATM   14  O   UNL     1      -9.202  10.725  69.117  1.00  0.00    -0.184 OA 
BRANCH  14  15
HETATM   15  C   UNL     1     -10.639  10.738  68.899  1.00  0.00    -0.216 C  
HETATM   16  C   UNL     1     -11.371  10.719  70.247  1.00  0.00    -0.374 C  
BRANCH  15  17
HETATM   17  C   UNL     1     -11.144   9.712  67.894  1.00  0.00    -0.038 C  
BRANCH  17  18
HETATM   18  N   UNL     1     -10.405   8.481  67.848  1.00  0.00    -0.222 NA 
HETATM   19  C   UNL     1     -10.420   7.458  68.758  1.00  0.00    -0.199 A  
HETATM   20  N   UNL     1      -9.687   6.442  68.360  1.00  0.00    -0.130 NA 
HETATM   21  C   UNL     1      -9.165   6.848  67.152  1.00  0.00    -0.139 A  
HETATM   22  C   UNL     1      -8.326   6.207  66.237  1.00  0.00    -0.124 A  
HETATM   23  N   UNL     1      -7.912   6.890  65.145  1.00  0.00    -0.120 NA 
HETATM   24  N   UNL     1      -7.904   4.900  66.426  1.00  0.00    -0.098 NA 
HETATM   25  C   UNL     1      -8.371   8.144  64.972  1.00  0.00    -0.136 A  
HETATM   26  H1  UNL     1      -7.291   4.431  65.758  1.00  0.00     0.000 HD 
HETATM   27  H2  UNL     1      -8.733   4.318  66.551  1.00  0.00     0.000 HD 
HETATM   28  N   UNL     1      -9.210   8.854  65.760  1.00  0.00    -0.223 NA 
HETATM   29  C   UNL     1      -9.563   8.130  66.833  1.00  0.00    -0.208 A  
ENDBRANCH  17  18
ENDBRANCH  15  17
ENDBRANCH  14  15
ENDBRANCH  13  14
ENDBRANCH  11  13
BRANCH  11  30
HETATM   30  O   UNL     1      -9.206  12.117  66.016  1.00  0.00    -0.209 OA 
BRANCH  30  31
HETATM   31  C   UNL     1     -10.300  12.210  65.174  1.00  0.00    -0.279 A  
HETATM   32  C   UNL     1     -11.488  12.680  65.734  1.00  0.00    -0.399 A  
HETATM   33  C   UNL     1     -11.440  11.934  63.050  1.00  0.00    -0.034 A  
HETATM   34  C   UNL     1     -10.275  11.844  63.825  1.00  0.00    -0.442 A  
HETATM   35  C   UNL     1     -12.630  12.384  63.620  1.00  0.00    -0.550 A  
HETATM   36  C   UNL     1     -12.653  12.756  64.961  1.00  0.00    -0.538 A  
ENDBRANCH  30  31
ENDBRANCH  11  30
ENDBRANCH   9  11
ENDBRANCH   7   9
ENDBRANCH   5   7
ENDBRANCH   4   5
ENDBRANCH   2   4
TORSDOF 12
ENDMDL
MODEL      289
REMARK 921   NORMALIZED FREE ENERGY PREDICTED BY IDOCK:   -4.12 KCAL/MOL
REMARK 922        TOTAL FREE ENERGY PREDICTED BY IDOCK:   -8.73 KCAL/MOL
REMARK 923 INTER-LIGAND FREE ENERGY PREDICTED BY IDOCK:   -7.06 KCAL/MOL
REMARK 924 INTRA-LIGAND FREE ENERGY PREDICTED BY IDOCK:   -1.67 KCAL/MOL
REMARK 927      BINDING AFFINITY PREDICTED BY RF-SCORE:    0.00 PKD
ROOT
HETATM    1  C   UNL     1      -9.531   2.261  70.906  1.00  0.00    -0.212 C  
HETATM    2  C   UNL     1     -10.063   3.129  72.049  1.00  0.00    -0.108 C  
HETATM    3  C   UNL     1     -10.189   2.311  73.343  1.00  0.00    -0.193 C  
ENDROOT
BRANCH   2   4
HETATM    4  O   UNL     1      -9.358   4.409  72.157  1.00  0.00    -0.123 OA 
BRANCH   4   5
HETATM    5  C   UNL     1     -10.049   5.528  72.488  1.00  0.00    -0.177 C  
HETATM    6  O   UNL     1     -10.317   5.831  73.652  1.00  0.00    -0.206 OA 
BRANCH   5   7
HETATM    7  C   UNL     1     -10.521   6.433  71.314  1.00  0.00    -0.216 C  
HETATM    8  C   UNL     1     -12.047   6.501  71.313  1.00  0.00    -0.328 C  
BRANCH   7   9
HETATM    9  N   UNL     1      -9.980   6.188  69.921  1.00  0.00    -0.167 NA 
HETATM   10  H   UNL     1     -10.727   6.202  69.226  1.00  0.00     0.000 HD 
BRANCH   9  11
HETATM   11  P   UNL     1      -8.696   7.319  69.502  1.00  0.00    -0.132 P  
HETATM   12  O   UNL     1      -9.051   8.306  70.642  1.00  0.00    -0.145 OA 
BRANCH  11  13
HETATM   13  C   UNL     1      -9.258   8.636  68.234  1.00  0.00    -0.137 C  
BRANCH  13  14
HETATM   14  O   UNL     1      -9.114   8.190  66.832  1.00  0.00    -0.142 OA 
BRANCH  14  15
HETATM   15  C   UNL     1      -8.447   9.024  65.846  1.00  0.00    -0.140 C  
HETATM   16  C   UNL     1      -6.999   8.554  65.660  1.00  0.00    -0.071 C  
BRANCH  15  17
HETATM   17  C   UNL     1      -8.599  10.523  66.068  1.00  0.00    -0.160 C  
BRANCH  17  18
HETATM   18  N   UNL     1      -9.457  11.199  65.134  1.00  0.00    -0.222 NA 
HETATM   19  C   UNL     1      -9.858  10.767  63.898  1.00  0.00    -0.332 A  
HETATM   20  N   UNL     1     -10.714  11.599  63.347  1.00  0.00    -0.396 NA 
HETATM   21  C   UNL     1     -10.844  12.616  64.266  1.00  0.00    -0.379 A  
HETATM   22  C   UNL     1     -11.618  13.780  64.264  1.00  0.00    -0.369 A  
HETATM   23  N   UNL     1     -11.487  14.649  65.293  1.00  0.00    -0.351 NA 
HETATM   24  N   UNL     1     -12.503  14.066  63.236  1.00  0.00    -1.112 NA 
HETATM   25  C   UNL     1     -10.648  14.322  66.294  1.00  0.00    -0.291 A  
HETATM   26  H1  UNL     1     -13.068  14.915  63.234  1.00  0.00     0.000 HD 
HETATM   27  H2  UNL     1     -13.133  13.270  63.136  1.00  0.00     0.000 HD 
HETATM   28  N   UNL     1      -9.880  13.217  66.428  1.00  0.00    -0.276 NA 
HETATM   29  C   UNL     1     -10.039  12.410  65.367  1.00  0.00    -0.269 A  
ENDBRANCH  17  18
ENDBRANCH  15  17
ENDBRANCH  14  15
ENDBRANCH  13  14
ENDBRANCH  11  13
BRANCH  11  30
HETATM   30  O   UNL     1      -8.300   6.216  68.229  1.00  0.00    -0.113 OA 
BRANCH  30  31
HETATM   31  C   UNL     1      -7.574   5.095  68.589  1.00  0.00    -0.078 A  
HETATM   32  C   UNL     1      -7.781   3.941  67.832  1.00  0.00    -0.067 A  
HETATM   33  C   UNL     1      -6.014   3.869  69.986  1.00  0.00    -0.018 A  
HETATM   34  C   UNL     1      -6.681   5.059  69.665  1.00  0.00    -0.051 A  
HETATM   35  C   UNL     1      -6.239   2.714  69.239  1.00  0.00    -0.028 A  
HETATM   36  C   UNL     1      -7.123   2.751  68.164  1.00  0.00    -0.049 A  
ENDBRANCH  30  31
ENDBRANCH  11  30
ENDBRANCH   9  11
ENDBRANCH   7   9
ENDBRANCH   5   7
ENDBRANCH   4   5
ENDBRANCH   2   4
TORSDOF 12
ENDMDL
MODEL      290
REMARK 921   NORMALIZED FREE ENERGY PREDICTED BY IDOCK:   -4.12 KCAL/MOL
REMARK 922        TOTAL FREE ENERGY PREDICTED BY IDOCK:   -8.73 KCAL/MOL
REMARK 923 INTER-LIGAND FREE ENERGY PREDICTED BY IDOCK:   -8.36 KCAL/MOL
REMARK 924 INTRA-LIGAND FREE ENERGY PREDICTED BY IDOCK:   -0.37 KCAL/MOL
REMARK 927      BINDING AFFINITY PREDICTED BY RF-SCORE:    0.00 PKD
ROOT
HETATM    1  C   UNL     1      -8.625  15.992  66.281  1.00  0.00    -0.363 C  
HETATM    2  C   UNL     1      -9.914  15.168  66.319  1.00  0.00    -0.288 C  
HETATM    3  C   UNL     1     -10.885  15.721  67.371  1.00  0.00    -0.306 C  
ENDROOT
BRANCH   2   4
HETATM    4  O   UNL     1     -10.469  14.933  64.983  1.00  0.00    -0.393 OA 
BRANCH   4   5
HETATM    5  C   UNL     1     -11.555  14.134  64.841  1.00  0.00    -0.379 C  
HETATM    6  O   UNL     1     -12.628  14.536  64.386  1.00  0.00    -0.665 OA 
BRANCH   5   7
HETATM    7  C   UNL     1     -11.404  12.656  65.301  1.00  0.00    -0.315 C  
HETATM    8  C   UNL     1     -11.886  11.730  64.185  1.00  0.00    -0.350 C  
BRANCH   7   9
HETATM    9  N   UNL     1     -11.959  12.233  66.644  1.00  0.00    -0.622 NA 
HETATM   10  H   UNL     1     -12.837  11.724  66.539  1.00  0.00     0.000 HD 
BRANCH   9  11
HETATM   11  P   UNL     1     -10.790  11.304  67.579  1.00  0.00    -0.280 P  
HETATM   12  O   UNL     1      -9.657  11.486  66.540  1.00  0.00    -0.195 OA 
BRANCH  11  13
HETATM   13  C   UNL     1     -10.827   9.438  67.163  1.00  0.00    -0.062 C  
BRANCH  13  14
HETATM   14  O   UNL     1      -9.741   9.026  66.250  1.00  0.00    -0.235 OA 
BRANCH  14  15
HETATM   15  C   UNL     1      -8.632   8.215  66.725  1.00  0.00    -0.132 C  
HETATM   16  C   UNL     1      -7.501   8.222  65.689  1.00  0.00    -0.081 C  
BRANCH  15  17
HETATM   17  C   UNL     1      -9.019   6.831  67.225  1.00  0.00    -0.117 C  
BRANCH  17  18
HETATM   18  N   UNL     1      -8.423   5.732  66.516  1.00  0.00    -0.114 NA 
HETATM   19  C   UNL     1      -7.110   5.345  66.517  1.00  0.00    -0.069 A  
HETATM   20  N   UNL     1      -6.928   4.243  65.824  1.00  0.00    -0.061 NA 
HETATM   21  C   UNL     1      -8.179   3.928  65.344  1.00  0.00    -0.101 A  
HETATM   22  C   UNL     1      -8.635   2.867  64.557  1.00  0.00    -0.095 A  
HETATM   23  N   UNL     1      -9.933   2.854  64.173  1.00  0.00    -0.153 NA 
HETATM   24  N   UNL     1      -7.793   1.841  64.157  1.00  0.00    -0.064 NA 
HETATM   25  C   UNL     1     -10.732   3.845  64.610  1.00  0.00    -0.117 A  
HETATM   26  H1  UNL     1      -8.126   1.066  63.583  1.00  0.00     0.000 HD 
HETATM   27  H2  UNL     1      -7.361   1.447  64.994  1.00  0.00     0.000 HD 
HETATM   28  N   UNL     1     -10.420   4.897  65.400  1.00  0.00    -0.037 NA 
HETATM   29  C   UNL     1      -9.118   4.864  65.725  1.00  0.00    -0.148 A  
ENDBRANCH  17  18
ENDBRANCH  15  17
ENDBRANCH  14  15
ENDBRANCH  13  14
ENDBRANCH  11  13
BRANCH  11  30
HETATM   30  O   UNL     1     -12.057  11.102  68.741  1.00  0.00    -0.522 OA 
BRANCH  30  31
HETATM   31  C   UNL     1     -11.747  10.360  69.867  1.00  0.00    -0.264 A  
HETATM   32  C   UNL     1     -12.800  10.061  70.733  1.00  0.00    -0.341 A  
HETATM   33  C   UNL     1     -10.222   9.210  71.363  1.00  0.00    -0.402 A  
HETATM   34  C   UNL     1     -10.456   9.925  70.180  1.00  0.00    -0.339 A  
HETATM   35  C   UNL     1     -11.273   8.931  72.235  1.00  0.00    -0.269 A  
HETATM   36  C   UNL     1     -12.560   9.358  71.919  1.00  0.00    -0.481 A  
ENDBRANCH  30  31
ENDBRANCH  11  30
ENDBRANCH   9  11
ENDBRANCH   7   9
ENDBRANCH   5   7
ENDBRANCH   4   5
ENDBRANCH   2   4
TORSDOF 12
ENDMDL
MODEL      291
REMARK 921   NORMALIZED FREE ENERGY PREDICTED BY IDOCK:   -4.12 KCAL/MOL
REMARK 922        TOTAL FREE ENERGY PREDICTED BY IDOCK:   -8.72 KCAL/MOL
REMARK 923 INTER-LIGAND FREE ENERGY PREDICTED BY IDOCK:   -7.70 KCAL/MOL
REMARK 924 INTRA-LIGAND FREE ENERGY PREDICTED BY IDOCK:   -1.01 KCAL/MOL
REMARK 927      BINDING AFFINITY PREDICTED BY RF-SCORE:    0.00 PKD
ROOT
HETATM    1  C   UNL     1     -13.137   9.055  72.417  1.00  0.00    -0.487 C  
HETATM    2  C   UNL     1     -12.031   8.242  71.741  1.00  0.00    -0.316 C  
HETATM    3  C   UNL     1     -10.645   8.732  72.183  1.00  0.00    -0.386 C  
ENDROOT
BRANCH   2   4
HETATM    4  O   UNL     1     -12.265   6.798  71.824  1.00  0.00    -0.333 OA 
BRANCH   4   5
HETATM    5  C   UNL     1     -11.246   5.939  71.579  1.00  0.00    -0.225 C  
HETATM    6  O   UNL     1     -10.552   5.450  72.473  1.00  0.00    -0.208 OA 
BRANCH   5   7
HETATM    7  C   UNL     1     -10.961   5.594  70.089  1.00  0.00    -0.233 C  
HETATM    8  C   UNL     1      -9.537   5.056  69.960  1.00  0.00    -0.258 C  
BRANCH   7   9
HETATM    9  N   UNL     1     -11.261   6.621  69.017  1.00  0.00    -0.531 NA 
HETATM   10  H   UNL     1     -11.671   7.465  69.417  1.00  0.00     0.000 HD 
BRANCH   9  11
HETATM   11  P   UNL     1      -9.839   6.999  68.049  1.00  0.00    -0.150 P  
HETATM   12  O   UNL     1      -9.258   7.981  69.094  1.00  0.00    -0.151 OA 
BRANCH  11  13
HETATM   13  C   UNL     1     -10.122   8.476  66.867  1.00  0.00    -0.294 C  
BRANCH  13  14
HETATM   14  O   UNL     1     -11.161   9.411  67.346  1.00  0.00    -0.113 OA 
BRANCH  14  15
HETATM   15  C   UNL     1     -10.806  10.725  67.858  1.00  0.00    -0.264 C  
HETATM   16  C   UNL     1     -11.739  11.102  69.016  1.00  0.00    -0.408 C  
BRANCH  15  17
HETATM   17  C   UNL     1     -10.651  11.805  66.797  1.00  0.00    -0.238 C  
BRANCH  17  18
HETATM   18  N   UNL     1      -9.628  12.780  67.057  1.00  0.00    -0.222 NA 
HETATM   19  C   UNL     1      -8.276  12.577  67.137  1.00  0.00    -0.168 A  
HETATM   20  N   UNL     1      -7.625  13.707  67.303  1.00  0.00    -0.118 NA 
HETATM   21  C   UNL     1      -8.610  14.668  67.352  1.00  0.00    -0.199 A  
HETATM   22  C   UNL     1      -8.551  16.057  67.496  1.00  0.00    -0.178 A  
HETATM   23  N   UNL     1      -9.709  16.751  67.583  1.00  0.00    -0.248 NA 
HETATM   24  N   UNL     1      -7.342  16.732  67.562  1.00  0.00    -0.147 NA 
HETATM   25  C   UNL     1     -10.865  16.068  67.477  1.00  0.00    -0.292 A  
HETATM   26  H1  UNL     1      -7.298  17.746  67.668  1.00  0.00     0.000 HD 
HETATM   27  H2  UNL     1      -6.798  16.480  66.737  1.00  0.00     0.000 HD 
HETATM   28  N   UNL     1     -11.050  14.741  67.298  1.00  0.00    -0.322 NA 
HETATM   29  C   UNL     1      -9.868  14.110  67.244  1.00  0.00    -0.238 A  
ENDBRANCH  17  18
ENDBRANCH  15  17
ENDBRANCH  14  15
ENDBRANCH  13  14
ENDBRANCH  11  13
BRANCH  11  30
HETATM   30  O   UNL     1     -10.488   5.899  66.880  1.00  0.00    -0.225 OA 
BRANCH  30  31
HETATM   31  C   UNL     1      -9.574   5.128  66.185  1.00  0.00    -0.164 A  
HETATM   32  C   UNL     1     -10.059   4.406  65.094  1.00  0.00    -0.193 A  
HETATM   33  C   UNL     1      -7.371   4.189  65.795  1.00  0.00    -0.077 A  
HETATM   34  C   UNL     1      -8.223   5.024  66.531  1.00  0.00    -0.108 A  
HETATM   35  C   UNL     1      -7.865   3.454  64.719  1.00  0.00    -0.078 A  
HETATM   36  C   UNL     1      -9.208   3.563  64.370  1.00  0.00    -0.134 A  
ENDBRANCH  30  31
ENDBRANCH  11  30
ENDBRANCH   9  11
ENDBRANCH   7   9
ENDBRANCH   5   7
ENDBRANCH   4   5
ENDBRANCH   2   4
TORSDOF 12
ENDMDL
MODEL      292
REMARK 921   NORMALIZED FREE ENERGY PREDICTED BY IDOCK:   -4.11 KCAL/MOL
REMARK 922        TOTAL FREE ENERGY PREDICTED BY IDOCK:   -8.71 KCAL/MOL
REMARK 923 INTER-LIGAND FREE ENERGY PREDICTED BY IDOCK:   -8.00 KCAL/MOL
REMARK 924 INTRA-LIGAND FREE ENERGY PREDICTED BY IDOCK:   -0.71 KCAL/MOL
REMARK 927      BINDING AFFINITY PREDICTED BY RF-SCORE:    0.00 PKD
ROOT
HETATM    1  C   UNL     1      -6.542   7.805  69.844  1.00  0.00    -0.037 C  
HETATM    2  C   UNL     1      -7.731   6.907  70.197  1.00  0.00    -0.101 C  
HETATM    3  C   UNL     1      -8.783   7.684  71.001  1.00  0.00    -0.137 C  
ENDROOT
BRANCH   2   4
HETATM    4  O   UNL     1      -8.224   6.151  69.043  1.00  0.00    -0.110 OA 
BRANCH   4   5
HETATM    5  C   UNL     1      -8.350   6.768  67.842  1.00  0.00    -0.120 C  
HETATM    6  O   UNL     1      -7.530   6.634  66.931  1.00  0.00    -0.083 OA 
BRANCH   5   7
HETATM    7  C   UNL     1      -9.588   7.690  67.653  1.00  0.00    -0.145 C  
HETATM    8  C   UNL     1      -9.848   7.884  66.160  1.00  0.00    -0.020 C  
BRANCH   7   9
HETATM    9  N   UNL     1      -9.658   9.006  68.399  1.00  0.00    -0.150 NA 
HETATM   10  H   UNL     1      -9.144   8.960  69.280  1.00  0.00     0.000 HD 
BRANCH   9  11
HETATM   11  P   UNL     1      -9.110  10.356  67.410  1.00  0.00    -0.133 P  
HETATM   12  O   UNL     1      -7.616   9.963  67.514  1.00  0.00    -0.091 OA 
BRANCH  11  13
HETATM   13  C   UNL     1      -8.735  11.922  68.441  1.00  0.00    -0.157 C  
BRANCH  13  14
HETATM   14  O   UNL     1      -8.050  12.977  67.666  1.00  0.00    -0.146 OA 
BRANCH  14  15
HETATM   15  C   UNL     1      -8.260  14.384  67.969  1.00  0.00    -0.149 C  
HETATM   16  C   UNL     1      -7.585  14.737  69.300  1.00  0.00    -0.144 C  
BRANCH  15  17
HETATM   17  C   UNL     1      -9.702  14.856  67.849  1.00  0.00    -0.206 C  
BRANCH  17  18
HETATM   18  N   UNL     1      -9.914  15.968  66.965  1.00  0.00    -0.251 NA 
HETATM   19  C   UNL     1     -10.233  15.934  65.634  1.00  0.00    -0.379 A  
HETATM   20  N   UNL     1     -10.438  17.140  65.152  1.00  0.00    -0.605 NA 
HETATM   21  C   UNL     1     -10.218  17.979  66.222  1.00  0.00    -0.381 A  
HETATM   22  C   UNL     1     -10.295  19.369  66.346  1.00  0.00    -0.483 A  
HETATM   23  N   UNL     1      -9.948  19.936  67.526  1.00  0.00    -0.390 NA 
HETATM   24  N   UNL     1     -10.705  20.174  65.295  1.00  0.00    -0.104 NA 
HETATM   25  C   UNL     1      -9.591  19.122  68.537  1.00  0.00    -0.395 A  
HETATM   26  H1  UNL     1     -10.760  21.189  65.386  1.00  0.00     0.000 HD 
HETATM   27  H2  UNL     1     -11.615  19.837  64.980  1.00  0.00     0.000 HD 
HETATM   28  N   UNL     1      -9.516  17.772  68.551  1.00  0.00    -0.296 NA 
HETATM   29  C   UNL     1      -9.849  17.276  67.350  1.00  0.00    -0.272 A  
ENDBRANCH  17  18
ENDBRANCH  15  17
ENDBRANCH  14  15
ENDBRANCH  13  14
ENDBRANCH  11  13
BRANCH  11  30
HETATM   30  O   UNL     1     -10.780  10.794  67.292  1.00  0.00    -0.240 OA 
BRANCH  30  31
HETATM   31  C   UNL     1     -11.187  11.354  66.094  1.00  0.00    -0.137 A  
HETATM   32  C   UNL     1     -12.141  12.370  66.166  1.00  0.00    -0.295 A  
HETATM   33  C   UNL     1     -11.208  11.539  63.675  1.00  0.00    -0.451 A  
HETATM   34  C   UNL     1     -10.713  10.944  64.844  1.00  0.00    -0.240 A  
HETATM   35  C   UNL     1     -12.176  12.539  63.751  1.00  0.00    -0.615 A  
HETATM   36  C   UNL     1     -12.642  12.953  64.996  1.00  0.00    -0.538 A  
ENDBRANCH  30  31
ENDBRANCH  11  30
ENDBRANCH   9  11
ENDBRANCH   7   9
ENDBRANCH   5   7
ENDBRANCH   4   5
ENDBRANCH   2   4
TORSDOF 12
ENDMDL
MODEL      293
REMARK 921   NORMALIZED FREE ENERGY PREDICTED BY IDOCK:   -4.11 KCAL/MOL
REMARK 922        TOTAL FREE ENERGY PREDICTED BY IDOCK:   -8.71 KCAL/MOL
REMARK 923 INTER-LIGAND FREE ENERGY PREDICTED BY IDOCK:   -8.76 KCAL/MOL
REMARK 924 INTRA-LIGAND FREE ENERGY PREDICTED BY IDOCK:    0.05 KCAL/MOL
REMARK 927      BINDING AFFINITY PREDICTED BY RF-SCORE:    0.00 PKD
ROOT
HETATM    1  C   UNL     1     -13.378  10.139  71.571  1.00  0.00    -0.434 C  
HETATM    2  C   UNL     1     -13.342   8.832  72.366  1.00  0.00    -0.399 C  
HETATM    3  C   UNL     1     -14.166   7.743  71.665  1.00  0.00    -0.572 C  
ENDROOT
BRANCH   2   4
HETATM    4  O   UNL     1     -11.984   8.459  72.772  1.00  0.00    -0.367 OA 
BRANCH   4   5
HETATM    5  C   UNL     1     -11.408   7.352  72.241  1.00  0.00    -0.281 C  
HETATM    6  O   UNL     1     -11.283   6.297  72.865  1.00  0.00    -0.251 OA 
BRANCH   5   7
HETATM    7  C   UNL     1     -10.878   7.468  70.783  1.00  0.00    -0.242 C  
HETATM    8  C   UNL     1     -11.349   6.256  69.980  1.00  0.00    -0.486 C  
BRANCH   7   9
HETATM    9  N   UNL     1      -9.410   7.750  70.544  1.00  0.00    -0.163 NA 
HETATM   10  H   UNL     1      -8.965   6.988  70.031  1.00  0.00     0.000 HD 
BRANCH   9  11
HETATM   11  P   UNL     1      -9.157   9.296  69.740  1.00  0.00    -0.208 P  
HETATM   12  O   UNL     1     -10.325   9.992  70.480  1.00  0.00    -0.272 OA 
BRANCH  11  13
HETATM   13  C   UNL     1     -10.143   9.449  68.108  1.00  0.00    -0.181 C  
BRANCH  13  14
HETATM   14  O   UNL     1     -10.828  10.750  67.964  1.00  0.00    -0.213 OA 
BRANCH  14  15
HETATM   15  C   UNL     1     -10.912  11.413  66.673  1.00  0.00    -0.285 C  
HETATM   16  C   UNL     1      -9.517  11.874  66.233  1.00  0.00    -0.238 C  
BRANCH  15  17
HETATM   17  C   UNL     1     -11.990  12.483  66.572  1.00  0.00    -0.296 C  
BRANCH  17  18
HETATM   18  N   UNL     1     -11.540  13.831  66.785  1.00  0.00    -0.351 NA 
HETATM   19  C   UNL     1     -11.089  14.724  65.850  1.00  0.00    -0.340 A  
HETATM   20  N   UNL     1     -10.839  15.900  66.382  1.00  0.00    -0.249 NA 
HETATM   21  C   UNL     1     -11.125  15.740  67.720  1.00  0.00    -0.313 A  
HETATM   22  C   UNL     1     -11.072  16.629  68.797  1.00  0.00    -0.270 A  
HETATM   23  N   UNL     1     -11.348  16.164  70.037  1.00  0.00    -0.341 NA 
HETATM   24  N   UNL     1     -10.738  17.963  68.625  1.00  0.00    -0.310 NA 
HETATM   25  C   UNL     1     -11.706  14.872  70.163  1.00  0.00    -0.294 A  
HETATM   26  H1  UNL     1     -10.699  18.612  69.411  1.00  0.00     0.000 HD 
HETATM   27  H2  UNL     1     -11.368  18.356  67.925  1.00  0.00     0.000 HD 
HETATM   28  N   UNL     1     -11.830  13.931  69.201  1.00  0.00    -0.337 NA 
HETATM   29  C   UNL     1     -11.522  14.449  68.002  1.00  0.00    -0.310 A  
ENDBRANCH  17  18
ENDBRANCH  15  17
ENDBRANCH  14  15
ENDBRANCH  13  14
ENDBRANCH  11  13
BRANCH  11  30
HETATM   30  O   UNL     1      -7.850   8.518  68.913  1.00  0.00    -0.105 OA 
BRANCH  30  31
HETATM   31  C   UNL     1      -8.069   7.215  68.505  1.00  0.00    -0.125 A  
HETATM   32  C   UNL     1      -8.741   7.039  67.294  1.00  0.00    -0.120 A  
HETATM   33  C   UNL     1      -7.972   4.805  68.773  1.00  0.00    -0.079 A  
HETATM   34  C   UNL     1      -7.676   6.093  69.241  1.00  0.00    -0.099 A  
HETATM   35  C   UNL     1      -8.661   4.635  67.573  1.00  0.00    -0.107 A  
HETATM   36  C   UNL     1      -9.045   5.752  66.836  1.00  0.00    -0.118 A  
ENDBRANCH  30  31
ENDBRANCH  11  30
ENDBRANCH   9  11
ENDBRANCH   7   9
ENDBRANCH   5   7
ENDBRANCH   4   5
ENDBRANCH   2   4
TORSDOF 12
ENDMDL
MODEL      294
REMARK 921   NORMALIZED FREE ENERGY PREDICTED BY IDOCK:   -4.11 KCAL/MOL
REMARK 922        TOTAL FREE ENERGY PREDICTED BY IDOCK:   -8.70 KCAL/MOL
REMARK 923 INTER-LIGAND FREE ENERGY PREDICTED BY IDOCK:   -7.23 KCAL/MOL
REMARK 924 INTRA-LIGAND FREE ENERGY PREDICTED BY IDOCK:   -1.47 KCAL/MOL
REMARK 927      BINDING AFFINITY PREDICTED BY RF-SCORE:    0.00 PKD
ROOT
HETATM    1  C   UNL     1      -8.801   7.988  73.744  1.00  0.00    -0.313 C  
HETATM    2  C   UNL     1      -7.708   6.916  73.747  1.00  0.00    -0.093 C  
HETATM    3  C   UNL     1      -8.322   5.511  73.689  1.00  0.00    -0.112 C  
ENDROOT
BRANCH   2   4
HETATM    4  O   UNL     1      -6.642   7.199  72.783  1.00  0.00    -0.062 OA 
BRANCH   4   5
HETATM    5  C   UNL     1      -6.498   8.455  72.292  1.00  0.00    -0.078 C  
HETATM    6  O   UNL     1      -6.034   9.384  72.955  1.00  0.00    -0.300 OA 
BRANCH   5   7
HETATM    7  C   UNL     1      -6.969   8.694  70.829  1.00  0.00    -0.059 C  
HETATM    8  C   UNL     1      -6.021   9.681  70.150  1.00  0.00    -0.050 C  
BRANCH   7   9
HETATM    9  N   UNL     1      -8.417   9.049  70.562  1.00  0.00    -0.179 NA 
HETATM   10  H   UNL     1      -8.493   9.912  70.022  1.00  0.00     0.000 HD 
BRANCH   9  11
HETATM   11  P   UNL     1      -9.288   7.731  69.783  1.00  0.00    -0.151 P  
HETATM   12  O   UNL     1      -8.198   6.680  70.108  1.00  0.00    -0.128 OA 
BRANCH  11  13
HETATM   13  C   UNL     1      -8.857   7.555  67.928  1.00  0.00    -0.126 C  
BRANCH  13  14
HETATM   14  O   UNL     1      -8.827   8.849  67.214  1.00  0.00    -0.127 OA 
BRANCH  14  15
HETATM   15  C   UNL     1      -9.433   8.992  65.901  1.00  0.00    -0.249 C  
HETATM   16  C   UNL     1      -8.413   8.627  64.814  1.00  0.00    -0.168 C  
BRANCH  15  17
HETATM   17  C   UNL     1     -10.153  10.313  65.669  1.00  0.00    -0.271 C  
BRANCH  17  18
HETATM   18  N   UNL     1      -9.638  11.433  66.407  1.00  0.00    -0.200 NA 
HETATM   19  C   UNL     1      -8.339  11.861  66.486  1.00  0.00    -0.062 A  
HETATM   20  N   UNL     1      -8.235  12.971  67.183  1.00  0.00    -0.161 NA 
HETATM   21  C   UNL     1      -9.524  13.248  67.582  1.00  0.00    -0.211 A  
HETATM   22  C   UNL     1     -10.061  14.298  68.332  1.00  0.00    -0.243 A  
HETATM   23  N   UNL     1     -11.380  14.272  68.634  1.00  0.00    -0.259 NA 
HETATM   24  N   UNL     1      -9.278  15.351  68.778  1.00  0.00    -0.194 NA 
HETATM   25  C   UNL     1     -12.119  13.254  68.154  1.00  0.00    -0.211 A  
HETATM   26  H1  UNL     1      -9.670  16.117  69.326  1.00  0.00     0.000 HD 
HETATM   27  H2  UNL     1      -8.806  15.754  67.968  1.00  0.00     0.000 HD 
HETATM   28  N   UNL     1     -11.725  12.209  67.391  1.00  0.00    -0.509 NA 
HETATM   29  C   UNL     1     -10.408  12.282  67.148  1.00  0.00    -0.218 A  
ENDBRANCH  17  18
ENDBRANCH  15  17
ENDBRANCH  14  15
ENDBRANCH  13  14
ENDBRANCH  11  13
BRANCH  11  30
HETATM   30  O   UNL     1     -10.506   8.905  69.422  1.00  0.00    -0.217 OA 
BRANCH  30  31
HETATM   31  C   UNL     1     -11.499   9.075  70.370  1.00  0.00    -0.173 A  
HETATM   32  C   UNL     1     -12.036  10.357  70.497  1.00  0.00    -0.427 A  
HETATM   33  C   UNL     1     -12.945   8.318  72.165  1.00  0.00    -0.327 A  
HETATM   34  C   UNL     1     -11.962   8.051  71.202  1.00  0.00    -0.297 A  
HETATM   35  C   UNL     1     -13.464   9.605  72.302  1.00  0.00    -0.488 A  
HETATM   36  C   UNL     1     -13.008  10.622  71.468  1.00  0.00    -0.566 A  
ENDBRANCH  30  31
ENDBRANCH  11  30
ENDBRANCH   9  11
ENDBRANCH   7   9
ENDBRANCH   5   7
ENDBRANCH   4   5
ENDBRANCH   2   4
TORSDOF 12
ENDMDL
MODEL      295
REMARK 921   NORMALIZED FREE ENERGY PREDICTED BY IDOCK:   -4.10 KCAL/MOL
REMARK 922        TOTAL FREE ENERGY PREDICTED BY IDOCK:   -8.70 KCAL/MOL
REMARK 923 INTER-LIGAND FREE ENERGY PREDICTED BY IDOCK:   -6.63 KCAL/MOL
REMARK 924 INTRA-LIGAND FREE ENERGY PREDICTED BY IDOCK:   -2.07 KCAL/MOL
REMARK 927      BINDING AFFINITY PREDICTED BY RF-SCORE:    0.00 PKD
ROOT
HETATM    1  C   UNL     1     -10.118  14.381  67.300  1.00  0.00    -0.251 C  
HETATM    2  C   UNL     1     -10.469  12.913  67.045  1.00  0.00    -0.238 C  
HETATM    3  C   UNL     1     -11.907  12.779  66.524  1.00  0.00    -0.471 C  
ENDROOT
BRANCH   2   4
HETATM    4  O   UNL     1      -9.434  12.213  66.281  1.00  0.00    -0.228 OA 
BRANCH   4   5
HETATM    5  C   UNL     1      -8.588  11.368  66.919  1.00  0.00    -0.154 C  
HETATM    6  O   UNL     1      -8.040  11.648  67.987  1.00  0.00    -0.124 OA 
BRANCH   5   7
HETATM    7  C   UNL     1      -8.308  10.001  66.230  1.00  0.00    -0.127 C  
HETATM    8  C   UNL     1      -9.634   9.284  65.979  1.00  0.00    -0.338 C  
BRANCH   7   9
HETATM    9  N   UNL     1      -7.280   9.063  66.826  1.00  0.00    -0.085 NA 
HETATM   10  H   UNL     1      -6.748   9.520  67.567  1.00  0.00     0.000 HD 
BRANCH   9  11
HETATM   11  P   UNL     1      -8.005   7.561  67.392  1.00  0.00    -0.117 P  
HETATM   12  O   UNL     1      -8.413   8.152  68.764  1.00  0.00    -0.125 OA 
BRANCH  11  13
HETATM   13  C   UNL     1      -6.752   6.429  68.290  1.00  0.00    -0.068 C  
BRANCH  13  14
HETATM   14  O   UNL     1      -7.213   5.997  69.625  1.00  0.00    -0.069 OA 
BRANCH  14  15
HETATM   15  C   UNL     1      -7.533   4.604  69.892  1.00  0.00    -0.054 C  
HETATM   16  C   UNL     1      -7.489   3.800  68.586  1.00  0.00    -0.054 C  
BRANCH  15  17
HETATM   17  C   UNL     1      -8.788   4.384  70.725  1.00  0.00    -0.097 C  
BRANCH  17  18
HETATM   18  N   UNL     1      -9.863   5.303  70.473  1.00  0.00    -0.192 NA 
HETATM   19  C   UNL     1     -10.656   5.382  69.359  1.00  0.00    -0.225 A  
HETATM   20  N   UNL     1     -11.601   6.286  69.499  1.00  0.00    -0.346 NA 
HETATM   21  C   UNL     1     -11.384   6.819  70.750  1.00  0.00    -0.325 A  
HETATM   22  C   UNL     1     -12.060   7.806  71.472  1.00  0.00    -0.309 A  
HETATM   23  N   UNL     1     -11.568   8.183  72.675  1.00  0.00    -0.405 NA 
HETATM   24  N   UNL     1     -13.210   8.407  70.984  1.00  0.00    -0.503 NA 
HETATM   25  C   UNL     1     -10.472   7.552  73.136  1.00  0.00    -0.364 A  
HETATM   26  H1  UNL     1     -13.704   9.127  71.511  1.00  0.00     0.000 HD 
HETATM   27  H2  UNL     1     -13.878   7.669  70.760  1.00  0.00     0.000 HD 
HETATM   28  N   UNL     1      -9.756   6.564  72.552  1.00  0.00    -0.159 NA 
HETATM   29  C   UNL     1     -10.282   6.254  71.357  1.00  0.00    -0.201 A  
ENDBRANCH  17  18
ENDBRANCH  15  17
ENDBRANCH  14  15
ENDBRANCH  13  14
ENDBRANCH  11  13
BRANCH  11  30
HETATM   30  O   UNL     1      -7.550   6.901  65.858  1.00  0.00    -0.084 OA 
BRANCH  30  31
HETATM   31  C   UNL     1      -8.300   5.833  65.400  1.00  0.00    -0.142 A  
HETATM   32  C   UNL     1      -7.798   5.136  64.300  1.00  0.00    -0.094 A  
HETATM   33  C   UNL     1     -10.236   4.370  65.411  1.00  0.00    -0.247 A  
HETATM   34  C   UNL     1      -9.519   5.442  65.962  1.00  0.00    -0.161 A  
HETATM   35  C   UNL     1      -9.740   3.691  64.299  1.00  0.00    -0.175 A  
HETATM   36  C   UNL     1      -8.522   4.075  63.745  1.00  0.00    -0.097 A  
ENDBRANCH  30  31
ENDBRANCH  11  30
ENDBRANCH   9  11
ENDBRANCH   7   9
ENDBRANCH   5   7
ENDBRANCH   4   5
ENDBRANCH   2   4
TORSDOF 12
ENDMDL
MODEL      296
REMARK 921   NORMALIZED FREE ENERGY PREDICTED BY IDOCK:   -4.10 KCAL/MOL
REMARK 922        TOTAL FREE ENERGY PREDICTED BY IDOCK:   -8.69 KCAL/MOL
REMARK 923 INTER-LIGAND FREE ENERGY PREDICTED BY IDOCK:   -9.11 KCAL/MOL
REMARK 924 INTRA-LIGAND FREE ENERGY PREDICTED BY IDOCK:    0.41 KCAL/MOL
REMARK 927      BINDING AFFINITY PREDICTED BY RF-SCORE:    0.00 PKD
ROOT
HETATM    1  C   UNL     1      -5.233   9.039  64.516  1.00  0.00    -0.050 C  
HETATM    2  C   UNL     1      -6.206  10.152  64.121  1.00  0.00    -0.132 C  
HETATM    3  C   UNL     1      -6.266  10.309  62.595  1.00  0.00    -0.136 C  
ENDROOT
BRANCH   2   4
HETATM    4  O   UNL     1      -7.493  10.044  64.812  1.00  0.00    -0.135 OA 
BRANCH   4   5
HETATM    5  C   UNL     1      -7.532  10.103  66.166  1.00  0.00    -0.115 C  
HETATM    6  O   UNL     1      -7.248  11.120  66.801  1.00  0.00    -0.131 OA 
BRANCH   5   7
HETATM    7  C   UNL     1      -7.943   8.802  66.914  1.00  0.00    -0.098 C  
HETATM    8  C   UNL     1      -8.524   7.807  65.910  1.00  0.00    -0.151 C  
BRANCH   7   9
HETATM    9  N   UNL     1      -8.805   8.897  68.155  1.00  0.00    -0.134 NA 
HETATM   10  H   UNL     1      -8.431   9.579  68.814  1.00  0.00     0.000 HD 
BRANCH   9  11
HETATM   11  P   UNL     1     -10.488   9.240  67.766  1.00  0.00    -0.212 P  
HETATM   12  O   UNL     1     -10.541   8.210  66.611  1.00  0.00    -0.272 OA 
BRANCH  11  13
HETATM   13  C   UNL     1     -10.677  10.642  66.479  1.00  0.00    -0.151 C  
BRANCH  13  14
HETATM   14  O   UNL     1     -11.848  11.507  66.730  1.00  0.00    -0.511 OA 
BRANCH  14  15
HETATM   15  C   UNL     1     -11.781  12.941  66.504  1.00  0.00    -0.393 C  
HETATM   16  C   UNL     1     -12.234  13.265  65.074  1.00  0.00    -0.477 C  
BRANCH  15  17
HETATM   17  C   UNL     1     -10.467  13.593  66.910  1.00  0.00    -0.272 C  
BRANCH  17  18
HETATM   18  N   UNL     1     -10.579  14.921  67.447  1.00  0.00    -0.259 NA 
HETATM   19  C   UNL     1     -11.512  15.393  68.331  1.00  0.00    -0.355 A  
HETATM   20  N   UNL     1     -11.267  16.638  68.677  1.00  0.00    -0.297 NA 
HETATM   21  C   UNL     1     -10.139  16.977  67.964  1.00  0.00    -0.305 A  
HETATM   22  C   UNL     1      -9.387  18.154  67.914  1.00  0.00    -0.272 A  
HETATM   23  N   UNL     1      -8.347  18.225  67.051  1.00  0.00    -0.242 NA 
HETATM   24  N   UNL     1      -9.685  19.244  68.717  1.00  0.00    -0.427 NA 
HETATM   25  C   UNL     1      -8.062  17.135  66.314  1.00  0.00    -0.290 A  
HETATM   26  H1  UNL     1      -9.136  20.103  68.681  1.00  0.00     0.000 HD 
HETATM   27  H2  UNL     1      -9.702  18.924  69.686  1.00  0.00     0.000 HD 
HETATM   28  N   UNL     1      -8.686  15.936  66.300  1.00  0.00    -0.331 NA 
HETATM   29  C   UNL     1      -9.717  15.939  67.158  1.00  0.00    -0.224 A  
ENDBRANCH  17  18
ENDBRANCH  15  17
ENDBRANCH  14  15
ENDBRANCH  13  14
ENDBRANCH  11  13
BRANCH  11  30
HETATM   30  O   UNL     1     -10.430  10.391  69.057  1.00  0.00    -0.193 OA 
BRANCH  30  31
HETATM   31  C   UNL     1     -11.313  10.189  70.103  1.00  0.00    -0.303 A  
HETATM   32  C   UNL     1     -11.243   8.958  70.757  1.00  0.00    -0.321 A  
HETATM   33  C   UNL     1     -13.148  10.829  71.555  1.00  0.00    -0.517 A  
HETATM   34  C   UNL     1     -12.264  11.130  70.510  1.00  0.00    -0.475 A  
HETATM   35  C   UNL     1     -13.088   9.591  72.192  1.00  0.00    -0.522 A  
HETATM   36  C   UNL     1     -12.136   8.657  71.792  1.00  0.00    -0.403 A  
ENDBRANCH  30  31
ENDBRANCH  11  30
ENDBRANCH   9  11
ENDBRANCH   7   9
ENDBRANCH   5   7
ENDBRANCH   4   5
ENDBRANCH   2   4
TORSDOF 12
ENDMDL
MODEL      297
REMARK 921   NORMALIZED FREE ENERGY PREDICTED BY IDOCK:   -4.09 KCAL/MOL
REMARK 922        TOTAL FREE ENERGY PREDICTED BY IDOCK:   -8.68 KCAL/MOL
REMARK 923 INTER-LIGAND FREE ENERGY PREDICTED BY IDOCK:   -7.38 KCAL/MOL
REMARK 924 INTRA-LIGAND FREE ENERGY PREDICTED BY IDOCK:   -1.30 KCAL/MOL
REMARK 927      BINDING AFFINITY PREDICTED BY RF-SCORE:    0.00 PKD
ROOT
HETATM    1  C   UNL     1     -13.887  13.432  72.431  1.00  0.00    -0.665 C  
HETATM    2  C   UNL     1     -13.160  12.622  71.355  1.00  0.00    -0.216 C  
HETATM    3  C   UNL     1     -12.285  13.533  70.483  1.00  0.00    -0.433 C  
ENDROOT
BRANCH   2   4
HETATM    4  O   UNL     1     -12.511  11.425  71.897  1.00  0.00    -0.117 OA 
BRANCH   4   5
HETATM    5  C   UNL     1     -12.587  10.256  71.215  1.00  0.00    -0.418 C  
HETATM    6  O   UNL     1     -13.599   9.552  71.204  1.00  0.00    -0.337 OA 
BRANCH   5   7
HETATM    7  C   UNL     1     -11.314   9.810  70.441  1.00  0.00    -0.297 C  
HETATM    8  C   UNL     1     -10.371   9.084  71.398  1.00  0.00    -0.396 C  
BRANCH   7   9
HETATM    9  N   UNL     1     -10.568  10.819  69.593  1.00  0.00    -0.381 NA 
HETATM   10  H   UNL     1      -9.649  11.024  69.985  1.00  0.00     0.000 HD 
BRANCH   9  11
HETATM   11  P   UNL     1     -10.445  10.307  67.912  1.00  0.00    -0.249 P  
HETATM   12  O   UNL     1     -10.761   8.825  68.230  1.00  0.00    -0.173 OA 
BRANCH  11  13
HETATM   13  C   UNL     1      -8.670   9.789  67.426  1.00  0.00    -0.132 C  
BRANCH  13  14
HETATM   14  O   UNL     1      -8.245   8.518  68.049  1.00  0.00    -0.117 OA 
BRANCH  14  15
HETATM   15  C   UNL     1      -7.381   7.589  67.340  1.00  0.00    -0.099 C  
HETATM   16  C   UNL     1      -8.225   6.481  66.696  1.00  0.00    -0.112 C  
BRANCH  15  17
HETATM   17  C   UNL     1      -6.187   7.086  68.139  1.00  0.00    -0.035 C  
BRANCH  17  18
HETATM   18  N   UNL     1      -6.506   6.461  69.393  1.00  0.00    -0.038 NA 
HETATM   19  C   UNL     1      -6.819   5.148  69.621  1.00  0.00    -0.053 A  
HETATM   20  N   UNL     1      -6.971   4.901  70.904  1.00  0.00    -0.040 NA 
HETATM   21  C   UNL     1      -6.766   6.118  71.515  1.00  0.00    -0.056 A  
HETATM   22  C   UNL     1      -6.778   6.498  72.859  1.00  0.00    -0.068 A  
HETATM   23  N   UNL     1      -6.610   7.806  73.166  1.00  0.00    -0.069 NA 
HETATM   24  N   UNL     1      -6.966   5.575  73.877  1.00  0.00    -0.080 NA 
HETATM   25  C   UNL     1      -6.392   8.669  72.156  1.00  0.00    -0.072 A  
HETATM   26  H1  UNL     1      -6.974   5.853  74.859  1.00  0.00     0.000 HD 
HETATM   27  H2  UNL     1      -6.267   4.841  73.766  1.00  0.00     0.000 HD 
HETATM   28  N   UNL     1      -6.321   8.419  70.830  1.00  0.00    -0.036 NA 
HETATM   29  C   UNL     1      -6.518   7.113  70.592  1.00  0.00    -0.043 A  
ENDBRANCH  17  18
ENDBRANCH  15  17
ENDBRANCH  14  15
ENDBRANCH  13  14
ENDBRANCH  11  13
BRANCH  11  30
HETATM   30  O   UNL     1     -10.093  11.964  67.556  1.00  0.00    -0.191 OA 
BRANCH  30  31
HETATM   31  C   UNL     1     -10.728  12.506  66.453  1.00  0.00    -0.249 A  
HETATM   32  C   UNL     1     -11.875  13.263  66.696  1.00  0.00    -0.447 A  
HETATM   33  C   UNL     1     -11.023  12.869  64.072  1.00  0.00    -0.447 A  
HETATM   34  C   UNL     1     -10.297  12.315  65.137  1.00  0.00    -0.316 A  
HETATM   35  C   UNL     1     -12.179  13.607  64.319  1.00  0.00    -0.445 A  
HETATM   36  C   UNL     1     -12.604  13.803  65.630  1.00  0.00    -0.551 A  
ENDBRANCH  30  31
ENDBRANCH  11  30
ENDBRANCH   9  11
ENDBRANCH   7   9
ENDBRANCH   5   7
ENDBRANCH   4   5
ENDBRANCH   2   4
TORSDOF 12
ENDMDL
MODEL      298
REMARK 921   NORMALIZED FREE ENERGY PREDICTED BY IDOCK:   -4.08 KCAL/MOL
REMARK 922        TOTAL FREE ENERGY PREDICTED BY IDOCK:   -8.65 KCAL/MOL
REMARK 923 INTER-LIGAND FREE ENERGY PREDICTED BY IDOCK:   -8.22 KCAL/MOL
REMARK 924 INTRA-LIGAND FREE ENERGY PREDICTED BY IDOCK:   -0.43 KCAL/MOL
REMARK 927      BINDING AFFINITY PREDICTED BY RF-SCORE:    0.00 PKD
ROOT
HETATM    1  C   UNL     1      -7.999   5.701  73.140  1.00  0.00    -0.111 C  
HETATM    2  C   UNL     1      -9.455   5.439  73.530  1.00  0.00    -0.137 C  
HETATM    3  C   UNL     1      -9.965   6.520  74.494  1.00  0.00    -0.358 C  
ENDROOT
BRANCH   2   4
HETATM    4  O   UNL     1     -10.304   5.152  72.370  1.00  0.00    -0.191 OA 
BRANCH   4   5
HETATM    5  C   UNL     1     -11.619   5.479  72.406  1.00  0.00    -0.167 C  
HETATM    6  O   UNL     1     -12.472   4.771  72.944  1.00  0.00     0.146 OA 
BRANCH   5   7
HETATM    7  C   UNL     1     -12.030   6.808  71.709  1.00  0.00    -0.339 C  
HETATM    8  C   UNL     1     -13.550   6.955  71.762  1.00  0.00    -0.244 C  
BRANCH   7   9
HETATM    9  N   UNL     1     -11.494   7.122  70.328  1.00  0.00    -0.426 NA 
HETATM   10  H   UNL     1     -12.249   7.360  69.684  1.00  0.00     0.000 HD 
BRANCH   9  11
HETATM   11  P   UNL     1     -10.265   8.383  70.366  1.00  0.00    -0.208 P  
HETATM   12  O   UNL     1     -10.619   8.830  71.806  1.00  0.00    -0.292 OA 
BRANCH  11  13
HETATM   13  C   UNL     1     -10.912  10.063  69.722  1.00  0.00    -0.276 C  
BRANCH  13  14
HETATM   14  O   UNL     1     -11.540   9.971  68.388  1.00  0.00    -0.068 OA 
BRANCH  14  15
HETATM   15  C   UNL     1     -10.962  10.650  67.240  1.00  0.00    -0.284 C  
HETATM   16  C   UNL     1     -10.633   9.630  66.143  1.00  0.00     0.015 C  
BRANCH  15  17
HETATM   17  C   UNL     1      -9.826  11.609  67.569  1.00  0.00    -0.188 C  
BRANCH  17  18
HETATM   18  N   UNL     1      -9.874  12.874  66.890  1.00  0.00    -0.230 NA 
HETATM   19  C   UNL     1      -8.883  13.814  66.796  1.00  0.00    -0.138 A  
HETATM   20  N   UNL     1      -9.238  14.819  66.026  1.00  0.00    -0.215 NA 
HETATM   21  C   UNL     1     -10.521  14.512  65.631  1.00  0.00    -0.336 A  
HETATM   22  C   UNL     1     -11.424  15.179  64.798  1.00  0.00    -0.383 A  
HETATM   23  N   UNL     1     -12.666  14.665  64.644  1.00  0.00    -0.537 NA 
HETATM   24  N   UNL     1     -11.081  16.350  64.141  1.00  0.00    -1.262 NA 
HETATM   25  C   UNL     1     -12.953  13.507  65.266  1.00  0.00    -0.228 A  
HETATM   26  H1  UNL     1     -11.740  16.838  63.533  1.00  0.00     0.000 HD 
HETATM   27  H2  UNL     1     -10.234  16.170  63.602  1.00  0.00     0.000 HD 
HETATM   28  N   UNL     1     -12.159  12.753  66.060  1.00  0.00    -0.522 NA 
HETATM   29  C   UNL     1     -10.954  13.328  66.190  1.00  0.00    -0.279 A  
ENDBRANCH  17  18
ENDBRANCH  15  17
ENDBRANCH  14  15
ENDBRANCH  13  14
ENDBRANCH  11  13
BRANCH  11  30
HETATM   30  O   UNL     1      -9.870   7.883  68.757  1.00  0.00    -0.160 OA 
BRANCH  30  31
HETATM   31  C   UNL     1      -9.378   6.597  68.615  1.00  0.00    -0.129 A  
HETATM   32  C   UNL     1     -10.006   5.784  67.671  1.00  0.00    -0.165 A  
HETATM   33  C   UNL     1      -7.911   4.753  69.191  1.00  0.00    -0.071 A  
HETATM   34  C   UNL     1      -8.322   6.081  69.372  1.00  0.00    -0.115 A  
HETATM   35  C   UNL     1      -8.554   3.939  68.261  1.00  0.00    -0.114 A  
HETATM   36  C   UNL     1      -9.601   4.455  67.502  1.00  0.00    -0.213 A  
ENDBRANCH  30  31
ENDBRANCH  11  30
ENDBRANCH   9  11
ENDBRANCH   7   9
ENDBRANCH   5   7
ENDBRANCH   4   5
ENDBRANCH   2   4
TORSDOF 12
ENDMDL
MODEL      299
REMARK 921   NORMALIZED FREE ENERGY PREDICTED BY IDOCK:   -4.07 KCAL/MOL
REMARK 922        TOTAL FREE ENERGY PREDICTED BY IDOCK:   -8.64 KCAL/MOL
REMARK 923 INTER-LIGAND FREE ENERGY PREDICTED BY IDOCK:   -7.35 KCAL/MOL
REMARK 924 INTRA-LIGAND FREE ENERGY PREDICTED BY IDOCK:   -1.29 KCAL/MOL
REMARK 927      BINDING AFFINITY PREDICTED BY RF-SCORE:    0.00 PKD
ROOT
HETATM    1  C   UNL     1      -8.529  17.922  67.161  1.00  0.00    -0.242 C  
HETATM    2  C   UNL     1      -9.806  17.665  66.357  1.00  0.00    -0.309 C  
HETATM    3  C   UNL     1     -10.312  18.960  65.707  1.00  0.00    -0.285 C  
ENDROOT
BRANCH   2   4
HETATM    4  O   UNL     1      -9.690  16.499  65.477  1.00  0.00    -0.524 OA 
BRANCH   4   5
HETATM    5  C   UNL     1     -10.742  15.656  65.342  1.00  0.00    -0.408 C  
HETATM    6  O   UNL     1     -11.562  15.749  64.426  1.00  0.00    -0.401 OA 
BRANCH   5   7
HETATM    7  C   UNL     1     -10.895  14.545  66.420  1.00  0.00    -0.318 C  
HETATM    8  C   UNL     1     -10.960  15.193  67.803  1.00  0.00    -0.306 C  
BRANCH   7   9
HETATM    9  N   UNL     1      -9.950  13.362  66.411  1.00  0.00    -0.287 NA 
HETATM   10  H   UNL     1      -9.261  13.432  67.160  1.00  0.00     0.000 HD 
BRANCH   9  11
HETATM   11  P   UNL     1     -10.812  11.828  66.477  1.00  0.00    -0.300 P  
HETATM   12  O   UNL     1     -12.170  12.453  66.073  1.00  0.00    -0.636 OA 
BRANCH  11  13
HETATM   13  C   UNL     1     -11.534  11.461  68.209  1.00  0.00    -0.299 C  
BRANCH  13  14
HETATM   14  O   UNL     1     -10.836  10.362  68.908  1.00  0.00    -0.209 OA 
BRANCH  14  15
HETATM   15  C   UNL     1     -11.198   9.989  70.266  1.00  0.00    -0.313 C  
HETATM   16  C   UNL     1     -12.113  11.059  70.874  1.00  0.00    -0.444 C  
BRANCH  15  17
HETATM   17  C   UNL     1     -10.028   9.584  71.152  1.00  0.00    -0.149 C  
BRANCH  17  18
HETATM   18  N   UNL     1      -8.801   9.302  70.459  1.00  0.00    -0.226 NA 
HETATM   19  C   UNL     1      -7.738  10.141  70.258  1.00  0.00     0.032 A  
HETATM   20  N   UNL     1      -6.742   9.528  69.657  1.00  0.00    -0.050 NA 
HETATM   21  C   UNL     1      -7.202   8.248  69.449  1.00  0.00    -0.059 A  
HETATM   22  C   UNL     1      -6.604   7.125  68.870  1.00  0.00    -0.048 A  
HETATM   23  N   UNL     1      -7.337   5.996  68.733  1.00  0.00    -0.083 NA 
HETATM   24  N   UNL     1      -5.290   7.146  68.427  1.00  0.00    -0.020 NA 
HETATM   25  C   UNL     1      -8.597   5.998  69.208  1.00  0.00    -0.118 A  
HETATM   26  H1  UNL     1      -4.854   6.326  68.004  1.00  0.00     0.000 HD 
HETATM   27  H2  UNL     1      -4.703   7.447  69.205  1.00  0.00     0.000 HD 
HETATM   28  N   UNL     1      -9.269   7.001  69.817  1.00  0.00    -0.148 NA 
HETATM   29  C   UNL     1      -8.497   8.095  69.901  1.00  0.00    -0.125 A  
ENDBRANCH  17  18
ENDBRANCH  15  17
ENDBRANCH  14  15
ENDBRANCH  13  14
ENDBRANCH  11  13
BRANCH  11  30
HETATM   30  O   UNL     1      -9.294  11.129  66.927  1.00  0.00    -0.171 OA 
BRANCH  30  31
HETATM   31  C   UNL     1      -8.706  10.285  66.001  1.00  0.00    -0.150 A  
HETATM   32  C   UNL     1      -7.397   9.878  66.263  1.00  0.00    -0.102 A  
HETATM   33  C   UNL     1      -8.657   9.025  63.929  1.00  0.00    -0.151 A  
HETATM   34  C   UNL     1      -9.340   9.849  64.834  1.00  0.00    -0.329 A  
HETATM   35  C   UNL     1      -7.343   8.638  64.185  1.00  0.00    -0.102 A  
HETATM   36  C   UNL     1      -6.714   9.065  65.351  1.00  0.00    -0.072 A  
ENDBRANCH  30  31
ENDBRANCH  11  30
ENDBRANCH   9  11
ENDBRANCH   7   9
ENDBRANCH   5   7
ENDBRANCH   4   5
ENDBRANCH   2   4
TORSDOF 12
ENDMDL
MODEL      300
REMARK 921   NORMALIZED FREE ENERGY PREDICTED BY IDOCK:   -4.06 KCAL/MOL
REMARK 922        TOTAL FREE ENERGY PREDICTED BY IDOCK:   -8.63 KCAL/MOL
REMARK 923 INTER-LIGAND FREE ENERGY PREDICTED BY IDOCK:   -8.65 KCAL/MOL
REMARK 924 INTRA-LIGAND FREE ENERGY PREDICTED BY IDOCK:    0.02 KCAL/MOL
REMARK 927      BINDING AFFINITY PREDICTED BY RF-SCORE:    0.00 PKD
ROOT
HETATM    1  C   UNL     1     -12.727  10.356  71.308  1.00  0.00    -0.536 C  
HETATM    2  C   UNL     1     -12.848   8.855  71.585  1.00  0.00    -0.349 C  
HETATM    3  C   UNL     1     -14.320   8.444  71.731  1.00  0.00    -0.558 C  
ENDROOT
BRANCH   2   4
HETATM    4  O   UNL     1     -12.036   8.048  70.671  1.00  0.00    -0.146 OA 
BRANCH   4   5
HETATM    5  C   UNL     1     -10.796   7.653  71.049  1.00  0.00    -0.242 C  
HETATM    6  O   UNL     1     -10.566   7.114  72.134  1.00  0.00    -0.204 OA 
BRANCH   5   7
HETATM    7  C   UNL     1      -9.637   7.926  70.048  1.00  0.00    -0.168 C  
HETATM    8  C   UNL     1      -8.796   9.095  70.558  1.00  0.00    -0.263 C  
BRANCH   7   9
HETATM    9  N   UNL     1      -9.946   8.072  68.573  1.00  0.00    -0.186 NA 
HETATM   10  H   UNL     1     -10.899   7.776  68.363  1.00  0.00     0.000 HD 
BRANCH   9  11
HETATM   11  P   UNL     1      -9.644   9.708  67.994  1.00  0.00    -0.148 P  
HETATM   12  O   UNL     1     -11.039  10.229  68.417  1.00  0.00    -0.253 OA 
BRANCH  11  13
HETATM   13  C   UNL     1     -10.145   9.948  66.164  1.00  0.00    -0.245 C  
BRANCH  13  14
HETATM   14  O   UNL     1     -10.288  11.369  65.783  1.00  0.00    -0.239 OA 
BRANCH  14  15
HETATM   15  C   UNL     1     -11.155  11.765  64.686  1.00  0.00    -0.303 C  
HETATM   16  C   UNL     1     -10.307  12.216  63.489  1.00  0.00    -0.473 C  
BRANCH  15  17
HETATM   17  C   UNL     1     -12.270  12.729  65.066  1.00  0.00    -0.473 C  
BRANCH  17  18
HETATM   18  N   UNL     1     -12.018  13.532  66.231  1.00  0.00    -0.391 NA 
HETATM   19  C   UNL     1     -12.246  13.207  67.541  1.00  0.00    -0.116 A  
HETATM   20  N   UNL     1     -11.818  14.145  68.356  1.00  0.00    -0.348 NA 
HETATM   21  C   UNL     1     -11.315  15.120  67.524  1.00  0.00    -0.320 A  
HETATM   22  C   UNL     1     -10.709  16.351  67.791  1.00  0.00    -0.328 A  
HETATM   23  N   UNL     1     -10.371  17.148  66.751  1.00  0.00    -0.314 NA 
HETATM   24  N   UNL     1     -10.457  16.774  69.087  1.00  0.00    -0.327 NA 
HETATM   25  C   UNL     1     -10.595  16.690  65.505  1.00  0.00    -0.258 A  
HETATM   26  H1  UNL     1     -10.015  17.672  69.282  1.00  0.00     0.000 HD 
HETATM   27  H2  UNL     1      -9.911  16.049  69.552  1.00  0.00     0.000 HD 
HETATM   28  N   UNL     1     -11.134  15.511  65.121  1.00  0.00    -0.383 NA 
HETATM   29  C   UNL     1     -11.467  14.780  66.196  1.00  0.00    -0.311 A  
ENDBRANCH  17  18
ENDBRANCH  15  17
ENDBRANCH  14  15
ENDBRANCH  13  14
ENDBRANCH  11  13
BRANCH  11  30
HETATM   30  O   UNL     1      -8.083   9.127  67.523  1.00  0.00    -0.103 OA 
BRANCH  30  31
HETATM   31  C   UNL     1      -8.021   8.430  66.329  1.00  0.00    -0.099 A  
HETATM   32  C   UNL     1      -7.727   9.171  65.183  1.00  0.00    -0.104 A  
HETATM   33  C   UNL     1      -8.209   6.435  64.962  1.00  0.00    -0.125 A  
HETATM   34  C   UNL     1      -8.254   7.056  66.218  1.00  0.00    -0.120 A  
HETATM   35  C   UNL     1      -7.935   7.182  63.817  1.00  0.00    -0.072 A  
HETATM   36  C   UNL     1      -7.695   8.549  63.930  1.00  0.00    -0.141 A  
ENDBRANCH  30  31
ENDBRANCH  11  30
ENDBRANCH   9  11
ENDBRANCH   7   9
ENDBRANCH   5   7
ENDBRANCH   4   5
ENDBRANCH   2   4
TORSDOF 12
ENDMDL
MODEL      301
REMARK 921   NORMALIZED FREE ENERGY PREDICTED BY IDOCK:   -4.05 KCAL/MOL
REMARK 922        TOTAL FREE ENERGY PREDICTED BY IDOCK:   -8.61 KCAL/MOL
REMARK 923 INTER-LIGAND FREE ENERGY PREDICTED BY IDOCK:   -7.11 KCAL/MOL
REMARK 924 INTRA-LIGAND FREE ENERGY PREDICTED BY IDOCK:   -1.50 KCAL/MOL
REMARK 927      BINDING AFFINITY PREDICTED BY RF-SCORE:    0.00 PKD
ROOT
HETATM    1  C   UNL     1      -6.079  10.184  68.680  1.00  0.00    -0.044 C  
HETATM    2  C   UNL     1      -5.804  11.653  68.352  1.00  0.00    -0.045 C  
HETATM    3  C   UNL     1      -5.165  11.793  66.963  1.00  0.00    -0.115 C  
ENDROOT
BRANCH   2   4
HETATM    4  O   UNL     1      -6.958  12.514  68.625  1.00  0.00    -0.081 OA 
BRANCH   4   5
HETATM    5  C   UNL     1      -6.762  13.755  69.135  1.00  0.00    -0.112 C  
HETATM    6  O   UNL     1      -6.063  13.968  70.128  1.00  0.00    -0.137 OA 
BRANCH   5   7
HETATM    7  C   UNL     1      -7.482  14.931  68.417  1.00  0.00    -0.115 C  
HETATM    8  C   UNL     1      -6.472  15.687  67.554  1.00  0.00    -0.201 C  
BRANCH   7   9
HETATM    9  N   UNL     1      -8.339  15.884  69.224  1.00  0.00    -0.247 NA 
HETATM   10  H   UNL     1      -8.009  16.846  69.133  1.00  0.00     0.000 HD 
BRANCH   9  11
HETATM   11  P   UNL     1     -10.045  15.752  68.808  1.00  0.00    -0.240 P  
HETATM   12  O   UNL     1     -10.436  15.125  70.169  1.00  0.00    -0.248 OA 
BRANCH  11  13
HETATM   13  C   UNL     1     -10.471  14.091  67.960  1.00  0.00    -0.241 C  
BRANCH  13  14
HETATM   14  O   UNL     1     -10.384  12.933  68.874  1.00  0.00    -0.163 OA 
BRANCH  14  15
HETATM   15  C   UNL     1     -11.261  11.785  68.712  1.00  0.00    -0.251 C  
HETATM   16  C   UNL     1     -10.819  10.656  69.652  1.00  0.00    -0.318 C  
BRANCH  15  17
HETATM   17  C   UNL     1     -11.489  11.352  67.271  1.00  0.00    -0.224 C  
BRANCH  17  18
HETATM   18  N   UNL     1     -10.369  10.716  66.635  1.00  0.00    -0.235 NA 
HETATM   19  C   UNL     1      -9.353  11.309  65.934  1.00  0.00    -0.219 A  
HETATM   20  N   UNL     1      -8.445  10.434  65.561  1.00  0.00    -0.162 NA 
HETATM   21  C   UNL     1      -8.918   9.228  66.027  1.00  0.00    -0.176 A  
HETATM   22  C   UNL     1      -8.396   7.933  65.959  1.00  0.00    -0.128 A  
HETATM   23  N   UNL     1      -9.130   6.910  66.454  1.00  0.00    -0.159 NA 
HETATM   24  N   UNL     1      -7.158   7.676  65.391  1.00  0.00    -0.062 NA 
HETATM   25  C   UNL     1     -10.311   7.200  67.032  1.00  0.00    -0.298 A  
HETATM   26  H1  UNL     1      -6.777   6.731  65.341  1.00  0.00     0.000 HD 
HETATM   27  H2  UNL     1      -6.470   8.266  65.860  1.00  0.00     0.000 HD 
HETATM   28  N   UNL     1     -10.901   8.406  67.192  1.00  0.00    -0.135 NA 
HETATM   29  C   UNL     1     -10.135   9.372  66.661  1.00  0.00    -0.262 A  
ENDBRANCH  17  18
ENDBRANCH  15  17
ENDBRANCH  14  15
ENDBRANCH  13  14
ENDBRANCH  11  13
BRANCH  11  30
HETATM   30  O   UNL     1      -9.608  16.452  67.287  1.00  0.00    -0.230 OA 
BRANCH  30  31
HETATM   31  C   UNL     1      -9.564  17.834  67.236  1.00  0.00    -0.272 A  
HETATM   32  C   UNL     1      -8.396  18.408  66.732  1.00  0.00    -0.271 A  
HETATM   33  C   UNL     1     -10.458  20.056  67.624  1.00  0.00    -0.476 A  
HETATM   34  C   UNL     1     -10.601  18.662  67.676  1.00  0.00    -0.458 A  
HETATM   35  C   UNL     1      -9.282  20.624  67.139  1.00  0.00    -0.429 A  
HETATM   36  C   UNL     1      -8.252  19.800  66.694  1.00  0.00    -0.353 A  
ENDBRANCH  30  31
ENDBRANCH  11  30
ENDBRANCH   9  11
ENDBRANCH   7   9
ENDBRANCH   5   7
ENDBRANCH   4   5
ENDBRANCH   2   4
TORSDOF 12
ENDMDL
MODEL      302
REMARK 921   NORMALIZED FREE ENERGY PREDICTED BY IDOCK:   -4.05 KCAL/MOL
REMARK 922        TOTAL FREE ENERGY PREDICTED BY IDOCK:   -8.61 KCAL/MOL
REMARK 923 INTER-LIGAND FREE ENERGY PREDICTED BY IDOCK:   -7.58 KCAL/MOL
REMARK 924 INTRA-LIGAND FREE ENERGY PREDICTED BY IDOCK:   -1.03 KCAL/MOL
REMARK 927      BINDING AFFINITY PREDICTED BY RF-SCORE:    0.00 PKD
ROOT
HETATM    1  C   UNL     1      -7.521  16.621  67.269  1.00  0.00    -0.197 C  
HETATM    2  C   UNL     1      -8.786  17.140  66.580  1.00  0.00    -0.261 C  
HETATM    3  C   UNL     1      -8.775  18.673  66.500  1.00  0.00    -0.312 C  
ENDROOT
BRANCH   2   4
HETATM    4  O   UNL     1      -9.078  16.427  65.333  1.00  0.00    -0.274 OA 
BRANCH   4   5
HETATM    5  C   UNL     1     -10.309  15.892  65.141  1.00  0.00    -0.252 C  
HETATM    6  O   UNL     1     -11.219  16.493  64.567  1.00  0.00    -0.775 OA 
BRANCH   5   7
HETATM    7  C   UNL     1     -10.547  14.461  65.701  1.00  0.00    -0.329 C  
HETATM    8  C   UNL     1     -10.664  14.529  67.223  1.00  0.00    -0.287 C  
BRANCH   7   9
HETATM    9  N   UNL     1      -9.635  13.331  65.270  1.00  0.00    -0.499 NA 
HETATM   10  H   UNL     1      -8.810  13.273  65.866  1.00  0.00     0.000 HD 
BRANCH   9  11
HETATM   11  P   UNL     1     -10.483  11.789  65.200  1.00  0.00    -0.307 P  
HETATM   12  O   UNL     1     -11.849  12.435  64.866  1.00  0.00    -0.362 OA 
BRANCH  11  13
HETATM   13  C   UNL     1     -11.187  11.257  66.897  1.00  0.00    -0.230 C  
BRANCH  13  14
HETATM   14  O   UNL     1     -10.700   9.934  67.339  1.00  0.00    -0.266 OA 
BRANCH  14  15
HETATM   15  C   UNL     1      -9.971   9.784  68.588  1.00  0.00    -0.167 C  
HETATM   16  C   UNL     1      -9.316  11.117  68.973  1.00  0.00    -0.065 C  
BRANCH  15  17
HETATM   17  C   UNL     1      -9.035   8.585  68.643  1.00  0.00    -0.139 C  
BRANCH  17  18
HETATM   18  N   UNL     1      -9.587   7.401  69.242  1.00  0.00    -0.154 NA 
HETATM   19  C   UNL     1     -10.676   6.681  68.830  1.00  0.00    -0.264 A  
HETATM   20  N   UNL     1     -10.851   5.603  69.562  1.00  0.00    -0.321 NA 
HETATM   21  C   UNL     1      -9.838   5.652  70.493  1.00  0.00    -0.191 A  
HETATM   22  C   UNL     1      -9.484   4.786  71.531  1.00  0.00    -0.153 A  
HETATM   23  N   UNL     1      -8.462   5.134  72.348  1.00  0.00    -0.121 NA 
HETATM   24  N   UNL     1     -10.157   3.593  71.747  1.00  0.00    -0.139 NA 
HETATM   25  C   UNL     1      -7.806   6.280  72.087  1.00  0.00    -0.104 A  
HETATM   26  H1  UNL     1      -9.899   2.961  72.505  1.00  0.00     0.000 HD 
HETATM   27  H2  UNL     1     -10.139   3.062  70.876  1.00  0.00     0.000 HD 
HETATM   28  N   UNL     1      -8.028   7.175  71.098  1.00  0.00    -0.102 NA 
HETATM   29  C   UNL     1      -9.064   6.784  70.341  1.00  0.00    -0.153 A  
ENDBRANCH  17  18
ENDBRANCH  15  17
ENDBRANCH  14  15
ENDBRANCH  13  14
ENDBRANCH  11  13
BRANCH  11  30
HETATM   30  O   UNL     1      -8.955  11.066  65.573  1.00  0.00    -0.201 OA 
BRANCH  30  31
HETATM   31  C   UNL     1      -8.507  10.089  64.703  1.00  0.00    -0.176 A  
HETATM   32  C   UNL     1      -7.421   9.319  65.125  1.00  0.00    -0.105 A  
HETATM   33  C   UNL     1      -8.523   8.870  62.605  1.00  0.00    -0.200 A  
HETATM   34  C   UNL     1      -9.064   9.857  63.442  1.00  0.00    -0.291 A  
HETATM   35  C   UNL     1      -7.426   8.118  63.023  1.00  0.00    -0.116 A  
HETATM   36  C   UNL     1      -6.877   8.344  64.281  1.00  0.00    -0.066 A  
ENDBRANCH  30  31
ENDBRANCH  11  30
ENDBRANCH   9  11
ENDBRANCH   7   9
ENDBRANCH   5   7
ENDBRANCH   4   5
ENDBRANCH   2   4
TORSDOF 12
ENDMDL
MODEL      303
REMARK 921   NORMALIZED FREE ENERGY PREDICTED BY IDOCK:   -4.03 KCAL/MOL
REMARK 922        TOTAL FREE ENERGY PREDICTED BY IDOCK:   -8.57 KCAL/MOL
REMARK 923 INTER-LIGAND FREE ENERGY PREDICTED BY IDOCK:   -8.59 KCAL/MOL
REMARK 924 INTRA-LIGAND FREE ENERGY PREDICTED BY IDOCK:    0.02 KCAL/MOL
REMARK 927      BINDING AFFINITY PREDICTED BY RF-SCORE:    0.00 PKD
ROOT
HETATM    1  C   UNL     1      -6.122   9.267  69.527  1.00  0.00    -0.040 C  
HETATM    2  C   UNL     1      -6.829   7.932  69.282  1.00  0.00    -0.048 C  
HETATM    3  C   UNL     1      -7.648   7.514  70.511  1.00  0.00    -0.085 C  
ENDROOT
BRANCH   2   4
HETATM    4  O   UNL     1      -7.525   7.893  67.993  1.00  0.00    -0.102 OA 
BRANCH   4   5
HETATM    5  C   UNL     1      -8.340   8.918  67.642  1.00  0.00    -0.110 C  
HETATM    6  O   UNL     1      -8.129   9.638  66.664  1.00  0.00    -0.117 OA 
BRANCH   5   7
HETATM    7  C   UNL     1      -9.576   9.175  68.551  1.00  0.00    -0.148 C  
HETATM    8  C   UNL     1     -10.825   8.613  67.873  1.00  0.00    -0.061 C  
BRANCH   7   9
HETATM    9  N   UNL     1      -9.824  10.566  69.096  1.00  0.00    -0.215 NA 
HETATM   10  H   UNL     1      -9.317  10.719  69.967  1.00  0.00     0.000 HD 
BRANCH   9  11
HETATM   11  P   UNL     1      -9.449  11.815  67.912  1.00  0.00    -0.202 P  
HETATM   12  O   UNL     1      -8.026  12.063  68.468  1.00  0.00    -0.147 OA 
BRANCH  11  13
HETATM   13  C   UNL     1      -9.948  13.565  68.502  1.00  0.00    -0.202 C  
BRANCH  13  14
HETATM   14  O   UNL     1      -9.650  14.619  67.510  1.00  0.00    -0.203 OA 
BRANCH  14  15
HETATM   15  C   UNL     1     -10.624  15.652  67.201  1.00  0.00    -0.308 C  
HETATM   16  C   UNL     1     -10.320  16.261  65.826  1.00  0.00    -0.393 C  
BRANCH  15  17
HETATM   17  C   UNL     1     -10.845  16.675  68.307  1.00  0.00    -0.356 C  
BRANCH  17  18
HETATM   18  N   UNL     1      -9.945  17.796  68.297  1.00  0.00    -0.334 NA 
HETATM   19  C   UNL     1     -10.219  19.089  67.941  1.00  0.00    -0.401 A  
HETATM   20  N   UNL     1      -9.182  19.875  68.133  1.00  0.00    -0.316 NA 
HETATM   21  C   UNL     1      -8.200  19.038  68.613  1.00  0.00    -0.364 A  
HETATM   22  C   UNL     1      -6.884  19.280  69.014  1.00  0.00    -0.337 A  
HETATM   23  N   UNL     1      -6.113  18.231  69.382  1.00  0.00    -0.244 NA 
HETATM   24  N   UNL     1      -6.352  20.561  69.036  1.00  0.00    -0.286 NA 
HETATM   25  C   UNL     1      -6.672  17.006  69.386  1.00  0.00    -0.208 A  
HETATM   26  H1  UNL     1      -5.391  20.738  69.329  1.00  0.00     0.000 HD 
HETATM   27  H2  UNL     1      -6.965  21.144  69.605  1.00  0.00     0.000 HD 
HETATM   28  N   UNL     1      -7.935  16.652  69.058  1.00  0.00    -0.235 NA 
HETATM   29  C   UNL     1      -8.638  17.731  68.682  1.00  0.00    -0.262 A  
ENDBRANCH  17  18
ENDBRANCH  15  17
ENDBRANCH  14  15
ENDBRANCH  13  14
ENDBRANCH  11  13
BRANCH  11  30
HETATM   30  O   UNL     1     -11.040  11.538  67.290  1.00  0.00    -0.260 OA 
BRANCH  30  31
HETATM   31  C   UNL     1     -11.266  11.924  65.980  1.00  0.00    -0.324 A  
HETATM   32  C   UNL     1     -12.251  12.889  65.769  1.00  0.00    -0.498 A  
HETATM   33  C   UNL     1     -10.901  11.808  63.584  1.00  0.00    -0.508 A  
HETATM   34  C   UNL     1     -10.583  11.388  64.884  1.00  0.00    -0.368 A  
HETATM   35  C   UNL     1     -11.900  12.758  63.377  1.00  0.00    -0.591 A  
HETATM   36  C   UNL     1     -12.574  13.297  64.470  1.00  0.00    -0.316 A  
ENDBRANCH  30  31
ENDBRANCH  11  30
ENDBRANCH   9  11
ENDBRANCH   7   9
ENDBRANCH   5   7
ENDBRANCH   4   5
ENDBRANCH   2   4
TORSDOF 12
ENDMDL
MODEL      304
REMARK 921   NORMALIZED FREE ENERGY PREDICTED BY IDOCK:   -4.02 KCAL/MOL
REMARK 922        TOTAL FREE ENERGY PREDICTED BY IDOCK:   -8.56 KCAL/MOL
REMARK 923 INTER-LIGAND FREE ENERGY PREDICTED BY IDOCK:   -6.85 KCAL/MOL
REMARK 924 INTRA-LIGAND FREE ENERGY PREDICTED BY IDOCK:   -1.71 KCAL/MOL
REMARK 927      BINDING AFFINITY PREDICTED BY RF-SCORE:    0.00 PKD
ROOT
HETATM    1  C   UNL     1     -13.553  13.142  72.450  1.00  0.00    -0.667 C  
HETATM    2  C   UNL     1     -13.094  12.131  71.397  1.00  0.00    -0.187 C  
HETATM    3  C   UNL     1     -12.174  12.798  70.364  1.00  0.00    -0.371 C  
ENDROOT
BRANCH   2   4
HETATM    4  O   UNL     1     -12.605  10.884  71.991  1.00  0.00    -0.242 OA 
BRANCH   4   5
HETATM    5  C   UNL     1     -12.711   9.725  71.297  1.00  0.00    -0.369 C  
HETATM    6  O   UNL     1     -13.787   9.158  71.099  1.00  0.00    -0.269 OA 
BRANCH   5   7
HETATM    7  C   UNL     1     -11.389   9.107  70.756  1.00  0.00    -0.280 C  
HETATM    8  C   UNL     1     -10.393   8.967  71.906  1.00  0.00    -0.407 C  
BRANCH   7   9
HETATM    9  N   UNL     1     -10.734   9.707  69.530  1.00  0.00    -0.224 NA 
HETATM   10  H   UNL     1     -10.001  10.369  69.788  1.00  0.00     0.000 HD 
BRANCH   9  11
HETATM   11  P   UNL     1     -10.121   8.470  68.437  1.00  0.00    -0.198 P  
HETATM   12  O   UNL     1     -10.952   7.336  69.085  1.00  0.00    -0.173 OA 
BRANCH  11  13
HETATM   13  C   UNL     1      -8.531   7.631  69.089  1.00  0.00    -0.138 C  
BRANCH  13  14
HETATM   14  O   UNL     1      -8.802   6.452  69.937  1.00  0.00    -0.140 OA 
BRANCH  14  15
HETATM   15  C   UNL     1      -7.777   5.450  70.176  1.00  0.00    -0.077 C  
HETATM   16  C   UNL     1      -6.397   6.117  70.227  1.00  0.00    -0.036 C  
BRANCH  15  17
HETATM   17  C   UNL     1      -7.852   4.229  69.270  1.00  0.00    -0.057 C  
BRANCH  17  18
HETATM   18  N   UNL     1      -8.316   4.482  67.933  1.00  0.00    -0.098 NA 
HETATM   19  C   UNL     1      -9.602   4.431  67.467  1.00  0.00    -0.172 A  
HETATM   20  N   UNL     1      -9.678   4.804  66.209  1.00  0.00    -0.175 NA 
HETATM   21  C   UNL     1      -8.377   5.085  65.855  1.00  0.00    -0.116 A  
HETATM   22  C   UNL     1      -7.814   5.541  64.659  1.00  0.00    -0.108 A  
HETATM   23  N   UNL     1      -6.469   5.662  64.579  1.00  0.00    -0.036 NA 
HETATM   24  N   UNL     1      -8.597   5.858  63.560  1.00  0.00    -0.334 NA 
HETATM   25  C   UNL     1      -5.742   5.382  65.677  1.00  0.00    -0.014 A  
HETATM   26  H1  UNL     1      -8.186   6.191  62.687  1.00  0.00     0.000 HD 
HETATM   27  H2  UNL     1      -9.292   6.542  63.858  1.00  0.00     0.000 HD 
HETATM   28  N   UNL     1      -6.170   4.973  66.893  1.00  0.00    -0.031 NA 
HETATM   29  C   UNL     1      -7.506   4.851  66.899  1.00  0.00    -0.087 A  
ENDBRANCH  17  18
ENDBRANCH  15  17
ENDBRANCH  14  15
ENDBRANCH  13  14
ENDBRANCH  11  13
BRANCH  11  30
HETATM   30  O   UNL     1      -9.192   9.737  67.711  1.00  0.00    -0.131 OA 
BRANCH  30  31
HETATM   31  C   UNL     1      -9.511  10.065  66.406  1.00  0.00    -0.186 A  
HETATM   32  C   UNL     1      -8.798   9.411  65.400  1.00  0.00    -0.220 A  
HETATM   33  C   UNL     1     -10.712  11.313  64.707  1.00  0.00    -0.352 A  
HETATM   34  C   UNL     1     -10.477  11.013  66.056  1.00  0.00    -0.304 A  
HETATM   35  C   UNL     1      -9.982  10.673  63.707  1.00  0.00    -0.379 A  
HETATM   36  C   UNL     1      -9.025   9.723  64.055  1.00  0.00    -0.275 A  
ENDBRANCH  30  31
ENDBRANCH  11  30
ENDBRANCH   9  11
ENDBRANCH   7   9
ENDBRANCH   5   7
ENDBRANCH   4   5
ENDBRANCH   2   4
TORSDOF 12
ENDMDL
MODEL      305
REMARK 921   NORMALIZED FREE ENERGY PREDICTED BY IDOCK:   -4.02 KCAL/MOL
REMARK 922        TOTAL FREE ENERGY PREDICTED BY IDOCK:   -8.56 KCAL/MOL
REMARK 923 INTER-LIGAND FREE ENERGY PREDICTED BY IDOCK:   -7.42 KCAL/MOL
REMARK 924 INTRA-LIGAND FREE ENERGY PREDICTED BY IDOCK:   -1.14 KCAL/MOL
REMARK 927      BINDING AFFINITY PREDICTED BY RF-SCORE:    0.00 PKD
ROOT
HETATM    1  C   UNL     1      -9.664   3.130  74.400  1.00  0.00    -0.141 C  
HETATM    2  C   UNL     1      -8.511   4.057  74.010  1.00  0.00    -0.091 C  
HETATM    3  C   UNL     1      -7.170   3.503  74.512  1.00  0.00    -0.052 C  
ENDROOT
BRANCH   2   4
HETATM    4  O   UNL     1      -8.562   4.455  72.601  1.00  0.00    -0.107 OA 
BRANCH   4   5
HETATM    5  C   UNL     1      -7.784   5.477  72.165  1.00  0.00    -0.102 C  
HETATM    6  O   UNL     1      -6.555   5.408  72.113  1.00  0.00    -0.052 OA 
BRANCH   5   7
HETATM    7  C   UNL     1      -8.516   6.781  71.738  1.00  0.00    -0.120 C  
HETATM    8  C   UNL     1      -9.510   7.181  72.827  1.00  0.00    -0.176 C  
BRANCH   7   9
HETATM    9  N   UNL     1      -9.143   6.867  70.362  1.00  0.00    -0.156 NA 
HETATM   10  H   UNL     1     -10.144   7.051  70.422  1.00  0.00     0.000 HD 
BRANCH   9  11
HETATM   11  P   UNL     1      -8.335   8.054  69.341  1.00  0.00    -0.133 P  
HETATM   12  O   UNL     1      -7.140   8.229  70.309  1.00  0.00    -0.039 OA 
BRANCH  11  13
HETATM   13  C   UNL     1      -8.870   9.848  69.731  1.00  0.00    -0.211 C  
BRANCH  13  14
HETATM   14  O   UNL     1      -7.816  10.844  69.446  1.00  0.00    -0.126 OA 
BRANCH  14  15
HETATM   15  C   UNL     1      -7.994  11.845  68.407  1.00  0.00    -0.154 C  
HETATM   16  C   UNL     1      -7.077  13.045  68.677  1.00  0.00    -0.103 C  
BRANCH  15  17
HETATM   17  C   UNL     1      -9.441  12.212  68.113  1.00  0.00    -0.205 C  
BRANCH  17  18
HETATM   18  N   UNL     1      -9.885  11.940  66.774  1.00  0.00    -0.195 NA 
HETATM   19  C   UNL     1      -9.390  11.012  65.898  1.00  0.00    -0.204 A  
HETATM   20  N   UNL     1     -10.090  10.973  64.785  1.00  0.00    -0.283 NA 
HETATM   21  C   UNL     1     -11.059  11.936  64.954  1.00  0.00    -0.307 A  
HETATM   22  C   UNL     1     -12.107  12.358  64.132  1.00  0.00    -0.453 A  
HETATM   23  N   UNL     1     -12.875  13.396  64.538  1.00  0.00    -0.661 NA 
HETATM   24  N   UNL     1     -12.369  11.749  62.914  1.00  0.00    -0.810 NA 
HETATM   25  C   UNL     1     -12.616  13.940  65.742  1.00  0.00    -0.494 A  
HETATM   26  H1  UNL     1     -13.134  12.057  62.314  1.00  0.00     0.000 HD 
HETATM   27  H2  UNL     1     -12.487  10.750  63.084  1.00  0.00     0.000 HD 
HETATM   28  N   UNL     1     -11.664  13.597  66.639  1.00  0.00    -0.366 NA 
HETATM   29  C   UNL     1     -10.926  12.581  66.167  1.00  0.00    -0.284 A  
ENDBRANCH  17  18
ENDBRANCH  15  17
ENDBRANCH  14  15
ENDBRANCH  13  14
ENDBRANCH  11  13
BRANCH  11  30
HETATM   30  O   UNL     1      -9.671   7.858  68.259  1.00  0.00    -0.153 OA 
BRANCH  30  31
HETATM   31  C   UNL     1      -9.568   6.836  67.331  1.00  0.00    -0.134 A  
HETATM   32  C   UNL     1     -10.726   6.104  67.070  1.00  0.00    -0.423 A  
HETATM   33  C   UNL     1      -8.353   5.423  65.778  1.00  0.00    -0.126 A  
HETATM   34  C   UNL     1      -8.379   6.499  66.676  1.00  0.00    -0.113 A  
HETATM   35  C   UNL     1      -9.508   4.681  65.536  1.00  0.00    -0.178 A  
HETATM   36  C   UNL     1     -10.692   5.022  66.182  1.00  0.00    -0.264 A  
ENDBRANCH  30  31
ENDBRANCH  11  30
ENDBRANCH   9  11
ENDBRANCH   7   9
ENDBRANCH   5   7
ENDBRANCH   4   5
ENDBRANCH   2   4
TORSDOF 12
ENDMDL
MODEL      306
REMARK 921   NORMALIZED FREE ENERGY PREDICTED BY IDOCK:   -4.02 KCAL/MOL
REMARK 922        TOTAL FREE ENERGY PREDICTED BY IDOCK:   -8.56 KCAL/MOL
REMARK 923 INTER-LIGAND FREE ENERGY PREDICTED BY IDOCK:   -7.57 KCAL/MOL
REMARK 924 INTRA-LIGAND FREE ENERGY PREDICTED BY IDOCK:   -0.99 KCAL/MOL
REMARK 927      BINDING AFFINITY PREDICTED BY RF-SCORE:    0.00 PKD
ROOT
HETATM    1  C   UNL     1      -8.967   3.731  64.527  1.00  0.00    -0.124 C  
HETATM    2  C   UNL     1      -7.504   3.782  64.975  1.00  0.00    -0.073 C  
HETATM    3  C   UNL     1      -6.562   3.810  63.763  1.00  0.00    -0.042 C  
ENDROOT
BRANCH   2   4
HETATM    4  O   UNL     1      -7.267   4.797  66.005  1.00  0.00    -0.073 OA 
BRANCH   4   5
HETATM    5  C   UNL     1      -7.674   4.568  67.277  1.00  0.00    -0.089 C  
HETATM    6  O   UNL     1      -7.386   3.543  67.899  1.00  0.00    -0.057 OA 
BRANCH   5   7
HETATM    7  C   UNL     1      -8.557   5.664  67.940  1.00  0.00    -0.101 C  
HETATM    8  C   UNL     1      -9.974   5.124  68.126  1.00  0.00    -0.203 C  
BRANCH   7   9
HETATM    9  N   UNL     1      -8.572   7.061  67.357  1.00  0.00    -0.121 NA 
HETATM   10  H   UNL     1      -8.562   7.037  66.338  1.00  0.00     0.000 HD 
BRANCH   9  11
HETATM   11  P   UNL     1      -9.925   8.014  67.961  1.00  0.00    -0.195 P  
HETATM   12  O   UNL     1     -10.757   7.847  66.666  1.00  0.00    -0.223 OA 
BRANCH  11  13
HETATM   13  C   UNL     1      -9.749   9.877  67.567  1.00  0.00    -0.160 C  
BRANCH  13  14
HETATM   14  O   UNL     1     -10.964  10.460  66.961  1.00  0.00    -0.244 OA 
BRANCH  14  15
HETATM   15  C   UNL     1     -10.871  11.509  65.959  1.00  0.00    -0.276 C  
HETATM   16  C   UNL     1     -10.267  10.944  64.667  1.00  0.00    -0.411 C  
BRANCH  15  17
HETATM   17  C   UNL     1     -10.227  12.801  66.442  1.00  0.00    -0.253 C  
BRANCH  17  18
HETATM   18  N   UNL     1     -10.878  13.434  67.556  1.00  0.00    -0.260 NA 
HETATM   19  C   UNL     1     -11.855  12.915  68.362  1.00  0.00    -0.318 A  
HETATM   20  N   UNL     1     -12.164  13.737  69.341  1.00  0.00    -0.320 NA 
HETATM   21  C   UNL     1     -11.361  14.836  69.133  1.00  0.00    -0.282 A  
HETATM   22  C   UNL     1     -11.217  16.032  69.842  1.00  0.00    -0.361 A  
HETATM   23  N   UNL     1     -10.384  16.981  69.353  1.00  0.00    -0.275 NA 
HETATM   24  N   UNL     1     -11.909  16.270  71.019  1.00  0.00    -0.590 NA 
HETATM   25  C   UNL     1      -9.699  16.702  68.228  1.00  0.00    -0.244 A  
HETATM   26  H1  UNL     1     -11.803  17.143  71.537  1.00  0.00     0.000 HD 
HETATM   27  H2  UNL     1     -11.710  15.501  71.659  1.00  0.00     0.000 HD 
HETATM   28  N   UNL     1      -9.724  15.576  67.479  1.00  0.00    -0.214 NA 
HETATM   29  C   UNL     1     -10.583  14.688  68.003  1.00  0.00    -0.240 A  
ENDBRANCH  17  18
ENDBRANCH  15  17
ENDBRANCH  14  15
ENDBRANCH  13  14
ENDBRANCH  11  13
BRANCH  11  30
HETATM   30  O   UNL     1      -8.995   8.200  69.409  1.00  0.00    -0.146 OA 
BRANCH  30  31
HETATM   31  C   UNL     1      -9.668   8.004  70.602  1.00  0.00    -0.173 A  
HETATM   32  C   UNL     1      -9.289   6.898  71.364  1.00  0.00    -0.156 A  
HETATM   33  C   UNL     1     -11.355   8.538  72.261  1.00  0.00    -0.441 A  
HETATM   34  C   UNL     1     -10.699   8.831  71.057  1.00  0.00    -0.290 A  
HETATM   35  C   UNL     1     -10.987   7.421  73.008  1.00  0.00    -0.422 A  
HETATM   36  C   UNL     1      -9.956   6.602  72.559  1.00  0.00    -0.184 A  
ENDBRANCH  30  31
ENDBRANCH  11  30
ENDBRANCH   9  11
ENDBRANCH   7   9
ENDBRANCH   5   7
ENDBRANCH   4   5
ENDBRANCH   2   4
TORSDOF 12
ENDMDL
MODEL      307
REMARK 921   NORMALIZED FREE ENERGY PREDICTED BY IDOCK:   -4.02 KCAL/MOL
REMARK 922        TOTAL FREE ENERGY PREDICTED BY IDOCK:   -8.55 KCAL/MOL
REMARK 923 INTER-LIGAND FREE ENERGY PREDICTED BY IDOCK:   -7.25 KCAL/MOL
REMARK 924 INTRA-LIGAND FREE ENERGY PREDICTED BY IDOCK:   -1.30 KCAL/MOL
REMARK 927      BINDING AFFINITY PREDICTED BY RF-SCORE:    0.00 PKD
ROOT
HETATM    1  C   UNL     1      -7.468   6.846  71.436  1.00  0.00    -0.082 C  
HETATM    2  C   UNL     1      -8.653   6.453  72.322  1.00  0.00    -0.117 C  
HETATM    3  C   UNL     1      -9.128   7.648  73.160  1.00  0.00    -0.254 C  
ENDROOT
BRANCH   2   4
HETATM    4  O   UNL     1      -9.688   5.725  71.584  1.00  0.00    -0.159 OA 
BRANCH   4   5
HETATM    5  C   UNL     1     -10.995   6.005  71.812  1.00  0.00    -0.269 C  
HETATM    6  O   UNL     1     -11.647   5.474  72.713  1.00  0.00    -0.308 OA 
BRANCH   5   7
HETATM    7  C   UNL     1     -11.668   7.036  70.861  1.00  0.00    -0.343 C  
HETATM    8  C   UNL     1     -13.126   7.226  71.276  1.00  0.00    -0.363 C  
BRANCH   7   9
HETATM    9  N   UNL     1     -11.541   6.859  69.363  1.00  0.00    -0.590 NA 
HETATM   10  H   UNL     1     -12.420   7.068  68.889  1.00  0.00     0.000 HD 
BRANCH   9  11
HETATM   11  P   UNL     1     -10.215   7.808  68.696  1.00  0.00    -0.184 P  
HETATM   12  O   UNL     1     -10.150   8.765  69.911  1.00  0.00    -0.183 OA 
BRANCH  11  13
HETATM   13  C   UNL     1     -10.822   9.269  67.620  1.00  0.00    -0.119 C  
BRANCH  13  14
HETATM   14  O   UNL     1     -10.505   9.106  66.187  1.00  0.00    -0.141 OA 
BRANCH  14  15
HETATM   15  C   UNL     1      -9.633  10.046  65.501  1.00  0.00    -0.266 C  
HETATM   16  C   UNL     1      -8.982   9.366  64.291  1.00  0.00    -0.204 C  
BRANCH  15  17
HETATM   17  C   UNL     1      -8.660  10.792  66.404  1.00  0.00    -0.158 C  
BRANCH  17  18
HETATM   18  N   UNL     1      -9.171  11.997  66.996  1.00  0.00    -0.189 NA 
HETATM   19  C   UNL     1      -9.017  12.429  68.286  1.00  0.00    -0.178 A  
HETATM   20  N   UNL     1      -9.544  13.620  68.466  1.00  0.00    -0.200 NA 
HETATM   21  C   UNL     1     -10.076  13.949  67.239  1.00  0.00    -0.242 A  
HETATM   22  C   UNL     1     -10.750  15.088  66.791  1.00  0.00    -0.308 A  
HETATM   23  N   UNL     1     -11.230  15.103  65.525  1.00  0.00    -0.340 NA 
HETATM   24  N   UNL     1     -10.945  16.189  67.610  1.00  0.00    -0.305 NA 
HETATM   25  C   UNL     1     -10.990  14.033  64.745  1.00  0.00    -0.402 A  
HETATM   26  H1  UNL     1     -11.438  17.021  67.283  1.00  0.00     0.000 HD 
HETATM   27  H2  UNL     1     -10.034  16.483  67.961  1.00  0.00     0.000 HD 
HETATM   28  N   UNL     1     -10.322  12.897  65.049  1.00  0.00    -0.313 NA 
HETATM   29  C   UNL     1      -9.894  12.936  66.320  1.00  0.00    -0.273 A  
ENDBRANCH  17  18
ENDBRANCH  15  17
ENDBRANCH  14  15
ENDBRANCH  13  14
ENDBRANCH  11  13
BRANCH  11  30
HETATM   30  O   UNL     1     -10.288   6.738  67.338  1.00  0.00    -0.171 OA 
BRANCH  30  31
HETATM   31  C   UNL     1      -9.078   6.382  66.769  1.00  0.00    -0.140 A  
HETATM   32  C   UNL     1      -7.927   6.912  67.353  1.00  0.00    -0.112 A  
HETATM   33  C   UNL     1      -7.695   5.274  65.111  1.00  0.00    -0.085 A  
HETATM   34  C   UNL     1      -8.960   5.553  65.649  1.00  0.00    -0.152 A  
HETATM   35  C   UNL     1      -6.550   5.822  65.686  1.00  0.00    -0.044 A  
HETATM   36  C   UNL     1      -6.668   6.641  66.806  1.00  0.00    -0.056 A  
ENDBRANCH  30  31
ENDBRANCH  11  30
ENDBRANCH   9  11
ENDBRANCH   7   9
ENDBRANCH   5   7
ENDBRANCH   4   5
ENDBRANCH   2   4
TORSDOF 12
ENDMDL
MODEL      308
REMARK 921   NORMALIZED FREE ENERGY PREDICTED BY IDOCK:   -4.00 KCAL/MOL
REMARK 922        TOTAL FREE ENERGY PREDICTED BY IDOCK:   -8.52 KCAL/MOL
REMARK 923 INTER-LIGAND FREE ENERGY PREDICTED BY IDOCK:   -9.00 KCAL/MOL
REMARK 924 INTRA-LIGAND FREE ENERGY PREDICTED BY IDOCK:    0.48 KCAL/MOL
REMARK 927      BINDING AFFINITY PREDICTED BY RF-SCORE:    0.00 PKD
ROOT
HETATM    1  C   UNL     1     -10.955   4.408  73.480  1.00  0.00    -0.379 C  
HETATM    2  C   UNL     1     -10.031   5.605  73.244  1.00  0.00    -0.177 C  
HETATM    3  C   UNL     1      -9.811   6.389  74.544  1.00  0.00    -0.356 C  
ENDROOT
BRANCH   2   4
HETATM    4  O   UNL     1      -8.827   5.244  72.491  1.00  0.00    -0.126 OA 
BRANCH   4   5
HETATM    5  C   UNL     1      -7.724   6.028  72.578  1.00  0.00    -0.100 C  
HETATM    6  O   UNL     1      -6.760   5.751  73.294  1.00  0.00    -0.071 OA 
BRANCH   5   7
HETATM    7  C   UNL     1      -7.723   7.334  71.732  1.00  0.00    -0.087 C  
HETATM    8  C   UNL     1      -7.110   8.466  72.556  1.00  0.00    -0.107 C  
BRANCH   7   9
HETATM    9  N   UNL     1      -8.998   7.779  71.049  1.00  0.00    -0.141 NA 
HETATM   10  H   UNL     1      -9.398   8.599  71.507  1.00  0.00     0.000 HD 
BRANCH   9  11
HETATM   11  P   UNL     1      -8.760   8.063  69.327  1.00  0.00    -0.137 P  
HETATM   12  O   UNL     1      -7.221   8.185  69.452  1.00  0.00    -0.064 OA 
BRANCH  11  13
HETATM   13  C   UNL     1      -8.835   9.918  68.867  1.00  0.00    -0.145 C  
BRANCH  13  14
HETATM   14  O   UNL     1      -8.076  10.244  67.642  1.00  0.00    -0.106 OA 
BRANCH  14  15
HETATM   15  C   UNL     1      -8.300   9.512  66.407  1.00  0.00    -0.119 C  
HETATM   16  C   UNL     1      -7.276   9.946  65.350  1.00  0.00    -0.125 C  
BRANCH  15  17
HETATM   17  C   UNL     1      -9.742   9.504  65.919  1.00  0.00    -0.282 C  
BRANCH  17  18
HETATM   18  N   UNL     1     -10.124  10.628  65.109  1.00  0.00    -0.294 NA 
HETATM   19  C   UNL     1      -9.819  10.857  63.794  1.00  0.00    -0.337 A  
HETATM   20  N   UNL     1     -10.404  11.944  63.342  1.00  0.00    -0.442 NA 
HETATM   21  C   UNL     1     -11.094  12.439  64.427  1.00  0.00    -0.333 A  
HETATM   22  C   UNL     1     -11.917  13.559  64.576  1.00  0.00    -0.410 A  
HETATM   23  N   UNL     1     -12.413  13.842  65.802  1.00  0.00    -0.479 NA 
HETATM   24  N   UNL     1     -12.224  14.384  63.505  1.00  0.00    -1.066 NA 
HETATM   25  C   UNL     1     -12.126  12.998  66.811  1.00  0.00    -0.300 A  
HETATM   26  H1  UNL     1     -12.825  15.202  63.614  1.00  0.00     0.000 HD 
HETATM   27  H2  UNL     1     -12.618  13.803  62.765  1.00  0.00     0.000 HD 
HETATM   28  N   UNL     1     -11.380  11.870  66.784  1.00  0.00    -0.346 NA 
HETATM   29  C   UNL     1     -10.900  11.660  65.549  1.00  0.00    -0.279 A  
ENDBRANCH  17  18
ENDBRANCH  15  17
ENDBRANCH  14  15
ENDBRANCH  13  14
ENDBRANCH  11  13
BRANCH  11  30
HETATM   30  O   UNL     1     -10.479   7.927  69.186  1.00  0.00    -0.218 OA 
BRANCH  30  31
HETATM   31  C   UNL     1     -11.231   8.690  70.062  1.00  0.00    -0.094 A  
HETATM   32  C   UNL     1     -11.560   9.982  69.648  1.00  0.00    -0.156 A  
HETATM   33  C   UNL     1     -12.375   9.098  72.162  1.00  0.00    -0.424 A  
HETATM   34  C   UNL     1     -11.648   8.245  71.320  1.00  0.00    -0.318 A  
HETATM   35  C   UNL     1     -12.683  10.394  71.753  1.00  0.00    -0.525 A  
HETATM   36  C   UNL     1     -12.275  10.834  70.498  1.00  0.00    -0.457 A  
ENDBRANCH  30  31
ENDBRANCH  11  30
ENDBRANCH   9  11
ENDBRANCH   7   9
ENDBRANCH   5   7
ENDBRANCH   4   5
ENDBRANCH   2   4
TORSDOF 12
ENDMDL
MODEL      309
REMARK 921   NORMALIZED FREE ENERGY PREDICTED BY IDOCK:   -4.00 KCAL/MOL
REMARK 922        TOTAL FREE ENERGY PREDICTED BY IDOCK:   -8.52 KCAL/MOL
REMARK 923 INTER-LIGAND FREE ENERGY PREDICTED BY IDOCK:   -7.29 KCAL/MOL
REMARK 924 INTRA-LIGAND FREE ENERGY PREDICTED BY IDOCK:   -1.23 KCAL/MOL
REMARK 927      BINDING AFFINITY PREDICTED BY RF-SCORE:    0.00 PKD
ROOT
HETATM    1  C   UNL     1     -12.280  14.783  64.313  1.00  0.00    -0.402 C  
HETATM    2  C   UNL     1     -11.741  13.476  64.900  1.00  0.00    -0.357 C  
HETATM    3  C   UNL     1     -11.634  12.394  63.816  1.00  0.00    -0.553 C  
ENDROOT
BRANCH   2   4
HETATM    4  O   UNL     1     -10.553  13.681  65.731  1.00  0.00    -0.275 OA 
BRANCH   4   5
HETATM    5  C   UNL     1     -10.017  12.633  66.404  1.00  0.00    -0.255 C  
HETATM    6  O   UNL     1      -9.125  11.922  65.936  1.00  0.00    -0.186 OA 
BRANCH   5   7
HETATM    7  C   UNL     1     -10.593  12.338  67.818  1.00  0.00    -0.219 C  
HETATM    8  C   UNL     1     -11.529  13.475  68.227  1.00  0.00    -0.345 C  
BRANCH   7   9
HETATM    9  N   UNL     1      -9.651  11.969  68.944  1.00  0.00    -0.416 NA 
HETATM   10  H   UNL     1      -9.957  12.371  69.830  1.00  0.00     0.000 HD 
BRANCH   9  11
HETATM   11  P   UNL     1      -9.428  10.227  69.075  1.00  0.00    -0.209 P  
HETATM   12  O   UNL     1     -10.846   9.900  68.545  1.00  0.00    -0.229 OA 
BRANCH  11  13
HETATM   13  C   UNL     1      -9.947   9.543  70.784  1.00  0.00    -0.264 C  
BRANCH  13  14
HETATM   14  O   UNL     1      -9.708   8.092  70.926  1.00  0.00    -0.164 OA 
BRANCH  14  15
HETATM   15  C   UNL     1     -10.816   7.155  71.001  1.00  0.00    -0.240 C  
HETATM   16  C   UNL     1     -11.375   7.122  72.429  1.00  0.00    -0.312 C  
BRANCH  15  17
HETATM   17  C   UNL     1     -10.537   5.783  70.402  1.00  0.00    -0.294 C  
BRANCH  17  18
HETATM   18  N   UNL     1     -10.603   5.712  68.969  1.00  0.00    -0.254 NA 
HETATM   19  C   UNL     1     -11.209   6.592  68.112  1.00  0.00    -0.150 A  
HETATM   20  N   UNL     1     -11.002   6.266  66.855  1.00  0.00    -0.365 NA 
HETATM   21  C   UNL     1     -10.248   5.115  66.918  1.00  0.00    -0.239 A  
HETATM   22  C   UNL     1      -9.703   4.303  65.920  1.00  0.00    -0.209 A  
HETATM   23  N   UNL     1      -9.053   3.173  66.285  1.00  0.00    -0.151 NA 
HETATM   24  N   UNL     1      -9.820   4.621  64.576  1.00  0.00    -0.368 NA 
HETATM   25  C   UNL     1      -8.925   2.914  67.600  1.00  0.00    -0.160 A  
HETATM   26  H1  UNL     1      -9.422   4.028  63.847  1.00  0.00     0.000 HD 
HETATM   27  H2  UNL     1      -9.455   5.564  64.445  1.00  0.00     0.000 HD 
HETATM   28  N   UNL     1      -9.371   3.636  68.652  1.00  0.00    -0.161 NA 
HETATM   29  C   UNL     1     -10.023   4.728  68.223  1.00  0.00    -0.090 A  
ENDBRANCH  17  18
ENDBRANCH  15  17
ENDBRANCH  14  15
ENDBRANCH  13  14
ENDBRANCH  11  13
BRANCH  11  30
HETATM   30  O   UNL     1      -7.844  10.592  69.667  1.00  0.00    -0.133 OA 
BRANCH  30  31
HETATM   31  C   UNL     1      -6.980   9.522  69.815  1.00  0.00    -0.071 A  
HETATM   32  C   UNL     1      -6.346   9.391  71.051  1.00  0.00    -0.082 A  
HETATM   33  C   UNL     1      -5.783   7.565  69.022  1.00  0.00    -0.022 A  
HETATM   34  C   UNL     1      -6.703   8.600  68.800  1.00  0.00    -0.058 A  
HETATM   35  C   UNL     1      -5.137   7.451  70.252  1.00  0.00    -0.023 A  
HETATM   36  C   UNL     1      -5.419   8.364  71.264  1.00  0.00    -0.033 A  
ENDBRANCH  30  31
ENDBRANCH  11  30
ENDBRANCH   9  11
ENDBRANCH   7   9
ENDBRANCH   5   7
ENDBRANCH   4   5
ENDBRANCH   2   4
TORSDOF 12
ENDMDL
MODEL      310
REMARK 921   NORMALIZED FREE ENERGY PREDICTED BY IDOCK:   -4.00 KCAL/MOL
REMARK 922        TOTAL FREE ENERGY PREDICTED BY IDOCK:   -8.52 KCAL/MOL
REMARK 923 INTER-LIGAND FREE ENERGY PREDICTED BY IDOCK:   -6.83 KCAL/MOL
REMARK 924 INTRA-LIGAND FREE ENERGY PREDICTED BY IDOCK:   -1.68 KCAL/MOL
REMARK 927      BINDING AFFINITY PREDICTED BY RF-SCORE:    0.00 PKD
ROOT
HETATM    1  C   UNL     1     -11.865  11.426  67.738  1.00  0.00    -0.196 C  
HETATM    2  C   UNL     1     -10.975  12.476  68.408  1.00  0.00    -0.248 C  
HETATM    3  C   UNL     1     -11.736  13.205  69.524  1.00  0.00    -0.382 C  
ENDROOT
BRANCH   2   4
HETATM    4  O   UNL     1      -9.654  11.949  68.761  1.00  0.00    -0.135 OA 
BRANCH   4   5
HETATM    5  C   UNL     1      -8.642  12.022  67.861  1.00  0.00    -0.165 C  
HETATM    6  O   UNL     1      -8.749  12.600  66.778  1.00  0.00    -0.199 OA 
BRANCH   5   7
HETATM    7  C   UNL     1      -7.310  11.316  68.245  1.00  0.00    -0.095 C  
HETATM    8  C   UNL     1      -6.188  11.837  67.348  1.00  0.00    -0.108 C  
BRANCH   7   9
HETATM    9  N   UNL     1      -7.272   9.806  68.354  1.00  0.00    -0.077 NA 
HETATM   10  H   UNL     1      -7.315   9.504  69.327  1.00  0.00     0.000 HD 
BRANCH   9  11
HETATM   11  P   UNL     1      -8.534   9.042  67.391  1.00  0.00    -0.114 P  
HETATM   12  O   UNL     1      -9.491   8.865  68.595  1.00  0.00    -0.149 OA 
BRANCH  11  13
HETATM   13  C   UNL     1      -8.346   7.141  67.303  1.00  0.00    -0.119 C  
BRANCH  13  14
HETATM   14  O   UNL     1      -7.977   6.534  68.599  1.00  0.00    -0.111 OA 
BRANCH  14  15
HETATM   15  C   UNL     1      -8.013   5.093  68.788  1.00  0.00    -0.082 C  
HETATM   16  C   UNL     1      -7.569   4.388  67.500  1.00  0.00    -0.077 C  
BRANCH  15  17
HETATM   17  C   UNL     1      -9.308   4.558  69.384  1.00  0.00    -0.149 C  
BRANCH  17  18
HETATM   18  N   UNL     1     -10.182   5.549  69.947  1.00  0.00    -0.243 NA 
HETATM   19  C   UNL     1     -11.290   6.114  69.375  1.00  0.00    -0.331 A  
HETATM   20  N   UNL     1     -11.906   6.925  70.206  1.00  0.00    -0.300 NA 
HETATM   21  C   UNL     1     -11.141   6.890  71.350  1.00  0.00    -0.250 A  
HETATM   22  C   UNL     1     -11.284   7.526  72.587  1.00  0.00    -0.348 A  
HETATM   23  N   UNL     1     -10.320   7.356  73.521  1.00  0.00    -0.360 NA 
HETATM   24  N   UNL     1     -12.379   8.328  72.871  1.00  0.00    -0.631 NA 
HETATM   25  C   UNL     1      -9.290   6.540  73.225  1.00  0.00    -0.131 A  
HETATM   26  H1  UNL     1     -12.483   8.793  73.774  1.00  0.00     0.000 HD 
HETATM   27  H2  UNL     1     -13.221   7.779  72.703  1.00  0.00     0.000 HD 
HETATM   28  N   UNL     1      -9.062   5.844  72.088  1.00  0.00    -0.143 NA 
HETATM   29  C   UNL     1     -10.039   6.074  71.198  1.00  0.00    -0.194 A  
ENDBRANCH  17  18
ENDBRANCH  15  17
ENDBRANCH  14  15
ENDBRANCH  13  14
ENDBRANCH  11  13
BRANCH  11  30
HETATM   30  O   UNL     1      -7.464   9.242  66.045  1.00  0.00    -0.093 OA 
BRANCH  30  31
HETATM   31  C   UNL     1      -8.027   9.724  64.877  1.00  0.00    -0.133 A  
HETATM   32  C   UNL     1      -7.155   9.984  63.819  1.00  0.00    -0.129 A  
HETATM   33  C   UNL     1      -9.876  10.503  63.513  1.00  0.00    -0.339 A  
HETATM   34  C   UNL     1      -9.393   9.977  64.719  1.00  0.00    -0.330 A  
HETATM   35  C   UNL     1      -8.998  10.781  62.466  1.00  0.00    -0.344 A  
HETATM   36  C   UNL     1      -7.639  10.522  62.621  1.00  0.00    -0.128 A  
ENDBRANCH  30  31
ENDBRANCH  11  30
ENDBRANCH   9  11
ENDBRANCH   7   9
ENDBRANCH   5   7
ENDBRANCH   4   5
ENDBRANCH   2   4
TORSDOF 12
ENDMDL
MODEL      311
REMARK 921   NORMALIZED FREE ENERGY PREDICTED BY IDOCK:   -3.99 KCAL/MOL
REMARK 922        TOTAL FREE ENERGY PREDICTED BY IDOCK:   -8.51 KCAL/MOL
REMARK 923 INTER-LIGAND FREE ENERGY PREDICTED BY IDOCK:   -6.58 KCAL/MOL
REMARK 924 INTRA-LIGAND FREE ENERGY PREDICTED BY IDOCK:   -1.93 KCAL/MOL
REMARK 927      BINDING AFFINITY PREDICTED BY RF-SCORE:    0.00 PKD
ROOT
HETATM    1  C   UNL     1      -9.990   4.436  70.586  1.00  0.00    -0.254 C  
HETATM    2  C   UNL     1     -10.003   5.819  71.241  1.00  0.00    -0.191 C  
HETATM    3  C   UNL     1     -11.402   6.159  71.772  1.00  0.00    -0.346 C  
ENDROOT
BRANCH   2   4
HETATM    4  O   UNL     1      -8.890   6.007  72.177  1.00  0.00    -0.135 OA 
BRANCH   4   5
HETATM    5  C   UNL     1      -7.800   6.712  71.786  1.00  0.00    -0.102 C  
HETATM    6  O   UNL     1      -6.840   6.197  71.209  1.00  0.00    -0.063 OA 
BRANCH   5   7
HETATM    7  C   UNL     1      -7.792   8.232  72.116  1.00  0.00    -0.128 C  
HETATM    8  C   UNL     1      -8.116   8.428  73.597  1.00  0.00    -0.178 C  
BRANCH   7   9
HETATM    9  N   UNL     1      -8.586   9.187  71.249  1.00  0.00    -0.320 NA 
HETATM   10  H   UNL     1      -8.600  10.125  71.648  1.00  0.00     0.000 HD 
BRANCH   9  11
HETATM   11  P   UNL     1      -8.004   9.208  69.587  1.00  0.00    -0.126 P  
HETATM   12  O   UNL     1      -6.592   9.709  69.976  1.00  0.00    -0.055 OA 
BRANCH  11  13
HETATM   13  C   UNL     1      -8.321  10.881  68.716  1.00  0.00    -0.151 C  
BRANCH  13  14
HETATM   14  O   UNL     1      -9.671  11.424  68.974  1.00  0.00    -0.138 OA 
BRANCH  14  15
HETATM   15  C   UNL     1     -10.461  12.006  67.901  1.00  0.00    -0.202 C  
HETATM   16  C   UNL     1     -11.431  10.958  67.341  1.00  0.00    -0.175 C  
BRANCH  15  17
HETATM   17  C   UNL     1      -9.656  12.747  66.843  1.00  0.00    -0.235 C  
BRANCH  17  18
HETATM   18  N   UNL     1      -9.016  13.953  67.290  1.00  0.00    -0.211 NA 
HETATM   19  C   UNL     1      -7.678  14.244  67.289  1.00  0.00    -0.120 A  
HETATM   20  N   UNL     1      -7.448  15.475  67.689  1.00  0.00    -0.150 NA 
HETATM   21  C   UNL     1      -8.695  15.982  67.976  1.00  0.00    -0.171 A  
HETATM   22  C   UNL     1      -9.110  17.237  68.428  1.00  0.00    -0.265 A  
HETATM   23  N   UNL     1     -10.422  17.431  68.697  1.00  0.00    -0.363 NA 
HETATM   24  N   UNL     1      -8.212  18.278  68.614  1.00  0.00    -0.306 NA 
HETATM   25  C   UNL     1     -11.271  16.412  68.469  1.00  0.00    -0.334 A  
HETATM   26  H1  UNL     1      -8.515  19.195  68.944  1.00  0.00     0.000 HD 
HETATM   27  H2  UNL     1      -7.703  18.412  67.740  1.00  0.00     0.000 HD 
HETATM   28  N   UNL     1     -10.999  15.173  68.001  1.00  0.00    -0.284 NA 
HETATM   29  C   UNL     1      -9.683  15.039  67.777  1.00  0.00    -0.215 A  
ENDBRANCH  17  18
ENDBRANCH  15  17
ENDBRANCH  14  15
ENDBRANCH  13  14
ENDBRANCH  11  13
BRANCH  11  30
HETATM   30  O   UNL     1      -9.583   8.647  69.151  1.00  0.00    -0.160 OA 
BRANCH  30  31
HETATM   31  C   UNL     1      -9.637   7.560  68.297  1.00  0.00    -0.152 A  
HETATM   32  C   UNL     1      -8.416   7.020  67.888  1.00  0.00    -0.124 A  
HETATM   33  C   UNL     1     -10.791   5.927  66.924  1.00  0.00    -0.376 A  
HETATM   34  C   UNL     1     -10.828   7.006  67.819  1.00  0.00    -0.276 A  
HETATM   35  C   UNL     1      -9.570   5.405  66.502  1.00  0.00    -0.167 A  
HETATM   36  C   UNL     1      -8.385   5.952  66.984  1.00  0.00    -0.105 A  
ENDBRANCH  30  31
ENDBRANCH  11  30
ENDBRANCH   9  11
ENDBRANCH   7   9
ENDBRANCH   5   7
ENDBRANCH   4   5
ENDBRANCH   2   4
TORSDOF 12
ENDMDL
MODEL      312
REMARK 921   NORMALIZED FREE ENERGY PREDICTED BY IDOCK:   -3.99 KCAL/MOL
REMARK 922        TOTAL FREE ENERGY PREDICTED BY IDOCK:   -8.50 KCAL/MOL
REMARK 923 INTER-LIGAND FREE ENERGY PREDICTED BY IDOCK:   -7.43 KCAL/MOL
REMARK 924 INTRA-LIGAND FREE ENERGY PREDICTED BY IDOCK:   -1.07 KCAL/MOL
REMARK 927      BINDING AFFINITY PREDICTED BY RF-SCORE:    0.00 PKD
ROOT
HETATM    1  C   UNL     1      -7.985   5.577  73.983  1.00  0.00    -0.107 C  
HETATM    2  C   UNL     1      -8.870   6.366  73.015  1.00  0.00    -0.126 C  
HETATM    3  C   UNL     1      -8.824   7.867  73.333  1.00  0.00    -0.324 C  
ENDROOT
BRANCH   2   4
HETATM    4  O   UNL     1      -8.645   5.992  71.616  1.00  0.00    -0.130 OA 
BRANCH   4   5
HETATM    5  C   UNL     1      -9.691   5.587  70.855  1.00  0.00    -0.176 C  
HETATM    6  O   UNL     1     -10.096   4.423  70.838  1.00  0.00    -0.198 OA 
BRANCH   5   7
HETATM    7  C   UNL     1     -10.370   6.667  69.964  1.00  0.00    -0.199 C  
HETATM    8  C   UNL     1     -11.856   6.741  70.309  1.00  0.00    -0.359 C  
BRANCH   7   9
HETATM    9  N   UNL     1     -10.153   6.640  68.466  1.00  0.00    -0.153 NA 
HETATM   10  H   UNL     1     -11.038   6.707  67.963  1.00  0.00     0.000 HD 
BRANCH   9  11
HETATM   11  P   UNL     1      -9.024   7.885  67.940  1.00  0.00    -0.127 P  
HETATM   12  O   UNL     1      -8.811   8.444  69.368  1.00  0.00    -0.139 OA 
BRANCH  11  13
HETATM   13  C   UNL     1      -9.896   9.520  67.467  1.00  0.00    -0.167 C  
BRANCH  13  14
HETATM   14  O   UNL     1     -11.171   9.727  68.185  1.00  0.00    -0.163 OA 
BRANCH  14  15
HETATM   15  C   UNL     1     -11.299  10.760  69.200  1.00  0.00    -0.282 C  
HETATM   16  C   UNL     1     -11.835  10.149  70.500  1.00  0.00    -0.408 C  
BRANCH  15  17
HETATM   17  C   UNL     1     -12.030  12.016  68.746  1.00  0.00    -0.244 C  
BRANCH  17  18
HETATM   18  N   UNL     1     -11.683  13.218  69.452  1.00  0.00    -0.308 NA 
HETATM   19  C   UNL     1     -10.731  14.143  69.118  1.00  0.00    -0.194 A  
HETATM   20  N   UNL     1     -10.738  15.167  69.942  1.00  0.00    -0.265 NA 
HETATM   21  C   UNL     1     -11.726  14.868  70.854  1.00  0.00    -0.323 A  
HETATM   22  C   UNL     1     -12.218  15.569  71.958  1.00  0.00    -0.404 A  
HETATM   23  N   UNL     1     -13.165  14.985  72.729  1.00  0.00    -0.428 NA 
HETATM   24  N   UNL     1     -11.754  16.834  72.284  1.00  0.00    -0.467 NA 
HETATM   25  C   UNL     1     -13.619  13.772  72.362  1.00  0.00    -0.588 A  
HETATM   26  H1  UNL     1     -12.113  17.346  73.091  1.00  0.00     0.000 HD 
HETATM   27  H2  UNL     1     -11.863  17.429  71.463  1.00  0.00     0.000 HD 
HETATM   28  N   UNL     1     -13.254  13.017  71.302  1.00  0.00    -0.180 NA 
HETATM   29  C   UNL     1     -12.299  13.640  70.595  1.00  0.00    -0.368 A  
ENDBRANCH  17  18
ENDBRANCH  15  17
ENDBRANCH  14  15
ENDBRANCH  13  14
ENDBRANCH  11  13
BRANCH  11  30
HETATM   30  O   UNL     1      -9.261   7.260  66.344  1.00  0.00    -0.165 OA 
BRANCH  30  31
HETATM   31  C   UNL     1      -8.122   6.884  65.654  1.00  0.00    -0.129 A  
HETATM   32  C   UNL     1      -7.833   7.589  64.484  1.00  0.00    -0.130 A  
HETATM   33  C   UNL     1      -6.166   5.500  65.274  1.00  0.00    -0.033 A  
HETATM   34  C   UNL     1      -7.280   5.842  66.053  1.00  0.00    -0.072 A  
HETATM   35  C   UNL     1      -5.893   6.193  64.096  1.00  0.00    -0.022 A  
HETATM   36  C   UNL     1      -6.727   7.236  63.703  1.00  0.00    -0.052 A  
ENDBRANCH  30  31
ENDBRANCH  11  30
ENDBRANCH   9  11
ENDBRANCH   7   9
ENDBRANCH   5   7
ENDBRANCH   4   5
ENDBRANCH   2   4
TORSDOF 12
ENDMDL
MODEL      313
REMARK 921   NORMALIZED FREE ENERGY PREDICTED BY IDOCK:   -3.98 KCAL/MOL
REMARK 922        TOTAL FREE ENERGY PREDICTED BY IDOCK:   -8.48 KCAL/MOL
REMARK 923 INTER-LIGAND FREE ENERGY PREDICTED BY IDOCK:   -9.25 KCAL/MOL
REMARK 924 INTRA-LIGAND FREE ENERGY PREDICTED BY IDOCK:    0.77 KCAL/MOL
REMARK 927      BINDING AFFINITY PREDICTED BY RF-SCORE:    0.00 PKD
ROOT
HETATM    1  C   UNL     1     -11.536   6.428  70.053  1.00  0.00    -0.496 C  
HETATM    2  C   UNL     1     -10.159   6.910  69.589  1.00  0.00    -0.184 C  
HETATM    3  C   UNL     1      -9.178   5.735  69.478  1.00  0.00    -0.150 C  
ENDROOT
BRANCH   2   4
HETATM    4  O   UNL     1     -10.238   7.800  68.428  1.00  0.00    -0.191 OA 
BRANCH   4   5
HETATM    5  C   UNL     1     -10.209   7.275  67.178  1.00  0.00    -0.269 C  
HETATM    6  O   UNL     1     -11.064   6.491  66.760  1.00  0.00    -0.362 OA 
BRANCH   5   7
HETATM    7  C   UNL     1      -9.017   7.692  66.270  1.00  0.00    -0.169 C  
HETATM    8  C   UNL     1      -7.854   8.154  67.147  1.00  0.00    -0.101 C  
BRANCH   7   9
HETATM    9  N   UNL     1      -9.255   8.650  65.122  1.00  0.00    -0.431 NA 
HETATM   10  H   UNL     1     -10.117   8.425  64.624  1.00  0.00     0.000 HD 
BRANCH   9  11
HETATM   11  P   UNL     1      -9.244  10.330  65.650  1.00  0.00    -0.220 P  
HETATM   12  O   UNL     1      -8.273  10.063  66.827  1.00  0.00    -0.120 OA 
BRANCH  11  13
HETATM   13  C   UNL     1     -10.622  10.714  66.919  1.00  0.00    -0.254 C  
BRANCH  13  14
HETATM   14  O   UNL     1     -10.122  11.389  68.134  1.00  0.00    -0.178 OA 
BRANCH  14  15
HETATM   15  C   UNL     1     -10.564  12.730  68.482  1.00  0.00    -0.252 C  
HETATM   16  C   UNL     1     -11.920  13.018  67.825  1.00  0.00    -0.344 C  
BRANCH  15  17
HETATM   17  C   UNL     1      -9.521  13.821  68.278  1.00  0.00    -0.214 C  
BRANCH  17  18
HETATM   18  N   UNL     1      -9.927  15.141  68.674  1.00  0.00    -0.213 NA 
HETATM   19  C   UNL     1     -10.633  15.503  69.789  1.00  0.00    -0.295 A  
HETATM   20  N   UNL     1     -10.757  16.809  69.884  1.00  0.00    -0.233 NA 
HETATM   21  C   UNL     1     -10.117  17.296  68.766  1.00  0.00    -0.337 A  
HETATM   22  C   UNL     1      -9.897  18.599  68.312  1.00  0.00    -0.371 A  
HETATM   23  N   UNL     1      -9.287  18.777  67.117  1.00  0.00    -0.292 NA 
HETATM   24  N   UNL     1     -10.296  19.704  69.048  1.00  0.00    -0.595 NA 
HETATM   25  C   UNL     1      -8.879  17.683  66.447  1.00  0.00    -0.236 A  
HETATM   26  H1  UNL     1     -10.136  20.656  68.717  1.00  0.00     0.000 HD 
HETATM   27  H2  UNL     1      -9.887  19.624  69.979  1.00  0.00     0.000 HD 
HETATM   28  N   UNL     1      -8.998  16.383  66.797  1.00  0.00    -0.218 NA 
HETATM   29  C   UNL     1      -9.630  16.275  67.975  1.00  0.00    -0.224 A  
ENDBRANCH  17  18
ENDBRANCH  15  17
ENDBRANCH  14  15
ENDBRANCH  13  14
ENDBRANCH  11  13
BRANCH  11  30
HETATM   30  O   UNL     1     -10.328  10.629  64.335  1.00  0.00    -0.363 OA 
BRANCH  30  31
HETATM   31  C   UNL     1     -10.891  11.891  64.276  1.00  0.00    -0.344 A  
HETATM   32  C   UNL     1     -10.068  12.965  64.621  1.00  0.00    -0.254 A  
HETATM   33  C   UNL     1     -12.722  13.442  63.918  1.00  0.00    -0.022 A  
HETATM   34  C   UNL     1     -12.220  12.133  63.915  1.00  0.00    -0.587 A  
HETATM   35  C   UNL     1     -11.903  14.508  64.284  1.00  0.00    -0.368 A  
HETATM   36  C   UNL     1     -10.577  14.268  64.635  1.00  0.00    -0.364 A  
ENDBRANCH  30  31
ENDBRANCH  11  30
ENDBRANCH   9  11
ENDBRANCH   7   9
ENDBRANCH   5   7
ENDBRANCH   4   5
ENDBRANCH   2   4
TORSDOF 12
ENDMDL
MODEL      314
REMARK 921   NORMALIZED FREE ENERGY PREDICTED BY IDOCK:   -3.98 KCAL/MOL
REMARK 922        TOTAL FREE ENERGY PREDICTED BY IDOCK:   -8.48 KCAL/MOL
REMARK 923 INTER-LIGAND FREE ENERGY PREDICTED BY IDOCK:   -8.33 KCAL/MOL
REMARK 924 INTRA-LIGAND FREE ENERGY PREDICTED BY IDOCK:   -0.15 KCAL/MOL
REMARK 927      BINDING AFFINITY PREDICTED BY RF-SCORE:    0.00 PKD
ROOT
HETATM    1  C   UNL     1      -6.788   1.939  66.729  1.00  0.00    -0.039 C  
HETATM    2  C   UNL     1      -7.042   3.341  67.289  1.00  0.00    -0.058 C  
HETATM    3  C   UNL     1      -6.220   3.577  68.564  1.00  0.00    -0.032 C  
ENDROOT
BRANCH   2   4
HETATM    4  O   UNL     1      -6.955   4.380  66.259  1.00  0.00    -0.063 OA 
BRANCH   4   5
HETATM    5  C   UNL     1      -8.002   5.220  66.066  1.00  0.00    -0.104 C  
HETATM    6  O   UNL     1      -8.032   6.055  65.160  1.00  0.00    -0.109 OA 
BRANCH   5   7
HETATM    7  C   UNL     1      -9.189   5.102  67.064  1.00  0.00    -0.117 C  
HETATM    8  C   UNL     1     -10.494   4.975  66.280  1.00  0.00    -0.352 C  
BRANCH   7   9
HETATM    9  N   UNL     1      -9.318   6.107  68.189  1.00  0.00    -0.116 NA 
HETATM   10  H   UNL     1      -8.413   6.511  68.431  1.00  0.00     0.000 HD 
BRANCH   9  11
HETATM   11  P   UNL     1     -10.499   7.361  67.822  1.00  0.00    -0.208 P  
HETATM   12  O   UNL     1      -9.525   8.163  66.925  1.00  0.00    -0.165 OA 
BRANCH  11  13
HETATM   13  C   UNL     1     -10.466   8.798  69.084  1.00  0.00    -0.217 C  
BRANCH  13  14
HETATM   14  O   UNL     1     -11.457   9.853  68.789  1.00  0.00    -0.068 OA 
BRANCH  14  15
HETATM   15  C   UNL     1     -11.411  11.135  69.472  1.00  0.00    -0.290 C  
HETATM   16  C   UNL     1     -12.462  11.169  70.588  1.00  0.00    -0.448 C  
BRANCH  15  17
HETATM   17  C   UNL     1     -11.427  12.351  68.555  1.00  0.00    -0.306 C  
BRANCH  17  18
HETATM   18  N   UNL     1     -10.668  12.216  67.343  1.00  0.00    -0.228 NA 
HETATM   19  C   UNL     1      -9.355  11.852  67.211  1.00  0.00    -0.177 A  
HETATM   20  N   UNL     1      -9.005  11.746  65.947  1.00  0.00    -0.121 NA 
HETATM   21  C   UNL     1     -10.142  12.081  65.247  1.00  0.00    -0.260 A  
HETATM   22  C   UNL     1     -10.408  12.141  63.876  1.00  0.00    -0.415 A  
HETATM   23  N   UNL     1     -11.622  12.580  63.468  1.00  0.00    -0.490 NA 
HETATM   24  N   UNL     1      -9.460  11.775  62.933  1.00  0.00    -0.619 NA 
HETATM   25  C   UNL     1     -12.531  12.891  64.411  1.00  0.00    -0.375 A  
HETATM   26  H1  UNL     1      -9.654  11.820  61.932  1.00  0.00     0.000 HD 
HETATM   27  H2  UNL     1      -9.153  10.827  63.150  1.00  0.00     0.000 HD 
HETATM   28  N   UNL     1     -12.407  12.837  65.756  1.00  0.00    -0.594 NA 
HETATM   29  C   UNL     1     -11.178  12.419  66.094  1.00  0.00    -0.322 A  
ENDBRANCH  17  18
ENDBRANCH  15  17
ENDBRANCH  14  15
ENDBRANCH  13  14
ENDBRANCH  11  13
BRANCH  11  30
HETATM   30  O   UNL     1     -11.588   6.464  68.825  1.00  0.00    -0.182 OA 
BRANCH  30  31
HETATM   31  C   UNL     1     -11.324   6.473  70.183  1.00  0.00    -0.402 A  
HETATM   32  C   UNL     1     -12.113   7.310  70.973  1.00  0.00    -0.361 A  
HETATM   33  C   UNL     1     -10.086   5.814  72.163  1.00  0.00    -0.219 A  
HETATM   34  C   UNL     1     -10.312   5.717  70.783  1.00  0.00    -0.310 A  
HETATM   35  C   UNL     1     -10.863   6.667  72.944  1.00  0.00    -0.293 A  
HETATM   36  C   UNL     1     -11.875   7.414  72.348  1.00  0.00    -0.273 A  
ENDBRANCH  30  31
ENDBRANCH  11  30
ENDBRANCH   9  11
ENDBRANCH   7   9
ENDBRANCH   5   7
ENDBRANCH   4   5
ENDBRANCH   2   4
TORSDOF 12
ENDMDL
MODEL      315
REMARK 921   NORMALIZED FREE ENERGY PREDICTED BY IDOCK:   -3.98 KCAL/MOL
REMARK 922        TOTAL FREE ENERGY PREDICTED BY IDOCK:   -8.48 KCAL/MOL
REMARK 923 INTER-LIGAND FREE ENERGY PREDICTED BY IDOCK:   -7.27 KCAL/MOL
REMARK 924 INTRA-LIGAND FREE ENERGY PREDICTED BY IDOCK:   -1.21 KCAL/MOL
REMARK 927      BINDING AFFINITY PREDICTED BY RF-SCORE:    0.00 PKD
ROOT
HETATM    1  C   UNL     1     -10.089   6.756  74.118  1.00  0.00    -0.381 C  
HETATM    2  C   UNL     1     -10.543   7.081  72.693  1.00  0.00    -0.245 C  
HETATM    3  C   UNL     1     -11.564   6.049  72.195  1.00  0.00    -0.348 C  
ENDROOT
BRANCH   2   4
HETATM    4  O   UNL     1     -10.912   8.490  72.529  1.00  0.00    -0.353 OA 
BRANCH   4   5
HETATM    5  C   UNL     1     -10.256   9.252  71.619  1.00  0.00    -0.201 C  
HETATM    6  O   UNL     1      -9.031   9.385  71.616  1.00  0.00    -0.251 OA 
BRANCH   5   7
HETATM    7  C   UNL     1     -11.128   9.987  70.561  1.00  0.00    -0.331 C  
HETATM    8  C   UNL     1     -12.333  10.621  71.255  1.00  0.00    -0.488 C  
BRANCH   7   9
HETATM    9  N   UNL     1     -11.539   9.259  69.299  1.00  0.00    -0.236 NA 
HETATM   10  H   UNL     1     -12.549   9.117  69.267  1.00  0.00     0.000 HD 
BRANCH   9  11
HETATM   11  P   UNL     1     -10.961  10.073  67.848  1.00  0.00    -0.091 P  
HETATM   12  O   UNL     1      -9.793   9.081  67.630  1.00  0.00    -0.157 OA 
BRANCH  11  13
HETATM   13  C   UNL     1      -9.682  11.443  68.231  1.00  0.00    -0.202 C  
BRANCH  13  14
HETATM   14  O   UNL     1      -8.725  11.667  67.129  1.00  0.00    -0.153 OA 
BRANCH  14  15
HETATM   15  C   UNL     1      -7.325  11.953  67.399  1.00  0.00    -0.145 C  
HETATM   16  C   UNL     1      -7.109  13.469  67.478  1.00  0.00    -0.159 C  
BRANCH  15  17
HETATM   17  C   UNL     1      -6.337  11.222  66.501  1.00  0.00    -0.119 C  
BRANCH  17  18
HETATM   18  N   UNL     1      -6.343   9.790  66.618  1.00  0.00    -0.065 NA 
HETATM   19  C   UNL     1      -5.842   9.029  67.640  1.00  0.00    -0.043 A  
HETATM   20  N   UNL     1      -6.094   7.750  67.463  1.00  0.00    -0.048 NA 
HETATM   21  C   UNL     1      -6.767   7.696  66.263  1.00  0.00    -0.057 A  
HETATM   22  C   UNL     1      -7.310   6.626  65.546  1.00  0.00    -0.076 A  
HETATM   23  N   UNL     1      -7.863   6.869  64.335  1.00  0.00    -0.113 NA 
HETATM   24  N   UNL     1      -7.285   5.331  66.040  1.00  0.00    -0.072 NA 
HETATM   25  C   UNL     1      -7.905   8.143  63.903  1.00  0.00    -0.147 A  
HETATM   26  H1  UNL     1      -7.681   4.550  65.517  1.00  0.00     0.000 HD 
HETATM   27  H2  UNL     1      -7.717   5.341  66.964  1.00  0.00     0.000 HD 
HETATM   28  N   UNL     1      -7.452   9.260  64.516  1.00  0.00    -0.100 NA 
HETATM   29  C   UNL     1      -6.896   8.948  65.697  1.00  0.00    -0.076 A  
ENDBRANCH  17  18
ENDBRANCH  15  17
ENDBRANCH  14  15
ENDBRANCH  13  14
ENDBRANCH  11  13
BRANCH  11  30
HETATM   30  O   UNL     1     -12.268  11.182  68.092  1.00  0.00    -0.612 OA 
BRANCH  30  31
HETATM   31  C   UNL     1     -12.031  12.499  67.743  1.00  0.00    -0.223 A  
HETATM   32  C   UNL     1     -11.976  12.789  66.379  1.00  0.00    -0.443 A  
HETATM   33  C   UNL     1     -11.555  14.828  68.231  1.00  0.00    -0.348 A  
HETATM   34  C   UNL     1     -11.828  13.525  68.671  1.00  0.00    -0.404 A  
HETATM   35  C   UNL     1     -11.481  15.108  66.868  1.00  0.00    -0.215 A  
HETATM   36  C   UNL     1     -11.691  14.088  65.944  1.00  0.00    -0.373 A  
ENDBRANCH  30  31
ENDBRANCH  11  30
ENDBRANCH   9  11
ENDBRANCH   7   9
ENDBRANCH   5   7
ENDBRANCH   4   5
ENDBRANCH   2   4
TORSDOF 12
ENDMDL
MODEL      316
REMARK 921   NORMALIZED FREE ENERGY PREDICTED BY IDOCK:   -3.97 KCAL/MOL
REMARK 922        TOTAL FREE ENERGY PREDICTED BY IDOCK:   -8.47 KCAL/MOL
REMARK 923 INTER-LIGAND FREE ENERGY PREDICTED BY IDOCK:   -7.39 KCAL/MOL
REMARK 924 INTRA-LIGAND FREE ENERGY PREDICTED BY IDOCK:   -1.09 KCAL/MOL
REMARK 927      BINDING AFFINITY PREDICTED BY RF-SCORE:    0.00 PKD
ROOT
HETATM    1  C   UNL     1      -7.096  11.892  67.223  1.00  0.00    -0.143 C  
HETATM    2  C   UNL     1      -6.787  10.723  68.162  1.00  0.00    -0.068 C  
HETATM    3  C   UNL     1      -6.664  11.206  69.614  1.00  0.00    -0.134 C  
ENDROOT
BRANCH   2   4
HETATM    4  O   UNL     1      -7.665   9.572  67.933  1.00  0.00    -0.087 OA 
BRANCH   4   5
HETATM    5  C   UNL     1      -7.223   8.324  68.226  1.00  0.00    -0.093 C  
HETATM    6  O   UNL     1      -6.171   7.864  67.777  1.00  0.00    -0.048 OA 
BRANCH   5   7
HETATM    7  C   UNL     1      -8.122   7.463  69.158  1.00  0.00    -0.120 C  
HETATM    8  C   UNL     1      -8.386   6.112  68.495  1.00  0.00    -0.114 C  
BRANCH   7   9
HETATM    9  N   UNL     1      -9.395   8.058  69.723  1.00  0.00    -0.159 NA 
HETATM   10  H   UNL     1     -10.023   8.361  68.979  1.00  0.00     0.000 HD 
BRANCH   9  11
HETATM   11  P   UNL     1     -10.203   6.955  70.833  1.00  0.00    -0.198 P  
HETATM   12  O   UNL     1     -11.514   6.920  70.010  1.00  0.00    -0.306 OA 
BRANCH  11  13
HETATM   13  C   UNL     1     -11.142   7.868  72.227  1.00  0.00    -0.318 C  
BRANCH  13  14
HETATM   14  O   UNL     1     -11.458   9.271  71.891  1.00  0.00    -0.372 OA 
BRANCH  14  15
HETATM   15  C   UNL     1     -12.784   9.818  72.130  1.00  0.00    -0.326 C  
HETATM   16  C   UNL     1     -13.845   8.907  71.498  1.00  0.00    -0.388 C  
BRANCH  15  17
HETATM   17  C   UNL     1     -12.939  11.294  71.791  1.00  0.00    -0.414 C  
BRANCH  17  18
HETATM   18  N   UNL     1     -12.498  11.673  70.477  1.00  0.00    -0.289 NA 
HETATM   19  C   UNL     1     -12.252  10.856  69.406  1.00  0.00    -0.222 A  
HETATM   20  N   UNL     1     -11.944  11.546  68.330  1.00  0.00    -0.590 NA 
HETATM   21  C   UNL     1     -11.977  12.859  68.743  1.00  0.00    -0.253 A  
HETATM   22  C   UNL     1     -11.755  14.057  68.058  1.00  0.00    -0.359 A  
HETATM   23  N   UNL     1     -11.786  15.218  68.752  1.00  0.00    -0.332 NA 
HETATM   24  N   UNL     1     -11.497  14.080  66.696  1.00  0.00    -0.348 NA 
HETATM   25  C   UNL     1     -12.077  15.162  70.065  1.00  0.00    -0.345 A  
HETATM   26  H1  UNL     1     -11.335  14.955  66.195  1.00  0.00     0.000 HD 
HETATM   27  H2  UNL     1     -12.255  13.586  66.225  1.00  0.00     0.000 HD 
HETATM   28  N   UNL     1     -12.346  14.077  70.826  1.00  0.00    -0.351 NA 
HETATM   29  C   UNL     1     -12.277  12.961  70.086  1.00  0.00    -0.266 A  
ENDBRANCH  17  18
ENDBRANCH  15  17
ENDBRANCH  14  15
ENDBRANCH  13  14
ENDBRANCH  11  13
BRANCH  11  30
HETATM   30  O   UNL     1      -8.737   6.993  71.753  1.00  0.00    -0.123 OA 
BRANCH  30  31
HETATM   31  C   UNL     1      -8.446   5.862  72.495  1.00  0.00    -0.116 A  
HETATM   32  C   UNL     1      -9.314   4.778  72.357  1.00  0.00    -0.157 A  
HETATM   33  C   UNL     1      -7.161   4.596  74.117  1.00  0.00    -0.077 A  
HETATM   34  C   UNL     1      -7.362   5.767  73.372  1.00  0.00    -0.091 A  
HETATM   35  C   UNL     1      -8.042   3.523  73.991  1.00  0.00    -0.075 A  
HETATM   36  C   UNL     1      -9.118   3.616  73.112  1.00  0.00    -0.111 A  
ENDBRANCH  30  31
ENDBRANCH  11  30
ENDBRANCH   9  11
ENDBRANCH   7   9
ENDBRANCH   5   7
ENDBRANCH   4   5
ENDBRANCH   2   4
TORSDOF 12
ENDMDL
MODEL      317
REMARK 921   NORMALIZED FREE ENERGY PREDICTED BY IDOCK:   -3.97 KCAL/MOL
REMARK 922        TOTAL FREE ENERGY PREDICTED BY IDOCK:   -8.47 KCAL/MOL
REMARK 923 INTER-LIGAND FREE ENERGY PREDICTED BY IDOCK:   -7.85 KCAL/MOL
REMARK 924 INTRA-LIGAND FREE ENERGY PREDICTED BY IDOCK:   -0.62 KCAL/MOL
REMARK 927      BINDING AFFINITY PREDICTED BY RF-SCORE:    0.00 PKD
ROOT
HETATM    1  C   UNL     1      -9.089   3.277  72.061  1.00  0.00    -0.155 C  
HETATM    2  C   UNL     1      -8.206   4.472  71.691  1.00  0.00    -0.102 C  
HETATM    3  C   UNL     1      -7.205   4.779  72.813  1.00  0.00    -0.080 C  
ENDROOT
BRANCH   2   4
HETATM    4  O   UNL     1      -7.653   4.364  70.339  1.00  0.00    -0.048 OA 
BRANCH   4   5
HETATM    5  C   UNL     1      -6.795   5.312  69.889  1.00  0.00    -0.056 C  
HETATM    6  O   UNL     1      -5.597   5.095  69.697  1.00  0.00    -0.010 OA 
BRANCH   5   7
HETATM    7  C   UNL     1      -7.386   6.728  69.632  1.00  0.00    -0.087 C  
HETATM    8  C   UNL     1      -6.750   7.722  70.603  1.00  0.00    -0.038 C  
BRANCH   7   9
HETATM    9  N   UNL     1      -8.888   6.907  69.566  1.00  0.00    -0.133 NA 
HETATM   10  H   UNL     1      -9.250   7.316  70.427  1.00  0.00     0.000 HD 
BRANCH   9  11
HETATM   11  P   UNL     1      -9.380   7.843  68.157  1.00  0.00    -0.143 P  
HETATM   12  O   UNL     1      -8.021   7.669  67.436  1.00  0.00    -0.115 OA 
BRANCH  11  13
HETATM   13  C   UNL     1      -9.003   9.709  68.343  1.00  0.00    -0.123 C  
BRANCH  13  14
HETATM   14  O   UNL     1      -9.253  10.478  67.106  1.00  0.00    -0.143 OA 
BRANCH  14  15
HETATM   15  C   UNL     1     -10.456  11.278  66.952  1.00  0.00    -0.245 C  
HETATM   16  C   UNL     1     -10.744  11.505  65.463  1.00  0.00    -0.328 C  
BRANCH  15  17
HETATM   17  C   UNL     1     -10.498  12.541  67.801  1.00  0.00    -0.220 C  
BRANCH  17  18
HETATM   18  N   UNL     1     -11.385  12.495  68.930  1.00  0.00    -0.277 NA 
HETATM   19  C   UNL     1     -11.902  11.387  69.547  1.00  0.00    -0.357 A  
HETATM   20  N   UNL     1     -12.612  11.708  70.606  1.00  0.00    -0.270 NA 
HETATM   21  C   UNL     1     -12.561  13.083  70.650  1.00  0.00    -0.193 A  
HETATM   22  C   UNL     1     -13.105  14.007  71.546  1.00  0.00    -0.363 A  
HETATM   23  N   UNL     1     -12.947  15.327  71.295  1.00  0.00    -0.404 NA 
HETATM   24  N   UNL     1     -13.805  13.604  72.673  1.00  0.00    -0.754 NA 
HETATM   25  C   UNL     1     -12.229  15.683  70.213  1.00  0.00    -0.386 A  
HETATM   26  H1  UNL     1     -14.203  14.279  73.327  1.00  0.00     0.000 HD 
HETATM   27  H2  UNL     1     -13.208  12.970  73.203  1.00  0.00     0.000 HD 
HETATM   28  N   UNL     1     -11.625  14.889  69.300  1.00  0.00    -0.288 NA 
HETATM   29  C   UNL     1     -11.839  13.598  69.593  1.00  0.00    -0.335 A  
ENDBRANCH  17  18
ENDBRANCH  15  17
ENDBRANCH  14  15
ENDBRANCH  13  14
ENDBRANCH  11  13
BRANCH  11  30
HETATM   30  O   UNL     1     -10.899   8.037  68.964  1.00  0.00    -0.136 OA 
BRANCH  30  31
HETATM   31  C   UNL     1     -10.940   7.668  70.296  1.00  0.00    -0.252 A  
HETATM   32  C   UNL     1     -10.383   8.559  71.214  1.00  0.00    -0.288 A  
HETATM   33  C   UNL     1     -11.449   6.148  72.118  1.00  0.00    -0.361 A  
HETATM   34  C   UNL     1     -11.482   6.462  70.752  1.00  0.00    -0.415 A  
HETATM   35  C   UNL     1     -10.873   7.032  73.028  1.00  0.00    -0.342 A  
HETATM   36  C   UNL     1     -10.340   8.236  72.576  1.00  0.00    -0.401 A  
ENDBRANCH  30  31
ENDBRANCH  11  30
ENDBRANCH   9  11
ENDBRANCH   7   9
ENDBRANCH   5   7
ENDBRANCH   4   5
ENDBRANCH   2   4
TORSDOF 12
ENDMDL
MODEL      318
REMARK 921   NORMALIZED FREE ENERGY PREDICTED BY IDOCK:   -3.96 KCAL/MOL
REMARK 922        TOTAL FREE ENERGY PREDICTED BY IDOCK:   -8.46 KCAL/MOL
REMARK 923 INTER-LIGAND FREE ENERGY PREDICTED BY IDOCK:   -7.78 KCAL/MOL
REMARK 924 INTRA-LIGAND FREE ENERGY PREDICTED BY IDOCK:   -0.67 KCAL/MOL
REMARK 927      BINDING AFFINITY PREDICTED BY RF-SCORE:    0.00 PKD
ROOT
HETATM    1  C   UNL     1      -8.251   2.402  68.113  1.00  0.00    -0.072 C  
HETATM    2  C   UNL     1      -8.020   3.876  68.454  1.00  0.00    -0.075 C  
HETATM    3  C   UNL     1      -7.368   4.022  69.836  1.00  0.00    -0.045 C  
ENDROOT
BRANCH   2   4
HETATM    4  O   UNL     1      -7.388   4.614  67.357  1.00  0.00    -0.072 OA 
BRANCH   4   5
HETATM    5  C   UNL     1      -8.146   5.403  66.556  1.00  0.00    -0.105 C  
HETATM    6  O   UNL     1      -7.785   5.761  65.433  1.00  0.00    -0.084 OA 
BRANCH   5   7
HETATM    7  C   UNL     1      -9.517   5.868  67.124  1.00  0.00    -0.117 C  
HETATM    8  C   UNL     1     -10.641   5.273  66.277  1.00  0.00    -0.308 C  
BRANCH   7   9
HETATM    9  N   UNL     1      -9.751   7.339  67.393  1.00  0.00    -0.143 NA 
HETATM   10  H   UNL     1     -10.747   7.553  67.443  1.00  0.00     0.000 HD 
BRANCH   9  11
HETATM   11  P   UNL     1      -8.907   7.889  68.839  1.00  0.00    -0.140 P  
HETATM   12  O   UNL     1      -9.580   6.840  69.758  1.00  0.00    -0.151 OA 
BRANCH  11  13
HETATM   13  C   UNL     1      -9.857   9.263  69.770  1.00  0.00    -0.188 C  
BRANCH  13  14
HETATM   14  O   UNL     1     -11.176   8.822  70.269  1.00  0.00    -0.253 OA 
BRANCH  14  15
HETATM   15  C   UNL     1     -11.839   9.524  71.355  1.00  0.00    -0.389 C  
HETATM   16  C   UNL     1     -12.002   8.587  72.559  1.00  0.00    -0.401 C  
BRANCH  15  17
HETATM   17  C   UNL     1     -13.107  10.266  70.959  1.00  0.00    -0.373 C  
BRANCH  17  18
HETATM   18  N   UNL     1     -13.097  11.681  71.210  1.00  0.00    -0.253 NA 
HETATM   19  C   UNL     1     -13.626  12.346  72.283  1.00  0.00    -0.269 A  
HETATM   20  N   UNL     1     -13.361  13.634  72.235  1.00  0.00    -0.488 NA 
HETATM   21  C   UNL     1     -12.649  13.794  71.067  1.00  0.00    -0.371 A  
HETATM   22  C   UNL     1     -12.077  14.922  70.473  1.00  0.00    -0.320 A  
HETATM   23  N   UNL     1     -11.485  14.789  69.263  1.00  0.00    -0.279 NA 
HETATM   24  N   UNL     1     -12.110  16.165  71.086  1.00  0.00    -0.585 NA 
HETATM   25  C   UNL     1     -11.438  13.561  68.714  1.00  0.00    -0.311 A  
HETATM   26  H1  UNL     1     -11.692  16.989  70.652  1.00  0.00     0.000 HD 
HETATM   27  H2  UNL     1     -11.708  16.065  72.018  1.00  0.00     0.000 HD 
HETATM   28  N   UNL     1     -11.917  12.396  69.204  1.00  0.00    -0.274 NA 
HETATM   29  C   UNL     1     -12.509  12.600  70.390  1.00  0.00    -0.143 A  
ENDBRANCH  17  18
ENDBRANCH  15  17
ENDBRANCH  14  15
ENDBRANCH  13  14
ENDBRANCH  11  13
BRANCH  11  30
HETATM   30  O   UNL     1      -8.155   9.061  67.811  1.00  0.00    -0.108 OA 
BRANCH  30  31
HETATM   31  C   UNL     1      -8.946   9.602  66.812  1.00  0.00    -0.138 A  
HETATM   32  C   UNL     1      -8.665   9.206  65.504  1.00  0.00    -0.210 A  
HETATM   33  C   UNL     1     -10.701  11.049  65.971  1.00  0.00    -0.242 A  
HETATM   34  C   UNL     1      -9.973  10.521  67.046  1.00  0.00    -0.244 A  
HETATM   35  C   UNL     1     -10.403  10.667  64.664  1.00  0.00    -0.353 A  
HETATM   36  C   UNL     1      -9.385   9.746  64.433  1.00  0.00    -0.278 A  
ENDBRANCH  30  31
ENDBRANCH  11  30
ENDBRANCH   9  11
ENDBRANCH   7   9
ENDBRANCH   5   7
ENDBRANCH   4   5
ENDBRANCH   2   4
TORSDOF 12
ENDMDL
MODEL      319
REMARK 921   NORMALIZED FREE ENERGY PREDICTED BY IDOCK:   -3.96 KCAL/MOL
REMARK 922        TOTAL FREE ENERGY PREDICTED BY IDOCK:   -8.45 KCAL/MOL
REMARK 923 INTER-LIGAND FREE ENERGY PREDICTED BY IDOCK:   -7.04 KCAL/MOL
REMARK 924 INTRA-LIGAND FREE ENERGY PREDICTED BY IDOCK:   -1.40 KCAL/MOL
REMARK 927      BINDING AFFINITY PREDICTED BY RF-SCORE:    0.00 PKD
ROOT
HETATM    1  C   UNL     1     -12.324  14.890  64.366  1.00  0.00    -0.342 C  
HETATM    2  C   UNL     1     -11.742  13.521  64.723  1.00  0.00    -0.370 C  
HETATM    3  C   UNL     1     -11.893  12.540  63.552  1.00  0.00    -0.616 C  
ENDROOT
BRANCH   2   4
HETATM    4  O   UNL     1     -10.407  13.616  65.321  1.00  0.00    -0.321 OA 
BRANCH   4   5
HETATM    5  C   UNL     1      -9.953  12.610  66.108  1.00  0.00    -0.261 C  
HETATM    6  O   UNL     1      -9.330  11.643  65.667  1.00  0.00    -0.225 OA 
BRANCH   5   7
HETATM    7  C   UNL     1     -10.268  12.712  67.628  1.00  0.00    -0.217 C  
HETATM    8  C   UNL     1     -10.501  14.176  67.997  1.00  0.00    -0.240 C  
BRANCH   7   9
HETATM    9  N   UNL     1      -9.354  12.031  68.625  1.00  0.00    -0.382 NA 
HETATM   10  H   UNL     1      -9.363  12.513  69.524  1.00  0.00     0.000 HD 
BRANCH   9  11
HETATM   11  P   UNL     1      -9.737  10.322  68.813  1.00  0.00    -0.196 P  
HETATM   12  O   UNL     1     -11.257  10.532  68.605  1.00  0.00    -0.252 OA 
BRANCH  11  13
HETATM   13  C   UNL     1     -10.087   9.840  70.630  1.00  0.00    -0.182 C  
BRANCH  13  14
HETATM   14  O   UNL     1     -10.453   8.417  70.793  1.00  0.00    -0.192 OA 
BRANCH  14  15
HETATM   15  C   UNL     1     -11.839   8.017  70.973  1.00  0.00    -0.263 C  
HETATM   16  C   UNL     1     -12.381   8.593  72.288  1.00  0.00    -0.449 C  
BRANCH  15  17
HETATM   17  C   UNL     1     -12.107   6.531  70.779  1.00  0.00    -0.222 C  
BRANCH  17  18
HETATM   18  N   UNL     1     -10.974   5.671  70.979  1.00  0.00    -0.221 NA 
HETATM   19  C   UNL     1     -10.099   5.203  70.036  1.00  0.00    -0.275 A  
HETATM   20  N   UNL     1      -9.125   4.506  70.580  1.00  0.00    -0.108 NA 
HETATM   21  C   UNL     1      -9.407   4.515  71.927  1.00  0.00    -0.140 A  
HETATM   22  C   UNL     1      -8.739   3.962  73.023  1.00  0.00    -0.098 A  
HETATM   23  N   UNL     1      -9.300   4.073  74.250  1.00  0.00    -0.105 NA 
HETATM   24  N   UNL     1      -7.530   3.300  72.880  1.00  0.00    -0.050 NA 
HETATM   25  C   UNL     1     -10.455   4.755  74.357  1.00  0.00    -0.285 A  
HETATM   26  H1  UNL     1      -7.042   2.896  73.680  1.00  0.00     0.000 HD 
HETATM   27  H2  UNL     1      -6.883   3.929  72.405  1.00  0.00     0.000 HD 
HETATM   28  N   UNL     1     -11.172   5.364  73.386  1.00  0.00    -0.271 NA 
HETATM   29  C   UNL     1     -10.577   5.197  72.195  1.00  0.00    -0.211 A  
ENDBRANCH  17  18
ENDBRANCH  15  17
ENDBRANCH  14  15
ENDBRANCH  13  14
ENDBRANCH  11  13
BRANCH  11  30
HETATM   30  O   UNL     1      -8.038  10.088  69.045  1.00  0.00    -0.101 OA 
BRANCH  30  31
HETATM   31  C   UNL     1      -7.438   9.115  68.265  1.00  0.00    -0.083 A  
HETATM   32  C   UNL     1      -7.857   7.799  68.468  1.00  0.00    -0.120 A  
HETATM   33  C   UNL     1      -5.858   8.331  66.600  1.00  0.00    -0.044 A  
HETATM   34  C   UNL     1      -6.441   9.381  67.322  1.00  0.00    -0.070 A  
HETATM   35  C   UNL     1      -6.264   7.016  66.821  1.00  0.00    -0.042 A  
HETATM   36  C   UNL     1      -7.263   6.752  67.754  1.00  0.00    -0.091 A  
ENDBRANCH  30  31
ENDBRANCH  11  30
ENDBRANCH   9  11
ENDBRANCH   7   9
ENDBRANCH   5   7
ENDBRANCH   4   5
ENDBRANCH   2   4
TORSDOF 12
ENDMDL
MODEL      320
REMARK 921   NORMALIZED FREE ENERGY PREDICTED BY IDOCK:   -3.94 KCAL/MOL
REMARK 922        TOTAL FREE ENERGY PREDICTED BY IDOCK:   -8.42 KCAL/MOL
REMARK 923 INTER-LIGAND FREE ENERGY PREDICTED BY IDOCK:   -7.03 KCAL/MOL
REMARK 924 INTRA-LIGAND FREE ENERGY PREDICTED BY IDOCK:   -1.39 KCAL/MOL
REMARK 927      BINDING AFFINITY PREDICTED BY RF-SCORE:    0.00 PKD
ROOT
HETATM    1  C   UNL     1      -7.711   6.528  63.583  1.00  0.00    -0.114 C  
HETATM    2  C   UNL     1      -7.306   7.966  63.249  1.00  0.00    -0.107 C  
HETATM    3  C   UNL     1      -8.491   8.744  62.659  1.00  0.00    -0.183 C  
ENDROOT
BRANCH   2   4
HETATM    4  O   UNL     1      -6.585   8.616  64.347  1.00  0.00    -0.070 OA 
BRANCH   4   5
HETATM    5  C   UNL     1      -6.105   7.866  65.369  1.00  0.00    -0.038 C  
HETATM    6  O   UNL     1      -5.221   7.020  65.222  1.00  0.00    -0.026 OA 
BRANCH   5   7
HETATM    7  C   UNL     1      -6.739   8.102  66.770  1.00  0.00    -0.064 C  
HETATM    8  C   UNL     1      -5.638   8.470  67.764  1.00  0.00    -0.035 C  
BRANCH   7   9
HETATM    9  N   UNL     1      -7.677   7.064  67.348  1.00  0.00    -0.108 NA 
HETATM   10  H   UNL     1      -7.297   6.654  68.201  1.00  0.00     0.000 HD 
BRANCH   9  11
HETATM   11  P   UNL     1      -9.294   7.711  67.615  1.00  0.00    -0.147 P  
HETATM   12  O   UNL     1      -9.694   7.613  66.123  1.00  0.00    -0.106 OA 
BRANCH  11  13
HETATM   13  C   UNL     1      -9.358   9.617  67.473  1.00  0.00    -0.130 C  
BRANCH  13  14
HETATM   14  O   UNL     1     -10.686  10.179  67.799  1.00  0.00    -0.237 OA 
BRANCH  14  15
HETATM   15  C   UNL     1     -11.315  11.163  66.935  1.00  0.00    -0.090 C  
HETATM   16  C   UNL     1     -10.580  11.221  65.589  1.00  0.00    -0.303 C  
BRANCH  15  17
HETATM   17  C   UNL     1     -11.555  12.521  67.579  1.00  0.00    -0.361 C  
BRANCH  17  18
HETATM   18  N   UNL     1     -10.404  13.379  67.654  1.00  0.00    -0.235 NA 
HETATM   19  C   UNL     1      -9.287  13.219  68.428  1.00  0.00    -0.157 A  
HETATM   20  N   UNL     1      -8.389  14.148  68.183  1.00  0.00    -0.152 NA 
HETATM   21  C   UNL     1      -8.973  14.946  67.225  1.00  0.00    -0.199 A  
HETATM   22  C   UNL     1      -8.515  16.082  66.552  1.00  0.00    -0.313 A  
HETATM   23  N   UNL     1      -9.351  16.712  65.695  1.00  0.00    -0.476 NA 
HETATM   24  N   UNL     1      -7.235  16.579  66.749  1.00  0.00    -0.220 NA 
HETATM   25  C   UNL     1     -10.573  16.181  65.500  1.00  0.00    -0.377 A  
HETATM   26  H1  UNL     1      -6.900  17.408  66.258  1.00  0.00     0.000 HD 
HETATM   27  H2  UNL     1      -6.575  15.822  66.570  1.00  0.00     0.000 HD 
HETATM   28  N   UNL     1     -11.114  15.075  66.057  1.00  0.00    -0.336 NA 
HETATM   29  C   UNL     1     -10.245  14.512  66.910  1.00  0.00    -0.264 A  
ENDBRANCH  17  18
ENDBRANCH  15  17
ENDBRANCH  14  15
ENDBRANCH  13  14
ENDBRANCH  11  13
BRANCH  11  30
HETATM   30  O   UNL     1      -8.846   7.819  69.284  1.00  0.00    -0.138 OA 
BRANCH  30  31
HETATM   31  C   UNL     1      -9.884   7.863  70.198  1.00  0.00    -0.184 A  
HETATM   32  C   UNL     1     -10.886   6.903  70.059  1.00  0.00    -0.299 A  
HETATM   33  C   UNL     1     -11.088   8.813  72.078  1.00  0.00    -0.441 A  
HETATM   34  C   UNL     1      -9.982   8.817  71.216  1.00  0.00    -0.333 A  
HETATM   35  C   UNL     1     -12.097   7.865  71.922  1.00  0.00    -0.352 A  
HETATM   36  C   UNL     1     -11.995   6.911  70.913  1.00  0.00    -0.430 A  
ENDBRANCH  30  31
ENDBRANCH  11  30
ENDBRANCH   9  11
ENDBRANCH   7   9
ENDBRANCH   5   7
ENDBRANCH   4   5
ENDBRANCH   2   4
TORSDOF 12
ENDMDL
MODEL      321
REMARK 921   NORMALIZED FREE ENERGY PREDICTED BY IDOCK:   -3.94 KCAL/MOL
REMARK 922        TOTAL FREE ENERGY PREDICTED BY IDOCK:   -8.42 KCAL/MOL
REMARK 923 INTER-LIGAND FREE ENERGY PREDICTED BY IDOCK:   -6.55 KCAL/MOL
REMARK 924 INTRA-LIGAND FREE ENERGY PREDICTED BY IDOCK:   -1.87 KCAL/MOL
REMARK 927      BINDING AFFINITY PREDICTED BY RF-SCORE:    0.00 PKD
ROOT
HETATM    1  C   UNL     1     -11.092  13.758  64.882  1.00  0.00    -0.364 C  
HETATM    2  C   UNL     1     -11.281  12.287  64.503  1.00  0.00    -0.326 C  
HETATM    3  C   UNL     1     -10.492  11.945  63.231  1.00  0.00    -0.427 C  
ENDROOT
BRANCH   2   4
HETATM    4  O   UNL     1     -11.097  11.385  65.643  1.00  0.00    -0.243 OA 
BRANCH   4   5
HETATM    5  C   UNL     1     -10.072  11.597  66.505  1.00  0.00    -0.207 C  
HETATM    6  O   UNL     1      -8.929  11.868  66.133  1.00  0.00    -0.195 OA 
BRANCH   5   7
HETATM    7  C   UNL     1     -10.393  11.466  68.022  1.00  0.00    -0.184 C  
HETATM    8  C   UNL     1     -11.415  12.531  68.414  1.00  0.00    -0.355 C  
BRANCH   7   9
HETATM    9  N   UNL     1      -9.256  11.401  69.020  1.00  0.00    -0.400 NA 
HETATM   10  H   UNL     1      -9.421  12.023  69.810  1.00  0.00     0.000 HD 
BRANCH   9  11
HETATM   11  P   UNL     1      -8.944   9.753  69.559  1.00  0.00    -0.225 P  
HETATM   12  O   UNL     1      -7.923   9.466  68.431  1.00  0.00    -0.093 OA 
BRANCH  11  13
HETATM   13  C   UNL     1     -10.129   8.480  68.763  1.00  0.00    -0.196 C  
BRANCH  13  14
HETATM   14  O   UNL     1      -9.432   7.288  68.236  1.00  0.00    -0.141 OA 
BRANCH  14  15
HETATM   15  C   UNL     1      -9.953   5.952  68.472  1.00  0.00    -0.148 C  
HETATM   16  C   UNL     1     -11.094   6.009  69.496  1.00  0.00    -0.468 C  
BRANCH  15  17
HETATM   17  C   UNL     1      -8.896   4.896  68.765  1.00  0.00    -0.094 C  
BRANCH  17  18
HETATM   18  N   UNL     1      -8.500   4.788  70.142  1.00  0.00    -0.081 NA 
HETATM   19  C   UNL     1      -8.941   3.889  71.075  1.00  0.00    -0.101 A  
HETATM   20  N   UNL     1      -8.303   4.021  72.218  1.00  0.00    -0.096 NA 
HETATM   21  C   UNL     1      -7.432   5.067  72.005  1.00  0.00    -0.091 A  
HETATM   22  C   UNL     1      -6.481   5.669  72.833  1.00  0.00    -0.062 A  
HETATM   23  N   UNL     1      -5.805   6.746  72.369  1.00  0.00    -0.038 NA 
HETATM   24  N   UNL     1      -6.223   5.197  74.110  1.00  0.00    -0.059 NA 
HETATM   25  C   UNL     1      -6.053   7.154  71.111  1.00  0.00    -0.036 A  
HETATM   26  H1  UNL     1      -5.528   5.637  74.715  1.00  0.00     0.000 HD 
HETATM   27  H2  UNL     1      -5.991   4.206  74.037  1.00  0.00     0.000 HD 
HETATM   28  N   UNL     1      -6.915   6.635  70.207  1.00  0.00    -0.064 NA 
HETATM   29  C   UNL     1      -7.567   5.588  70.735  1.00  0.00    -0.090 A  
ENDBRANCH  17  18
ENDBRANCH  15  17
ENDBRANCH  14  15
ENDBRANCH  13  14
ENDBRANCH  11  13
BRANCH  11  30
HETATM   30  O   UNL     1     -10.086  10.074  70.819  1.00  0.00    -0.125 OA 
BRANCH  30  31
HETATM   31  C   UNL     1     -10.371   9.025  71.674  1.00  0.00    -0.350 A  
HETATM   32  C   UNL     1     -11.715   8.677  71.818  1.00  0.00    -0.400 A  
HETATM   33  C   UNL     1      -9.779   7.299  73.274  1.00  0.00    -0.277 A  
HETATM   34  C   UNL     1      -9.400   8.327  72.399  1.00  0.00    -0.338 A  
HETATM   35  C   UNL     1     -11.125   6.970  73.430  1.00  0.00    -0.140 A  
HETATM   36  C   UNL     1     -12.090   7.660  72.703  1.00  0.00    -0.137 A  
ENDBRANCH  30  31
ENDBRANCH  11  30
ENDBRANCH   9  11
ENDBRANCH   7   9
ENDBRANCH   5   7
ENDBRANCH   4   5
ENDBRANCH   2   4
TORSDOF 12
ENDMDL
MODEL      322
REMARK 921   NORMALIZED FREE ENERGY PREDICTED BY IDOCK:   -3.94 KCAL/MOL
REMARK 922        TOTAL FREE ENERGY PREDICTED BY IDOCK:   -8.41 KCAL/MOL
REMARK 923 INTER-LIGAND FREE ENERGY PREDICTED BY IDOCK:   -7.19 KCAL/MOL
REMARK 924 INTRA-LIGAND FREE ENERGY PREDICTED BY IDOCK:   -1.23 KCAL/MOL
REMARK 927      BINDING AFFINITY PREDICTED BY RF-SCORE:    0.00 PKD
ROOT
HETATM    1  C   UNL     1     -13.924   8.852  72.540  1.00  0.00    -0.466 C  
HETATM    2  C   UNL     1     -12.693   8.238  71.869  1.00  0.00    -0.342 C  
HETATM    3  C   UNL     1     -12.896   6.736  71.624  1.00  0.00    -0.328 C  
ENDROOT
BRANCH   2   4
HETATM    4  O   UNL     1     -12.226   9.025  70.725  1.00  0.00    -0.215 OA 
BRANCH   4   5
HETATM    5  C   UNL     1     -10.957   9.500  70.713  1.00  0.00    -0.321 C  
HETATM    6  O   UNL     1     -10.099   9.141  71.521  1.00  0.00    -0.319 OA 
BRANCH   5   7
HETATM    7  C   UNL     1     -10.614  10.558  69.624  1.00  0.00    -0.242 C  
HETATM    8  C   UNL     1     -11.908  11.060  68.986  1.00  0.00    -0.399 C  
BRANCH   7   9
HETATM    9  N   UNL     1      -9.572  10.235  68.574  1.00  0.00    -0.156 NA 
HETATM   10  H   UNL     1      -8.913   9.532  68.910  1.00  0.00     0.000 HD 
BRANCH   9  11
HETATM   11  P   UNL     1     -10.301   9.748  67.047  1.00  0.00    -0.205 P  
HETATM   12  O   UNL     1     -10.766   8.373  67.587  1.00  0.00    -0.218 OA 
BRANCH  11  13
HETATM   13  C   UNL     1      -9.070   8.842  65.897  1.00  0.00    -0.218 C  
BRANCH  13  14
HETATM   14  O   UNL     1      -7.657   9.141  66.209  1.00  0.00    -0.091 OA 
BRANCH  14  15
HETATM   15  C   UNL     1      -6.898   8.301  67.121  1.00  0.00    -0.070 C  
HETATM   16  C   UNL     1      -5.405   8.374  66.776  1.00  0.00    -0.032 C  
BRANCH  15  17
HETATM   17  C   UNL     1      -7.437   6.888  67.289  1.00  0.00    -0.096 C  
BRANCH  17  18
HETATM   18  N   UNL     1      -7.944   6.574  68.596  1.00  0.00    -0.113 NA 
HETATM   19  C   UNL     1      -9.242   6.330  68.957  1.00  0.00    -0.127 A  
HETATM   20  N   UNL     1      -9.338   5.989  70.224  1.00  0.00    -0.157 NA 
HETATM   21  C   UNL     1      -8.044   6.041  70.692  1.00  0.00    -0.116 A  
HETATM   22  C   UNL     1      -7.498   5.773  71.950  1.00  0.00    -0.095 A  
HETATM   23  N   UNL     1      -6.174   5.981  72.141  1.00  0.00    -0.041 NA 
HETATM   24  N   UNL     1      -8.277   5.313  73.000  1.00  0.00    -0.111 NA 
HETATM   25  C   UNL     1      -5.441   6.393  71.090  1.00  0.00    -0.026 A  
HETATM   26  H1  UNL     1      -7.878   5.117  73.919  1.00  0.00     0.000 HD 
HETATM   27  H2  UNL     1      -8.762   4.472  72.685  1.00  0.00     0.000 HD 
HETATM   28  N   UNL     1      -5.843   6.647  69.825  1.00  0.00    -0.018 NA 
HETATM   29  C   UNL     1      -7.165   6.444  69.708  1.00  0.00    -0.074 A  
ENDBRANCH  17  18
ENDBRANCH  15  17
ENDBRANCH  14  15
ENDBRANCH  13  14
ENDBRANCH  11  13
BRANCH  11  30
HETATM   30  O   UNL     1      -9.782  11.285  66.444  1.00  0.00    -0.199 OA 
BRANCH  30  31
HETATM   31  C   UNL     1     -10.600  11.885  65.503  1.00  0.00    -0.269 A  
HETATM   32  C   UNL     1     -10.490  11.425  64.189  1.00  0.00    -0.421 A  
HETATM   33  C   UNL     1     -12.257  13.499  64.773  1.00  0.00    -0.450 A  
HETATM   34  C   UNL     1     -11.493  12.920  65.796  1.00  0.00    -0.376 A  
HETATM   35  C   UNL     1     -12.129  13.051  63.460  1.00  0.00    -0.617 A  
HETATM   36  C   UNL     1     -11.245  12.015  63.169  1.00  0.00    -0.261 A  
ENDBRANCH  30  31
ENDBRANCH  11  30
ENDBRANCH   9  11
ENDBRANCH   7   9
ENDBRANCH   5   7
ENDBRANCH   4   5
ENDBRANCH   2   4
TORSDOF 12
ENDMDL
MODEL      323
REMARK 921   NORMALIZED FREE ENERGY PREDICTED BY IDOCK:   -3.87 KCAL/MOL
REMARK 922        TOTAL FREE ENERGY PREDICTED BY IDOCK:   -8.30 KCAL/MOL
REMARK 923 INTER-LIGAND FREE ENERGY PREDICTED BY IDOCK:   -7.77 KCAL/MOL
REMARK 924 INTRA-LIGAND FREE ENERGY PREDICTED BY IDOCK:   -0.54 KCAL/MOL
REMARK 927      BINDING AFFINITY PREDICTED BY RF-SCORE:    0.00 PKD
ROOT
HETATM    1  C   UNL     1      -6.026   8.647  66.605  1.00  0.00    -0.053 C  
HETATM    2  C   UNL     1      -6.393   8.634  68.090  1.00  0.00    -0.052 C  
HETATM    3  C   UNL     1      -5.238   8.080  68.935  1.00  0.00    -0.023 C  
ENDROOT
BRANCH   2   4
HETATM    4  O   UNL     1      -6.971   9.905  68.537  1.00  0.00    -0.065 OA 
BRANCH   4   5
HETATM    5  C   UNL     1      -6.369  11.071  68.194  1.00  0.00    -0.056 C  
HETATM    6  O   UNL     1      -5.148  11.233  68.237  1.00  0.00    -0.040 OA 
BRANCH   5   7
HETATM    7  C   UNL     1      -7.299  12.236  67.748  1.00  0.00    -0.118 C  
HETATM    8  C   UNL     1      -8.381  11.688  66.818  1.00  0.00    -0.171 C  
BRANCH   7   9
HETATM    9  N   UNL     1      -6.688  13.506  67.194  1.00  0.00    -0.437 NA 
HETATM   10  H   UNL     1      -6.991  13.674  66.235  1.00  0.00     0.000 HD 
BRANCH   9  11
HETATM   11  P   UNL     1      -7.015  14.898  68.222  1.00  0.00    -0.147 P  
HETATM   12  O   UNL     1      -7.247  14.041  69.490  1.00  0.00    -0.037 OA 
BRANCH  11  13
HETATM   13  C   UNL     1      -8.866  15.378  68.249  1.00  0.00    -0.176 C  
BRANCH  13  14
HETATM   14  O   UNL     1      -9.660  14.574  69.201  1.00  0.00    -0.146 OA 
BRANCH  14  15
HETATM   15  C   UNL     1     -10.856  13.869  68.771  1.00  0.00    -0.263 C  
HETATM   16  C   UNL     1     -10.996  13.963  67.246  1.00  0.00    -0.299 C  
BRANCH  15  17
HETATM   17  C   UNL     1     -12.120  14.222  69.542  1.00  0.00    -0.330 C  
BRANCH  17  18
HETATM   18  N   UNL     1     -12.534  13.254  70.520  1.00  0.00    -0.296 NA 
HETATM   19  C   UNL     1     -13.361  13.448  71.594  1.00  0.00    -0.338 A  
HETATM   20  N   UNL     1     -13.596  12.323  72.235  1.00  0.00    -0.374 NA 
HETATM   21  C   UNL     1     -12.868  11.378  71.548  1.00  0.00    -0.403 A  
HETATM   22  C   UNL     1     -12.721  10.001  71.732  1.00  0.00    -0.428 A  
HETATM   23  N   UNL     1     -11.866   9.325  70.929  1.00  0.00    -0.288 NA 
HETATM   24  N   UNL     1     -13.419   9.318  72.717  1.00  0.00    -0.722 NA 
HETATM   25  C   UNL     1     -11.233  10.012  69.959  1.00  0.00    -0.288 A  
HETATM   26  H1  UNL     1     -13.311   8.313  72.851  1.00  0.00     0.000 HD 
HETATM   27  H2  UNL     1     -14.412   9.513  72.588  1.00  0.00     0.000 HD 
HETATM   28  N   UNL     1     -11.321  11.327  69.659  1.00  0.00    -0.278 NA 
HETATM   29  C   UNL     1     -12.164  11.941  70.503  1.00  0.00    -0.336 A  
ENDBRANCH  17  18
ENDBRANCH  15  17
ENDBRANCH  14  15
ENDBRANCH  13  14
ENDBRANCH  11  13
BRANCH  11  30
HETATM   30  O   UNL     1      -6.755  15.857  66.805  1.00  0.00    -0.249 OA 
BRANCH  30  31
HETATM   31  C   UNL     1      -6.584  17.215  67.003  1.00  0.00    -0.192 A  
HETATM   32  C   UNL     1      -6.171  17.619  68.274  1.00  0.00    -0.177 A  
HETATM   33  C   UNL     1      -6.659  19.541  66.316  1.00  0.00    -0.208 A  
HETATM   34  C   UNL     1      -6.820  18.180  66.019  1.00  0.00    -0.318 A  
HETATM   35  C   UNL     1      -6.267  19.940  67.592  1.00  0.00    -0.228 A  
HETATM   36  C   UNL     1      -6.024  18.979  68.569  1.00  0.00    -0.231 A  
ENDBRANCH  30  31
ENDBRANCH  11  30
ENDBRANCH   9  11
ENDBRANCH   7   9
ENDBRANCH   5   7
ENDBRANCH   4   5
ENDBRANCH   2   4
TORSDOF 12
ENDMDL
MODEL      324
REMARK 921   NORMALIZED FREE ENERGY PREDICTED BY IDOCK:   -3.85 KCAL/MOL
REMARK 922        TOTAL FREE ENERGY PREDICTED BY IDOCK:   -8.27 KCAL/MOL
REMARK 923 INTER-LIGAND FREE ENERGY PREDICTED BY IDOCK:   -6.55 KCAL/MOL
REMARK 924 INTRA-LIGAND FREE ENERGY PREDICTED BY IDOCK:   -1.71 KCAL/MOL
REMARK 927      BINDING AFFINITY PREDICTED BY RF-SCORE:    0.00 PKD
ROOT
HETATM    1  C   UNL     1     -11.836  16.174  69.431  1.00  0.00    -0.154 C  
HETATM    2  C   UNL     1     -10.989  15.668  68.262  1.00  0.00    -0.315 C  
HETATM    3  C   UNL     1     -10.492  16.837  67.400  1.00  0.00    -0.310 C  
ENDROOT
BRANCH   2   4
HETATM    4  O   UNL     1      -9.976  14.695  68.681  1.00  0.00    -0.223 OA 
BRANCH   4   5
HETATM    5  C   UNL     1     -10.224  13.369  68.544  1.00  0.00    -0.223 C  
HETATM    6  O   UNL     1     -11.238  12.828  68.989  1.00  0.00    -0.254 OA 
BRANCH   5   7
HETATM    7  C   UNL     1      -9.148  12.528  67.801  1.00  0.00    -0.191 C  
HETATM    8  C   UNL     1      -8.039  13.455  67.303  1.00  0.00    -0.147 C  
BRANCH   7   9
HETATM    9  N   UNL     1      -9.577  11.555  66.722  1.00  0.00    -0.184 NA 
HETATM   10  H   UNL     1      -8.973  11.622  65.902  1.00  0.00     0.000 HD 
BRANCH   9  11
HETATM   11  P   UNL     1      -9.661   9.901  67.321  1.00  0.00    -0.188 P  
HETATM   12  O   UNL     1     -11.194   9.946  67.537  1.00  0.00    -0.196 OA 
BRANCH  11  13
HETATM   13  C   UNL     1      -9.431   9.789  69.216  1.00  0.00    -0.194 C  
BRANCH  13  14
HETATM   14  O   UNL     1      -9.785   8.465  69.767  1.00  0.00    -0.177 OA 
BRANCH  14  15
HETATM   15  C   UNL     1     -10.983   8.284  70.570  1.00  0.00    -0.242 C  
HETATM   16  C   UNL     1     -10.697   8.670  72.027  1.00  0.00    -0.427 C  
BRANCH  15  17
HETATM   17  C   UNL     1     -11.670   6.936  70.399  1.00  0.00    -0.325 C  
BRANCH  17  18
HETATM   18  N   UNL     1     -10.810   5.850  70.018  1.00  0.00    -0.332 NA 
HETATM   19  C   UNL     1     -10.136   4.986  70.839  1.00  0.00    -0.232 A  
HETATM   20  N   UNL     1      -9.507   4.056  70.153  1.00  0.00    -0.172 NA 
HETATM   21  C   UNL     1      -9.777   4.358  68.837  1.00  0.00    -0.141 A  
HETATM   22  C   UNL     1      -9.404   3.735  67.643  1.00  0.00    -0.195 A  
HETATM   23  N   UNL     1      -9.765   4.308  66.471  1.00  0.00    -0.206 NA 
HETATM   24  N   UNL     1      -8.672   2.558  67.633  1.00  0.00    -0.103 NA 
HETATM   25  C   UNL     1     -10.508   5.429  66.518  1.00  0.00    -0.294 A  
HETATM   26  H1  UNL     1      -8.400   2.103  66.761  1.00  0.00     0.000 HD 
HETATM   27  H2  UNL     1      -9.172   1.874  68.200  1.00  0.00     0.000 HD 
HETATM   28  N   UNL     1     -10.960   6.100  67.601  1.00  0.00    -0.331 NA 
HETATM   29  C   UNL     1     -10.550   5.496  68.727  1.00  0.00    -0.166 A  
ENDBRANCH  17  18
ENDBRANCH  15  17
ENDBRANCH  14  15
ENDBRANCH  13  14
ENDBRANCH  11  13
BRANCH  11  30
HETATM   30  O   UNL     1      -7.948   9.850  67.078  1.00  0.00    -0.108 OA 
BRANCH  30  31
HETATM   31  C   UNL     1      -7.479   8.895  66.195  1.00  0.00    -0.090 A  
HETATM   32  C   UNL     1      -8.422   8.294  65.358  1.00  0.00    -0.189 A  
HETATM   33  C   UNL     1      -5.757   7.492  65.220  1.00  0.00    -0.037 A  
HETATM   34  C   UNL     1      -6.141   8.497  66.118  1.00  0.00    -0.052 A  
HETATM   35  C   UNL     1      -6.705   6.880  64.401  1.00  0.00    -0.046 A  
HETATM   36  C   UNL     1      -8.036   7.282  64.472  1.00  0.00    -0.112 A  
ENDBRANCH  30  31
ENDBRANCH  11  30
ENDBRANCH   9  11
ENDBRANCH   7   9
ENDBRANCH   5   7
ENDBRANCH   4   5
ENDBRANCH   2   4
TORSDOF 12
ENDMDL
MODEL      325
REMARK 921   NORMALIZED FREE ENERGY PREDICTED BY IDOCK:   -3.84 KCAL/MOL
REMARK 922        TOTAL FREE ENERGY PREDICTED BY IDOCK:   -8.26 KCAL/MOL
REMARK 923 INTER-LIGAND FREE ENERGY PREDICTED BY IDOCK:   -8.26 KCAL/MOL
REMARK 924 INTRA-LIGAND FREE ENERGY PREDICTED BY IDOCK:    0.00 KCAL/MOL
REMARK 927      BINDING AFFINITY PREDICTED BY RF-SCORE:    0.00 PKD
ROOT
HETATM    1  C   UNL     1     -10.689   5.735  70.008  1.00  0.00    -0.400 C  
HETATM    2  C   UNL     1     -11.681   6.882  70.210  1.00  0.00    -0.291 C  
HETATM    3  C   UNL     1     -12.413   6.742  71.552  1.00  0.00    -0.390 C  
ENDROOT
BRANCH   2   4
HETATM    4  O   UNL     1     -11.089   8.193  69.929  1.00  0.00    -0.212 OA 
BRANCH   4   5
HETATM    5  C   UNL     1      -9.936   8.552  70.545  1.00  0.00    -0.188 C  
HETATM    6  O   UNL     1      -9.771   8.463  71.763  1.00  0.00    -0.189 OA 
BRANCH   5   7
HETATM    7  C   UNL     1      -8.802   9.114  69.640  1.00  0.00    -0.151 C  
HETATM    8  C   UNL     1      -7.550   8.256  69.812  1.00  0.00    -0.092 C  
BRANCH   7   9
HETATM    9  N   UNL     1      -8.469  10.590  69.694  1.00  0.00    -0.375 NA 
HETATM   10  H   UNL     1      -7.922  10.817  70.524  1.00  0.00     0.000 HD 
BRANCH   9  11
HETATM   11  P   UNL     1      -7.663  11.139  68.227  1.00  0.00    -0.130 P  
HETATM   12  O   UNL     1      -6.369  11.554  68.968  1.00  0.00    -0.058 OA 
BRANCH  11  13
HETATM   13  C   UNL     1      -7.997  12.984  67.848  1.00  0.00    -0.157 C  
BRANCH  13  14
HETATM   14  O   UNL     1      -6.788  13.716  67.417  1.00  0.00    -0.169 OA 
BRANCH  14  15
HETATM   15  C   UNL     1      -6.306  14.869  68.161  1.00  0.00    -0.136 C  
HETATM   16  C   UNL     1      -6.995  14.930  69.530  1.00  0.00    -0.180 C  
BRANCH  15  17
HETATM   17  C   UNL     1      -6.322  16.181  67.389  1.00  0.00    -0.176 C  
BRANCH  17  18
HETATM   18  N   UNL     1      -7.049  17.252  68.012  1.00  0.00    -0.177 NA 
HETATM   19  C   UNL     1      -6.555  18.249  68.810  1.00  0.00    -0.237 A  
HETATM   20  N   UNL     1      -7.488  19.115  69.140  1.00  0.00    -0.307 NA 
HETATM   21  C   UNL     1      -8.631  18.632  68.542  1.00  0.00    -0.340 A  
HETATM   22  C   UNL     1      -9.942  19.116  68.512  1.00  0.00    -0.425 A  
HETATM   23  N   UNL     1     -10.892  18.379  67.890  1.00  0.00    -0.298 NA 
HETATM   24  N   UNL     1     -10.289  20.318  69.108  1.00  0.00    -0.376 NA 
HETATM   25  C   UNL     1     -10.513  17.235  67.290  1.00  0.00    -0.319 A  
HETATM   26  H1  UNL     1     -11.246  20.671  69.086  1.00  0.00     0.000 HD 
HETATM   27  H2  UNL     1      -9.680  21.043  68.728  1.00  0.00     0.000 HD 
HETATM   28  N   UNL     1      -9.279  16.686  67.217  1.00  0.00    -0.219 NA 
HETATM   29  C   UNL     1      -8.391  17.451  67.870  1.00  0.00    -0.230 A  
ENDBRANCH  17  18
ENDBRANCH  15  17
ENDBRANCH  14  15
ENDBRANCH  13  14
ENDBRANCH  11  13
BRANCH  11  30
HETATM   30  O   UNL     1      -9.110  10.675  67.399  1.00  0.00    -0.139 OA 
BRANCH  30  31
HETATM   31  C   UNL     1     -10.101  11.636  67.304  1.00  0.00    -0.199 A  
HETATM   32  C   UNL     1     -10.352  12.159  66.035  1.00  0.00    -0.268 A  
HETATM   33  C   UNL     1     -11.791  13.116  68.221  1.00  0.00    -0.384 A  
HETATM   34  C   UNL     1     -10.829  12.112  68.399  1.00  0.00    -0.255 A  
HETATM   35  C   UNL     1     -12.023  13.650  66.955  1.00  0.00    -0.454 A  
HETATM   36  C   UNL     1     -11.304  13.171  65.864  1.00  0.00    -0.338 A  
ENDBRANCH  30  31
ENDBRANCH  11  30
ENDBRANCH   9  11
ENDBRANCH   7   9
ENDBRANCH   5   7
ENDBRANCH   4   5
ENDBRANCH   2   4
TORSDOF 12
ENDMDL
MODEL      326
REMARK 921   NORMALIZED FREE ENERGY PREDICTED BY IDOCK:   -3.84 KCAL/MOL
REMARK 922        TOTAL FREE ENERGY PREDICTED BY IDOCK:   -8.25 KCAL/MOL
REMARK 923 INTER-LIGAND FREE ENERGY PREDICTED BY IDOCK:   -8.20 KCAL/MOL
REMARK 924 INTRA-LIGAND FREE ENERGY PREDICTED BY IDOCK:   -0.05 KCAL/MOL
REMARK 927      BINDING AFFINITY PREDICTED BY RF-SCORE:    0.00 PKD
ROOT
HETATM    1  C   UNL     1     -13.522   8.408  71.780  1.00  0.00    -0.388 C  
HETATM    2  C   UNL     1     -12.047   8.814  71.830  1.00  0.00    -0.363 C  
HETATM    3  C   UNL     1     -11.274   7.942  72.829  1.00  0.00    -0.466 C  
ENDROOT
BRANCH   2   4
HETATM    4  O   UNL     1     -11.457   8.952  70.496  1.00  0.00    -0.258 OA 
BRANCH   4   5
HETATM    5  C   UNL     1     -10.718   7.937  69.983  1.00  0.00    -0.244 C  
HETATM    6  O   UNL     1     -11.208   6.861  69.635  1.00  0.00    -0.273 OA 
BRANCH   5   7
HETATM    7  C   UNL     1      -9.186   8.177  69.863  1.00  0.00    -0.151 C  
HETATM    8  C   UNL     1      -8.912   9.680  69.852  1.00  0.00    -0.243 C  
BRANCH   7   9
HETATM    9  N   UNL     1      -8.405   7.468  68.777  1.00  0.00    -0.128 NA 
HETATM   10  H   UNL     1      -8.570   6.462  68.799  1.00  0.00     0.000 HD 
BRANCH   9  11
HETATM   11  P   UNL     1      -8.736   8.135  67.181  1.00  0.00    -0.131 P  
HETATM   12  O   UNL     1      -8.016   9.474  67.476  1.00  0.00    -0.105 OA 
BRANCH  11  13
HETATM   13  C   UNL     1     -10.396   9.083  67.108  1.00  0.00    -0.272 C  
BRANCH  13  14
HETATM   14  O   UNL     1     -10.406  10.158  66.094  1.00  0.00    -0.227 OA 
BRANCH  14  15
HETATM   15  C   UNL     1     -10.957  11.469  66.399  1.00  0.00    -0.284 C  
HETATM   16  C   UNL     1     -11.630  12.055  65.152  1.00  0.00    -0.330 C  
BRANCH  15  17
HETATM   17  C   UNL     1      -9.997  12.419  67.101  1.00  0.00    -0.207 C  
BRANCH  17  18
HETATM   18  N   UNL     1     -10.616  13.475  67.853  1.00  0.00    -0.244 NA 
HETATM   19  C   UNL     1     -10.610  14.816  67.578  1.00  0.00    -0.259 A  
HETATM   20  N   UNL     1     -11.350  15.490  68.431  1.00  0.00    -0.338 NA 
HETATM   21  C   UNL     1     -11.830  14.535  69.298  1.00  0.00    -0.323 A  
HETATM   22  C   UNL     1     -12.679  14.625  70.405  1.00  0.00    -0.316 A  
HETATM   23  N   UNL     1     -12.927  13.506  71.126  1.00  0.00    -0.296 NA 
HETATM   24  N   UNL     1     -13.260  15.825  70.783  1.00  0.00    -0.739 NA 
HETATM   25  C   UNL     1     -12.377  12.350  70.709  1.00  0.00    -0.286 A  
HETATM   26  H1  UNL     1     -13.880  15.890  71.591  1.00  0.00     0.000 HD 
HETATM   27  H2  UNL     1     -13.759  16.199  69.976  1.00  0.00     0.000 HD 
HETATM   28  N   UNL     1     -11.577  12.131  69.641  1.00  0.00    -0.303 NA 
HETATM   29  C   UNL     1     -11.352  13.279  68.985  1.00  0.00    -0.285 A  
ENDBRANCH  17  18
ENDBRANCH  15  17
ENDBRANCH  14  15
ENDBRANCH  13  14
ENDBRANCH  11  13
BRANCH  11  30
HETATM   30  O   UNL     1      -9.540   6.639  66.851  1.00  0.00    -0.146 OA 
BRANCH  30  31
HETATM   31  C   UNL     1      -8.952   5.819  65.905  1.00  0.00    -0.151 A  
HETATM   32  C   UNL     1      -8.376   6.446  64.799  1.00  0.00    -0.035 A  
HETATM   33  C   UNL     1      -8.343   3.665  64.969  1.00  0.00    -0.097 A  
HETATM   34  C   UNL     1      -8.927   4.424  65.993  1.00  0.00    -0.122 A  
HETATM   35  C   UNL     1      -7.788   4.295  63.857  1.00  0.00    -0.084 A  
HETATM   36  C   UNL     1      -7.806   5.684  63.773  1.00  0.00    -0.108 A  
ENDBRANCH  30  31
ENDBRANCH  11  30
ENDBRANCH   9  11
ENDBRANCH   7   9
ENDBRANCH   5   7
ENDBRANCH   4   5
ENDBRANCH   2   4
TORSDOF 12
ENDMDL
MODEL      327
REMARK 921   NORMALIZED FREE ENERGY PREDICTED BY IDOCK:   -3.81 KCAL/MOL
REMARK 922        TOTAL FREE ENERGY PREDICTED BY IDOCK:   -8.19 KCAL/MOL
REMARK 923 INTER-LIGAND FREE ENERGY PREDICTED BY IDOCK:   -6.47 KCAL/MOL
REMARK 924 INTRA-LIGAND FREE ENERGY PREDICTED BY IDOCK:   -1.72 KCAL/MOL
REMARK 927      BINDING AFFINITY PREDICTED BY RF-SCORE:    0.00 PKD
ROOT
HETATM    1  C   UNL     1     -14.305   8.790  72.179  1.00  0.00    -0.481 C  
HETATM    2  C   UNL     1     -12.946   8.109  72.005  1.00  0.00    -0.305 C  
HETATM    3  C   UNL     1     -13.087   6.582  72.077  1.00  0.00     0.014 C  
ENDROOT
BRANCH   2   4
HETATM    4  O   UNL     1     -12.195   8.637  70.863  1.00  0.00    -0.230 OA 
BRANCH   4   5
HETATM    5  C   UNL     1     -11.152   9.476  71.079  1.00  0.00    -0.363 C  
HETATM    6  O   UNL     1     -10.324   9.300  71.975  1.00  0.00    -0.216 OA 
BRANCH   5   7
HETATM    7  C   UNL     1     -11.042  10.713  70.143  1.00  0.00    -0.268 C  
HETATM    8  C   UNL     1     -12.445  11.169  69.743  1.00  0.00    -0.230 C  
BRANCH   7   9
HETATM    9  N   UNL     1     -10.119  10.660  68.943  1.00  0.00    -0.193 NA 
HETATM   10  H   UNL     1      -9.617  11.540  68.822  1.00  0.00     0.000 HD 
BRANCH   9  11
HETATM   11  P   UNL     1      -9.006   9.297  69.027  1.00  0.00    -0.147 P  
HETATM   12  O   UNL     1      -7.946  10.076  69.843  1.00  0.00    -0.165 OA 
BRANCH  11  13
HETATM   13  C   UNL     1      -7.787   9.248  67.553  1.00  0.00    -0.096 C  
BRANCH  13  14
HETATM   14  O   UNL     1      -8.443   9.481  66.250  1.00  0.00    -0.114 OA 
BRANCH  14  15
HETATM   15  C   UNL     1      -9.145  10.724  65.977  1.00  0.00    -0.185 C  
HETATM   16  C   UNL     1     -10.035  10.559  64.739  1.00  0.00    -0.412 C  
BRANCH  15  17
HETATM   17  C   UNL     1      -8.265  11.966  65.959  1.00  0.00     0.342 C  
BRANCH  17  18
HETATM   18  N   UNL     1      -8.421  12.847  67.084  1.00  0.00    -0.193 NA 
HETATM   19  C   UNL     1      -7.528  13.085  68.094  1.00  0.00    -0.130 A  
HETATM   20  N   UNL     1      -7.961  14.016  68.916  1.00  0.00    -0.079 NA 
HETATM   21  C   UNL     1      -9.194  14.370  68.415  1.00  0.00    -0.195 A  
HETATM   22  C   UNL     1     -10.136  15.312  68.837  1.00  0.00    -0.225 A  
HETATM   23  N   UNL     1     -11.315  15.393  68.178  1.00  0.00    -0.338 NA 
HETATM   24  N   UNL     1      -9.894  16.152  69.914  1.00  0.00    -0.047 NA 
HETATM   25  C   UNL     1     -11.501  14.590  67.114  1.00  0.00    -0.368 A  
HETATM   26  H1  UNL     1     -10.582  16.840  70.223  1.00  0.00     0.000 HD 
HETATM   27  H2  UNL     1      -9.018  16.643  69.737  1.00  0.00     0.000 HD 
HETATM   28  N   UNL     1     -10.658  13.672  66.589  1.00  0.00    -0.276 NA 
HETATM   29  C   UNL     1      -9.521  13.625  67.300  1.00  0.00    -0.230 A  
ENDBRANCH  17  18
ENDBRANCH  15  17
ENDBRANCH  14  15
ENDBRANCH  13  14
ENDBRANCH  11  13
BRANCH  11  30
HETATM   30  O   UNL     1     -10.191   8.425  68.115  1.00  0.00    -0.194 OA 
BRANCH  30  31
HETATM   31  C   UNL     1     -10.113   7.045  68.164  1.00  0.00    -0.169 A  
HETATM   32  C   UNL     1      -9.996   6.377  66.945  1.00  0.00    -0.217 A  
HETATM   33  C   UNL     1     -10.120   4.904  69.307  1.00  0.00    -0.248 A  
HETATM   34  C   UNL     1     -10.167   6.305  69.350  1.00  0.00    -0.238 A  
HETATM   35  C   UNL     1     -10.023   4.241  68.085  1.00  0.00    -0.035 A  
HETATM   36  C   UNL     1      -9.962   4.978  66.906  1.00  0.00    -0.238 A  
ENDBRANCH  30  31
ENDBRANCH  11  30
ENDBRANCH   9  11
ENDBRANCH   7   9
ENDBRANCH   5   7
ENDBRANCH   4   5
ENDBRANCH   2   4
TORSDOF 12
ENDMDL
MODEL      328
REMARK 921   NORMALIZED FREE ENERGY PREDICTED BY IDOCK:   -3.80 KCAL/MOL
REMARK 922        TOTAL FREE ENERGY PREDICTED BY IDOCK:   -8.18 KCAL/MOL
REMARK 923 INTER-LIGAND FREE ENERGY PREDICTED BY IDOCK:   -8.41 KCAL/MOL
REMARK 924 INTRA-LIGAND FREE ENERGY PREDICTED BY IDOCK:    0.23 KCAL/MOL
REMARK 927      BINDING AFFINITY PREDICTED BY RF-SCORE:    0.00 PKD
ROOT
HETATM    1  C   UNL     1     -10.533  11.389  63.503  1.00  0.00    -0.477 C  
HETATM    2  C   UNL     1     -11.415  12.636  63.606  1.00  0.00    -0.495 C  
HETATM    3  C   UNL     1     -12.899  12.269  63.461  1.00  0.00    -0.409 C  
ENDROOT
BRANCH   2   4
HETATM    4  O   UNL     1     -11.064  13.478  64.753  1.00  0.00    -0.326 OA 
BRANCH   4   5
HETATM    5  C   UNL     1     -11.344  13.050  66.008  1.00  0.00    -0.310 C  
HETATM    6  O   UNL     1     -12.126  12.127  66.243  1.00  0.00    -0.626 OA 
BRANCH   5   7
HETATM    7  C   UNL     1     -10.639  13.796  67.177  1.00  0.00    -0.277 C  
HETATM    8  C   UNL     1      -9.381  14.483  66.649  1.00  0.00    -0.301 C  
BRANCH   7   9
HETATM    9  N   UNL     1     -10.362  13.059  68.471  1.00  0.00    -0.281 NA 
HETATM   10  H   UNL     1     -11.194  12.576  68.808  1.00  0.00     0.000 HD 
BRANCH   9  11
HETATM   11  P   UNL     1      -8.998  11.954  68.322  1.00  0.00    -0.128 P  
HETATM   12  O   UNL     1      -7.948  13.090  68.265  1.00  0.00    -0.139 OA 
BRANCH  11  13
HETATM   13  C   UNL     1      -8.587  11.529  66.503  1.00  0.00    -0.172 C  
BRANCH  13  14
HETATM   14  O   UNL     1      -7.251  10.921  66.336  1.00  0.00    -0.134 OA 
BRANCH  14  15
HETATM   15  C   UNL     1      -7.107   9.516  65.993  1.00  0.00    -0.092 C  
HETATM   16  C   UNL     1      -5.646   9.214  65.636  1.00  0.00    -0.045 C  
BRANCH  15  17
HETATM   17  C   UNL     1      -8.121   8.996  64.984  1.00  0.00    -0.137 C  
BRANCH  17  18
HETATM   18  N   UNL     1      -8.401   7.588  65.062  1.00  0.00    -0.105 NA 
HETATM   19  C   UNL     1      -7.884   6.585  64.287  1.00  0.00    -0.113 A  
HETATM   20  N   UNL     1      -8.293   5.401  64.689  1.00  0.00    -0.139 NA 
HETATM   21  C   UNL     1      -9.124   5.668  65.754  1.00  0.00    -0.128 A  
HETATM   22  C   UNL     1      -9.846   4.828  66.605  1.00  0.00    -0.214 A  
HETATM   23  N   UNL     1     -10.651   5.385  67.540  1.00  0.00    -0.173 NA 
HETATM   24  N   UNL     1      -9.766   3.447  66.507  1.00  0.00    -0.412 NA 
HETATM   25  C   UNL     1     -10.676   6.728  67.633  1.00  0.00    -0.288 A  
HETATM   26  H1  UNL     1     -10.294   2.834  67.129  1.00  0.00     0.000 HD 
HETATM   27  H2  UNL     1      -8.782   3.186  66.572  1.00  0.00     0.000 HD 
HETATM   28  N   UNL     1      -9.999   7.640  66.899  1.00  0.00    -0.232 NA 
HETATM   29  C   UNL     1      -9.241   7.025  65.979  1.00  0.00    -0.021 A  
ENDBRANCH  17  18
ENDBRANCH  15  17
ENDBRANCH  14  15
ENDBRANCH  13  14
ENDBRANCH  11  13
BRANCH  11  30
HETATM   30  O   UNL     1     -10.172  10.684  68.386  1.00  0.00    -0.161 OA 
BRANCH  30  31
HETATM   31  C   UNL     1     -10.349  10.071  69.614  1.00  0.00    -0.247 A  
HETATM   32  C   UNL     1      -9.226   9.473  70.187  1.00  0.00    -0.281 A  
HETATM   33  C   UNL     1     -11.678   9.331  71.505  1.00  0.00    -0.450 A  
HETATM   34  C   UNL     1     -11.577  10.006  70.280  1.00  0.00    -0.354 A  
HETATM   35  C   UNL     1     -10.558   8.717  72.063  1.00  0.00    -0.414 A  
HETATM   36  C   UNL     1      -9.334   8.788  71.404  1.00  0.00    -0.328 A  
ENDBRANCH  30  31
ENDBRANCH  11  30
ENDBRANCH   9  11
ENDBRANCH   7   9
ENDBRANCH   5   7
ENDBRANCH   4   5
ENDBRANCH   2   4
TORSDOF 12
ENDMDL
MODEL      329
REMARK 921   NORMALIZED FREE ENERGY PREDICTED BY IDOCK:   -3.80 KCAL/MOL
REMARK 922        TOTAL FREE ENERGY PREDICTED BY IDOCK:   -8.18 KCAL/MOL
REMARK 923 INTER-LIGAND FREE ENERGY PREDICTED BY IDOCK:   -6.90 KCAL/MOL
REMARK 924 INTRA-LIGAND FREE ENERGY PREDICTED BY IDOCK:   -1.28 KCAL/MOL
REMARK 927      BINDING AFFINITY PREDICTED BY RF-SCORE:    0.00 PKD
ROOT
HETATM    1  C   UNL     1      -7.424   6.488  73.876  1.00  0.00    -0.084 C  
HETATM    2  C   UNL     1      -8.761   6.098  73.242  1.00  0.00    -0.123 C  
HETATM    3  C   UNL     1      -9.920   6.861  73.898  1.00  0.00    -0.365 C  
ENDROOT
BRANCH   2   4
HETATM    4  O   UNL     1      -8.716   6.120  71.778  1.00  0.00    -0.136 OA 
BRANCH   4   5
HETATM    5  C   UNL     1      -9.852   5.905  71.070  1.00  0.00    -0.182 C  
HETATM    6  O   UNL     1     -10.505   4.863  71.150  1.00  0.00    -0.183 OA 
BRANCH   5   7
HETATM    7  C   UNL     1     -10.308   7.044  70.113  1.00  0.00    -0.197 C  
HETATM    8  C   UNL     1     -11.740   7.449  70.459  1.00  0.00    -0.220 C  
BRANCH   7   9
HETATM    9  N   UNL     1     -10.130   6.877  68.619  1.00  0.00    -0.156 NA 
HETATM   10  H   UNL     1     -11.018   6.968  68.127  1.00  0.00     0.000 HD 
BRANCH   9  11
HETATM   11  P   UNL     1      -8.923   7.984  67.970  1.00  0.00    -0.128 P  
HETATM   12  O   UNL     1      -8.705   8.706  69.322  1.00  0.00    -0.130 OA 
BRANCH  11  13
HETATM   13  C   UNL     1      -9.695   9.591  67.276  1.00  0.00    -0.167 C  
BRANCH  13  14
HETATM   14  O   UNL     1     -10.900  10.022  68.013  1.00  0.00    -0.244 OA 
BRANCH  14  15
HETATM   15  C   UNL     1     -11.089  11.413  68.391  1.00  0.00    -0.242 C  
HETATM   16  C   UNL     1     -11.541  11.498  69.855  1.00  0.00    -0.387 C  
BRANCH  15  17
HETATM   17  C   UNL     1     -11.933  12.230  67.423  1.00  0.00    -0.133 C  
BRANCH  17  18
HETATM   18  N   UNL     1     -11.305  13.417  66.911  1.00  0.00    -0.311 NA 
HETATM   19  C   UNL     1     -10.753  13.606  65.672  1.00  0.00    -0.283 A  
HETATM   20  N   UNL     1     -10.342  14.845  65.508  1.00  0.00    -0.336 NA 
HETATM   21  C   UNL     1     -10.627  15.463  66.705  1.00  0.00    -0.309 A  
HETATM   22  C   UNL     1     -10.441  16.777  67.143  1.00  0.00    -0.299 A  
HETATM   23  N   UNL     1     -10.758  17.087  68.421  1.00  0.00    -0.367 NA 
HETATM   24  N   UNL     1      -9.934  17.759  66.306  1.00  0.00    -0.408 NA 
HETATM   25  C   UNL     1     -11.283  16.119  69.195  1.00  0.00    -0.336 A  
HETATM   26  H1  UNL     1      -9.799  18.718  66.625  1.00  0.00     0.000 HD 
HETATM   27  H2  UNL     1     -10.517  17.787  65.469  1.00  0.00     0.000 HD 
HETATM   28  N   UNL     1     -11.545  14.831  68.878  1.00  0.00    -0.297 NA 
HETATM   29  C   UNL     1     -11.187  14.583  67.609  1.00  0.00    -0.322 A  
ENDBRANCH  17  18
ENDBRANCH  15  17
ENDBRANCH  14  15
ENDBRANCH  13  14
ENDBRANCH  11  13
BRANCH  11  30
HETATM   30  O   UNL     1      -9.167   7.177  66.458  1.00  0.00    -0.154 OA 
BRANCH  30  31
HETATM   31  C   UNL     1      -8.114   6.410  65.993  1.00  0.00    -0.120 A  
HETATM   32  C   UNL     1      -7.248   7.015  65.082  1.00  0.00    -0.074 A  
HETATM   33  C   UNL     1      -6.826   4.361  65.819  1.00  0.00    -0.058 A  
HETATM   34  C   UNL     1      -7.897   5.080  66.369  1.00  0.00    -0.099 A  
HETATM   35  C   UNL     1      -5.976   4.964  64.894  1.00  0.00    -0.021 A  
HETATM   36  C   UNL     1      -6.188   6.289  64.526  1.00  0.00    -0.030 A  
ENDBRANCH  30  31
ENDBRANCH  11  30
ENDBRANCH   9  11
ENDBRANCH   7   9
ENDBRANCH   5   7
ENDBRANCH   4   5
ENDBRANCH   2   4
TORSDOF 12
ENDMDL
MODEL      330
REMARK 921   NORMALIZED FREE ENERGY PREDICTED BY IDOCK:   -3.79 KCAL/MOL
REMARK 922        TOTAL FREE ENERGY PREDICTED BY IDOCK:   -8.17 KCAL/MOL
REMARK 923 INTER-LIGAND FREE ENERGY PREDICTED BY IDOCK:   -8.37 KCAL/MOL
REMARK 924 INTRA-LIGAND FREE ENERGY PREDICTED BY IDOCK:    0.20 KCAL/MOL
REMARK 927      BINDING AFFINITY PREDICTED BY RF-SCORE:    0.00 PKD
ROOT
HETATM    1  C   UNL     1     -11.503  15.602  70.613  1.00  0.00    -0.400 C  
HETATM    2  C   UNL     1     -12.320  14.474  71.249  1.00  0.00    -0.351 C  
HETATM    3  C   UNL     1     -13.809  14.843  71.304  1.00  0.00    -0.500 C  
ENDROOT
BRANCH   2   4
HETATM    4  O   UNL     1     -11.997  13.161  70.685  1.00  0.00    -0.308 OA 
BRANCH   4   5
HETATM    5  C   UNL     1     -11.878  13.020  69.341  1.00  0.00    -0.322 C  
HETATM    6  O   UNL     1     -12.358  13.822  68.538  1.00  0.00    -0.269 OA 
BRANCH   5   7
HETATM    7  C   UNL     1     -11.108  11.768  68.833  1.00  0.00    -0.243 C  
HETATM    8  C   UNL     1     -11.901  10.511  69.187  1.00  0.00    -0.218 C  
BRANCH   7   9
HETATM    9  N   UNL     1      -9.641  11.607  69.173  1.00  0.00    -0.399 NA 
HETATM   10  H   UNL     1      -9.488  10.804  69.783  1.00  0.00     0.000 HD 
BRANCH   9  11
HETATM   11  P   UNL     1      -8.635  11.514  67.730  1.00  0.00    -0.152 P  
HETATM   12  O   UNL     1      -7.336  11.894  68.484  1.00  0.00    -0.098 OA 
BRANCH  11  13
HETATM   13  C   UNL     1      -8.536  13.178  66.792  1.00  0.00    -0.036 C  
BRANCH  13  14
HETATM   14  O   UNL     1      -9.591  14.133  67.190  1.00  0.00    -0.229 OA 
BRANCH  14  15
HETATM   15  C   UNL     1     -10.572  14.608  66.229  1.00  0.00    -0.306 C  
HETATM   16  C   UNL     1     -10.174  14.164  64.815  1.00  0.00    -0.311 C  
BRANCH  15  17
HETATM   17  C   UNL     1     -10.924  16.084  66.349  1.00  0.00    -0.070 C  
BRANCH  17  18
HETATM   18  N   UNL     1      -9.806  16.986  66.339  1.00  0.00    -0.285 NA 
HETATM   19  C   UNL     1      -8.588  16.806  65.740  1.00  0.00     0.204 A  
HETATM   20  N   UNL     1      -7.826  17.871  65.858  1.00  0.00    -0.545 NA 
HETATM   21  C   UNL     1      -8.589  18.760  66.583  1.00  0.00    -0.302 A  
HETATM   22  C   UNL     1      -8.339  20.065  67.015  1.00  0.00    -0.323 A  
HETATM   23  N   UNL     1      -9.264  20.682  67.787  1.00  0.00    -0.182 NA 
HETATM   24  N   UNL     1      -7.171  20.733  66.682  1.00  0.00    -0.486 NA 
HETATM   25  C   UNL     1     -10.404  20.019  68.060  1.00  0.00    -0.361 A  
HETATM   26  H1  UNL     1      -6.988  21.686  66.998  1.00  0.00     0.000 HD 
HETATM   27  H2  UNL     1      -7.081  20.717  65.666  1.00  0.00     0.000 HD 
HETATM   28  N   UNL     1     -10.775  18.779  67.671  1.00  0.00    -0.420 NA 
HETATM   29  C   UNL     1      -9.808  18.215  66.931  1.00  0.00    -0.330 A  
ENDBRANCH  17  18
ENDBRANCH  15  17
ENDBRANCH  14  15
ENDBRANCH  13  14
ENDBRANCH  11  13
BRANCH  11  30
HETATM   30  O   UNL     1     -10.086  11.089  66.888  1.00  0.00    -0.197 OA 
BRANCH  30  31
HETATM   31  C   UNL     1      -9.939  10.681  65.575  1.00  0.00    -0.272 A  
HETATM   32  C   UNL     1      -8.884   9.810  65.300  1.00  0.00    -0.206 A  
HETATM   33  C   UNL     1     -10.523  10.676  63.220  1.00  0.00     0.137 A  
HETATM   34  C   UNL     1     -10.766  11.109  64.531  1.00  0.00    -0.368 A  
HETATM   35  C   UNL     1      -9.455   9.822  62.948  1.00  0.00     0.000 A  
HETATM   36  C   UNL     1      -8.637   9.391  63.988  1.00  0.00    -0.222 A  
ENDBRANCH  30  31
ENDBRANCH  11  30
ENDBRANCH   9  11
ENDBRANCH   7   9
ENDBRANCH   5   7
ENDBRANCH   4   5
ENDBRANCH   2   4
TORSDOF 12
ENDMDL
MODEL      331
REMARK 921   NORMALIZED FREE ENERGY PREDICTED BY IDOCK:   -3.78 KCAL/MOL
REMARK 922        TOTAL FREE ENERGY PREDICTED BY IDOCK:   -8.15 KCAL/MOL
REMARK 923 INTER-LIGAND FREE ENERGY PREDICTED BY IDOCK:   -8.83 KCAL/MOL
REMARK 924 INTRA-LIGAND FREE ENERGY PREDICTED BY IDOCK:    0.69 KCAL/MOL
REMARK 927      BINDING AFFINITY PREDICTED BY RF-SCORE:    0.00 PKD
ROOT
HETATM    1  C   UNL     1     -11.752   9.349  70.959  1.00  0.00    -0.395 C  
HETATM    2  C   UNL     1     -10.540   9.611  70.062  1.00  0.00    -0.260 C  
HETATM    3  C   UNL     1      -9.257   9.062  70.701  1.00  0.00    -0.279 C  
ENDROOT
BRANCH   2   4
HETATM    4  O   UNL     1     -10.783   9.235  68.667  1.00  0.00    -0.209 OA 
BRANCH   4   5
HETATM    5  C   UNL     1     -10.315   8.050  68.202  1.00  0.00    -0.200 C  
HETATM    6  O   UNL     1     -10.687   6.962  68.645  1.00  0.00    -0.217 OA 
BRANCH   5   7
HETATM    7  C   UNL     1      -9.248   8.112  67.072  1.00  0.00    -0.153 C  
HETATM    8  C   UNL     1      -7.952   8.695  67.635  1.00  0.00    -0.107 C  
BRANCH   7   9
HETATM    9  N   UNL     1      -9.605   8.747  65.744  1.00  0.00    -0.445 NA 
HETATM   10  H   UNL     1     -10.604   8.667  65.553  1.00  0.00     0.000 HD 
BRANCH   9  11
HETATM   11  P   UNL     1      -9.068  10.422  65.647  1.00  0.00    -0.203 P  
HETATM   12  O   UNL     1      -7.627  10.045  65.225  1.00  0.00    -0.125 OA 
BRANCH  11  13
HETATM   13  C   UNL     1      -8.377  11.073  67.307  1.00  0.00    -0.125 C  
BRANCH  13  14
HETATM   14  O   UNL     1      -7.303  12.074  67.136  1.00  0.00    -0.140 OA 
BRANCH  14  15
HETATM   15  C   UNL     1      -7.522  13.470  67.475  1.00  0.00    -0.167 C  
HETATM   16  C   UNL     1      -7.030  13.744  68.902  1.00  0.00    -0.111 C  
BRANCH  15  17
HETATM   17  C   UNL     1      -8.923  13.988  67.182  1.00  0.00    -0.232 C  
BRANCH  17  18
HETATM   18  N   UNL     1      -9.522  14.767  68.230  1.00  0.00    -0.201 NA 
HETATM   19  C   UNL     1      -9.264  16.071  68.560  1.00  0.00    -0.206 A  
HETATM   20  N   UNL     1     -10.057  16.495  69.519  1.00  0.00    -0.209 NA 
HETATM   21  C   UNL     1     -10.840  15.405  69.826  1.00  0.00    -0.288 A  
HETATM   22  C   UNL     1     -11.875  15.231  70.748  1.00  0.00    -0.338 A  
HETATM   23  N   UNL     1     -12.427  14.002  70.882  1.00  0.00    -0.348 NA 
HETATM   24  N   UNL     1     -12.340  16.278  71.528  1.00  0.00    -0.550 NA 
HETATM   25  C   UNL     1     -11.978  13.017  70.082  1.00  0.00    -0.303 A  
HETATM   26  H1  UNL     1     -13.096  16.152  72.202  1.00  0.00     0.000 HD 
HETATM   27  H2  UNL     1     -12.602  17.041  70.904  1.00  0.00     0.000 HD 
HETATM   28  N   UNL     1     -11.016  13.070  69.133  1.00  0.00    -0.189 NA 
HETATM   29  C   UNL     1     -10.496  14.305  69.066  1.00  0.00    -0.204 A  
ENDBRANCH  17  18
ENDBRANCH  15  17
ENDBRANCH  14  15
ENDBRANCH  13  14
ENDBRANCH  11  13
BRANCH  11  30
HETATM   30  O   UNL     1     -10.680  10.843  66.117  1.00  0.00    -0.235 OA 
BRANCH  30  31
HETATM   31  C   UNL     1     -11.281  11.866  65.407  1.00  0.00    -0.295 A  
HETATM   32  C   UNL     1     -11.066  11.887  64.028  1.00  0.00    -0.459 A  
HETATM   33  C   UNL     1     -12.600  13.893  65.207  1.00  0.00    -0.508 A  
HETATM   34  C   UNL     1     -12.058  12.869  65.996  1.00  0.00    -0.484 A  
HETATM   35  C   UNL     1     -12.365  13.921  63.833  1.00  0.00    -0.323 A  
HETATM   36  C   UNL     1     -11.598  12.919  63.246  1.00  0.00    -0.326 A  
ENDBRANCH  30  31
ENDBRANCH  11  30
ENDBRANCH   9  11
ENDBRANCH   7   9
ENDBRANCH   5   7
ENDBRANCH   4   5
ENDBRANCH   2   4
TORSDOF 12
ENDMDL
MODEL      332
REMARK 921   NORMALIZED FREE ENERGY PREDICTED BY IDOCK:   -3.78 KCAL/MOL
REMARK 922        TOTAL FREE ENERGY PREDICTED BY IDOCK:   -8.14 KCAL/MOL
REMARK 923 INTER-LIGAND FREE ENERGY PREDICTED BY IDOCK:   -7.34 KCAL/MOL
REMARK 924 INTRA-LIGAND FREE ENERGY PREDICTED BY IDOCK:   -0.80 KCAL/MOL
REMARK 927      BINDING AFFINITY PREDICTED BY RF-SCORE:    0.00 PKD
ROOT
HETATM    1  C   UNL     1     -10.214  11.544  64.148  1.00  0.00    -0.374 C  
HETATM    2  C   UNL     1     -10.594  13.027  64.144  1.00  0.00    -0.397 C  
HETATM    3  C   UNL     1     -12.048  13.217  63.690  1.00  0.00    -0.583 C  
ENDROOT
BRANCH   2   4
HETATM    4  O   UNL     1     -10.206  13.710  65.381  1.00  0.00    -0.310 OA 
BRANCH   4   5
HETATM    5  C   UNL     1     -10.705  13.282  66.566  1.00  0.00    -0.285 C  
HETATM    6  O   UNL     1     -11.910  13.110  66.763  1.00  0.00    -0.360 OA 
BRANCH   5   7
HETATM    7  C   UNL     1      -9.680  13.025  67.707  1.00  0.00    -0.218 C  
HETATM    8  C   UNL     1      -8.289  12.842  67.102  1.00  0.00    -0.164 C  
BRANCH   7   9
HETATM    9  N   UNL     1      -9.972  11.962  68.746  1.00  0.00    -0.381 NA 
HETATM   10  H   UNL     1     -10.965  11.934  68.978  1.00  0.00     0.000 HD 
BRANCH   9  11
HETATM   11  P   UNL     1      -9.386  10.376  68.251  1.00  0.00    -0.159 P  
HETATM   12  O   UNL     1     -10.190  10.376  66.927  1.00  0.00    -0.209 OA 
BRANCH  11  13
HETATM   13  C   UNL     1     -10.493   8.950  68.883  1.00  0.00    -0.205 C  
BRANCH  13  14
HETATM   14  O   UNL     1     -10.684   7.877  67.886  1.00  0.00    -0.177 OA 
BRANCH  14  15
HETATM   15  C   UNL     1     -10.441   6.486  68.228  1.00  0.00    -0.219 C  
HETATM   16  C   UNL     1     -10.565   5.611  66.974  1.00  0.00    -0.358 C  
BRANCH  15  17
HETATM   17  C   UNL     1     -11.223   5.976  69.431  1.00  0.00    -0.327 C  
BRANCH  17  18
HETATM   18  N   UNL     1     -10.428   5.428  70.495  1.00  0.00    -0.271 NA 
HETATM   19  C   UNL     1      -9.621   4.323  70.456  1.00  0.00    -0.197 A  
HETATM   20  N   UNL     1      -8.971   4.156  71.587  1.00  0.00    -0.115 NA 
HETATM   21  C   UNL     1      -9.403   5.191  72.387  1.00  0.00    -0.137 A  
HETATM   22  C   UNL     1      -9.069   5.561  73.692  1.00  0.00    -0.124 A  
HETATM   23  N   UNL     1      -9.719   6.604  74.259  1.00  0.00    -0.272 NA 
HETATM   24  N   UNL     1      -8.101   4.883  74.417  1.00  0.00    -0.095 NA 
HETATM   25  C   UNL     1     -10.626   7.263  73.514  1.00  0.00    -0.362 A  
HETATM   26  H1  UNL     1      -7.857   5.153  75.370  1.00  0.00     0.000 HD 
HETATM   27  H2  UNL     1      -7.243   4.877  73.864  1.00  0.00     0.000 HD 
HETATM   28  N   UNL     1     -11.006   7.027  72.238  1.00  0.00    -0.236 NA 
HETATM   29  C   UNL     1     -10.343   5.970  71.744  1.00  0.00    -0.215 A  
ENDBRANCH  17  18
ENDBRANCH  15  17
ENDBRANCH  14  15
ENDBRANCH  13  14
ENDBRANCH  11  13
BRANCH  11  30
HETATM   30  O   UNL     1      -8.488  10.377  69.730  1.00  0.00    -0.122 OA 
BRANCH  30  31
HETATM   31  C   UNL     1      -7.813   9.209  70.041  1.00  0.00    -0.099 A  
HETATM   32  C   UNL     1      -7.345   8.448  68.969  1.00  0.00    -0.088 A  
HETATM   33  C   UNL     1      -6.943   7.542  71.573  1.00  0.00    -0.054 A  
HETATM   34  C   UNL     1      -7.603   8.758  71.347  1.00  0.00    -0.131 A  
HETATM   35  C   UNL     1      -6.495   6.775  70.499  1.00  0.00    -0.047 A  
HETATM   36  C   UNL     1      -6.698   7.228  69.199  1.00  0.00    -0.049 A  
ENDBRANCH  30  31
ENDBRANCH  11  30
ENDBRANCH   9  11
ENDBRANCH   7   9
ENDBRANCH   5   7
ENDBRANCH   4   5
ENDBRANCH   2   4
TORSDOF 12
ENDMDL
MODEL      333
REMARK 921   NORMALIZED FREE ENERGY PREDICTED BY IDOCK:   -3.76 KCAL/MOL
REMARK 922        TOTAL FREE ENERGY PREDICTED BY IDOCK:   -8.11 KCAL/MOL
REMARK 923 INTER-LIGAND FREE ENERGY PREDICTED BY IDOCK:   -6.47 KCAL/MOL
REMARK 924 INTRA-LIGAND FREE ENERGY PREDICTED BY IDOCK:   -1.64 KCAL/MOL
REMARK 927      BINDING AFFINITY PREDICTED BY RF-SCORE:    0.00 PKD
ROOT
HETATM    1  C   UNL     1      -9.301   3.967  72.153  1.00  0.00    -0.181 C  
HETATM    2  C   UNL     1      -9.384   5.307  71.417  1.00  0.00    -0.148 C  
HETATM    3  C   UNL     1     -10.752   5.474  70.741  1.00  0.00    -0.294 C  
ENDROOT
BRANCH   2   4
HETATM    4  O   UNL     1      -8.925   6.429  72.240  1.00  0.00    -0.139 OA 
BRANCH   4   5
HETATM    5  C   UNL     1      -7.597   6.608  72.447  1.00  0.00    -0.094 C  
HETATM    6  O   UNL     1      -7.021   6.224  73.467  1.00  0.00    -0.078 OA 
BRANCH   5   7
HETATM    7  C   UNL     1      -6.806   7.349  71.331  1.00  0.00    -0.050 C  
HETATM    8  C   UNL     1      -6.060   8.533  71.945  1.00  0.00    -0.060 C  
BRANCH   7   9
HETATM    9  N   UNL     1      -7.517   7.749  70.055  1.00  0.00    -0.079 NA 
HETATM   10  H   UNL     1      -7.465   8.756  69.902  1.00  0.00     0.000 HD 
BRANCH   9  11
HETATM   11  P   UNL     1      -6.916   6.858  68.659  1.00  0.00    -0.080 P  
HETATM   12  O   UNL     1      -5.431   7.006  69.071  1.00  0.00    -0.017 OA 
BRANCH  11  13
HETATM   13  C   UNL     1      -6.576   7.989  67.154  1.00  0.00    -0.057 C  
BRANCH  13  14
HETATM   14  O   UNL     1      -7.043   9.376  67.353  1.00  0.00    -0.084 OA 
BRANCH  14  15
HETATM   15  C   UNL     1      -8.163   9.905  66.592  1.00  0.00    -0.121 C  
HETATM   16  C   UNL     1      -8.308   9.134  65.274  1.00  0.00    -0.152 C  
BRANCH  15  17
HETATM   17  C   UNL     1      -8.174  11.420  66.439  1.00  0.00    -0.124 C  
BRANCH  17  18
HETATM   18  N   UNL     1      -9.465  12.041  66.560  1.00  0.00    -0.222 NA 
HETATM   19  C   UNL     1     -10.090  12.461  67.703  1.00  0.00    -0.198 A  
HETATM   20  N   UNL     1     -11.229  13.065  67.439  1.00  0.00    -0.276 NA 
HETATM   21  C   UNL     1     -11.340  13.005  66.068  1.00  0.00    -0.310 A  
HETATM   22  C   UNL     1     -12.317  13.483  65.191  1.00  0.00    -0.449 A  
HETATM   23  N   UNL     1     -12.195  13.210  63.871  1.00  0.00    -0.594 NA 
HETATM   24  N   UNL     1     -13.405  14.215  65.641  1.00  0.00    -0.669 NA 
HETATM   25  C   UNL     1     -11.107  12.529  63.464  1.00  0.00    -0.439 A  
HETATM   26  H1  UNL     1     -14.119  14.564  65.000  1.00  0.00     0.000 HD 
HETATM   27  H2  UNL     1     -13.049  15.008  66.174  1.00  0.00     0.000 HD 
HETATM   28  N   UNL     1     -10.082  12.051  64.205  1.00  0.00    -0.313 NA 
HETATM   29  C   UNL     1     -10.275  12.334  65.502  1.00  0.00    -0.269 A  
ENDBRANCH  17  18
ENDBRANCH  15  17
ENDBRANCH  14  15
ENDBRANCH  13  14
ENDBRANCH  11  13
BRANCH  11  30
HETATM   30  O   UNL     1      -8.576   6.693  68.199  1.00  0.00    -0.116 OA 
BRANCH  30  31
HETATM   31  C   UNL     1      -8.906   5.557  67.479  1.00  0.00    -0.105 A  
HETATM   32  C   UNL     1      -8.341   4.355  67.908  1.00  0.00    -0.095 A  
HETATM   33  C   UNL     1      -9.992   4.372  65.662  1.00  0.00    -0.247 A  
HETATM   34  C   UNL     1      -9.740   5.563  66.358  1.00  0.00    -0.182 A  
HETATM   35  C   UNL     1      -9.409   3.177  66.082  1.00  0.00    -0.106 A  
HETATM   36  C   UNL     1      -8.585   3.170  67.203  1.00  0.00    -0.122 A  
ENDBRANCH  30  31
ENDBRANCH  11  30
ENDBRANCH   9  11
ENDBRANCH   7   9
ENDBRANCH   5   7
ENDBRANCH   4   5
ENDBRANCH   2   4
TORSDOF 12
ENDMDL
MODEL      334
REMARK 921   NORMALIZED FREE ENERGY PREDICTED BY IDOCK:   -3.75 KCAL/MOL
REMARK 922        TOTAL FREE ENERGY PREDICTED BY IDOCK:   -8.10 KCAL/MOL
REMARK 923 INTER-LIGAND FREE ENERGY PREDICTED BY IDOCK:   -7.04 KCAL/MOL
REMARK 924 INTRA-LIGAND FREE ENERGY PREDICTED BY IDOCK:   -1.06 KCAL/MOL
REMARK 927      BINDING AFFINITY PREDICTED BY RF-SCORE:    0.00 PKD
ROOT
HETATM    1  C   UNL     1     -10.244   3.821  74.259  1.00  0.00    -0.237 C  
HETATM    2  C   UNL     1      -9.061   4.618  73.705  1.00  0.00    -0.105 C  
HETATM    3  C   UNL     1      -7.804   4.394  74.558  1.00  0.00    -0.087 C  
ENDROOT
BRANCH   2   4
HETATM    4  O   UNL     1      -8.901   4.452  72.258  1.00  0.00    -0.111 OA 
BRANCH   4   5
HETATM    5  C   UNL     1      -8.302   5.429  71.534  1.00  0.00    -0.122 C  
HETATM    6  O   UNL     1      -7.129   5.768  71.708  1.00  0.00    -0.077 OA 
BRANCH   5   7
HETATM    7  C   UNL     1      -9.172   6.141  70.459  1.00  0.00    -0.157 C  
HETATM    8  C   UNL     1     -10.636   6.109  70.895  1.00  0.00    -0.298 C  
BRANCH   7   9
HETATM    9  N   UNL     1      -9.023   5.751  69.003  1.00  0.00    -0.117 NA 
HETATM   10  H   UNL     1      -9.874   5.315  68.648  1.00  0.00     0.000 HD 
BRANCH   9  11
HETATM   11  P   UNL     1      -8.538   7.115  68.001  1.00  0.00    -0.126 P  
HETATM   12  O   UNL     1      -7.383   7.533  68.944  1.00  0.00    -0.089 OA 
BRANCH  11  13
HETATM   13  C   UNL     1      -9.453   8.731  68.460  1.00  0.00    -0.145 C  
BRANCH  13  14
HETATM   14  O   UNL     1      -9.701   9.608  67.298  1.00  0.00    -0.154 OA 
BRANCH  14  15
HETATM   15  C   UNL     1     -10.689  10.673  67.361  1.00  0.00    -0.276 C  
HETATM   16  C   UNL     1     -10.959  11.218  65.953  1.00  0.00    -0.221 C  
BRANCH  15  17
HETATM   17  C   UNL     1     -10.410  11.743  68.407  1.00  0.00    -0.214 C  
BRANCH  17  18
HETATM   18  N   UNL     1     -11.382  11.840  69.461  1.00  0.00    -0.263 NA 
HETATM   19  C   UNL     1     -11.929  10.823  70.195  1.00  0.00    -0.349 A  
HETATM   20  N   UNL     1     -12.724  11.277  71.139  1.00  0.00    -0.401 NA 
HETATM   21  C   UNL     1     -12.697  12.645  70.982  1.00  0.00    -0.226 A  
HETATM   22  C   UNL     1     -13.322  13.676  71.687  1.00  0.00    -0.346 A  
HETATM   23  N   UNL     1     -13.164  14.949  71.254  1.00  0.00    -0.380 NA 
HETATM   24  N   UNL     1     -14.102  13.426  72.806  1.00  0.00    -0.626 NA 
HETATM   25  C   UNL     1     -12.370  15.160  70.188  1.00  0.00    -0.341 A  
HETATM   26  H1  UNL     1     -14.559  14.179  73.321  1.00  0.00     0.000 HD 
HETATM   27  H2  UNL     1     -13.538  12.892  73.467  1.00  0.00     0.000 HD 
HETATM   28  N   UNL     1     -11.685  14.256  69.451  1.00  0.00    -0.295 NA 
HETATM   29  C   UNL     1     -11.902  13.017  69.917  1.00  0.00    -0.307 A  
ENDBRANCH  17  18
ENDBRANCH  15  17
ENDBRANCH  14  15
ENDBRANCH  13  14
ENDBRANCH  11  13
BRANCH  11  30
HETATM   30  O   UNL     1      -9.828   6.648  66.946  1.00  0.00    -0.155 OA 
BRANCH  30  31
HETATM   31  C   UNL     1      -9.522   5.707  65.978  1.00  0.00    -0.110 A  
HETATM   32  C   UNL     1      -8.598   6.085  65.003  1.00  0.00    -0.043 A  
HETATM   33  C   UNL     1      -9.761   3.555  64.884  1.00  0.00    -0.157 A  
HETATM   34  C   UNL     1     -10.098   4.435  65.922  1.00  0.00    -0.262 A  
HETATM   35  C   UNL     1      -8.853   3.945  63.900  1.00  0.00    -0.112 A  
HETATM   36  C   UNL     1      -8.274   5.209  63.961  1.00  0.00    -0.131 A  
ENDBRANCH  30  31
ENDBRANCH  11  30
ENDBRANCH   9  11
ENDBRANCH   7   9
ENDBRANCH   5   7
ENDBRANCH   4   5
ENDBRANCH   2   4
TORSDOF 12
ENDMDL
MODEL      335
REMARK 921   NORMALIZED FREE ENERGY PREDICTED BY IDOCK:   -3.71 KCAL/MOL
REMARK 922        TOTAL FREE ENERGY PREDICTED BY IDOCK:   -8.03 KCAL/MOL
REMARK 923 INTER-LIGAND FREE ENERGY PREDICTED BY IDOCK:   -8.67 KCAL/MOL
REMARK 924 INTRA-LIGAND FREE ENERGY PREDICTED BY IDOCK:    0.64 KCAL/MOL
REMARK 927      BINDING AFFINITY PREDICTED BY RF-SCORE:    0.00 PKD
ROOT
HETATM    1  C   UNL     1      -5.216   9.470  65.400  1.00  0.00    -0.040 C  
HETATM    2  C   UNL     1      -6.175  10.344  64.587  1.00  0.00    -0.080 C  
HETATM    3  C   UNL     1      -6.319   9.810  63.155  1.00  0.00    -0.114 C  
ENDROOT
BRANCH   2   4
HETATM    4  O   UNL     1      -7.422  10.624  65.304  1.00  0.00    -0.103 OA 
BRANCH   4   5
HETATM    5  C   UNL     1      -7.381  11.291  66.483  1.00  0.00    -0.101 C  
HETATM    6  O   UNL     1      -6.861  12.402  66.608  1.00  0.00     0.123 OA 
BRANCH   5   7
HETATM    7  C   UNL     1      -8.014  10.580  67.714  1.00  0.00    -0.106 C  
HETATM    8  C   UNL     1      -8.536   9.208  67.288  1.00  0.00    -0.121 C  
BRANCH   7   9
HETATM    9  N   UNL     1      -9.030  11.317  68.559  1.00  0.00    -0.166 NA 
HETATM   10  H   UNL     1      -8.702  12.252  68.802  1.00  0.00     0.000 HD 
BRANCH   9  11
HETATM   11  P   UNL     1     -10.612  11.378  67.786  1.00  0.00    -0.222 P  
HETATM   12  O   UNL     1     -10.330  10.158  66.875  1.00  0.00    -0.224 OA 
BRANCH  11  13
HETATM   13  C   UNL     1     -10.632  12.492  66.232  1.00  0.00    -0.248 C  
BRANCH  13  14
HETATM   14  O   UNL     1     -11.382  13.750  66.428  1.00  0.00    -0.305 OA 
BRANCH  14  15
HETATM   15  C   UNL     1     -11.107  14.921  65.612  1.00  0.00    -0.348 C  
HETATM   16  C   UNL     1     -11.979  14.894  64.351  1.00  0.00    -0.408 C  
BRANCH  15  17
HETATM   17  C   UNL     1      -9.630  15.186  65.351  1.00  0.00    -0.092 C  
BRANCH  17  18
HETATM   18  N   UNL     1      -8.997  16.092  66.269  1.00  0.00    -0.319 NA 
HETATM   19  C   UNL     1      -7.979  15.824  67.145  1.00  0.00    -0.216 A  
HETATM   20  N   UNL     1      -7.582  16.908  67.775  1.00  0.00    -0.166 NA 
HETATM   21  C   UNL     1      -8.400  17.905  67.292  1.00  0.00    -0.225 A  
HETATM   22  C   UNL     1      -8.460  19.274  67.564  1.00  0.00    -0.291 A  
HETATM   23  N   UNL     1      -9.435  20.010  66.981  1.00  0.00    -0.369 NA 
HETATM   24  N   UNL     1      -7.557  19.888  68.418  1.00  0.00    -0.296 NA 
HETATM   25  C   UNL     1     -10.271  19.390  66.128  1.00  0.00    -0.484 A  
HETATM   26  H1  UNL     1      -7.601  20.888  68.616  1.00  0.00     0.000 HD 
HETATM   27  H2  UNL     1      -6.617  19.676  68.083  1.00  0.00     0.000 HD 
HETATM   28  N   UNL     1     -10.290  18.090  65.757  1.00  0.00    -0.618 NA 
HETATM   29  C   UNL     1      -9.317  17.413  66.386  1.00  0.00    -0.252 A  
ENDBRANCH  17  18
ENDBRANCH  15  17
ENDBRANCH  14  15
ENDBRANCH  13  14
ENDBRANCH  11  13
BRANCH  11  30
HETATM   30  O   UNL     1     -10.928  12.740  68.805  1.00  0.00    -0.240 OA 
BRANCH  30  31
HETATM   31  C   UNL     1     -11.750  12.517  69.895  1.00  0.00    -0.255 A  
HETATM   32  C   UNL     1     -12.249  13.645  70.548  1.00  0.00    -0.438 A  
HETATM   33  C   UNL     1     -12.889  11.108  71.509  1.00  0.00    -0.542 A  
HETATM   34  C   UNL     1     -12.079  11.245  70.373  1.00  0.00    -0.474 A  
HETATM   35  C   UNL     1     -13.368  12.238  72.170  1.00  0.00    -0.473 A  
HETATM   36  C   UNL     1     -13.047  13.504  71.690  1.00  0.00    -0.459 A  
ENDBRANCH  30  31
ENDBRANCH  11  30
ENDBRANCH   9  11
ENDBRANCH   7   9
ENDBRANCH   5   7
ENDBRANCH   4   5
ENDBRANCH   2   4
TORSDOF 12
ENDMDL
MODEL      336
REMARK 921   NORMALIZED FREE ENERGY PREDICTED BY IDOCK:   -3.71 KCAL/MOL
REMARK 922        TOTAL FREE ENERGY PREDICTED BY IDOCK:   -8.03 KCAL/MOL
REMARK 923 INTER-LIGAND FREE ENERGY PREDICTED BY IDOCK:   -7.63 KCAL/MOL
REMARK 924 INTRA-LIGAND FREE ENERGY PREDICTED BY IDOCK:   -0.39 KCAL/MOL
REMARK 927      BINDING AFFINITY PREDICTED BY RF-SCORE:    0.00 PKD
ROOT
HETATM    1  C   UNL     1      -6.440  11.910  67.115  1.00  0.00    -0.146 C  
HETATM    2  C   UNL     1      -7.466  11.036  67.840  1.00  0.00    -0.093 C  
HETATM    3  C   UNL     1      -6.923  10.569  69.198  1.00  0.00    -0.080 C  
ENDROOT
BRANCH   2   4
HETATM    4  O   UNL     1      -8.805  11.629  67.846  1.00  0.00    -0.143 OA 
BRANCH   4   5
HETATM    5  C   UNL     1      -9.659  11.366  66.826  1.00  0.00    -0.188 C  
HETATM    6  O   UNL     1      -9.296  11.292  65.650  1.00  0.00    -0.216 OA 
BRANCH   5   7
HETATM    7  C   UNL     1     -11.157  11.171  67.197  1.00  0.00    -0.287 C  
HETATM    8  C   UNL     1     -11.699  12.468  67.797  1.00  0.00    -0.419 C  
BRANCH   7   9
HETATM    9  N   UNL     1     -11.570   9.969  68.020  1.00  0.00    -0.621 NA 
HETATM   10  H   UNL     1     -12.456   9.584  67.694  1.00  0.00     0.000 HD 
BRANCH   9  11
HETATM   11  P   UNL     1     -10.314   8.735  68.064  1.00  0.00    -0.174 P  
HETATM   12  O   UNL     1     -10.470   8.373  66.567  1.00  0.00    -0.249 OA 
BRANCH  11  13
HETATM   13  C   UNL     1     -10.993   7.006  68.518  1.00  0.00    -0.077 C  
BRANCH  13  14
HETATM   14  O   UNL     1     -10.360   5.914  67.751  1.00  0.00    -0.167 OA 
BRANCH  14  15
HETATM   15  C   UNL     1      -8.936   5.645  67.867  1.00  0.00    -0.108 C  
HETATM   16  C   UNL     1      -8.406   5.066  66.549  1.00  0.00    -0.107 C  
BRANCH  15  17
HETATM   17  C   UNL     1      -8.531   4.861  69.107  1.00  0.00    -0.081 C  
BRANCH  17  18
HETATM   18  N   UNL     1      -8.429   5.632  70.316  1.00  0.00    -0.121 NA 
HETATM   19  C   UNL     1      -7.556   6.650  70.591  1.00  0.00    -0.095 A  
HETATM   20  N   UNL     1      -7.797   7.193  71.764  1.00  0.00    -0.092 NA 
HETATM   21  C   UNL     1      -8.858   6.472  72.265  1.00  0.00    -0.134 A  
HETATM   22  C   UNL     1      -9.576   6.578  73.459  1.00  0.00    -0.158 A  
HETATM   23  N   UNL     1     -10.543   5.668  73.719  1.00  0.00    -0.270 NA 
HETATM   24  N   UNL     1      -9.314   7.580  74.380  1.00  0.00    -0.407 NA 
HETATM   25  C   UNL     1     -10.797   4.731  72.786  1.00  0.00    -0.210 A  
HETATM   26  H1  UNL     1      -9.838   7.658  75.252  1.00  0.00     0.000 HD 
HETATM   27  H2  UNL     1      -9.380   8.475  73.895  1.00  0.00     0.000 HD 
HETATM   28  N   UNL     1     -10.203   4.550  71.585  1.00  0.00    -0.177 NA 
HETATM   29  C   UNL     1      -9.241   5.467  71.400  1.00  0.00    -0.146 A  
ENDBRANCH  17  18
ENDBRANCH  15  17
ENDBRANCH  14  15
ENDBRANCH  13  14
ENDBRANCH  11  13
BRANCH  11  30
HETATM   30  O   UNL     1     -10.138   9.141  69.737  1.00  0.00    -0.184 OA 
BRANCH  30  31
HETATM   31  C   UNL     1     -11.295   9.135  70.497  1.00  0.00    -0.257 A  
HETATM   32  C   UNL     1     -11.864  10.376  70.787  1.00  0.00    -0.466 A  
HETATM   33  C   UNL     1     -13.044   8.059  71.789  1.00  0.00    -0.360 A  
HETATM   34  C   UNL     1     -11.892   7.972  70.993  1.00  0.00    -0.280 A  
HETATM   35  C   UNL     1     -13.596   9.301  72.093  1.00  0.00    -0.536 A  
HETATM   36  C   UNL     1     -13.005  10.458  71.592  1.00  0.00    -0.581 A  
ENDBRANCH  30  31
ENDBRANCH  11  30
ENDBRANCH   9  11
ENDBRANCH   7   9
ENDBRANCH   5   7
ENDBRANCH   4   5
ENDBRANCH   2   4
TORSDOF 12
ENDMDL
MODEL      337
REMARK 921   NORMALIZED FREE ENERGY PREDICTED BY IDOCK:   -3.70 KCAL/MOL
REMARK 922        TOTAL FREE ENERGY PREDICTED BY IDOCK:   -8.02 KCAL/MOL
REMARK 923 INTER-LIGAND FREE ENERGY PREDICTED BY IDOCK:   -6.65 KCAL/MOL
REMARK 924 INTRA-LIGAND FREE ENERGY PREDICTED BY IDOCK:   -1.37 KCAL/MOL
REMARK 927      BINDING AFFINITY PREDICTED BY RF-SCORE:    0.00 PKD
ROOT
HETATM    1  C   UNL     1     -11.305  10.358  68.699  1.00  0.00    -0.277 C  
HETATM    2  C   UNL     1     -10.974   9.106  69.514  1.00  0.00    -0.123 C  
HETATM    3  C   UNL     1     -10.438   7.989  68.607  1.00  0.00    -0.196 C  
ENDROOT
BRANCH   2   4
HETATM    4  O   UNL     1     -10.181   9.408  70.709  1.00  0.00    -0.259 OA 
BRANCH   4   5
HETATM    5  C   UNL     1      -9.126   8.619  71.029  1.00  0.00    -0.199 C  
HETATM    6  O   UNL     1      -9.252   7.518  71.569  1.00  0.00    -0.136 OA 
BRANCH   5   7
HETATM    7  C   UNL     1      -7.710   9.172  70.697  1.00  0.00    -0.138 C  
HETATM    8  C   UNL     1      -6.724   8.702  71.765  1.00  0.00    -0.085 C  
BRANCH   7   9
HETATM    9  N   UNL     1      -7.538  10.647  70.400  1.00  0.00    -0.345 NA 
HETATM   10  H   UNL     1      -7.127  11.139  71.193  1.00  0.00     0.000 HD 
BRANCH   9  11
HETATM   11  P   UNL     1      -6.610  10.920  68.928  1.00  0.00    -0.069 P  
HETATM   12  O   UNL     1      -5.398  11.524  69.679  1.00  0.00    -0.055 OA 
BRANCH  11  13
HETATM   13  C   UNL     1      -6.943  12.637  68.154  1.00  0.00    -0.096 C  
BRANCH  13  14
HETATM   14  O   UNL     1      -7.978  12.608  67.100  1.00  0.00    -0.170 OA 
BRANCH  14  15
HETATM   15  C   UNL     1      -9.063  13.575  67.090  1.00  0.00    -0.232 C  
HETATM   16  C   UNL     1     -10.287  12.979  66.385  1.00  0.00    -0.287 C  
BRANCH  15  17
HETATM   17  C   UNL     1      -8.675  14.967  66.609  1.00  0.00    -0.227 C  
BRANCH  17  18
HETATM   18  N   UNL     1      -9.384  16.052  67.229  1.00  0.00    -0.209 NA 
HETATM   19  C   UNL     1     -10.698  16.085  67.614  1.00  0.00    -0.320 A  
HETATM   20  N   UNL     1     -10.995  17.208  68.229  1.00  0.00    -0.309 NA 
HETATM   21  C   UNL     1      -9.822  17.929  68.215  1.00  0.00    -0.348 A  
HETATM   22  C   UNL     1      -9.496  19.189  68.724  1.00  0.00    -0.399 A  
HETATM   23  N   UNL     1      -8.257  19.682  68.495  1.00  0.00    -0.326 NA 
HETATM   24  N   UNL     1     -10.410  19.943  69.445  1.00  0.00    -0.575 NA 
HETATM   25  C   UNL     1      -7.383  18.908  67.824  1.00  0.00    -0.234 A  
HETATM   26  H1  UNL     1     -10.172  20.863  69.816  1.00  0.00     0.000 HD 
HETATM   27  H2  UNL     1     -10.746  19.370  70.219  1.00  0.00     0.000 HD 
HETATM   28  N   UNL     1      -7.565  17.668  67.319  1.00  0.00    -0.195 NA 
HETATM   29  C   UNL     1      -8.817  17.248  67.560  1.00  0.00    -0.218 A  
ENDBRANCH  17  18
ENDBRANCH  15  17
ENDBRANCH  14  15
ENDBRANCH  13  14
ENDBRANCH  11  13
BRANCH  11  30
HETATM   30  O   UNL     1      -7.964  10.244  68.089  1.00  0.00    -0.106 OA 
BRANCH  30  31
HETATM   31  C   UNL     1      -7.675   9.406  67.027  1.00  0.00    -0.091 A  
HETATM   32  C   UNL     1      -6.646   8.483  67.216  1.00  0.00    -0.059 A  
HETATM   33  C   UNL     1      -7.954   8.594  64.758  1.00  0.00    -0.141 A  
HETATM   34  C   UNL     1      -8.336   9.455  65.796  1.00  0.00    -0.126 A  
HETATM   35  C   UNL     1      -6.912   7.687  64.944  1.00  0.00    -0.055 A  
HETATM   36  C   UNL     1      -6.259   7.633  66.173  1.00  0.00    -0.042 A  
ENDBRANCH  30  31
ENDBRANCH  11  30
ENDBRANCH   9  11
ENDBRANCH   7   9
ENDBRANCH   5   7
ENDBRANCH   4   5
ENDBRANCH   2   4
TORSDOF 12
ENDMDL
MODEL      338
REMARK 921   NORMALIZED FREE ENERGY PREDICTED BY IDOCK:   -3.70 KCAL/MOL
REMARK 922        TOTAL FREE ENERGY PREDICTED BY IDOCK:   -8.01 KCAL/MOL
REMARK 923 INTER-LIGAND FREE ENERGY PREDICTED BY IDOCK:   -6.75 KCAL/MOL
REMARK 924 INTRA-LIGAND FREE ENERGY PREDICTED BY IDOCK:   -1.26 KCAL/MOL
REMARK 927      BINDING AFFINITY PREDICTED BY RF-SCORE:    0.00 PKD
ROOT
HETATM    1  C   UNL     1      -8.903   2.725  74.306  1.00  0.00    -0.080 C  
HETATM    2  C   UNL     1      -7.646   3.422  73.780  1.00  0.00    -0.061 C  
HETATM    3  C   UNL     1      -6.478   2.432  73.670  1.00  0.00    -0.020 C  
ENDROOT
BRANCH   2   4
HETATM    4  O   UNL     1      -7.914   4.245  72.597  1.00  0.00    -0.083 OA 
BRANCH   4   5
HETATM    5  C   UNL     1      -7.709   5.584  72.653  1.00  0.00    -0.099 C  
HETATM    6  O   UNL     1      -6.757   6.092  73.248  1.00  0.00    -0.072 OA 
BRANCH   5   7
HETATM    7  C   UNL     1      -8.756   6.484  71.936  1.00  0.00    -0.130 C  
HETATM    8  C   UNL     1     -10.118   5.791  71.964  1.00  0.00    -0.225 C  
BRANCH   7   9
HETATM    9  N   UNL     1      -8.447   7.034  70.560  1.00  0.00    -0.132 NA 
HETATM   10  H   UNL     1      -9.123   6.708  69.870  1.00  0.00     0.000 HD 
BRANCH   9  11
HETATM   11  P   UNL     1      -8.335   8.792  70.562  1.00  0.00    -0.185 P  
HETATM   12  O   UNL     1      -8.513   8.907  72.096  1.00  0.00    -0.382 OA 
BRANCH  11  13
HETATM   13  C   UNL     1     -10.035   9.640  70.337  1.00  0.00    -0.271 C  
BRANCH  13  14
HETATM   14  O   UNL     1     -11.076   9.102  71.237  1.00  0.00    -0.278 OA 
BRANCH  14  15
HETATM   15  C   UNL     1     -12.387   9.723  71.319  1.00  0.00    -0.371 C  
HETATM   16  C   UNL     1     -13.479   8.668  71.097  1.00  0.00    -0.058 C  
BRANCH  15  17
HETATM   17  C   UNL     1     -12.552  10.985  70.484  1.00  0.00    -0.304 C  
BRANCH  17  18
HETATM   18  N   UNL     1     -12.770  12.193  71.231  1.00  0.00    -0.330 NA 
HETATM   19  C   UNL     1     -13.495  12.349  72.382  1.00  0.00    -0.189 A  
HETATM   20  N   UNL     1     -13.414  13.577  72.844  1.00  0.00    -0.569 NA 
HETATM   21  C   UNL     1     -12.619  14.236  71.933  1.00  0.00    -0.315 A  
HETATM   22  C   UNL     1     -12.158  15.554  71.880  1.00  0.00    -0.412 A  
HETATM   23  N   UNL     1     -11.434  15.947  70.805  1.00  0.00    -0.379 NA 
HETATM   24  N   UNL     1     -12.430  16.463  72.890  1.00  0.00    -0.386 NA 
HETATM   25  C   UNL     1     -11.156  15.028  69.861  1.00  0.00    -0.274 A  
HETATM   26  H1  UNL     1     -12.094  17.425  72.852  1.00  0.00     0.000 HD 
HETATM   27  H2  UNL     1     -12.114  16.056  73.771  1.00  0.00     0.000 HD 
HETATM   28  N   UNL     1     -11.510  13.724  69.818  1.00  0.00    -0.233 NA 
HETATM   29  C   UNL     1     -12.241  13.406  70.897  1.00  0.00    -0.282 A  
ENDBRANCH  17  18
ENDBRANCH  15  17
ENDBRANCH  14  15
ENDBRANCH  13  14
ENDBRANCH  11  13
BRANCH  11  30
HETATM   30  O   UNL     1      -8.136   8.664  68.848  1.00  0.00    -0.114 OA 
BRANCH  30  31
HETATM   31  C   UNL     1      -7.486   9.714  68.223  1.00  0.00    -0.077 A  
HETATM   32  C   UNL     1      -8.289  10.678  67.612  1.00  0.00    -0.114 A  
HETATM   33  C   UNL     1      -5.516  10.915  67.472  1.00  0.00    -0.044 A  
HETATM   34  C   UNL     1      -6.095   9.839  68.160  1.00  0.00    -0.050 A  
HETATM   35  C   UNL     1      -6.323  11.864  66.846  1.00  0.00    -0.107 A  
HETATM   36  C   UNL     1      -7.708  11.743  66.916  1.00  0.00    -0.129 A  
ENDBRANCH  30  31
ENDBRANCH  11  30
ENDBRANCH   9  11
ENDBRANCH   7   9
ENDBRANCH   5   7
ENDBRANCH   4   5
ENDBRANCH   2   4
TORSDOF 12
ENDMDL
MODEL      339
REMARK 921   NORMALIZED FREE ENERGY PREDICTED BY IDOCK:   -3.70 KCAL/MOL
REMARK 922        TOTAL FREE ENERGY PREDICTED BY IDOCK:   -8.01 KCAL/MOL
REMARK 923 INTER-LIGAND FREE ENERGY PREDICTED BY IDOCK:   -8.80 KCAL/MOL
REMARK 924 INTRA-LIGAND FREE ENERGY PREDICTED BY IDOCK:    0.79 KCAL/MOL
REMARK 927      BINDING AFFINITY PREDICTED BY RF-SCORE:    0.00 PKD
ROOT
HETATM    1  C   UNL     1      -6.950   9.243  68.253  1.00  0.00    -0.072 C  
HETATM    2  C   UNL     1      -7.242  10.359  69.258  1.00  0.00    -0.100 C  
HETATM    3  C   UNL     1      -6.872   9.922  70.683  1.00  0.00    -0.087 C  
ENDROOT
BRANCH   2   4
HETATM    4  O   UNL     1      -6.722  11.658  68.823  1.00  0.00    -0.065 OA 
BRANCH   4   5
HETATM    5  C   UNL     1      -7.062  12.140  67.602  1.00  0.00    -0.124 C  
HETATM    6  O   UNL     1      -6.283  12.155  66.647  1.00  0.00    -0.148 OA 
BRANCH   5   7
HETATM    7  C   UNL     1      -8.503  12.704  67.447  1.00  0.00    -0.186 C  
HETATM    8  C   UNL     1      -9.489  11.543  67.331  1.00  0.00    -0.171 C  
BRANCH   7   9
HETATM    9  N   UNL     1      -8.779  13.767  66.404  1.00  0.00    -0.427 NA 
HETATM   10  H   UNL     1      -9.705  13.651  65.993  1.00  0.00     0.000 HD 
BRANCH   9  11
HETATM   11  P   UNL     1      -8.563  15.393  67.045  1.00  0.00    -0.270 P  
HETATM   12  O   UNL     1      -7.130  15.113  67.561  1.00  0.00    -0.172 OA 
BRANCH  11  13
HETATM   13  C   UNL     1      -9.148  15.556  68.858  1.00  0.00    -0.219 C  
BRANCH  13  14
HETATM   14  O   UNL     1     -10.528  15.071  69.068  1.00  0.00    -0.229 OA 
BRANCH  14  15
HETATM   15  C   UNL     1     -11.377  15.650  70.096  1.00  0.00    -0.344 C  
HETATM   16  C   UNL     1     -10.679  15.560  71.459  1.00  0.00     0.247 C  
BRANCH  15  17
HETATM   17  C   UNL     1     -12.817  15.156  70.092  1.00  0.00    -0.164 C  
BRANCH  17  18
HETATM   18  N   UNL     1     -13.085  14.038  70.953  1.00  0.00    -0.275 NA 
HETATM   19  C   UNL     1     -13.761  14.038  72.144  1.00  0.00    -0.509 A  
HETATM   20  N   UNL     1     -13.897  12.822  72.626  1.00  0.00    -0.408 NA 
HETATM   21  C   UNL     1     -13.260  12.016  71.709  1.00  0.00    -0.317 A  
HETATM   22  C   UNL     1     -13.077  10.632  71.654  1.00  0.00    -0.450 A  
HETATM   23  N   UNL     1     -12.333  10.114  70.650  1.00  0.00    -0.299 NA 
HETATM   24  N   UNL     1     -13.629   9.786  72.604  1.00  0.00    -0.638 NA 
HETATM   25  C   UNL     1     -11.844  10.960  69.724  1.00  0.00    -0.345 A  
HETATM   26  H1  UNL     1     -13.496   8.775  72.564  1.00  0.00     0.000 HD 
HETATM   27  H2  UNL     1     -14.632   9.967  72.639  1.00  0.00     0.000 HD 
HETATM   28  N   UNL     1     -11.983  12.303  69.648  1.00  0.00    -0.301 NA 
HETATM   29  C   UNL     1     -12.710  12.754  70.681  1.00  0.00    -0.077 A  
ENDBRANCH  17  18
ENDBRANCH  15  17
ENDBRANCH  14  15
ENDBRANCH  13  14
ENDBRANCH  11  13
BRANCH  11  30
HETATM   30  O   UNL     1     -10.163  15.707  66.466  1.00  0.00    -0.264 OA 
BRANCH  30  31
HETATM   31  C   UNL     1     -10.794  14.668  65.805  1.00  0.00    -0.323 A  
HETATM   32  C   UNL     1     -11.980  14.193  66.366  1.00  0.00    -0.457 A  
HETATM   33  C   UNL     1     -10.980  12.996  64.057  1.00  0.00    -0.422 A  
HETATM   34  C   UNL     1     -10.297  14.072  64.642  1.00  0.00    -0.337 A  
HETATM   35  C   UNL     1     -12.154  12.512  64.632  1.00  0.00    -0.496 A  
HETATM   36  C   UNL     1     -12.652  13.110  65.786  1.00  0.00    -0.351 A  
ENDBRANCH  30  31
ENDBRANCH  11  30
ENDBRANCH   9  11
ENDBRANCH   7   9
ENDBRANCH   5   7
ENDBRANCH   4   5
ENDBRANCH   2   4
TORSDOF 12
ENDMDL
MODEL      340
REMARK 921   NORMALIZED FREE ENERGY PREDICTED BY IDOCK:   -3.68 KCAL/MOL
REMARK 922        TOTAL FREE ENERGY PREDICTED BY IDOCK:   -7.98 KCAL/MOL
REMARK 923 INTER-LIGAND FREE ENERGY PREDICTED BY IDOCK:   -6.94 KCAL/MOL
REMARK 924 INTRA-LIGAND FREE ENERGY PREDICTED BY IDOCK:   -1.05 KCAL/MOL
REMARK 927      BINDING AFFINITY PREDICTED BY RF-SCORE:    0.00 PKD
ROOT
HETATM    1  C   UNL     1      -8.876   4.041  64.120  1.00  0.00    -0.127 C  
HETATM    2  C   UNL     1      -7.462   4.490  64.495  1.00  0.00    -0.072 C  
HETATM    3  C   UNL     1      -6.572   4.594  63.248  1.00  0.00    -0.030 C  
ENDROOT
BRANCH   2   4
HETATM    4  O   UNL     1      -7.460   5.650  65.391  1.00  0.00    -0.071 OA 
BRANCH   4   5
HETATM    5  C   UNL     1      -7.875   5.506  66.673  1.00  0.00    -0.101 C  
HETATM    6  O   UNL     1      -7.433   4.636  67.427  1.00  0.00    -0.076 OA 
BRANCH   5   7
HETATM    7  C   UNL     1      -8.971   6.491  67.171  1.00  0.00    -0.113 C  
HETATM    8  C   UNL     1     -10.344   5.837  67.015  1.00  0.00    -0.303 C  
BRANCH   7   9
HETATM    9  N   UNL     1      -8.979   7.916  66.660  1.00  0.00    -0.143 NA 
HETATM   10  H   UNL     1      -9.178   7.950  65.661  1.00  0.00     0.000 HD 
BRANCH   9  11
HETATM   11  P   UNL     1     -10.091   8.937  67.568  1.00  0.00    -0.263 P  
HETATM   12  O   UNL     1     -11.071   9.105  66.382  1.00  0.00     0.439 OA 
BRANCH  11  13
HETATM   13  C   UNL     1      -9.662  10.796  67.434  1.00  0.00    -0.171 C  
BRANCH  13  14
HETATM   14  O   UNL     1     -10.810  11.628  67.017  1.00  0.00    -0.239 OA 
BRANCH  14  15
HETATM   15  C   UNL     1     -10.660  12.652  65.996  1.00  0.00    -0.270 C  
HETATM   16  C   UNL     1     -10.245  12.007  64.668  1.00  0.00    -0.313 C  
BRANCH  15  17
HETATM   17  C   UNL     1      -9.811  13.847  66.408  1.00  0.00    -0.295 C  
BRANCH  17  18
HETATM   18  N   UNL     1     -10.221  15.110  65.860  1.00  0.00    -0.301 NA 
HETATM   19  C   UNL     1     -11.139  15.338  64.869  1.00  0.00    -0.424 A  
HETATM   20  N   UNL     1     -11.334  16.623  64.674  1.00  0.00    -0.782 NA 
HETATM   21  C   UNL     1     -10.486  17.239  65.567  1.00  0.00    -0.122 A  
HETATM   22  C   UNL     1     -10.248  18.587  65.848  1.00  0.00    -0.240 A  
HETATM   23  N   UNL     1      -9.286  18.904  66.746  1.00  0.00    -0.308 NA 
HETATM   24  N   UNL     1     -10.962  19.599  65.225  1.00  0.00    -0.309 NA 
HETATM   25  C   UNL     1      -8.638  17.897  67.360  1.00  0.00    -0.239 A  
HETATM   26  H1  UNL     1     -10.788  20.583  65.430  1.00  0.00     0.000 HD 
HETATM   27  H2  UNL     1     -11.955  19.419  65.375  1.00  0.00     0.000 HD 
HETATM   28  N   UNL     1      -8.803  16.564  67.203  1.00  0.00    -0.190 NA 
HETATM   29  C   UNL     1      -9.752  16.318  66.286  1.00  0.00    -0.304 A  
ENDBRANCH  17  18
ENDBRANCH  15  17
ENDBRANCH  14  15
ENDBRANCH  13  14
ENDBRANCH  11  13
BRANCH  11  30
HETATM   30  O   UNL     1      -8.995   8.748  68.895  1.00  0.00    -0.133 OA 
BRANCH  30  31
HETATM   31  C   UNL     1      -9.555   8.400  70.111  1.00  0.00    -0.165 A  
HETATM   32  C   UNL     1      -8.858   7.470  70.883  1.00  0.00    -0.144 A  
HETATM   33  C   UNL     1     -11.285   8.475  71.811  1.00  0.00    -0.379 A  
HETATM   34  C   UNL     1     -10.769   8.911  70.582  1.00  0.00    -0.282 A  
HETATM   35  C   UNL     1     -10.595   7.530  72.568  1.00  0.00    -0.321 A  
HETATM   36  C   UNL     1      -9.383   7.028  72.103  1.00  0.00    -0.146 A  
ENDBRANCH  30  31
ENDBRANCH  11  30
ENDBRANCH   9  11
ENDBRANCH   7   9
ENDBRANCH   5   7
ENDBRANCH   4   5
ENDBRANCH   2   4
TORSDOF 12
ENDMDL
MODEL      341
REMARK 921   NORMALIZED FREE ENERGY PREDICTED BY IDOCK:   -3.67 KCAL/MOL
REMARK 922        TOTAL FREE ENERGY PREDICTED BY IDOCK:   -7.97 KCAL/MOL
REMARK 923 INTER-LIGAND FREE ENERGY PREDICTED BY IDOCK:   -5.08 KCAL/MOL
REMARK 924 INTRA-LIGAND FREE ENERGY PREDICTED BY IDOCK:   -2.89 KCAL/MOL
REMARK 927      BINDING AFFINITY PREDICTED BY RF-SCORE:    0.00 PKD
ROOT
HETATM    1  C   UNL     1      -6.863  13.633  67.995  1.00  0.00    -0.138 C  
HETATM    2  C   UNL     1      -7.288  12.173  68.165  1.00  0.00    -0.103 C  
HETATM    3  C   UNL     1      -6.690  11.575  69.447  1.00  0.00    -0.116 C  
ENDROOT
BRANCH   2   4
HETATM    4  O   UNL     1      -8.728  11.981  67.971  1.00  0.00    -0.160 OA 
BRANCH   4   5
HETATM    5  C   UNL     1      -9.179  11.409  66.827  1.00  0.00    -0.177 C  
HETATM    6  O   UNL     1      -8.470  11.255  65.831  1.00  0.00    -0.150 OA 
BRANCH   5   7
HETATM    7  C   UNL     1     -10.667  10.957  66.808  1.00  0.00    -0.252 C  
HETATM    8  C   UNL     1     -11.568  12.189  66.866  1.00  0.00    -0.408 C  
BRANCH   7   9
HETATM    9  N   UNL     1     -11.133   9.888  67.774  1.00  0.00    -0.473 NA 
HETATM   10  H   UNL     1     -12.121   9.673  67.641  1.00  0.00     0.000 HD 
BRANCH   9  11
HETATM   11  P   UNL     1     -10.144   8.433  67.678  1.00  0.00    -0.243 P  
HETATM   12  O   UNL     1     -10.142   8.411  66.129  1.00  0.00    -0.182 OA 
BRANCH  11  13
HETATM   13  C   UNL     1     -11.189   6.831  67.665  1.00  0.00    -0.138 C  
BRANCH  13  14
HETATM   14  O   UNL     1     -10.479   5.680  67.069  1.00  0.00    -0.226 OA 
BRANCH  14  15
HETATM   15  C   UNL     1      -9.406   5.010  67.784  1.00  0.00    -0.127 C  
HETATM   16  C   UNL     1      -8.461   4.328  66.787  1.00  0.00    -0.104 C  
BRANCH  15  17
HETATM   17  C   UNL     1      -9.860   4.119  68.932  1.00  0.00    -0.022 C  
BRANCH  17  18
HETATM   18  N   UNL     1      -9.747   4.699  70.242  1.00  0.00    -0.206 NA 
HETATM   19  C   UNL     1     -10.712   5.359  70.954  1.00  0.00    -0.173 A  
HETATM   20  N   UNL     1     -10.292   5.683  72.157  1.00  0.00    -0.202 NA 
HETATM   21  C   UNL     1      -8.994   5.226  72.202  1.00  0.00    -0.129 A  
HETATM   22  C   UNL     1      -8.029   5.258  73.213  1.00  0.00    -0.108 A  
HETATM   23  N   UNL     1      -6.790   4.786  72.944  1.00  0.00    -0.068 NA 
HETATM   24  N   UNL     1      -8.309   5.768  74.472  1.00  0.00    -0.111 NA 
HETATM   25  C   UNL     1      -6.564   4.264  71.724  1.00  0.00    -0.026 A  
HETATM   26  H1  UNL     1      -7.605   5.791  75.210  1.00  0.00     0.000 HD 
HETATM   27  H2  UNL     1      -9.126   5.275  74.834  1.00  0.00     0.000 HD 
HETATM   28  N   UNL     1      -7.418   4.142  70.684  1.00  0.00    -0.044 NA 
HETATM   29  C   UNL     1      -8.618   4.648  71.007  1.00  0.00    -0.110 A  
ENDBRANCH  17  18
ENDBRANCH  15  17
ENDBRANCH  14  15
ENDBRANCH  13  14
ENDBRANCH  11  13
BRANCH  11  30
HETATM   30  O   UNL     1     -10.147   8.459  69.408  1.00  0.00    -0.188 OA 
BRANCH  30  31
HETATM   31  C   UNL     1      -8.911   8.383  70.027  1.00  0.00    -0.138 A  
HETATM   32  C   UNL     1      -7.877   7.795  69.297  1.00  0.00    -0.116 A  
HETATM   33  C   UNL     1      -7.390   8.687  71.892  1.00  0.00    -0.092 A  
HETATM   34  C   UNL     1      -8.663   8.838  71.326  1.00  0.00    -0.273 A  
HETATM   35  C   UNL     1      -6.365   8.081  71.167  1.00  0.00    -0.034 A  
HETATM   36  C   UNL     1      -6.610   7.635  69.871  1.00  0.00    -0.041 A  
ENDBRANCH  30  31
ENDBRANCH  11  30
ENDBRANCH   9  11
ENDBRANCH   7   9
ENDBRANCH   5   7
ENDBRANCH   4   5
ENDBRANCH   2   4
TORSDOF 12
ENDMDL
MODEL      342
REMARK 921   NORMALIZED FREE ENERGY PREDICTED BY IDOCK:   -3.66 KCAL/MOL
REMARK 922        TOTAL FREE ENERGY PREDICTED BY IDOCK:   -7.94 KCAL/MOL
REMARK 923 INTER-LIGAND FREE ENERGY PREDICTED BY IDOCK:   -6.40 KCAL/MOL
REMARK 924 INTRA-LIGAND FREE ENERGY PREDICTED BY IDOCK:   -1.53 KCAL/MOL
REMARK 927      BINDING AFFINITY PREDICTED BY RF-SCORE:    0.00 PKD
ROOT
HETATM    1  C   UNL     1     -11.886  12.222  68.244  1.00  0.00    -0.367 C  
HETATM    2  C   UNL     1     -11.294  13.631  68.327  1.00  0.00    -0.289 C  
HETATM    3  C   UNL     1     -12.271  14.595  69.015  1.00  0.00    -0.199 C  
ENDROOT
BRANCH   2   4
HETATM    4  O   UNL     1      -9.918  13.633  68.832  1.00  0.00    -0.141 OA 
BRANCH   4   5
HETATM    5  C   UNL     1      -8.888  13.448  67.970  1.00  0.00    -0.183 C  
HETATM    6  O   UNL     1      -9.020  13.509  66.746  1.00  0.00    -0.233 OA 
BRANCH   5   7
HETATM    7  C   UNL     1      -7.500  13.128  68.594  1.00  0.00    -0.092 C  
HETATM    8  C   UNL     1      -6.406  13.436  67.572  1.00  0.00    -0.112 C  
BRANCH   7   9
HETATM    9  N   UNL     1      -7.272  11.785  69.256  1.00  0.00    -0.306 NA 
HETATM   10  H   UNL     1      -7.429  11.837  70.262  1.00  0.00     0.000 HD 
BRANCH   9  11
HETATM   11  P   UNL     1      -8.245  10.514  68.522  1.00  0.00    -0.138 P  
HETATM   12  O   UNL     1      -9.252  10.461  69.696  1.00  0.00    -0.169 OA 
BRANCH  11  13
HETATM   13  C   UNL     1      -7.648   8.760  68.999  1.00  0.00    -0.090 C  
BRANCH  13  14
HETATM   14  O   UNL     1      -7.198   8.662  70.403  1.00  0.00    -0.039 OA 
BRANCH  14  15
HETATM   15  C   UNL     1      -6.466   7.498  70.875  1.00  0.00    -0.039 C  
HETATM   16  C   UNL     1      -5.543   6.978  69.766  1.00  0.00    -0.022 C  
BRANCH  15  17
HETATM   17  C   UNL     1      -7.325   6.427  71.533  1.00  0.00    -0.088 C  
BRANCH  17  18
HETATM   18  N   UNL     1      -8.584   6.882  72.054  1.00  0.00    -0.121 NA 
HETATM   19  C   UNL     1      -8.828   7.471  73.266  1.00  0.00    -0.173 A  
HETATM   20  N   UNL     1     -10.085   7.840  73.383  1.00  0.00    -0.312 NA 
HETATM   21  C   UNL     1     -10.669   7.448  72.199  1.00  0.00    -0.225 A  
HETATM   22  C   UNL     1     -11.975   7.575  71.718  1.00  0.00    -0.301 A  
HETATM   23  N   UNL     1     -12.284   7.021  70.522  1.00  0.00    -0.249 NA 
HETATM   24  N   UNL     1     -12.955   8.241  72.437  1.00  0.00    -0.561 NA 
HETATM   25  C   UNL     1     -11.299   6.414  69.834  1.00  0.00    -0.434 A  
HETATM   26  H1  UNL     1     -13.909   8.333  72.086  1.00  0.00     0.000 HD 
HETATM   27  H2  UNL     1     -12.607   9.177  72.647  1.00  0.00     0.000 HD 
HETATM   28  N   UNL     1      -9.999   6.262  70.172  1.00  0.00    -0.170 NA 
HETATM   29  C   UNL     1      -9.765   6.811  71.374  1.00  0.00    -0.171 A  
ENDBRANCH  17  18
ENDBRANCH  15  17
ENDBRANCH  14  15
ENDBRANCH  13  14
ENDBRANCH  11  13
BRANCH  11  30
HETATM   30  O   UNL     1      -7.119  10.573  67.209  1.00  0.00    -0.085 OA 
BRANCH  30  31
HETATM   31  C   UNL     1      -7.620  10.276  65.954  1.00  0.00    -0.134 A  
HETATM   32  C   UNL     1      -6.702   9.848  64.994  1.00  0.00    -0.121 A  
HETATM   33  C   UNL     1      -9.387  10.118  64.298  1.00  0.00    -0.349 A  
HETATM   34  C   UNL     1      -8.968  10.403  65.606  1.00  0.00    -0.198 A  
HETATM   35  C   UNL     1      -8.463   9.711  63.338  1.00  0.00    -0.188 A  
HETATM   36  C   UNL     1      -7.122   9.577  63.686  1.00  0.00    -0.107 A  
ENDBRANCH  30  31
ENDBRANCH  11  30
ENDBRANCH   9  11
ENDBRANCH   7   9
ENDBRANCH   5   7
ENDBRANCH   4   5
ENDBRANCH   2   4
TORSDOF 12
ENDMDL
MODEL      343
REMARK 921   NORMALIZED FREE ENERGY PREDICTED BY IDOCK:   -3.63 KCAL/MOL
REMARK 922        TOTAL FREE ENERGY PREDICTED BY IDOCK:   -7.89 KCAL/MOL
REMARK 923 INTER-LIGAND FREE ENERGY PREDICTED BY IDOCK:   -7.75 KCAL/MOL
REMARK 924 INTRA-LIGAND FREE ENERGY PREDICTED BY IDOCK:   -0.14 KCAL/MOL
REMARK 927      BINDING AFFINITY PREDICTED BY RF-SCORE:    0.00 PKD
ROOT
HETATM    1  C   UNL     1     -12.342  16.345  73.100  1.00  0.00    -0.518 C  
HETATM    2  C   UNL     1     -12.732  14.959  72.580  1.00  0.00    -0.379 C  
HETATM    3  C   UNL     1     -14.216  14.918  72.192  1.00  0.00    -0.616 C  
ENDROOT
BRANCH   2   4
HETATM    4  O   UNL     1     -11.786  14.447  71.584  1.00  0.00    -0.276 OA 
BRANCH   4   5
HETATM    5  C   UNL     1     -12.073  14.568  70.265  1.00  0.00    -0.323 C  
HETATM    6  O   UNL     1     -12.393  15.638  69.744  1.00  0.00    -0.333 OA 
BRANCH   5   7
HETATM    7  C   UNL     1     -12.001  13.271  69.410  1.00  0.00    -0.301 C  
HETATM    8  C   UNL     1     -12.137  12.056  70.326  1.00  0.00    -0.395 C  
BRANCH   7   9
HETATM    9  N   UNL     1     -10.866  13.092  68.423  1.00  0.00    -0.249 NA 
HETATM   10  H   UNL     1     -10.332  12.245  68.622  1.00  0.00     0.000 HD 
BRANCH   9  11
HETATM   11  P   UNL     1     -11.431  13.114  66.755  1.00  0.00    -0.381 P  
HETATM   12  O   UNL     1     -11.796  11.609  66.748  1.00  0.00    -0.557 OA 
BRANCH  11  13
HETATM   13  C   UNL     1     -10.036  12.746  65.499  1.00  0.00    -0.264 C  
BRANCH  13  14
HETATM   14  O   UNL     1     -10.284  11.531  64.696  1.00  0.00    -0.252 OA 
BRANCH  14  15
HETATM   15  C   UNL     1      -9.243  10.534  64.507  1.00  0.00    -0.240 C  
HETATM   16  C   UNL     1      -9.497   9.754  63.211  1.00  0.00     0.015 C  
BRANCH  15  17
HETATM   17  C   UNL     1      -8.967   9.660  65.723  1.00  0.00    -0.169 C  
BRANCH  17  18
HETATM   18  N   UNL     1      -7.898  10.109  66.572  1.00  0.00    -0.109 NA 
HETATM   19  C   UNL     1      -6.835  10.903  66.235  1.00  0.00    -0.123 A  
HETATM   20  N   UNL     1      -6.091  11.189  67.281  1.00  0.00    -0.061 NA 
HETATM   21  C   UNL     1      -6.698  10.528  68.325  1.00  0.00    -0.060 A  
HETATM   22  C   UNL     1      -6.391  10.455  69.686  1.00  0.00    -0.068 A  
HETATM   23  N   UNL     1      -7.140   9.655  70.480  1.00  0.00    -0.129 NA 
HETATM   24  N   UNL     1      -5.338  11.171  70.235  1.00  0.00    -0.081 NA 
HETATM   25  C   UNL     1      -8.178   9.003  69.922  1.00  0.00    -0.124 A  
HETATM   26  H1  UNL     1      -5.113  11.117  71.229  1.00  0.00     0.000 HD 
HETATM   27  H2  UNL     1      -5.470  12.154  69.997  1.00  0.00     0.000 HD 
HETATM   28  N   UNL     1      -8.596   9.023  68.636  1.00  0.00    -0.128 NA 
HETATM   29  C   UNL     1      -7.800   9.814  67.901  1.00  0.00    -0.090 A  
ENDBRANCH  17  18
ENDBRANCH  15  17
ENDBRANCH  14  15
ENDBRANCH  13  14
ENDBRANCH  11  13
BRANCH  11  30
HETATM   30  O   UNL     1     -11.023  14.796  66.763  1.00  0.00    -0.313 OA 
BRANCH  30  31
HETATM   31  C   UNL     1      -9.759  15.121  67.221  1.00  0.00    -0.210 A  
HETATM   32  C   UNL     1      -9.576  16.420  67.697  1.00  0.00    -0.227 A  
HETATM   33  C   UNL     1      -7.417  14.659  67.657  1.00  0.00    -0.205 A  
HETATM   34  C   UNL     1      -8.677  14.235  67.210  1.00  0.00    -0.230 A  
HETATM   35  C   UNL     1      -7.235  15.964  68.112  1.00  0.00    -0.134 A  
HETATM   36  C   UNL     1      -8.314  16.843  68.130  1.00  0.00    -0.212 A  
ENDBRANCH  30  31
ENDBRANCH  11  30
ENDBRANCH   9  11
ENDBRANCH   7   9
ENDBRANCH   5   7
ENDBRANCH   4   5
ENDBRANCH   2   4
TORSDOF 12
ENDMDL
MODEL      344
REMARK 921   NORMALIZED FREE ENERGY PREDICTED BY IDOCK:   -3.63 KCAL/MOL
REMARK 922        TOTAL FREE ENERGY PREDICTED BY IDOCK:   -7.88 KCAL/MOL
REMARK 923 INTER-LIGAND FREE ENERGY PREDICTED BY IDOCK:   -7.53 KCAL/MOL
REMARK 924 INTRA-LIGAND FREE ENERGY PREDICTED BY IDOCK:   -0.35 KCAL/MOL
REMARK 927      BINDING AFFINITY PREDICTED BY RF-SCORE:    0.00 PKD
ROOT
HETATM    1  C   UNL     1     -11.306  12.829  64.104  1.00  0.00    -0.442 C  
HETATM    2  C   UNL     1     -10.275  12.174  65.026  1.00  0.00    -0.283 C  
HETATM    3  C   UNL     1     -10.967  11.343  66.116  1.00  0.00    -0.294 C  
ENDROOT
BRANCH   2   4
HETATM    4  O   UNL     1      -9.202  11.507  64.285  1.00  0.00    -0.064 OA 
BRANCH   4   5
HETATM    5  C   UNL     1      -8.822  10.255  64.639  1.00  0.00    -0.199 C  
HETATM    6  O   UNL     1      -9.160   9.249  64.011  1.00  0.00    -0.154 OA 
BRANCH   5   7
HETATM    7  C   UNL     1      -7.935  10.123  65.910  1.00  0.00    -0.134 C  
HETATM    8  C   UNL     1      -6.552  10.705  65.621  1.00  0.00    -0.079 C  
BRANCH   7   9
HETATM    9  N   UNL     1      -7.833   8.786  66.613  1.00  0.00    -0.099 NA 
HETATM   10  H   UNL     1      -6.902   8.642  67.002  1.00  0.00     0.000 HD 
BRANCH   9  11
HETATM   11  P   UNL     1      -9.077   8.591  67.845  1.00  0.00    -0.139 P  
HETATM   12  O   UNL     1      -8.332   9.464  68.884  1.00  0.00    -0.115 OA 
BRANCH  11  13
HETATM   13  C   UNL     1      -8.778   7.067  68.961  1.00  0.00    -0.128 C  
BRANCH  13  14
HETATM   14  O   UNL     1      -9.133   7.304  70.375  1.00  0.00    -0.154 OA 
BRANCH  14  15
HETATM   15  C   UNL     1     -10.348   6.746  70.945  1.00  0.00    -0.199 C  
HETATM   16  C   UNL     1     -10.214   5.223  71.069  1.00  0.00    -0.299 C  
BRANCH  15  17
HETATM   17  C   UNL     1     -11.638   7.212  70.285  1.00  0.00    -0.217 C  
BRANCH  17  18
HETATM   18  N   UNL     1     -12.352   8.241  70.990  1.00  0.00    -0.201 NA 
HETATM   19  C   UNL     1     -13.239   8.091  72.022  1.00  0.00    -0.253 A  
HETATM   20  N   UNL     1     -13.642   9.253  72.488  1.00  0.00    -0.460 NA 
HETATM   21  C   UNL     1     -12.997  10.181  71.702  1.00  0.00    -0.456 A  
HETATM   22  C   UNL     1     -13.005  11.579  71.714  1.00  0.00    -0.394 A  
HETATM   23  N   UNL     1     -12.315  12.241  70.757  1.00  0.00    -0.356 NA 
HETATM   24  N   UNL     1     -13.706  12.295  72.672  1.00  0.00    -0.502 NA 
HETATM   25  C   UNL     1     -11.615  11.514  69.866  1.00  0.00    -0.308 A  
HETATM   26  H1  UNL     1     -13.711  13.316  72.681  1.00  0.00     0.000 HD 
HETATM   27  H2  UNL     1     -13.396  11.976  73.590  1.00  0.00     0.000 HD 
HETATM   28  N   UNL     1     -11.499  10.171  69.774  1.00  0.00    -0.246 NA 
HETATM   29  C   UNL     1     -12.222   9.575  70.735  1.00  0.00    -0.196 A  
ENDBRANCH  17  18
ENDBRANCH  15  17
ENDBRANCH  14  15
ENDBRANCH  13  14
ENDBRANCH  11  13
BRANCH  11  30
HETATM   30  O   UNL     1      -9.910   7.616  66.682  1.00  0.00    -0.216 OA 
BRANCH  30  31
HETATM   31  C   UNL     1      -9.535   6.286  66.613  1.00  0.00    -0.152 A  
HETATM   32  C   UNL     1      -8.443   5.981  65.799  1.00  0.00    -0.146 A  
HETATM   33  C   UNL     1      -9.776   3.928  67.131  1.00  0.00    -0.182 A  
HETATM   34  C   UNL     1     -10.198   5.256  67.287  1.00  0.00    -0.252 A  
HETATM   35  C   UNL     1      -8.698   3.626  66.301  1.00  0.00    -0.120 A  
HETATM   36  C   UNL     1      -8.033   4.653  65.636  1.00  0.00    -0.095 A  
ENDBRANCH  30  31
ENDBRANCH  11  30
ENDBRANCH   9  11
ENDBRANCH   7   9
ENDBRANCH   5   7
ENDBRANCH   4   5
ENDBRANCH   2   4
TORSDOF 12
ENDMDL
MODEL      345
REMARK 921   NORMALIZED FREE ENERGY PREDICTED BY IDOCK:   -3.61 KCAL/MOL
REMARK 922        TOTAL FREE ENERGY PREDICTED BY IDOCK:   -7.86 KCAL/MOL
REMARK 923 INTER-LIGAND FREE ENERGY PREDICTED BY IDOCK:   -5.46 KCAL/MOL
REMARK 924 INTRA-LIGAND FREE ENERGY PREDICTED BY IDOCK:   -2.40 KCAL/MOL
REMARK 927      BINDING AFFINITY PREDICTED BY RF-SCORE:    0.00 PKD
ROOT
HETATM    1  C   UNL     1      -7.947   8.229  73.349  1.00  0.00    -0.215 C  
HETATM    2  C   UNL     1      -6.467   7.843  73.310  1.00  0.00    -0.074 C  
HETATM    3  C   UNL     1      -6.292   6.330  73.507  1.00  0.00    -0.065 C  
ENDROOT
BRANCH   2   4
HETATM    4  O   UNL     1      -5.762   8.435  72.170  1.00  0.00    -0.039 OA 
BRANCH   4   5
HETATM    5  C   UNL     1      -6.474   8.962  71.144  1.00  0.00    -0.066 C  
HETATM    6  O   UNL     1      -6.838  10.139  71.116  1.00  0.00    -0.314 OA 
BRANCH   5   7
HETATM    7  C   UNL     1      -6.841   8.000  69.978  1.00  0.00    -0.041 C  
HETATM    8  C   UNL     1      -6.900   8.792  68.672  1.00  0.00    -0.063 C  
BRANCH   7   9
HETATM    9  N   UNL     1      -8.036   7.081  70.119  1.00  0.00    -0.128 NA 
HETATM   10  H   UNL     1      -8.812   7.391  69.534  1.00  0.00     0.000 HD 
BRANCH   9  11
HETATM   11  P   UNL     1      -7.620   5.401  69.792  1.00  0.00    -0.071 P  
HETATM   12  O   UNL     1      -6.103   5.690  69.672  1.00  0.00    -0.023 OA 
BRANCH  11  13
HETATM   13  C   UNL     1      -7.652   4.983  67.925  1.00  0.00    -0.083 C  
BRANCH  13  14
HETATM   14  O   UNL     1      -8.382   5.984  67.119  1.00  0.00    -0.106 OA 
BRANCH  14  15
HETATM   15  C   UNL     1      -9.657   5.661  66.501  1.00  0.00    -0.155 C  
HETATM   16  C   UNL     1      -9.449   5.333  65.017  1.00  0.00     0.169 C  
BRANCH  15  17
HETATM   17  C   UNL     1     -10.772   6.661  66.774  1.00  0.00    -0.259 C  
BRANCH  17  18
HETATM   18  N   UNL     1     -10.348   8.024  66.945  1.00  0.00    -0.333 NA 
HETATM   19  C   UNL     1      -9.802   8.857  66.006  1.00  0.00    -0.207 A  
HETATM   20  N   UNL     1      -9.610  10.067  66.484  1.00  0.00    -0.178 NA 
HETATM   21  C   UNL     1     -10.034   9.992  67.791  1.00  0.00    -0.170 A  
HETATM   22  C   UNL     1     -10.095  10.949  68.808  1.00  0.00    -0.194 A  
HETATM   23  N   UNL     1     -10.499  10.563  70.041  1.00  0.00    -0.189 NA 
HETATM   24  N   UNL     1      -9.745  12.272  68.585  1.00  0.00    -0.387 NA 
HETATM   25  C   UNL     1     -10.868   9.280  70.212  1.00  0.00    -0.246 A  
HETATM   26  H1  UNL     1      -9.789  12.971  69.327  1.00  0.00     0.000 HD 
HETATM   27  H2  UNL     1     -10.298  12.614  67.799  1.00  0.00     0.000 HD 
HETATM   28  N   UNL     1     -10.889   8.277  69.305  1.00  0.00    -0.118 NA 
HETATM   29  C   UNL     1     -10.457   8.719  68.114  1.00  0.00    -0.191 A  
ENDBRANCH  17  18
ENDBRANCH  15  17
ENDBRANCH  14  15
ENDBRANCH  13  14
ENDBRANCH  11  13
BRANCH  11  30
HETATM   30  O   UNL     1      -9.315   5.078  69.925  1.00  0.00    -0.123 OA 
BRANCH  30  31
HETATM   31  C   UNL     1      -9.802   4.865  71.203  1.00  0.00    -0.192 A  
HETATM   32  C   UNL     1     -10.690   5.818  71.705  1.00  0.00    -0.314 A  
HETATM   33  C   UNL     1      -9.950   3.657  73.301  1.00  0.00    -0.190 A  
HETATM   34  C   UNL     1      -9.438   3.777  72.001  1.00  0.00    -0.200 A  
HETATM   35  C   UNL     1     -10.820   4.621  73.806  1.00  0.00    -0.378 A  
HETATM   36  C   UNL     1     -11.188   5.701  73.008  1.00  0.00    -0.319 A  
ENDBRANCH  30  31
ENDBRANCH  11  30
ENDBRANCH   9  11
ENDBRANCH   7   9
ENDBRANCH   5   7
ENDBRANCH   4   5
ENDBRANCH   2   4
TORSDOF 12
ENDMDL
MODEL      346
REMARK 921   NORMALIZED FREE ENERGY PREDICTED BY IDOCK:   -3.59 KCAL/MOL
REMARK 922        TOTAL FREE ENERGY PREDICTED BY IDOCK:   -7.82 KCAL/MOL
REMARK 923 INTER-LIGAND FREE ENERGY PREDICTED BY IDOCK:   -6.31 KCAL/MOL
REMARK 924 INTRA-LIGAND FREE ENERGY PREDICTED BY IDOCK:   -1.52 KCAL/MOL
REMARK 927      BINDING AFFINITY PREDICTED BY RF-SCORE:    0.00 PKD
ROOT
HETATM    1  C   UNL     1      -8.421   5.081  64.111  1.00  0.00    -0.136 C  
HETATM    2  C   UNL     1      -9.200   4.985  65.425  1.00  0.00    -0.138 C  
HETATM    3  C   UNL     1      -9.413   3.519  65.828  1.00  0.00    -0.139 C  
ENDROOT
BRANCH   2   4
HETATM    4  O   UNL     1      -8.665   5.872  66.460  1.00  0.00    -0.119 OA 
BRANCH   4   5
HETATM    5  C   UNL     1      -9.076   7.163  66.515  1.00  0.00    -0.154 C  
HETATM    6  O   UNL     1      -8.983   7.937  65.560  1.00  0.00    -0.098 OA 
BRANCH   5   7
HETATM    7  C   UNL     1      -9.670   7.654  67.866  1.00  0.00    -0.148 C  
HETATM    8  C   UNL     1     -10.623   8.819  67.603  1.00  0.00    -0.281 C  
BRANCH   7   9
HETATM    9  N   UNL     1      -8.740   7.954  69.023  1.00  0.00    -0.138 NA 
HETATM   10  H   UNL     1      -7.803   7.591  68.849  1.00  0.00     0.000 HD 
BRANCH   9  11
HETATM   11  P   UNL     1      -8.698   9.672  69.408  1.00  0.00    -0.201 P  
HETATM   12  O   UNL     1      -8.168  10.080  68.012  1.00  0.00    -0.114 OA 
BRANCH  11  13
HETATM   13  C   UNL     1      -7.028  10.218  70.164  1.00  0.00    -0.155 C  
BRANCH  13  14
HETATM   14  O   UNL     1      -6.155   9.082  70.525  1.00  0.00    -0.034 OA 
BRANCH  14  15
HETATM   15  C   UNL     1      -6.189   8.506  71.859  1.00  0.00    -0.067 C  
HETATM   16  C   UNL     1      -5.252   9.288  72.788  1.00  0.00    -0.077 C  
BRANCH  15  17
HETATM   17  C   UNL     1      -6.010   6.995  71.910  1.00  0.00    -0.037 C  
BRANCH  17  18
HETATM   18  N   UNL     1      -6.936   6.294  72.755  1.00  0.00    -0.074 NA 
HETATM   19  C   UNL     1      -6.786   5.968  74.076  1.00  0.00    -0.080 A  
HETATM   20  N   UNL     1      -7.868   5.400  74.562  1.00  0.00    -0.098 NA 
HETATM   21  C   UNL     1      -8.736   5.344  73.495  1.00  0.00    -0.114 A  
HETATM   22  C   UNL     1     -10.044   4.866  73.382  1.00  0.00    -0.166 A  
HETATM   23  N   UNL     1     -10.637   4.876  72.165  1.00  0.00    -0.195 NA 
HETATM   24  N   UNL     1     -10.739   4.378  74.477  1.00  0.00    -0.302 NA 
HETATM   25  C   UNL     1      -9.948   5.392  71.130  1.00  0.00    -0.196 A  
HETATM   26  H1  UNL     1     -11.694   4.028  74.395  1.00  0.00     0.000 HD 
HETATM   27  H2  UNL     1     -10.731   5.098  75.199  1.00  0.00     0.000 HD 
HETATM   28  N   UNL     1      -8.701   5.916  71.121  1.00  0.00    -0.132 NA 
HETATM   29  C   UNL     1      -8.163   5.855  72.348  1.00  0.00    -0.110 A  
ENDBRANCH  17  18
ENDBRANCH  15  17
ENDBRANCH  14  15
ENDBRANCH  13  14
ENDBRANCH  11  13
BRANCH  11  30
HETATM   30  O   UNL     1      -9.291   9.216  70.969  1.00  0.00    -0.248 OA 
BRANCH  30  31
HETATM   31  C   UNL     1     -10.651   9.366  71.179  1.00  0.00    -0.333 A  
HETATM   32  C   UNL     1     -11.270  10.445  70.546  1.00  0.00    -0.395 A  
HETATM   33  C   UNL     1     -12.776   8.766  72.183  1.00  0.00    -0.461 A  
HETATM   34  C   UNL     1     -11.409   8.520  71.993  1.00  0.00    -0.425 A  
HETATM   35  C   UNL     1     -13.386   9.857  71.566  1.00  0.00    -0.462 A  
HETATM   36  C   UNL     1     -12.632  10.695  70.749  1.00  0.00    -0.479 A  
ENDBRANCH  30  31
ENDBRANCH  11  30
ENDBRANCH   9  11
ENDBRANCH   7   9
ENDBRANCH   5   7
ENDBRANCH   4   5
ENDBRANCH   2   4
TORSDOF 12
ENDMDL
MODEL      347
REMARK 921   NORMALIZED FREE ENERGY PREDICTED BY IDOCK:   -3.59 KCAL/MOL
REMARK 922        TOTAL FREE ENERGY PREDICTED BY IDOCK:   -7.82 KCAL/MOL
REMARK 923 INTER-LIGAND FREE ENERGY PREDICTED BY IDOCK:   -7.04 KCAL/MOL
REMARK 924 INTRA-LIGAND FREE ENERGY PREDICTED BY IDOCK:   -0.78 KCAL/MOL
REMARK 927      BINDING AFFINITY PREDICTED BY RF-SCORE:    0.00 PKD
ROOT
HETATM    1  C   UNL     1     -13.068  12.463  71.664  1.00  0.00    -0.408 C  
HETATM    2  C   UNL     1     -12.614  11.115  71.097  1.00  0.00    -0.409 C  
HETATM    3  C   UNL     1     -13.022   9.965  72.029  1.00  0.00    -0.518 C  
ENDROOT
BRANCH   2   4
HETATM    4  O   UNL     1     -12.958  10.957  69.681  1.00  0.00    -0.131 OA 
BRANCH   4   5
HETATM    5  C   UNL     1     -12.027  11.222  68.733  1.00  0.00    -0.282 C  
HETATM    6  O   UNL     1     -11.655  10.387  67.906  1.00  0.00    -0.406 OA 
BRANCH   5   7
HETATM    7  C   UNL     1     -11.413  12.652  68.733  1.00  0.00    -0.306 C  
HETATM    8  C   UNL     1     -11.824  13.376  67.452  1.00  0.00    -0.418 C  
BRANCH   7   9
HETATM    9  N   UNL     1      -9.935  12.827  69.014  1.00  0.00    -0.405 NA 
HETATM   10  H   UNL     1      -9.501  11.943  69.281  1.00  0.00     0.000 HD 
BRANCH   9  11
HETATM   11  P   UNL     1      -9.089  13.571  67.660  1.00  0.00    -0.232 P  
HETATM   12  O   UNL     1      -9.079  12.273  66.816  1.00  0.00    -0.202 OA 
BRANCH  11  13
HETATM   13  C   UNL     1      -7.187  13.443  67.818  1.00  0.00    -0.154 C  
BRANCH  13  14
HETATM   14  O   UNL     1      -6.675  12.079  67.572  1.00  0.00    -0.094 OA 
BRANCH  14  15
HETATM   15  C   UNL     1      -6.638  11.090  68.637  1.00  0.00    -0.058 C  
HETATM   16  C   UNL     1      -5.232  11.032  69.246  1.00  0.00    -0.041 C  
BRANCH  15  17
HETATM   17  C   UNL     1      -7.223   9.733  68.270  1.00  0.00    -0.078 C  
BRANCH  17  18
HETATM   18  N   UNL     1      -7.096   8.716  69.278  1.00  0.00    -0.061 NA 
HETATM   19  C   UNL     1      -6.133   7.747  69.377  1.00  0.00    -0.034 A  
HETATM   20  N   UNL     1      -6.271   7.035  70.473  1.00  0.00    -0.031 NA 
HETATM   21  C   UNL     1      -7.385   7.563  71.088  1.00  0.00    -0.071 A  
HETATM   22  C   UNL     1      -8.025   7.245  72.288  1.00  0.00    -0.096 A  
HETATM   23  N   UNL     1      -9.165   7.900  72.610  1.00  0.00    -0.185 NA 
HETATM   24  N   UNL     1      -7.528   6.275  73.145  1.00  0.00    -0.091 NA 
HETATM   25  C   UNL     1      -9.599   8.862  71.775  1.00  0.00    -0.282 A  
HETATM   26  H1  UNL     1      -7.996   6.042  74.021  1.00  0.00     0.000 HD 
HETATM   27  H2  UNL     1      -6.561   6.514  73.361  1.00  0.00     0.000 HD 
HETATM   28  N   UNL     1      -9.051   9.285  70.613  1.00  0.00    -0.245 NA 
HETATM   29  C   UNL     1      -7.940   8.582  70.341  1.00  0.00    -0.099 A  
ENDBRANCH  17  18
ENDBRANCH  15  17
ENDBRANCH  14  15
ENDBRANCH  13  14
ENDBRANCH  11  13
BRANCH  11  30
HETATM   30  O   UNL     1      -9.101  15.022  68.603  1.00  0.00    -0.177 OA 
BRANCH  30  31
HETATM   31  C   UNL     1      -8.528  16.139  68.021  1.00  0.00    -0.168 A  
HETATM   32  C   UNL     1      -8.243  17.213  68.866  1.00  0.00    -0.192 A  
HETATM   33  C   UNL     1      -7.702  17.431  66.141  1.00  0.00    -0.311 A  
HETATM   34  C   UNL     1      -8.248  16.247  66.655  1.00  0.00    -0.316 A  
HETATM   35  C   UNL     1      -7.438  18.508  66.985  1.00  0.00    -0.228 A  
HETATM   36  C   UNL     1      -7.710  18.398  68.346  1.00  0.00    -0.314 A  
ENDBRANCH  30  31
ENDBRANCH  11  30
ENDBRANCH   9  11
ENDBRANCH   7   9
ENDBRANCH   5   7
ENDBRANCH   4   5
ENDBRANCH   2   4
TORSDOF 12
ENDMDL
MODEL      348
REMARK 921   NORMALIZED FREE ENERGY PREDICTED BY IDOCK:   -3.59 KCAL/MOL
REMARK 922        TOTAL FREE ENERGY PREDICTED BY IDOCK:   -7.82 KCAL/MOL
REMARK 923 INTER-LIGAND FREE ENERGY PREDICTED BY IDOCK:   -6.75 KCAL/MOL
REMARK 924 INTRA-LIGAND FREE ENERGY PREDICTED BY IDOCK:   -1.07 KCAL/MOL
REMARK 927      BINDING AFFINITY PREDICTED BY RF-SCORE:    0.00 PKD
ROOT
HETATM    1  C   UNL     1      -8.240   5.839  73.465  1.00  0.00    -0.112 C  
HETATM    2  C   UNL     1      -8.742   6.975  72.571  1.00  0.00    -0.123 C  
HETATM    3  C   UNL     1      -8.330   8.341  73.140  1.00  0.00    -0.253 C  
ENDROOT
BRANCH   2   4
HETATM    4  O   UNL     1      -8.446   6.747  71.154  1.00  0.00    -0.123 OA 
BRANCH   4   5
HETATM    5  C   UNL     1      -9.455   6.770  70.248  1.00  0.00    -0.162 C  
HETATM    6  O   UNL     1     -10.132   5.778  69.973  1.00  0.00    -0.185 OA 
BRANCH   5   7
HETATM    7  C   UNL     1      -9.724   8.125  69.533  1.00  0.00    -0.170 C  
HETATM    8  C   UNL     1     -11.084   8.665  69.974  1.00  0.00    -0.161 C  
BRANCH   7   9
HETATM    9  N   UNL     1      -9.554   8.222  68.031  1.00  0.00    -0.150 NA 
HETATM   10  H   UNL     1     -10.452   8.162  67.552  1.00  0.00     0.000 HD 
BRANCH   9  11
HETATM   11  P   UNL     1      -8.672   9.672  67.558  1.00  0.00    -0.124 P  
HETATM   12  O   UNL     1      -8.020   9.856  68.951  1.00  0.00    -0.087 OA 
BRANCH  11  13
HETATM   13  C   UNL     1      -9.675  11.274  67.853  1.00  0.00    -0.177 C  
BRANCH  13  14
HETATM   14  O   UNL     1      -8.889  12.338  68.511  1.00  0.00    -0.156 OA 
BRANCH  14  15
HETATM   15  C   UNL     1      -8.529  13.552  67.798  1.00  0.00    -0.184 C  
HETATM   16  C   UNL     1      -7.010  13.606  67.593  1.00  0.00    -0.183 C  
BRANCH  15  17
HETATM   17  C   UNL     1      -9.133  14.830  68.363  1.00  0.00    -0.188 C  
BRANCH  17  18
HETATM   18  N   UNL     1      -9.245  15.921  67.435  1.00  0.00    -0.200 NA 
HETATM   19  C   UNL     1      -9.836  15.916  66.200  1.00  0.00    -0.317 A  
HETATM   20  N   UNL     1      -9.833  17.112  65.655  1.00  0.00    -0.561 NA 
HETATM   21  C   UNL     1      -9.191  17.908  66.577  1.00  0.00    -0.273 A  
HETATM   22  C   UNL     1      -8.892  19.273  66.582  1.00  0.00    -0.334 A  
HETATM   23  N   UNL     1      -8.175  19.778  67.613  1.00  0.00    -0.298 NA 
HETATM   24  N   UNL     1      -9.303  20.113  65.558  1.00  0.00    -0.428 NA 
HETATM   25  C   UNL     1      -7.825  18.942  68.609  1.00  0.00    -0.340 A  
HETATM   26  H1  UNL     1      -9.085  21.110  65.562  1.00  0.00     0.000 HD 
HETATM   27  H2  UNL     1     -10.313  20.014  65.459  1.00  0.00     0.000 HD 
HETATM   28  N   UNL     1      -8.086  17.622  68.736  1.00  0.00    -0.267 NA 
HETATM   29  C   UNL     1      -8.778  17.180  67.674  1.00  0.00    -0.213 A  
ENDBRANCH  17  18
ENDBRANCH  15  17
ENDBRANCH  14  15
ENDBRANCH  13  14
ENDBRANCH  11  13
BRANCH  11  30
HETATM   30  O   UNL     1      -9.401   9.464  66.002  1.00  0.00    -0.183 OA 
BRANCH  30  31
HETATM   31  C   UNL     1      -8.571   9.020  64.988  1.00  0.00    -0.181 A  
HETATM   32  C   UNL     1      -8.686   9.662  63.754  1.00  0.00    -0.241 A  
HETATM   33  C   UNL     1      -6.883   7.557  64.042  1.00  0.00    -0.056 A  
HETATM   34  C   UNL     1      -7.660   7.969  65.133  1.00  0.00    -0.098 A  
HETATM   35  C   UNL     1      -7.016   8.187  62.806  1.00  0.00    -0.087 A  
HETATM   36  C   UNL     1      -7.918   9.238  62.664  1.00  0.00    -0.129 A  
ENDBRANCH  30  31
ENDBRANCH  11  30
ENDBRANCH   9  11
ENDBRANCH   7   9
ENDBRANCH   5   7
ENDBRANCH   4   5
ENDBRANCH   2   4
TORSDOF 12
ENDMDL
MODEL      349
REMARK 921   NORMALIZED FREE ENERGY PREDICTED BY IDOCK:   -3.58 KCAL/MOL
REMARK 922        TOTAL FREE ENERGY PREDICTED BY IDOCK:   -7.80 KCAL/MOL
REMARK 923 INTER-LIGAND FREE ENERGY PREDICTED BY IDOCK:   -7.97 KCAL/MOL
REMARK 924 INTRA-LIGAND FREE ENERGY PREDICTED BY IDOCK:    0.17 KCAL/MOL
REMARK 927      BINDING AFFINITY PREDICTED BY RF-SCORE:    0.00 PKD
ROOT
HETATM    1  C   UNL     1     -10.511   7.134  73.537  1.00  0.00    -0.422 C  
HETATM    2  C   UNL     1      -9.354   7.809  72.797  1.00  0.00    -0.205 C  
HETATM    3  C   UNL     1      -8.006   7.218  73.235  1.00  0.00    -0.125 C  
ENDROOT
BRANCH   2   4
HETATM    4  O   UNL     1      -9.585   7.897  71.353  1.00  0.00    -0.150 OA 
BRANCH   4   5
HETATM    5  C   UNL     1      -9.134   6.910  70.542  1.00  0.00    -0.156 C  
HETATM    6  O   UNL     1      -9.544   5.749  70.607  1.00  0.00    -0.167 OA 
BRANCH   5   7
HETATM    7  C   UNL     1      -8.038   7.297  69.508  1.00  0.00    -0.129 C  
HETATM    8  C   UNL     1      -7.872   8.816  69.495  1.00  0.00    -0.091 C  
BRANCH   7   9
HETATM    9  N   UNL     1      -8.110   6.740  68.102  1.00  0.00    -0.114 NA 
HETATM   10  H   UNL     1      -8.142   5.720  68.108  1.00  0.00     0.000 HD 
BRANCH   9  11
HETATM   11  P   UNL     1      -9.460   7.414  67.193  1.00  0.00    -0.169 P  
HETATM   12  O   UNL     1      -8.700   8.711  66.824  1.00  0.00    -0.120 OA 
BRANCH  11  13
HETATM   13  C   UNL     1     -10.637   8.455  68.284  1.00  0.00    -0.109 C  
BRANCH  13  14
HETATM   14  O   UNL     1     -10.874   9.812  67.751  1.00  0.00    -0.275 OA 
BRANCH  14  15
HETATM   15  C   UNL     1     -11.040  10.948  68.643  1.00  0.00    -0.252 C  
HETATM   16  C   UNL     1     -11.284  10.455  70.075  1.00  0.00    -0.385 C  
BRANCH  15  17
HETATM   17  C   UNL     1     -12.029  12.001  68.162  1.00  0.00    -0.163 C  
BRANCH  17  18
HETATM   18  N   UNL     1     -11.455  13.272  67.819  1.00  0.00    -0.298 NA 
HETATM   19  C   UNL     1     -10.669  14.077  68.599  1.00  0.00    -0.259 A  
HETATM   20  N   UNL     1     -10.246  15.132  67.938  1.00  0.00    -0.231 NA 
HETATM   21  C   UNL     1     -10.808  15.001  66.688  1.00  0.00    -0.318 A  
HETATM   22  C   UNL     1     -10.721  15.794  65.540  1.00  0.00    -0.383 A  
HETATM   23  N   UNL     1     -11.453  15.450  64.455  1.00  0.00    -0.368 NA 
HETATM   24  N   UNL     1      -9.915  16.921  65.492  1.00  0.00    -0.584 NA 
HETATM   25  C   UNL     1     -12.195  14.328  64.524  1.00  0.00    -0.455 A  
HETATM   26  H1  UNL     1      -9.851  17.500  64.654  1.00  0.00     0.000 HD 
HETATM   27  H2  UNL     1      -8.969  16.641  65.751  1.00  0.00     0.000 HD 
HETATM   28  N   UNL     1     -12.330  13.465  65.555  1.00  0.00    -0.456 NA 
HETATM   29  C   UNL     1     -11.599  13.875  66.603  1.00  0.00    -0.374 A  
ENDBRANCH  17  18
ENDBRANCH  15  17
ENDBRANCH  14  15
ENDBRANCH  13  14
ENDBRANCH  11  13
BRANCH  11  30
HETATM   30  O   UNL     1     -10.310   5.964  67.605  1.00  0.00    -0.168 OA 
BRANCH  30  31
HETATM   31  C   UNL     1      -9.863   4.798  67.009  1.00  0.00    -0.200 A  
HETATM   32  C   UNL     1      -9.844   4.771  65.614  1.00  0.00    -0.193 A  
HETATM   33  C   UNL     1      -9.057   2.510  67.038  1.00  0.00    -0.158 A  
HETATM   34  C   UNL     1      -9.460   3.665  67.723  1.00  0.00    -0.231 A  
HETATM   35  C   UNL     1      -9.060   2.481  65.645  1.00  0.00    -0.108 A  
HETATM   36  C   UNL     1      -9.454   3.611  64.934  1.00  0.00    -0.161 A  
ENDBRANCH  30  31
ENDBRANCH  11  30
ENDBRANCH   9  11
ENDBRANCH   7   9
ENDBRANCH   5   7
ENDBRANCH   4   5
ENDBRANCH   2   4
TORSDOF 12
ENDMDL
MODEL      350
REMARK 921   NORMALIZED FREE ENERGY PREDICTED BY IDOCK:   -3.57 KCAL/MOL
REMARK 922        TOTAL FREE ENERGY PREDICTED BY IDOCK:   -7.79 KCAL/MOL
REMARK 923 INTER-LIGAND FREE ENERGY PREDICTED BY IDOCK:   -9.61 KCAL/MOL
REMARK 924 INTRA-LIGAND FREE ENERGY PREDICTED BY IDOCK:    1.83 KCAL/MOL
REMARK 927      BINDING AFFINITY PREDICTED BY RF-SCORE:    0.00 PKD
ROOT
HETATM    1  C   UNL     1      -7.670  10.053  66.836  1.00  0.00    -0.096 C  
HETATM    2  C   UNL     1      -8.875  10.309  65.928  1.00  0.00    -0.159 C  
HETATM    3  C   UNL     1      -9.548   8.989  65.529  1.00  0.00    -0.166 C  
ENDROOT
BRANCH   2   4
HETATM    4  O   UNL     1      -9.758  11.356  66.449  1.00  0.00    -0.195 OA 
BRANCH   4   5
HETATM    5  C   UNL     1      -9.305  12.196  67.413  1.00  0.00    -0.181 C  
HETATM    6  O   UNL     1      -8.396  13.005  67.222  1.00  0.00    -0.183 OA 
BRANCH   5   7
HETATM    7  C   UNL     1      -9.979  12.088  68.811  1.00  0.00    -0.073 C  
HETATM    8  C   UNL     1     -10.917  10.882  68.825  1.00  0.00    -0.285 C  
BRANCH   7   9
HETATM    9  N   UNL     1     -10.642  13.309  69.414  1.00  0.00    -0.428 NA 
HETATM   10  H   UNL     1      -9.969  14.062  69.557  1.00  0.00     0.000 HD 
BRANCH   9  11
HETATM   11  P   UNL     1     -12.018  13.853  68.458  1.00  0.00    -0.214 P  
HETATM   12  O   UNL     1     -12.058  12.570  67.592  1.00  0.00    -0.436 OA 
BRANCH  11  13
HETATM   13  C   UNL     1     -11.493  14.842  66.907  1.00  0.00    -0.313 C  
BRANCH  13  14
HETATM   14  O   UNL     1     -11.102  16.234  67.212  1.00  0.00    -0.207 OA 
BRANCH  14  15
HETATM   15  C   UNL     1      -9.881  16.525  67.943  1.00  0.00    -0.240 C  
HETATM   16  C   UNL     1     -10.124  17.677  68.927  1.00  0.00    -0.351 C  
BRANCH  15  17
HETATM   17  C   UNL     1      -8.639  16.688  67.078  1.00  0.00    -0.195 C  
BRANCH  17  18
HETATM   18  N   UNL     1      -7.920  17.919  67.259  1.00  0.00    -0.208 NA 
HETATM   19  C   UNL     1      -8.048  19.079  66.543  1.00  0.00    -0.289 A  
HETATM   20  N   UNL     1      -7.294  20.039  67.033  1.00  0.00    -0.243 NA 
HETATM   21  C   UNL     1      -6.643  19.454  68.097  1.00  0.00    -0.246 A  
HETATM   22  C   UNL     1      -5.725  19.961  69.020  1.00  0.00    -0.231 A  
HETATM   23  N   UNL     1      -5.188  19.119  69.932  1.00  0.00    -0.198 NA 
HETATM   24  N   UNL     1      -5.347  21.295  69.015  1.00  0.00    -0.443 NA 
HETATM   25  C   UNL     1      -5.605  17.839  69.933  1.00  0.00    -0.241 A  
HETATM   26  H1  UNL     1      -4.676  21.666  69.688  1.00  0.00     0.000 HD 
HETATM   27  H2  UNL     1      -6.195  21.860  69.074  1.00  0.00     0.000 HD 
HETATM   28  N   UNL     1      -6.509  17.243  69.124  1.00  0.00    -0.223 NA 
HETATM   29  C   UNL     1      -6.984  18.124  68.230  1.00  0.00    -0.233 A  
ENDBRANCH  17  18
ENDBRANCH  15  17
ENDBRANCH  14  15
ENDBRANCH  13  14
ENDBRANCH  11  13
BRANCH  11  30
HETATM   30  O   UNL     1     -11.973  15.287  69.426  1.00  0.00    -0.321 OA 
BRANCH  30  31
HETATM   31  C   UNL     1     -12.384  15.156  70.741  1.00  0.00    -0.360 A  
HETATM   32  C   UNL     1     -12.002  16.166  71.624  1.00  0.00    -0.528 A  
HETATM   33  C   UNL     1     -13.473  13.998  72.574  1.00  0.00    -0.661 A  
HETATM   34  C   UNL     1     -13.129  14.072  71.217  1.00  0.00    -0.399 A  
HETATM   35  C   UNL     1     -13.071  14.999  73.457  1.00  0.00    -0.445 A  
HETATM   36  C   UNL     1     -12.336  16.082  72.981  1.00  0.00    -0.625 A  
ENDBRANCH  30  31
ENDBRANCH  11  30
ENDBRANCH   9  11
ENDBRANCH   7   9
ENDBRANCH   5   7
ENDBRANCH   4   5
ENDBRANCH   2   4
TORSDOF 12
ENDMDL
MODEL      351
REMARK 921   NORMALIZED FREE ENERGY PREDICTED BY IDOCK:   -3.51 KCAL/MOL
REMARK 922        TOTAL FREE ENERGY PREDICTED BY IDOCK:   -7.69 KCAL/MOL
REMARK 923 INTER-LIGAND FREE ENERGY PREDICTED BY IDOCK:   -8.40 KCAL/MOL
REMARK 924 INTRA-LIGAND FREE ENERGY PREDICTED BY IDOCK:    0.72 KCAL/MOL
REMARK 927      BINDING AFFINITY PREDICTED BY RF-SCORE:    0.00 PKD
ROOT
HETATM    1  C   UNL     1     -12.749  14.819  73.415  1.00  0.00    -0.588 C  
HETATM    2  C   UNL     1     -13.117  14.254  72.041  1.00  0.00    -0.372 C  
HETATM    3  C   UNL     1     -14.367  14.948  71.482  1.00  0.00    -0.631 C  
ENDROOT
BRANCH   2   4
HETATM    4  O   UNL     1     -11.964  14.169  71.141  1.00  0.00    -0.335 OA 
BRANCH   4   5
HETATM    5  C   UNL     1     -11.430  15.306  70.629  1.00  0.00    -0.319 C  
HETATM    6  O   UNL     1     -11.617  16.417  71.127  1.00  0.00    -0.400 OA 
BRANCH   5   7
HETATM    7  C   UNL     1     -10.564  15.157  69.345  1.00  0.00    -0.255 C  
HETATM    8  C   UNL     1      -9.090  15.327  69.711  1.00  0.00    -0.033 C  
BRANCH   7   9
HETATM    9  N   UNL     1     -10.920  15.958  68.110  1.00  0.00    -0.322 NA 
HETATM   10  H   UNL     1     -10.620  16.928  68.199  1.00  0.00     0.000 HD 
BRANCH   9  11
HETATM   11  P   UNL     1     -10.284  15.223  66.641  1.00  0.00    -0.293 P  
HETATM   12  O   UNL     1     -11.442  14.203  66.523  1.00  0.00    -0.332 OA 
BRANCH  11  13
HETATM   13  C   UNL     1      -9.088  13.774  66.999  1.00  0.00    -0.246 C  
BRANCH  13  14
HETATM   14  O   UNL     1      -9.786  12.503  67.285  1.00  0.00    -0.201 OA 
BRANCH  14  15
HETATM   15  C   UNL     1      -9.120  11.225  67.098  1.00  0.00    -0.157 C  
HETATM   16  C   UNL     1      -9.887  10.381  66.072  1.00  0.00    -0.289 C  
BRANCH  15  17
HETATM   17  C   UNL     1      -8.773  10.489  68.385  1.00  0.00    -0.137 C  
BRANCH  17  18
HETATM   18  N   UNL     1      -8.413   9.107  68.226  1.00  0.00    -0.124 NA 
HETATM   19  C   UNL     1      -8.948   8.021  68.866  1.00  0.00    -0.141 A  
HETATM   20  N   UNL     1      -8.440   6.895  68.416  1.00  0.00    -0.123 NA 
HETATM   21  C   UNL     1      -7.527   7.285  67.463  1.00  0.00    -0.101 A  
HETATM   22  C   UNL     1      -6.682   6.551  66.626  1.00  0.00    -0.056 A  
HETATM   23  N   UNL     1      -5.823   7.219  65.822  1.00  0.00    -0.036 NA 
HETATM   24  N   UNL     1      -6.699   5.165  66.608  1.00  0.00    -0.059 NA 
HETATM   25  C   UNL     1      -5.860   8.565  65.837  1.00  0.00    -0.047 A  
HETATM   26  H1  UNL     1      -6.082   4.629  65.997  1.00  0.00     0.000 HD 
HETATM   27  H2  UNL     1      -7.657   4.866  66.426  1.00  0.00     0.000 HD 
HETATM   28  N   UNL     1      -6.652   9.382  66.568  1.00  0.00    -0.067 NA 
HETATM   29  C   UNL     1      -7.461   8.659  67.357  1.00  0.00    -0.089 A  
ENDBRANCH  17  18
ENDBRANCH  15  17
ENDBRANCH  14  15
ENDBRANCH  13  14
ENDBRANCH  11  13
BRANCH  11  30
HETATM   30  O   UNL     1      -8.989  16.364  66.773  1.00  0.00    -0.205 OA 
BRANCH  30  31
HETATM   31  C   UNL     1      -9.349  17.698  66.853  1.00  0.00    -0.264 A  
HETATM   32  C   UNL     1      -8.642  18.487  67.761  1.00  0.00    -0.286 A  
HETATM   33  C   UNL     1     -10.705  19.624  66.272  1.00  0.00    -0.524 A  
HETATM   34  C   UNL     1     -10.379  18.271  66.100  1.00  0.00    -0.414 A  
HETATM   35  C   UNL     1     -10.009  20.403  67.195  1.00  0.00    -0.568 A  
HETATM   36  C   UNL     1      -8.980  19.834  67.938  1.00  0.00    -0.390 A  
ENDBRANCH  30  31
ENDBRANCH  11  30
ENDBRANCH   9  11
ENDBRANCH   7   9
ENDBRANCH   5   7
ENDBRANCH   4   5
ENDBRANCH   2   4
TORSDOF 12
ENDMDL
MODEL      352
REMARK 921   NORMALIZED FREE ENERGY PREDICTED BY IDOCK:   -3.51 KCAL/MOL
REMARK 922        TOTAL FREE ENERGY PREDICTED BY IDOCK:   -7.68 KCAL/MOL
REMARK 923 INTER-LIGAND FREE ENERGY PREDICTED BY IDOCK:   -6.26 KCAL/MOL
REMARK 924 INTRA-LIGAND FREE ENERGY PREDICTED BY IDOCK:   -1.42 KCAL/MOL
REMARK 927      BINDING AFFINITY PREDICTED BY RF-SCORE:    0.00 PKD
ROOT
HETATM    1  C   UNL     1     -11.221  12.226  64.084  1.00  0.00    -0.430 C  
HETATM    2  C   UNL     1     -11.204  11.076  65.094  1.00  0.00     0.173 C  
HETATM    3  C   UNL     1      -9.913  10.255  64.966  1.00  0.00    -0.393 C  
ENDROOT
BRANCH   2   4
HETATM    4  O   UNL     1     -11.564  11.512  66.446  1.00  0.00    -0.412 OA 
BRANCH   4   5
HETATM    5  C   UNL     1     -10.836  12.483  67.052  1.00  0.00    -0.254 C  
HETATM    6  O   UNL     1     -11.013  13.684  66.840  1.00  0.00    -0.285 OA 
BRANCH   5   7
HETATM    7  C   UNL     1      -9.728  12.016  68.039  1.00  0.00    -0.198 C  
HETATM    8  C   UNL     1     -10.354  11.132  69.117  1.00  0.00    -0.186 C  
BRANCH   7   9
HETATM    9  N   UNL     1      -8.790  13.040  68.644  1.00  0.00    -0.374 NA 
HETATM   10  H   UNL     1      -9.038  13.242  69.613  1.00  0.00     0.000 HD 
BRANCH   9  11
HETATM   11  P   UNL     1      -7.103  12.554  68.503  1.00  0.00    -0.111 P  
HETATM   12  O   UNL     1      -6.721  13.094  69.903  1.00  0.00     0.042 OA 
BRANCH  11  13
HETATM   13  C   UNL     1      -6.008  13.911  67.718  1.00  0.00    -0.108 C  
BRANCH  13  14
HETATM   14  O   UNL     1      -5.154  14.609  68.702  1.00  0.00    -0.087 OA 
BRANCH  14  15
HETATM   15  C   UNL     1      -5.152  16.059  68.796  1.00  0.00    -0.100 C  
HETATM   16  C   UNL     1      -5.811  16.497  70.110  1.00  0.00    -0.171 C  
BRANCH  15  17
HETATM   17  C   UNL     1      -5.670  16.781  67.560  1.00  0.00    -0.150 C  
BRANCH  17  18
HETATM   18  N   UNL     1      -6.683  17.771  67.805  1.00  0.00    -0.182 NA 
HETATM   19  C   UNL     1      -6.537  19.132  67.833  1.00  0.00    -0.224 A  
HETATM   20  N   UNL     1      -7.690  19.740  68.002  1.00  0.00    -0.300 NA 
HETATM   21  C   UNL     1      -8.606  18.717  68.106  1.00  0.00    -0.309 A  
HETATM   22  C   UNL     1      -9.993  18.723  68.280  1.00  0.00    -0.385 A  
HETATM   23  N   UNL     1     -10.635  17.540  68.422  1.00  0.00    -0.365 NA 
HETATM   24  N   UNL     1     -10.718  19.904  68.318  1.00  0.00    -0.314 NA 
HETATM   25  C   UNL     1      -9.905  16.411  68.342  1.00  0.00    -0.233 A  
HETATM   26  H1  UNL     1     -11.731  19.908  68.445  1.00  0.00     0.000 HD 
HETATM   27  H2  UNL     1     -10.507  20.428  67.469  1.00  0.00     0.000 HD 
HETATM   28  N   UNL     1      -8.575  16.276  68.140  1.00  0.00    -0.180 NA 
HETATM   29  C   UNL     1      -7.997  17.482  68.030  1.00  0.00    -0.234 A  
ENDBRANCH  17  18
ENDBRANCH  15  17
ENDBRANCH  14  15
ENDBRANCH  13  14
ENDBRANCH  11  13
BRANCH  11  30
HETATM   30  O   UNL     1      -7.530  11.950  66.938  1.00  0.00    -0.139 OA 
BRANCH  30  31
HETATM   31  C   UNL     1      -6.802  10.868  66.476  1.00  0.00    -0.132 A  
HETATM   32  C   UNL     1      -6.709   9.763  67.325  1.00  0.00    -0.074 A  
HETATM   33  C   UNL     1      -5.404   9.715  64.863  1.00  0.00    -0.052 A  
HETATM   34  C   UNL     1      -6.154  10.839  65.238  1.00  0.00    -0.002 A  
HETATM   35  C   UNL     1      -5.297   8.623  65.723  1.00  0.00    -0.034 A  
HETATM   36  C   UNL     1      -5.949   8.649  66.952  1.00  0.00    -0.057 A  
ENDBRANCH  30  31
ENDBRANCH  11  30
ENDBRANCH   9  11
ENDBRANCH   7   9
ENDBRANCH   5   7
ENDBRANCH   4   5
ENDBRANCH   2   4
TORSDOF 12
ENDMDL
MODEL      353
REMARK 921   NORMALIZED FREE ENERGY PREDICTED BY IDOCK:   -3.51 KCAL/MOL
REMARK 922        TOTAL FREE ENERGY PREDICTED BY IDOCK:   -7.68 KCAL/MOL
REMARK 923 INTER-LIGAND FREE ENERGY PREDICTED BY IDOCK:   -8.07 KCAL/MOL
REMARK 924 INTRA-LIGAND FREE ENERGY PREDICTED BY IDOCK:    0.39 KCAL/MOL
REMARK 927      BINDING AFFINITY PREDICTED BY RF-SCORE:    0.00 PKD
ROOT
HETATM    1  C   UNL     1     -10.442  11.374  63.682  1.00  0.00    -0.472 C  
HETATM    2  C   UNL     1     -11.433  12.516  63.440  1.00  0.00    -0.452 C  
HETATM    3  C   UNL     1     -12.849  11.970  63.209  1.00  0.00    -0.330 C  
ENDROOT
BRANCH   2   4
HETATM    4  O   UNL     1     -11.305  13.589  64.429  1.00  0.00    -0.363 OA 
BRANCH   4   5
HETATM    5  C   UNL     1     -11.730  13.382  65.700  1.00  0.00    -0.346 C  
HETATM    6  O   UNL     1     -12.654  12.616  65.982  1.00  0.00    -0.468 OA 
BRANCH   5   7
HETATM    7  C   UNL     1     -11.002  14.178  66.821  1.00  0.00    -0.300 C  
HETATM    8  C   UNL     1      -9.561  14.448  66.393  1.00  0.00    -0.320 C  
BRANCH   7   9
HETATM    9  N   UNL     1     -11.068  13.681  68.250  1.00  0.00    -0.246 NA 
HETATM   10  H   UNL     1     -12.024  13.447  68.517  1.00  0.00     0.000 HD 
BRANCH   9  11
HETATM   11  P   UNL     1      -9.976  12.327  68.529  1.00  0.00    -0.058 P  
HETATM   12  O   UNL     1      -8.701  13.199  68.432  1.00  0.00    -0.174 OA 
BRANCH  11  13
HETATM   13  C   UNL     1      -9.459  11.451  66.909  1.00  0.00    -0.179 C  
BRANCH  13  14
HETATM   14  O   UNL     1      -8.079  10.925  66.949  1.00  0.00    -0.126 OA 
BRANCH  14  15
HETATM   15  C   UNL     1      -7.676   9.955  67.953  1.00  0.00    -0.090 C  
HETATM   16  C   UNL     1      -6.497  10.505  68.766  1.00  0.00    -0.051 C  
BRANCH  15  17
HETATM   17  C   UNL     1      -7.475   8.539  67.431  1.00  0.00    -0.093 C  
BRANCH  17  18
HETATM   18  N   UNL     1      -7.486   7.507  68.431  1.00  0.00    -0.106 NA 
HETATM   19  C   UNL     1      -6.429   7.038  69.165  1.00  0.00    -0.040 A  
HETATM   20  N   UNL     1      -6.812   6.148  70.053  1.00  0.00    -0.055 NA 
HETATM   21  C   UNL     1      -8.170   6.031  69.859  1.00  0.00    -0.118 A  
HETATM   22  C   UNL     1      -9.140   5.258  70.503  1.00  0.00    -0.141 A  
HETATM   23  N   UNL     1     -10.412   5.296  70.042  1.00  0.00    -0.300 NA 
HETATM   24  N   UNL     1      -8.828   4.452  71.587  1.00  0.00    -0.117 NA 
HETATM   25  C   UNL     1     -10.687   6.118  69.013  1.00  0.00    -0.312 A  
HETATM   26  H1  UNL     1      -9.536   3.886  72.056  1.00  0.00     0.000 HD 
HETATM   27  H2  UNL     1      -8.376   5.035  72.291  1.00  0.00     0.000 HD 
HETATM   28  N   UNL     1      -9.851   6.938  68.337  1.00  0.00    -0.140 NA 
HETATM   29  C   UNL     1      -8.606   6.836  68.826  1.00  0.00    -0.123 A  
ENDBRANCH  17  18
ENDBRANCH  15  17
ENDBRANCH  14  15
ENDBRANCH  13  14
ENDBRANCH  11  13
BRANCH  11  30
HETATM   30  O   UNL     1     -11.403  11.352  68.637  1.00  0.00    -0.215 OA 
BRANCH  30  31
HETATM   31  C   UNL     1     -11.569  10.632  69.807  1.00  0.00    -0.309 A  
HETATM   32  C   UNL     1     -10.480   9.875  70.240  1.00  0.00    -0.348 A  
HETATM   33  C   UNL     1     -12.853   9.823  71.700  1.00  0.00    -0.519 A  
HETATM   34  C   UNL     1     -12.756  10.612  70.545  1.00  0.00    -0.395 A  
HETATM   35  C   UNL     1     -11.769   9.052  72.117  1.00  0.00    -0.366 A  
HETATM   36  C   UNL     1     -10.584   9.079  71.386  1.00  0.00    -0.393 A  
ENDBRANCH  30  31
ENDBRANCH  11  30
ENDBRANCH   9  11
ENDBRANCH   7   9
ENDBRANCH   5   7
ENDBRANCH   4   5
ENDBRANCH   2   4
TORSDOF 12
ENDMDL
MODEL      354
REMARK 921   NORMALIZED FREE ENERGY PREDICTED BY IDOCK:   -3.50 KCAL/MOL
REMARK 922        TOTAL FREE ENERGY PREDICTED BY IDOCK:   -7.68 KCAL/MOL
REMARK 923 INTER-LIGAND FREE ENERGY PREDICTED BY IDOCK:   -5.91 KCAL/MOL
REMARK 924 INTRA-LIGAND FREE ENERGY PREDICTED BY IDOCK:   -1.77 KCAL/MOL
REMARK 927      BINDING AFFINITY PREDICTED BY RF-SCORE:    0.00 PKD
ROOT
HETATM    1  C   UNL     1     -11.069  16.403  70.094  1.00  0.00    -0.285 C  
HETATM    2  C   UNL     1     -11.063  15.824  68.677  1.00  0.00    -0.327 C  
HETATM    3  C   UNL     1     -10.863  16.933  67.635  1.00  0.00    -0.244 C  
ENDROOT
BRANCH   2   4
HETATM    4  O   UNL     1     -10.191  14.652  68.554  1.00  0.00    -0.227 OA 
BRANCH   4   5
HETATM    5  C   UNL     1     -10.713  13.411  68.709  1.00  0.00    -0.232 C  
HETATM    6  O   UNL     1     -11.834  13.209  69.180  1.00  0.00    -0.294 OA 
BRANCH   5   7
HETATM    7  C   UNL     1      -9.818  12.214  68.275  1.00  0.00    -0.212 C  
HETATM    8  C   UNL     1      -8.605  12.744  67.512  1.00  0.00    -0.187 C  
BRANCH   7   9
HETATM    9  N   UNL     1     -10.445  11.035  67.562  1.00  0.00    -0.198 NA 
HETATM   10  H   UNL     1      -9.982  10.853  66.671  1.00  0.00     0.000 HD 
BRANCH   9  11
HETATM   11  P   UNL     1     -10.478   9.593  68.572  1.00  0.00    -0.203 P  
HETATM   12  O   UNL     1     -11.894   9.884  69.125  1.00  0.00     0.107 OA 
BRANCH  11  13
HETATM   13  C   UNL     1      -9.768   9.901  70.321  1.00  0.00    -0.154 C  
BRANCH  13  14
HETATM   14  O   UNL     1      -9.467   8.653  71.053  1.00  0.00    -0.173 OA 
BRANCH  14  15
HETATM   15  C   UNL     1     -10.189   8.304  72.266  1.00  0.00    -0.305 C  
HETATM   16  C   UNL     1      -9.206   8.165  73.435  1.00  0.00    -0.291 C  
BRANCH  15  17
HETATM   17  C   UNL     1     -11.162   7.143  72.119  1.00  0.00    -0.255 C  
BRANCH  17  18
HETATM   18  N   UNL     1     -10.751   6.106  71.213  1.00  0.00    -0.246 NA 
HETATM   19  C   UNL     1     -10.986   6.026  69.867  1.00  0.00    -0.388 A  
HETATM   20  N   UNL     1     -10.391   4.982  69.332  1.00  0.00    -0.201 NA 
HETATM   21  C   UNL     1      -9.768   4.362  70.391  1.00  0.00    -0.214 A  
HETATM   22  C   UNL     1      -8.968   3.217  70.461  1.00  0.00    -0.096 A  
HETATM   23  N   UNL     1      -8.542   2.795  71.674  1.00  0.00    -0.067 NA 
HETATM   24  N   UNL     1      -8.613   2.506  69.325  1.00  0.00    -0.066 NA 
HETATM   25  C   UNL     1      -8.874   3.531  72.751  1.00  0.00    -0.089 A  
HETATM   26  H1  UNL     1      -8.030   1.670  69.376  1.00  0.00     0.000 HD 
HETATM   27  H2  UNL     1      -8.173   3.156  68.674  1.00  0.00     0.000 HD 
HETATM   28  N   UNL     1      -9.603   4.668  72.808  1.00  0.00    -0.132 NA 
HETATM   29  C   UNL     1     -10.013   5.018  71.579  1.00  0.00    -0.190 A  
ENDBRANCH  17  18
ENDBRANCH  15  17
ENDBRANCH  14  15
ENDBRANCH  13  14
ENDBRANCH  11  13
BRANCH  11  30
HETATM   30  O   UNL     1      -8.895   9.267  67.953  1.00  0.00    -0.124 OA 
BRANCH  30  31
HETATM   31  C   UNL     1      -8.734   8.075  67.270  1.00  0.00    -0.131 A  
HETATM   32  C   UNL     1      -9.879   7.516  66.700  1.00  0.00    -0.274 A  
HETATM   33  C   UNL     1      -7.443   6.184  66.467  1.00  0.00    -0.086 A  
HETATM   34  C   UNL     1      -7.511   7.409  67.145  1.00  0.00    -0.106 A  
HETATM   35  C   UNL     1      -8.593   5.620  65.918  1.00  0.00    -0.144 A  
HETATM   36  C   UNL     1      -9.810   6.286  66.036  1.00  0.00     0.123 A  
ENDBRANCH  30  31
ENDBRANCH  11  30
ENDBRANCH   9  11
ENDBRANCH   7   9
ENDBRANCH   5   7
ENDBRANCH   4   5
ENDBRANCH   2   4
TORSDOF 12
ENDMDL
MODEL      355
REMARK 921   NORMALIZED FREE ENERGY PREDICTED BY IDOCK:   -3.50 KCAL/MOL
REMARK 922        TOTAL FREE ENERGY PREDICTED BY IDOCK:   -7.67 KCAL/MOL
REMARK 923 INTER-LIGAND FREE ENERGY PREDICTED BY IDOCK:   -8.54 KCAL/MOL
REMARK 924 INTRA-LIGAND FREE ENERGY PREDICTED BY IDOCK:    0.86 KCAL/MOL
REMARK 927      BINDING AFFINITY PREDICTED BY RF-SCORE:    0.00 PKD
ROOT
HETATM    1  C   UNL     1     -13.294   8.747  71.535  1.00  0.00    -0.355 C  
HETATM    2  C   UNL     1     -11.824   9.034  71.849  1.00  0.00    -0.376 C  
HETATM    3  C   UNL     1     -11.260   7.990  72.824  1.00  0.00    -0.448 C  
ENDROOT
BRANCH   2   4
HETATM    4  O   UNL     1     -11.032   9.290  70.644  1.00  0.00    -0.237 OA 
BRANCH   4   5
HETATM    5  C   UNL     1     -10.709   8.260  69.823  1.00  0.00    -0.221 C  
HETATM    6  O   UNL     1     -10.399   7.143  70.241  1.00  0.00    -0.196 OA 
BRANCH   5   7
HETATM    7  C   UNL     1     -10.726   8.549  68.295  1.00  0.00    -0.036 C  
HETATM    8  C   UNL     1     -10.783   7.226  67.533  1.00  0.00    -0.326 C  
BRANCH   7   9
HETATM    9  N   UNL     1      -9.691   9.482  67.701  1.00  0.00    -0.149 NA 
HETATM   10  H   UNL     1      -9.967  10.458  67.808  1.00  0.00     0.000 HD 
BRANCH   9  11
HETATM   11  P   UNL     1      -8.086   9.196  68.367  1.00  0.00    -0.104 P  
HETATM   12  O   UNL     1      -8.286  10.175  69.550  1.00  0.00    -0.154 OA 
BRANCH  11  13
HETATM   13  C   UNL     1      -6.768  10.383  67.652  1.00  0.00    -0.074 C  
BRANCH  13  14
HETATM   14  O   UNL     1      -7.351  11.587  67.024  1.00  0.00    -0.130 OA 
BRANCH  14  15
HETATM   15  C   UNL     1      -7.289  12.880  67.685  1.00  0.00    -0.145 C  
HETATM   16  C   UNL     1      -6.351  12.802  68.897  1.00  0.00    -0.086 C  
BRANCH  15  17
HETATM   17  C   UNL     1      -8.641  13.517  67.976  1.00  0.00    -0.177 C  
BRANCH  17  18
HETATM   18  N   UNL     1      -9.432  13.834  66.819  1.00  0.00    -0.267 NA 
HETATM   19  C   UNL     1     -10.017  12.965  65.938  1.00  0.00    -0.268 A  
HETATM   20  N   UNL     1     -10.743  13.597  65.042  1.00  0.00    -0.344 NA 
HETATM   21  C   UNL     1     -10.594  14.929  65.356  1.00  0.00    -0.373 A  
HETATM   22  C   UNL     1     -11.127  16.087  64.784  1.00  0.00    -0.365 A  
HETATM   23  N   UNL     1     -10.740  17.290  65.270  1.00  0.00    -0.617 NA 
HETATM   24  N   UNL     1     -12.028  16.032  63.731  1.00  0.00    -1.339 NA 
HETATM   25  C   UNL     1      -9.894  17.306  66.317  1.00  0.00    -0.285 A  
HETATM   26  H1  UNL     1     -12.417  16.877  63.313  1.00  0.00     0.000 HD 
HETATM   27  H2  UNL     1     -12.806  15.437  64.017  1.00  0.00     0.000 HD 
HETATM   28  N   UNL     1      -9.344  16.262  66.976  1.00  0.00    -0.217 NA 
HETATM   29  C   UNL     1      -9.748  15.104  66.432  1.00  0.00    -0.278 A  
ENDBRANCH  17  18
ENDBRANCH  15  17
ENDBRANCH  14  15
ENDBRANCH  13  14
ENDBRANCH  11  13
BRANCH  11  30
HETATM   30  O   UNL     1      -7.861   8.101  67.046  1.00  0.00    -0.101 OA 
BRANCH  30  31
HETATM   31  C   UNL     1      -7.809   8.662  65.782  1.00  0.00    -0.100 A  
HETATM   32  C   UNL     1      -6.564   8.677  65.151  1.00  0.00    -0.064 A  
HETATM   33  C   UNL     1      -8.765   9.807  63.869  1.00  0.00    -0.236 A  
HETATM   34  C   UNL     1      -8.914   9.222  65.134  1.00  0.00    -0.257 A  
HETATM   35  C   UNL     1      -7.516   9.837  63.251  1.00  0.00    -0.122 A  
HETATM   36  C   UNL     1      -6.417   9.273  63.893  1.00  0.00    -0.091 A  
ENDBRANCH  30  31
ENDBRANCH  11  30
ENDBRANCH   9  11
ENDBRANCH   7   9
ENDBRANCH   5   7
ENDBRANCH   4   5
ENDBRANCH   2   4
TORSDOF 12
ENDMDL
MODEL      356
REMARK 921   NORMALIZED FREE ENERGY PREDICTED BY IDOCK:   -3.50 KCAL/MOL
REMARK 922        TOTAL FREE ENERGY PREDICTED BY IDOCK:   -7.67 KCAL/MOL
REMARK 923 INTER-LIGAND FREE ENERGY PREDICTED BY IDOCK:   -6.11 KCAL/MOL
REMARK 924 INTRA-LIGAND FREE ENERGY PREDICTED BY IDOCK:   -1.55 KCAL/MOL
REMARK 927      BINDING AFFINITY PREDICTED BY RF-SCORE:    0.00 PKD
ROOT
HETATM    1  C   UNL     1     -10.440  10.994  65.004  1.00  0.00    -0.344 C  
HETATM    2  C   UNL     1      -9.377   9.952  65.358  1.00  0.00    -0.239 C  
HETATM    3  C   UNL     1      -8.121  10.137  64.495  1.00  0.00    -0.160 C  
ENDROOT
BRANCH   2   4
HETATM    4  O   UNL     1      -9.161   9.839  66.803  1.00  0.00    -0.143 OA 
BRANCH   4   5
HETATM    5  C   UNL     1      -9.537  10.856  67.617  1.00  0.00    -0.163 C  
HETATM    6  O   UNL     1      -8.982  11.957  67.614  1.00  0.00    -0.158 OA 
BRANCH   5   7
HETATM    7  C   UNL     1     -10.712  10.573  68.596  1.00  0.00    -0.215 C  
HETATM    8  C   UNL     1     -11.849  11.555  68.314  1.00  0.00    -0.327 C  
BRANCH   7   9
HETATM    9  N   UNL     1     -10.435  10.463  70.080  1.00  0.00    -0.445 NA 
HETATM   10  H   UNL     1     -11.192  10.872  70.629  1.00  0.00     0.000 HD 
BRANCH   9  11
HETATM   11  P   UNL     1     -10.115   8.802  70.571  1.00  0.00    -0.224 P  
HETATM   12  O   UNL     1      -9.403   9.216  71.883  1.00  0.00    -0.349 OA 
BRANCH  11  13
HETATM   13  C   UNL     1      -8.444   8.147  69.911  1.00  0.00    -0.125 C  
BRANCH  13  14
HETATM   14  O   UNL     1      -7.462   7.878  70.982  1.00  0.00    -0.070 OA 
BRANCH  14  15
HETATM   15  C   UNL     1      -6.554   6.746  70.897  1.00  0.00    -0.053 C  
HETATM   16  C   UNL     1      -6.788   5.987  69.585  1.00  0.00    -0.065 C  
BRANCH  15  17
HETATM   17  C   UNL     1      -6.514   5.863  72.137  1.00  0.00    -0.054 C  
BRANCH  17  18
HETATM   18  N   UNL     1      -7.469   4.789  72.158  1.00  0.00    -0.081 NA 
HETATM   19  C   UNL     1      -7.298   3.505  71.716  1.00  0.00    -0.051 A  
HETATM   20  N   UNL     1      -8.353   2.761  71.967  1.00  0.00    -0.058 NA 
HETATM   21  C   UNL     1      -9.242   3.618  72.576  1.00  0.00    -0.106 A  
HETATM   22  C   UNL     1     -10.527   3.419  73.088  1.00  0.00    -0.169 A  
HETATM   23  N   UNL     1     -11.204   4.484  73.576  1.00  0.00    -0.316 NA 
HETATM   24  N   UNL     1     -11.122   2.167  73.097  1.00  0.00    -0.151 NA 
HETATM   25  C   UNL     1     -10.582   5.678  73.586  1.00  0.00    -0.280 A  
HETATM   26  H1  UNL     1     -12.060   2.021  73.471  1.00  0.00     0.000 HD 
HETATM   27  H2  UNL     1     -10.491   1.525  73.577  1.00  0.00     0.000 HD 
HETATM   28  N   UNL     1      -9.338   5.988  73.158  1.00  0.00    -0.139 NA 
HETATM   29  C   UNL     1      -8.731   4.897  72.667  1.00  0.00    -0.119 A  
ENDBRANCH  17  18
ENDBRANCH  15  17
ENDBRANCH  14  15
ENDBRANCH  13  14
ENDBRANCH  11  13
BRANCH  11  30
HETATM   30  O   UNL     1     -10.911   8.340  69.106  1.00  0.00    -0.151 OA 
BRANCH  30  31
HETATM   31  C   UNL     1     -10.658   7.060  68.645  1.00  0.00    -0.210 A  
HETATM   32  C   UNL     1     -10.583   6.049  69.604  1.00  0.00    -0.367 A  
HETATM   33  C   UNL     1     -10.167   5.426  66.920  1.00  0.00    -0.279 A  
HETATM   34  C   UNL     1     -10.457   6.744  67.298  1.00  0.00    -0.352 A  
HETATM   35  C   UNL     1     -10.073   4.423  67.884  1.00  0.00    -0.008 A  
HETATM   36  C   UNL     1     -10.280   4.736  69.225  1.00  0.00    -0.144 A  
ENDBRANCH  30  31
ENDBRANCH  11  30
ENDBRANCH   9  11
ENDBRANCH   7   9
ENDBRANCH   5   7
ENDBRANCH   4   5
ENDBRANCH   2   4
TORSDOF 12
ENDMDL
MODEL      357
REMARK 921   NORMALIZED FREE ENERGY PREDICTED BY IDOCK:   -3.47 KCAL/MOL
REMARK 922        TOTAL FREE ENERGY PREDICTED BY IDOCK:   -7.61 KCAL/MOL
REMARK 923 INTER-LIGAND FREE ENERGY PREDICTED BY IDOCK:   -7.39 KCAL/MOL
REMARK 924 INTRA-LIGAND FREE ENERGY PREDICTED BY IDOCK:   -0.22 KCAL/MOL
REMARK 927      BINDING AFFINITY PREDICTED BY RF-SCORE:    0.00 PKD
ROOT
HETATM    1  C   UNL     1      -9.513   2.240  68.205  1.00  0.00    -0.218 C  
HETATM    2  C   UNL     1      -9.185   3.515  68.984  1.00  0.00    -0.162 C  
HETATM    3  C   UNL     1      -9.508   3.343  70.475  1.00  0.00    -0.247 C  
ENDROOT
BRANCH   2   4
HETATM    4  O   UNL     1      -7.856   4.042  68.664  1.00  0.00    -0.067 OA 
BRANCH   4   5
HETATM    5  C   UNL     1      -7.740   5.109  67.835  1.00  0.00    -0.087 C  
HETATM    6  O   UNL     1      -6.745   5.309  67.136  1.00  0.00    -0.055 OA 
BRANCH   5   7
HETATM    7  C   UNL     1      -8.931   6.109  67.808  1.00  0.00    -0.115 C  
HETATM    8  C   UNL     1      -9.504   6.170  66.393  1.00  0.00    -0.172 C  
BRANCH   7   9
HETATM    9  N   UNL     1      -8.753   7.495  68.390  1.00  0.00    -0.124 NA 
HETATM   10  H   UNL     1      -9.438   8.148  68.008  1.00  0.00     0.000 HD 
BRANCH   9  11
HETATM   11  P   UNL     1      -8.795   7.483  70.151  1.00  0.00    -0.146 P  
HETATM   12  O   UNL     1     -10.253   6.967  70.217  1.00  0.00    -0.189 OA 
BRANCH  11  13
HETATM   13  C   UNL     1      -9.386   9.146  70.887  1.00  0.00    -0.269 C  
BRANCH  13  14
HETATM   14  O   UNL     1     -10.119   9.983  69.914  1.00  0.00    -0.235 OA 
BRANCH  14  15
HETATM   15  C   UNL     1     -11.378  10.615  70.271  1.00  0.00    -0.319 C  
HETATM   16  C   UNL     1     -12.089   9.788  71.349  1.00  0.00    -0.486 C  
BRANCH  15  17
HETATM   17  C   UNL     1     -12.259  10.999  69.090  1.00  0.00    -0.159 C  
BRANCH  17  18
HETATM   18  N   UNL     1     -11.570  11.176  67.841  1.00  0.00    -0.540 NA 
HETATM   19  C   UNL     1     -10.880  10.237  67.122  1.00  0.00    -0.212 A  
HETATM   20  N   UNL     1     -10.445  10.723  65.980  1.00  0.00    -0.236 NA 
HETATM   21  C   UNL     1     -10.860  12.036  65.985  1.00  0.00    -0.289 A  
HETATM   22  C   UNL     1     -10.717  13.062  65.047  1.00  0.00    -0.315 A  
HETATM   23  N   UNL     1     -11.174  14.297  65.359  1.00  0.00    -0.317 NA 
HETATM   24  N   UNL     1     -10.113  12.846  63.817  1.00  0.00    -0.729 NA 
HETATM   25  C   UNL     1     -11.789  14.462  66.545  1.00  0.00    -0.390 A  
HETATM   26  H1  UNL     1     -10.008  13.595  63.132  1.00  0.00     0.000 HD 
HETATM   27  H2  UNL     1     -10.597  12.072  63.363  1.00  0.00     0.000 HD 
HETATM   28  N   UNL     1     -12.021  13.546  67.513  1.00  0.00    -0.362 NA 
HETATM   29  C   UNL     1     -11.524  12.353  67.152  1.00  0.00    -0.357 A  
ENDBRANCH  17  18
ENDBRANCH  15  17
ENDBRANCH  14  15
ENDBRANCH  13  14
ENDBRANCH  11  13
BRANCH  11  30
HETATM   30  O   UNL     1      -7.165   8.058  70.077  1.00  0.00    -0.059 OA 
BRANCH  30  31
HETATM   31  C   UNL     1      -6.963   9.251  69.404  1.00  0.00    -0.049 A  
HETATM   32  C   UNL     1      -6.603  10.356  70.177  1.00  0.00    -0.146 A  
HETATM   33  C   UNL     1      -6.933  10.655  67.426  1.00  0.00    -0.082 A  
HETATM   34  C   UNL     1      -7.120   9.400  68.023  1.00  0.00    -0.081 A  
HETATM   35  C   UNL     1      -6.594  11.760  68.205  1.00  0.00    -0.056 A  
HETATM   36  C   UNL     1      -6.430  11.609  69.579  1.00  0.00    -0.122 A  
ENDBRANCH  30  31
ENDBRANCH  11  30
ENDBRANCH   9  11
ENDBRANCH   7   9
ENDBRANCH   5   7
ENDBRANCH   4   5
ENDBRANCH   2   4
TORSDOF 12
ENDMDL
MODEL      358
REMARK 921   NORMALIZED FREE ENERGY PREDICTED BY IDOCK:   -3.42 KCAL/MOL
REMARK 922        TOTAL FREE ENERGY PREDICTED BY IDOCK:   -7.54 KCAL/MOL
REMARK 923 INTER-LIGAND FREE ENERGY PREDICTED BY IDOCK:   -6.16 KCAL/MOL
REMARK 924 INTRA-LIGAND FREE ENERGY PREDICTED BY IDOCK:   -1.38 KCAL/MOL
REMARK 927      BINDING AFFINITY PREDICTED BY RF-SCORE:    0.00 PKD
ROOT
HETATM    1  C   UNL     1      -6.850  11.425  67.094  1.00  0.00    -0.124 C  
HETATM    2  C   UNL     1      -7.595  11.822  68.371  1.00  0.00    -0.123 C  
HETATM    3  C   UNL     1      -6.671  12.592  69.325  1.00  0.00    -0.054 C  
ENDROOT
BRANCH   2   4
HETATM    4  O   UNL     1      -8.897  12.434  68.093  1.00  0.00    -0.182 OA 
BRANCH   4   5
HETATM    5  C   UNL     1      -9.577  12.082  66.974  1.00  0.00    -0.195 C  
HETATM    6  O   UNL     1      -9.146  12.282  65.837  1.00  0.00    -0.106 OA 
BRANCH   5   7
HETATM    7  C   UNL     1     -10.967  11.415  67.179  1.00  0.00    -0.285 C  
HETATM    8  C   UNL     1     -11.966  12.468  67.655  1.00  0.00    -0.287 C  
BRANCH   7   9
HETATM    9  N   UNL     1     -11.071  10.147  68.002  1.00  0.00    -0.432 NA 
HETATM   10  H   UNL     1     -12.032   9.808  68.039  1.00  0.00     0.000 HD 
BRANCH   9  11
HETATM   11  P   UNL     1      -9.973   8.896  67.427  1.00  0.00    -0.249 P  
HETATM   12  O   UNL     1     -10.104   9.314  65.942  1.00  0.00    -0.293 OA 
BRANCH  11  13
HETATM   13  C   UNL     1     -10.872   7.260  67.010  1.00  0.00    -0.280 C  
BRANCH  13  14
HETATM   14  O   UNL     1      -9.956   6.193  66.555  1.00  0.00    -0.165 OA 
BRANCH  14  15
HETATM   15  C   UNL     1      -8.981   5.608  67.460  1.00  0.00    -0.107 C  
HETATM   16  C   UNL     1      -7.757   5.129  66.669  1.00  0.00    -0.092 C  
BRANCH  15  17
HETATM   17  C   UNL     1      -9.545   4.579  68.430  1.00  0.00    -0.145 C  
BRANCH  17  18
HETATM   18  N   UNL     1      -9.464   4.935  69.820  1.00  0.00    -0.138 NA 
HETATM   19  C   UNL     1      -8.456   4.652  70.701  1.00  0.00    -0.095 A  
HETATM   20  N   UNL     1      -8.668   5.204  71.876  1.00  0.00    -0.129 NA 
HETATM   21  C   UNL     1      -9.877   5.849  71.739  1.00  0.00    -0.163 A  
HETATM   22  C   UNL     1     -10.627   6.623  72.629  1.00  0.00    -0.222 A  
HETATM   23  N   UNL     1     -11.838   7.079  72.233  1.00  0.00    -0.262 NA 
HETATM   24  N   UNL     1     -10.165   6.923  73.901  1.00  0.00    -0.353 NA 
HETATM   25  C   UNL     1     -12.238   6.802  70.978  1.00  0.00    -0.352 A  
HETATM   26  H1  UNL     1     -10.712   7.488  74.551  1.00  0.00     0.000 HD 
HETATM   27  H2  UNL     1      -9.247   7.356  73.806  1.00  0.00     0.000 HD 
HETATM   28  N   UNL     1     -11.592   6.102  70.018  1.00  0.00    -0.320 NA 
HETATM   29  C   UNL     1     -10.413   5.659  70.481  1.00  0.00    -0.277 A  
ENDBRANCH  17  18
ENDBRANCH  15  17
ENDBRANCH  14  15
ENDBRANCH  13  14
ENDBRANCH  11  13
BRANCH  11  30
HETATM   30  O   UNL     1      -9.825   8.428  69.087  1.00  0.00    -0.175 OA 
BRANCH  30  31
HETATM   31  C   UNL     1      -8.564   8.534  69.646  1.00  0.00    -0.131 A  
HETATM   32  C   UNL     1      -7.509   7.963  68.933  1.00  0.00    -0.094 A  
HETATM   33  C   UNL     1      -7.004   9.181  71.388  1.00  0.00    -0.031 A  
HETATM   34  C   UNL     1      -8.308   9.152  70.874  1.00  0.00    -0.231 A  
HETATM   35  C   UNL     1      -5.957   8.591  70.682  1.00  0.00    -0.032 A  
HETATM   36  C   UNL     1      -6.211   7.983  69.456  1.00  0.00    -0.034 A  
ENDBRANCH  30  31
ENDBRANCH  11  30
ENDBRANCH   9  11
ENDBRANCH   7   9
ENDBRANCH   5   7
ENDBRANCH   4   5
ENDBRANCH   2   4
TORSDOF 12
ENDMDL
MODEL      359
REMARK 921   NORMALIZED FREE ENERGY PREDICTED BY IDOCK:   -3.42 KCAL/MOL
REMARK 922        TOTAL FREE ENERGY PREDICTED BY IDOCK:   -7.53 KCAL/MOL
REMARK 923 INTER-LIGAND FREE ENERGY PREDICTED BY IDOCK:   -6.52 KCAL/MOL
REMARK 924 INTRA-LIGAND FREE ENERGY PREDICTED BY IDOCK:   -1.01 KCAL/MOL
REMARK 927      BINDING AFFINITY PREDICTED BY RF-SCORE:    0.00 PKD
ROOT
HETATM    1  C   UNL     1      -8.463   2.455  62.510  1.00  0.00    -0.074 C  
HETATM    2  C   UNL     1      -9.472   3.345  63.239  1.00  0.00    -0.100 C  
HETATM    3  C   UNL     1     -10.833   2.644  63.358  1.00  0.00    -0.216 C  
ENDROOT
BRANCH   2   4
HETATM    4  O   UNL     1      -8.927   3.918  64.473  1.00  0.00    -0.121 OA 
BRANCH   4   5
HETATM    5  C   UNL     1      -8.904   3.171  65.604  1.00  0.00    -0.137 C  
HETATM    6  O   UNL     1      -9.052   1.947  65.602  1.00  0.00    -0.122 OA 
BRANCH   5   7
HETATM    7  C   UNL     1      -8.694   3.933  66.944  1.00  0.00    -0.111 C  
HETATM    8  C   UNL     1      -7.546   3.285  67.717  1.00  0.00    -0.064 C  
BRANCH   7   9
HETATM    9  N   UNL     1      -9.883   4.199  67.843  1.00  0.00    -0.093 NA 
HETATM   10  H   UNL     1     -10.120   3.375  68.396  1.00  0.00     0.000 HD 
BRANCH   9  11
HETATM   11  P   UNL     1      -9.632   5.607  68.870  1.00  0.00    -0.148 P  
HETATM   12  O   UNL     1     -10.433   5.016  70.056  1.00  0.00    -0.276 OA 
BRANCH  11  13
HETATM   13  C   UNL     1     -10.997   6.930  68.653  1.00  0.00    -0.145 C  
BRANCH  13  14
HETATM   14  O   UNL     1     -11.316   7.646  69.906  1.00  0.00    -0.151 OA 
BRANCH  14  15
HETATM   15  C   UNL     1     -10.615   8.866  70.270  1.00  0.00    -0.218 C  
HETATM   16  C   UNL     1      -9.765   8.625  71.524  1.00  0.00    -0.333 C  
BRANCH  15  17
HETATM   17  C   UNL     1     -11.488  10.112  70.332  1.00  0.00    -0.322 C  
BRANCH  17  18
HETATM   18  N   UNL     1     -11.480  10.928  69.150  1.00  0.00    -0.277 NA 
HETATM   19  C   UNL     1     -11.271  10.530  67.856  1.00  0.00    -0.289 A  
HETATM   20  N   UNL     1     -11.418  11.527  67.012  1.00  0.00    -0.496 NA 
HETATM   21  C   UNL     1     -11.713  12.611  67.808  1.00  0.00    -0.356 A  
HETATM   22  C   UNL     1     -11.990  13.946  67.500  1.00  0.00    -0.386 A  
HETATM   23  N   UNL     1     -12.179  14.822  68.514  1.00  0.00    -0.156 NA 
HETATM   24  N   UNL     1     -12.066  14.390  66.189  1.00  0.00    -0.387 NA 
HETATM   25  C   UNL     1     -12.136  14.349  69.774  1.00  0.00    -0.334 A  
HETATM   26  H1  UNL     1     -12.269  15.365  65.963  1.00  0.00     0.000 HD 
HETATM   27  H2  UNL     1     -12.747  13.808  65.700  1.00  0.00     0.000 HD 
HETATM   28  N   UNL     1     -11.916  13.083  70.195  1.00  0.00    -0.335 NA 
HETATM   29  C   UNL     1     -11.715  12.272  69.146  1.00  0.00    -0.323 A  
ENDBRANCH  17  18
ENDBRANCH  15  17
ENDBRANCH  14  15
ENDBRANCH  13  14
ENDBRANCH  11  13
BRANCH  11  30
HETATM   30  O   UNL     1      -8.737   6.268  67.544  1.00  0.00    -0.108 OA 
BRANCH  30  31
HETATM   31  C   UNL     1      -7.889   7.321  67.838  1.00  0.00    -0.118 A  
HETATM   32  C   UNL     1      -6.779   7.032  68.633  1.00  0.00    -0.063 A  
HETATM   33  C   UNL     1      -7.209   9.649  67.779  1.00  0.00    -0.085 A  
HETATM   34  C   UNL     1      -8.099   8.633  67.403  1.00  0.00    -0.102 A  
HETATM   35  C   UNL     1      -6.113   9.359  68.590  1.00  0.00    -0.044 A  
HETATM   36  C   UNL     1      -5.900   8.051  69.017  1.00  0.00    -0.035 A  
ENDBRANCH  30  31
ENDBRANCH  11  30
ENDBRANCH   9  11
ENDBRANCH   7   9
ENDBRANCH   5   7
ENDBRANCH   4   5
ENDBRANCH   2   4
TORSDOF 12
ENDMDL
MODEL      360
REMARK 921   NORMALIZED FREE ENERGY PREDICTED BY IDOCK:   -3.42 KCAL/MOL
REMARK 922        TOTAL FREE ENERGY PREDICTED BY IDOCK:   -7.53 KCAL/MOL
REMARK 923 INTER-LIGAND FREE ENERGY PREDICTED BY IDOCK:   -8.48 KCAL/MOL
REMARK 924 INTRA-LIGAND FREE ENERGY PREDICTED BY IDOCK:    0.95 KCAL/MOL
REMARK 927      BINDING AFFINITY PREDICTED BY RF-SCORE:    0.00 PKD
ROOT
HETATM    1  C   UNL     1      -8.834  10.342  62.384  1.00  0.00    -0.268 C  
HETATM    2  C   UNL     1      -8.891  10.222  63.909  1.00  0.00    -0.220 C  
HETATM    3  C   UNL     1      -7.544   9.747  64.471  1.00  0.00    -0.134 C  
ENDROOT
BRANCH   2   4
HETATM    4  O   UNL     1      -9.477  11.406  64.544  1.00  0.00    -0.213 OA 
BRANCH   4   5
HETATM    5  C   UNL     1     -10.474  11.255  65.450  1.00  0.00    -0.268 C  
HETATM    6  O   UNL     1     -10.678  10.199  66.052  1.00  0.00    -0.059 OA 
BRANCH   5   7
HETATM    7  C   UNL     1     -11.387  12.489  65.699  1.00  0.00    -0.335 C  
HETATM    8  C   UNL     1     -10.658  13.754  65.248  1.00  0.00    -0.363 C  
BRANCH   7   9
HETATM    9  N   UNL     1     -12.028  12.679  67.058  1.00  0.00    -0.491 NA 
HETATM   10  H   UNL     1     -12.606  11.877  67.310  1.00  0.00     0.000 HD 
BRANCH   9  11
HETATM   11  P   UNL     1     -10.837  13.026  68.308  1.00  0.00    -0.266 P  
HETATM   12  O   UNL     1      -9.739  13.436  67.296  1.00  0.00    -0.222 OA 
BRANCH  11  13
HETATM   13  C   UNL     1      -9.788  11.495  68.773  1.00  0.00    -0.141 C  
BRANCH  13  14
HETATM   14  O   UNL     1     -10.553  10.471  69.514  1.00  0.00    -0.224 OA 
BRANCH  14  15
HETATM   15  C   UNL     1      -9.894   9.300  70.069  1.00  0.00    -0.205 C  
HETATM   16  C   UNL     1      -9.484   8.348  68.938  1.00  0.00    -0.147 C  
BRANCH  15  17
HETATM   17  C   UNL     1     -10.637   8.631  71.217  1.00  0.00    -0.239 C  
BRANCH  17  18
HETATM   18  N   UNL     1     -10.001   7.464  71.763  1.00  0.00    -0.171 NA 
HETATM   19  C   UNL     1     -10.262   6.152  71.472  1.00  0.00    -0.203 A  
HETATM   20  N   UNL     1      -9.432   5.342  72.093  1.00  0.00    -0.142 NA 
HETATM   21  C   UNL     1      -8.622   6.178  72.828  1.00  0.00    -0.123 A  
HETATM   22  C   UNL     1      -7.544   5.920  73.679  1.00  0.00    -0.097 A  
HETATM   23  N   UNL     1      -6.971   6.955  74.335  1.00  0.00    -0.090 NA 
HETATM   24  N   UNL     1      -7.059   4.635  73.871  1.00  0.00    -0.074 NA 
HETATM   25  C   UNL     1      -7.443   8.194  74.096  1.00  0.00    -0.191 A  
HETATM   26  H1  UNL     1      -6.272   4.446  74.492  1.00  0.00     0.000 HD 
HETATM   27  H2  UNL     1      -6.835   4.245  72.955  1.00  0.00     0.000 HD 
HETATM   28  N   UNL     1      -8.446   8.573  73.273  1.00  0.00    -0.389 NA 
HETATM   29  C   UNL     1      -8.985   7.500  72.673  1.00  0.00    -0.144 A  
ENDBRANCH  17  18
ENDBRANCH  15  17
ENDBRANCH  14  15
ENDBRANCH  13  14
ENDBRANCH  11  13
BRANCH  11  30
HETATM   30  O   UNL     1     -12.064  12.568  69.440  1.00  0.00    -0.266 OA 
BRANCH  30  31
HETATM   31  C   UNL     1     -12.382  13.499  70.412  1.00  0.00    -0.327 A  
HETATM   32  C   UNL     1     -13.122  13.041  71.504  1.00  0.00    -0.400 A  
HETATM   33  C   UNL     1     -12.422  15.734  71.355  1.00  0.00    -0.513 A  
HETATM   34  C   UNL     1     -12.024  14.849  70.343  1.00  0.00    -0.368 A  
HETATM   35  C   UNL     1     -13.178  15.276  72.433  1.00  0.00    -0.505 A  
HETATM   36  C   UNL     1     -13.527  13.930  72.505  1.00  0.00    -0.676 A  
ENDBRANCH  30  31
ENDBRANCH  11  30
ENDBRANCH   9  11
ENDBRANCH   7   9
ENDBRANCH   5   7
ENDBRANCH   4   5
ENDBRANCH   2   4
TORSDOF 12
ENDMDL
MODEL      361
REMARK 921   NORMALIZED FREE ENERGY PREDICTED BY IDOCK:   -3.39 KCAL/MOL
REMARK 922        TOTAL FREE ENERGY PREDICTED BY IDOCK:   -7.49 KCAL/MOL
REMARK 923 INTER-LIGAND FREE ENERGY PREDICTED BY IDOCK:   -7.86 KCAL/MOL
REMARK 924 INTRA-LIGAND FREE ENERGY PREDICTED BY IDOCK:    0.37 KCAL/MOL
REMARK 927      BINDING AFFINITY PREDICTED BY RF-SCORE:    0.00 PKD
ROOT
HETATM    1  C   UNL     1     -12.423  12.868  70.994  1.00  0.00    -0.374 C  
HETATM    2  C   UNL     1     -12.405  13.934  69.896  1.00  0.00    -0.300 C  
HETATM    3  C   UNL     1     -12.354  15.343  70.503  1.00  0.00    -0.452 C  
ENDROOT
BRANCH   2   4
HETATM    4  O   UNL     1     -11.424  13.643  68.847  1.00  0.00    -0.261 OA 
BRANCH   4   5
HETATM    5  C   UNL     1     -11.797  13.709  67.545  1.00  0.00    -0.381 C  
HETATM    6  O   UNL     1     -12.264  12.747  66.932  1.00  0.00    -0.454 OA 
BRANCH   5   7
HETATM    7  C   UNL     1     -11.592  15.073  66.825  1.00  0.00    -0.204 C  
HETATM    8  C   UNL     1     -11.718  14.869  65.316  1.00  0.00    -0.263 C  
BRANCH   7   9
HETATM    9  N   UNL     1     -10.386  15.922  67.167  1.00  0.00    -0.294 NA 
HETATM   10  H   UNL     1     -10.247  15.979  68.176  1.00  0.00     0.000 HD 
BRANCH   9  11
HETATM   11  P   UNL     1      -8.930  15.360  66.352  1.00  0.00    -0.244 P  
HETATM   12  O   UNL     1      -9.100  13.897  66.830  1.00  0.00    -0.245 OA 
BRANCH  11  13
HETATM   13  C   UNL     1      -7.369  15.501  67.448  1.00  0.00    -0.210 C  
BRANCH  13  14
HETATM   14  O   UNL     1      -6.769  14.191  67.775  1.00  0.00    -0.152 OA 
BRANCH  14  15
HETATM   15  C   UNL     1      -6.770  13.687  69.139  1.00  0.00    -0.109 C  
HETATM   16  C   UNL     1      -5.778  14.489  69.991  1.00  0.00    -0.121 C  
BRANCH  15  17
HETATM   17  C   UNL     1      -6.629  12.176  69.263  1.00  0.00    -0.104 C  
BRANCH  17  18
HETATM   18  N   UNL     1      -7.160  11.416  68.165  1.00  0.00    -0.072 NA 
HETATM   19  C   UNL     1      -6.539  11.097  66.987  1.00  0.00    -0.108 A  
HETATM   20  N   UNL     1      -7.287  10.315  66.240  1.00  0.00    -0.111 NA 
HETATM   21  C   UNL     1      -8.444  10.148  66.969  1.00  0.00    -0.129 A  
HETATM   22  C   UNL     1      -9.607   9.417  66.716  1.00  0.00    -0.179 A  
HETATM   23  N   UNL     1     -10.631   9.497  67.597  1.00  0.00    -0.264 NA 
HETATM   24  N   UNL     1      -9.738   8.624  65.585  1.00  0.00    -0.438 NA 
HETATM   25  C   UNL     1     -10.455  10.245  68.703  1.00  0.00    -0.193 A  
HETATM   26  H1  UNL     1     -10.588   8.090  65.400  1.00  0.00     0.000 HD 
HETATM   27  H2  UNL     1      -8.951   7.977  65.564  1.00  0.00     0.000 HD 
HETATM   28  N   UNL     1      -9.372  10.963  69.076  1.00  0.00    -0.169 NA 
HETATM   29  C   UNL     1      -8.405  10.859  68.151  1.00  0.00    -0.123 A  
ENDBRANCH  17  18
ENDBRANCH  15  17
ENDBRANCH  14  15
ENDBRANCH  13  14
ENDBRANCH  11  13
BRANCH  11  30
HETATM   30  O   UNL     1      -8.740  16.995  65.817  1.00  0.00    -0.522 OA 
BRANCH  30  31
HETATM   31  C   UNL     1      -7.688  17.705  66.367  1.00  0.00    -0.290 A  
HETATM   32  C   UNL     1      -8.018  18.779  67.195  1.00  0.00    -0.254 A  
HETATM   33  C   UNL     1      -5.337  18.211  66.690  1.00  0.00    -0.173 A  
HETATM   34  C   UNL     1      -6.342  17.415  66.121  1.00  0.00    -0.212 A  
HETATM   35  C   UNL     1      -5.672  19.295  67.499  1.00  0.00    -0.181 A  
HETATM   36  C   UNL     1      -7.011  19.578  67.750  1.00  0.00    -0.275 A  
ENDBRANCH  30  31
ENDBRANCH  11  30
ENDBRANCH   9  11
ENDBRANCH   7   9
ENDBRANCH   5   7
ENDBRANCH   4   5
ENDBRANCH   2   4
TORSDOF 12
ENDMDL
MODEL      362
REMARK 921   NORMALIZED FREE ENERGY PREDICTED BY IDOCK:   -3.39 KCAL/MOL
REMARK 922        TOTAL FREE ENERGY PREDICTED BY IDOCK:   -7.48 KCAL/MOL
REMARK 923 INTER-LIGAND FREE ENERGY PREDICTED BY IDOCK:   -6.73 KCAL/MOL
REMARK 924 INTRA-LIGAND FREE ENERGY PREDICTED BY IDOCK:   -0.75 KCAL/MOL
REMARK 927      BINDING AFFINITY PREDICTED BY RF-SCORE:    0.00 PKD
ROOT
HETATM    1  C   UNL     1      -8.289   6.935  65.053  1.00  0.00    -0.054 C  
HETATM    2  C   UNL     1      -7.918   8.313  65.607  1.00  0.00    -0.113 C  
HETATM    3  C   UNL     1      -9.111   9.274  65.524  1.00  0.00    -0.275 C  
ENDROOT
BRANCH   2   4
HETATM    4  O   UNL     1      -7.238   8.233  66.903  1.00  0.00    -0.080 OA 
BRANCH   4   5
HETATM    5  C   UNL     1      -6.620   7.082  67.265  1.00  0.00    -0.051 C  
HETATM    6  O   UNL     1      -5.737   6.554  66.587  1.00  0.00    -0.013 OA 
BRANCH   5   7
HETATM    7  C   UNL     1      -7.090   6.421  68.592  1.00  0.00    -0.083 C  
HETATM    8  C   UNL     1      -5.879   6.193  69.496  1.00  0.00    -0.017 C  
BRANCH   7   9
HETATM    9  N   UNL     1      -7.977   5.196  68.541  1.00  0.00    -0.086 NA 
HETATM   10  H   UNL     1      -7.483   4.366  68.870  1.00  0.00     0.000 HD 
BRANCH   9  11
HETATM   11  P   UNL     1      -9.483   5.433  69.424  1.00  0.00    -0.156 P  
HETATM   12  O   UNL     1     -10.312   5.707  68.145  1.00  0.00    -0.181 OA 
BRANCH  11  13
HETATM   13  C   UNL     1      -9.752   7.253  69.947  1.00  0.00    -0.174 C  
BRANCH  13  14
HETATM   14  O   UNL     1     -10.049   8.147  68.808  1.00  0.00    -0.189 OA 
BRANCH  14  15
HETATM   15  C   UNL     1     -10.060   9.591  68.972  1.00  0.00    -0.193 C  
HETATM   16  C   UNL     1      -9.503   9.962  70.353  1.00  0.00    -0.088 C  
BRANCH  15  17
HETATM   17  C   UNL     1     -11.379  10.266  68.623  1.00  0.00    -0.166 C  
BRANCH  17  18
HETATM   18  N   UNL     1     -12.083  10.850  69.731  1.00  0.00    -0.330 NA 
HETATM   19  C   UNL     1     -12.751  10.204  70.736  1.00  0.00    -0.311 A  
HETATM   20  N   UNL     1     -13.209  11.047  71.636  1.00  0.00    -0.401 NA 
HETATM   21  C   UNL     1     -12.832  12.286  71.168  1.00  0.00    -0.207 A  
HETATM   22  C   UNL     1     -13.013  13.571  71.686  1.00  0.00    -0.359 A  
HETATM   23  N   UNL     1     -12.588  14.631  70.958  1.00  0.00    -0.307 NA 
HETATM   24  N   UNL     1     -13.620  13.784  72.914  1.00  0.00    -0.632 NA 
HETATM   25  C   UNL     1     -11.969  14.386  69.788  1.00  0.00    -0.332 A  
HETATM   26  H1  UNL     1     -13.752  14.722  73.292  1.00  0.00     0.000 HD 
HETATM   27  H2  UNL     1     -13.118  13.234  73.611  1.00  0.00     0.000 HD 
HETATM   28  N   UNL     1     -11.703  13.196  69.204  1.00  0.00    -0.307 NA 
HETATM   29  C   UNL     1     -12.168  12.192  69.962  1.00  0.00    -0.198 A  
ENDBRANCH  17  18
ENDBRANCH  15  17
ENDBRANCH  14  15
ENDBRANCH  13  14
ENDBRANCH  11  13
BRANCH  11  30
HETATM   30  O   UNL     1      -8.557   5.127  70.853  1.00  0.00    -0.118 OA 
BRANCH  30  31
HETATM   31  C   UNL     1      -9.273   4.831  71.999  1.00  0.00    -0.136 A  
HETATM   32  C   UNL     1      -9.234   5.774  73.027  1.00  0.00    -0.140 A  
HETATM   33  C   UNL     1     -10.667   3.412  73.388  1.00  0.00    -0.303 A  
HETATM   34  C   UNL     1     -10.000   3.650  72.179  1.00  0.00    -0.238 A  
HETATM   35  C   UNL     1     -10.607   4.347  74.420  1.00  0.00    -0.286 A  
HETATM   36  C   UNL     1      -9.890   5.526  74.238  1.00  0.00    -0.209 A  
ENDBRANCH  30  31
ENDBRANCH  11  30
ENDBRANCH   9  11
ENDBRANCH   7   9
ENDBRANCH   5   7
ENDBRANCH   4   5
ENDBRANCH   2   4
TORSDOF 12
ENDMDL
MODEL      363
REMARK 921   NORMALIZED FREE ENERGY PREDICTED BY IDOCK:   -3.37 KCAL/MOL
REMARK 922        TOTAL FREE ENERGY PREDICTED BY IDOCK:   -7.45 KCAL/MOL
REMARK 923 INTER-LIGAND FREE ENERGY PREDICTED BY IDOCK:   -7.32 KCAL/MOL
REMARK 924 INTRA-LIGAND FREE ENERGY PREDICTED BY IDOCK:   -0.12 KCAL/MOL
REMARK 927      BINDING AFFINITY PREDICTED BY RF-SCORE:    0.00 PKD
ROOT
HETATM    1  C   UNL     1      -9.514   1.834  68.318  1.00  0.00    -0.234 C  
HETATM    2  C   UNL     1      -9.198   3.177  68.979  1.00  0.00    -0.159 C  
HETATM    3  C   UNL     1      -9.069   3.020  70.500  1.00  0.00    -0.190 C  
ENDROOT
BRANCH   2   4
HETATM    4  O   UNL     1      -8.110   3.891  68.306  1.00  0.00    -0.075 OA 
BRANCH   4   5
HETATM    5  C   UNL     1      -8.393   4.969  67.533  1.00  0.00    -0.105 C  
HETATM    6  O   UNL     1      -7.672   5.335  66.603  1.00  0.00    -0.094 OA 
BRANCH   5   7
HETATM    7  C   UNL     1      -9.687   5.760  67.881  1.00  0.00    -0.120 C  
HETATM    8  C   UNL     1     -10.628   5.740  66.677  1.00  0.00    -0.347 C  
BRANCH   7   9
HETATM    9  N   UNL     1      -9.573   7.152  68.467  1.00  0.00    -0.139 NA 
HETATM   10  H   UNL     1     -10.460   7.653  68.406  1.00  0.00     0.000 HD 
BRANCH   9  11
HETATM   11  P   UNL     1      -8.967   7.125  70.120  1.00  0.00    -0.143 P  
HETATM   12  O   UNL     1     -10.222   6.412  70.681  1.00  0.00    -0.184 OA 
BRANCH  11  13
HETATM   13  C   UNL     1      -9.454   8.687  71.111  1.00  0.00    -0.215 C  
BRANCH  13  14
HETATM   14  O   UNL     1     -10.631   9.384  70.552  1.00  0.00    -0.228 OA 
BRANCH  14  15
HETATM   15  C   UNL     1     -11.779   9.700  71.386  1.00  0.00    -0.404 C  
HETATM   16  C   UNL     1     -12.359   8.412  71.985  1.00  0.00    -0.413 C  
BRANCH  15  17
HETATM   17  C   UNL     1     -12.811  10.612  70.737  1.00  0.00    -0.352 C  
BRANCH  17  18
HETATM   18  N   UNL     1     -12.294  11.523  69.753  1.00  0.00    -0.203 NA 
HETATM   19  C   UNL     1     -11.887  11.238  68.477  1.00  0.00    -0.285 A  
HETATM   20  N   UNL     1     -11.550  12.326  67.820  1.00  0.00    -0.335 NA 
HETATM   21  C   UNL     1     -11.732  13.345  68.728  1.00  0.00    -0.340 A  
HETATM   22  C   UNL     1     -11.558  14.728  68.624  1.00  0.00    -0.319 A  
HETATM   23  N   UNL     1     -11.750  15.492  69.724  1.00  0.00    -0.325 NA 
HETATM   24  N   UNL     1     -11.188  15.328  67.430  1.00  0.00    -0.328 NA 
HETATM   25  C   UNL     1     -12.146  14.881  70.857  1.00  0.00    -0.317 A  
HETATM   26  H1  UNL     1     -11.060  16.337  67.354  1.00  0.00     0.000 HD 
HETATM   27  H2  UNL     1     -11.857  15.042  66.716  1.00  0.00     0.000 HD 
HETATM   28  N   UNL     1     -12.383  13.568  71.071  1.00  0.00    -0.367 NA 
HETATM   29  C   UNL     1     -12.153  12.865  69.951  1.00  0.00    -0.265 A  
ENDBRANCH  17  18
ENDBRANCH  15  17
ENDBRANCH  14  15
ENDBRANCH  13  14
ENDBRANCH  11  13
BRANCH  11  30
HETATM   30  O   UNL     1      -7.564   7.921  69.494  1.00  0.00    -0.094 OA 
BRANCH  30  31
HETATM   31  C   UNL     1      -7.787   9.065  68.748  1.00  0.00    -0.096 A  
HETATM   32  C   UNL     1      -7.510  10.285  69.368  1.00  0.00    -0.128 A  
HETATM   33  C   UNL     1      -8.518  10.264  66.770  1.00  0.00    -0.123 A  
HETATM   34  C   UNL     1      -8.285   9.056  67.442  1.00  0.00    -0.108 A  
HETATM   35  C   UNL     1      -8.260  11.480  67.400  1.00  0.00    -0.149 A  
HETATM   36  C   UNL     1      -7.757  11.489  68.698  1.00  0.00    -0.139 A  
ENDBRANCH  30  31
ENDBRANCH  11  30
ENDBRANCH   9  11
ENDBRANCH   7   9
ENDBRANCH   5   7
ENDBRANCH   4   5
ENDBRANCH   2   4
TORSDOF 12
ENDMDL
MODEL      364
REMARK 921   NORMALIZED FREE ENERGY PREDICTED BY IDOCK:   -3.33 KCAL/MOL
REMARK 922        TOTAL FREE ENERGY PREDICTED BY IDOCK:   -7.38 KCAL/MOL
REMARK 923 INTER-LIGAND FREE ENERGY PREDICTED BY IDOCK:   -6.30 KCAL/MOL
REMARK 924 INTRA-LIGAND FREE ENERGY PREDICTED BY IDOCK:   -1.08 KCAL/MOL
REMARK 927      BINDING AFFINITY PREDICTED BY RF-SCORE:    0.00 PKD
ROOT
HETATM    1  C   UNL     1     -11.400   9.909  70.814  1.00  0.00    -0.430 C  
HETATM    2  C   UNL     1     -12.490  10.821  70.246  1.00  0.00    -0.317 C  
HETATM    3  C   UNL     1     -12.886  11.899  71.264  1.00  0.00    -0.391 C  
ENDROOT
BRANCH   2   4
HETATM    4  O   UNL     1     -12.181  11.289  68.892  1.00  0.00    -0.494 OA 
BRANCH   4   5
HETATM    5  C   UNL     1     -11.202  12.208  68.709  1.00  0.00    -0.264 C  
HETATM    6  O   UNL     1     -11.291  13.371  69.108  1.00  0.00    -0.261 OA 
BRANCH   5   7
HETATM    7  C   UNL     1      -9.933  11.738  67.941  1.00  0.00    -0.181 C  
HETATM    8  C   UNL     1     -10.132  11.978  66.445  1.00  0.00    -0.242 C  
BRANCH   7   9
HETATM    9  N   UNL     1      -9.372  10.357  68.207  1.00  0.00    -0.145 NA 
HETATM   10  H   UNL     1      -9.776   9.948  69.049  1.00  0.00     0.000 HD 
BRANCH   9  11
HETATM   11  P   UNL     1      -9.567   9.287  66.821  1.00  0.00    -0.220 P  
HETATM   12  O   UNL     1     -11.090   9.112  67.038  1.00  0.00     0.037 OA 
BRANCH  11  13
HETATM   13  C   UNL     1      -9.326   7.444  67.272  1.00  0.00    -0.133 C  
BRANCH  13  14
HETATM   14  O   UNL     1     -10.586   6.766  67.637  1.00  0.00    -0.198 OA 
BRANCH  14  15
HETATM   15  C   UNL     1     -10.629   5.798  68.721  1.00  0.00    -0.251 C  
HETATM   16  C   UNL     1     -11.552   6.305  69.836  1.00  0.00    -0.361 C  
BRANCH  15  17
HETATM   17  C   UNL     1      -9.268   5.315  69.201  1.00  0.00    -0.118 C  
BRANCH  17  18
HETATM   18  N   UNL     1      -8.961   5.606  70.574  1.00  0.00    -0.136 NA 
HETATM   19  C   UNL     1      -9.039   4.763  71.650  1.00  0.00    -0.136 A  
HETATM   20  N   UNL     1      -8.600   5.335  72.749  1.00  0.00    -0.120 NA 
HETATM   21  C   UNL     1      -8.247   6.607  72.357  1.00  0.00    -0.103 A  
HETATM   22  C   UNL     1      -7.704   7.683  73.064  1.00  0.00    -0.107 A  
HETATM   23  N   UNL     1      -7.523   8.859  72.419  1.00  0.00    -0.342 NA 
HETATM   24  N   UNL     1      -7.359   7.576  74.402  1.00  0.00    -0.119 NA 
HETATM   25  C   UNL     1      -7.833   8.917  71.110  1.00  0.00    -0.140 A  
HETATM   26  H1  UNL     1      -6.962   8.362  74.919  1.00  0.00     0.000 HD 
HETATM   27  H2  UNL     1      -6.722   6.785  74.498  1.00  0.00     0.000 HD 
HETATM   28  N   UNL     1      -8.325   7.942  70.313  1.00  0.00    -0.124 NA 
HETATM   29  C   UNL     1      -8.502   6.813  71.016  1.00  0.00    -0.132 A  
ENDBRANCH  17  18
ENDBRANCH  15  17
ENDBRANCH  14  15
ENDBRANCH  13  14
ENDBRANCH  11  13
BRANCH  11  30
HETATM   30  O   UNL     1      -7.865   9.483  66.578  1.00  0.00    -0.100 OA 
BRANCH  30  31
HETATM   31  C   UNL     1      -7.435   9.560  65.265  1.00  0.00    -0.107 A  
HETATM   32  C   UNL     1      -8.293   9.049  64.291  1.00  0.00    -0.179 A  
HETATM   33  C   UNL     1      -5.826  10.097  63.531  1.00  0.00    -0.137 A  
HETATM   34  C   UNL     1      -6.201  10.093  64.882  1.00  0.00    -0.125 A  
HETATM   35  C   UNL     1      -6.678   9.566  62.564  1.00  0.00    -0.096 A  
HETATM   36  C   UNL     1      -7.910   9.042  62.945  1.00  0.00    -0.131 A  
ENDBRANCH  30  31
ENDBRANCH  11  30
ENDBRANCH   9  11
ENDBRANCH   7   9
ENDBRANCH   5   7
ENDBRANCH   4   5
ENDBRANCH   2   4
TORSDOF 12
ENDMDL
MODEL      365
REMARK 921   NORMALIZED FREE ENERGY PREDICTED BY IDOCK:   -3.33 KCAL/MOL
REMARK 922        TOTAL FREE ENERGY PREDICTED BY IDOCK:   -7.38 KCAL/MOL
REMARK 923 INTER-LIGAND FREE ENERGY PREDICTED BY IDOCK:   -5.90 KCAL/MOL
REMARK 924 INTRA-LIGAND FREE ENERGY PREDICTED BY IDOCK:   -1.48 KCAL/MOL
REMARK 927      BINDING AFFINITY PREDICTED BY RF-SCORE:    0.00 PKD
ROOT
HETATM    1  C   UNL     1     -11.225  16.245  70.118  1.00  0.00    -0.340 C  
HETATM    2  C   UNL     1     -10.720  16.145  68.676  1.00  0.00    -0.295 C  
HETATM    3  C   UNL     1     -10.366  17.533  68.124  1.00  0.00    -0.375 C  
ENDROOT
BRANCH   2   4
HETATM    4  O   UNL     1      -9.705  15.102  68.508  1.00  0.00    -0.202 OA 
BRANCH   4   5
HETATM    5  C   UNL     1     -10.081  13.860  68.114  1.00  0.00    -0.250 C  
HETATM    6  O   UNL     1     -11.260  13.520  68.005  1.00  0.00    -0.250 OA 
BRANCH   5   7
HETATM    7  C   UNL     1      -8.941  12.845  67.814  1.00  0.00    -0.191 C  
HETATM    8  C   UNL     1      -7.650  13.609  67.526  1.00  0.00    -0.180 C  
BRANCH   7   9
HETATM    9  N   UNL     1      -9.171  11.748  66.795  1.00  0.00    -0.188 NA 
HETATM   10  H   UNL     1      -8.497  11.805  66.031  1.00  0.00     0.000 HD 
BRANCH   9  11
HETATM   11  P   UNL     1      -9.166  10.149  67.533  1.00  0.00    -0.137 P  
HETATM   12  O   UNL     1     -10.696   9.963  67.391  1.00  0.00    -0.266 OA 
BRANCH  11  13
HETATM   13  C   UNL     1      -9.384  10.213  69.432  1.00  0.00    -0.219 C  
BRANCH  13  14
HETATM   14  O   UNL     1      -9.528   8.876  70.045  1.00  0.00    -0.165 OA 
BRANCH  14  15
HETATM   15  C   UNL     1     -10.585   8.603  71.005  1.00  0.00    -0.221 C  
HETATM   16  C   UNL     1      -9.974   8.271  72.373  1.00  0.00    -0.379 C  
BRANCH  15  17
HETATM   17  C   UNL     1     -11.640   7.614  70.531  1.00  0.00    -0.175 C  
BRANCH  17  18
HETATM   18  N   UNL     1     -11.174   6.609  69.615  1.00  0.00    -0.335 NA 
HETATM   19  C   UNL     1     -11.158   6.663  68.247  1.00  0.00    -0.198 A  
HETATM   20  N   UNL     1     -10.584   5.602  67.725  1.00  0.00    -0.222 NA 
HETATM   21  C   UNL     1     -10.239   4.830  68.812  1.00  0.00     0.001 A  
HETATM   22  C   UNL     1      -9.589   3.596  68.909  1.00  0.00    -0.087 A  
HETATM   23  N   UNL     1      -9.446   3.032  70.131  1.00  0.00    -0.158 NA 
HETATM   24  N   UNL     1      -9.101   2.939  67.791  1.00  0.00    -0.162 NA 
HETATM   25  C   UNL     1      -9.898   3.715  71.200  1.00  0.00    -0.130 A  
HETATM   26  H1  UNL     1      -8.627   2.038  67.862  1.00  0.00     0.000 HD 
HETATM   27  H2  UNL     1      -8.481   3.580  67.297  1.00  0.00     0.000 HD 
HETATM   28  N   UNL     1     -10.503   4.923  71.238  1.00  0.00    -0.149 NA 
HETATM   29  C   UNL     1     -10.635   5.416  69.996  1.00  0.00    -0.284 A  
ENDBRANCH  17  18
ENDBRANCH  15  17
ENDBRANCH  14  15
ENDBRANCH  13  14
ENDBRANCH  11  13
BRANCH  11  30
HETATM   30  O   UNL     1      -7.455  10.357  67.692  1.00  0.00    -0.088 OA 
BRANCH  30  31
HETATM   31  C   UNL     1      -6.762   9.321  68.294  1.00  0.00    -0.060 A  
HETATM   32  C   UNL     1      -7.062   8.028  67.863  1.00  0.00    -0.086 A  
HETATM   33  C   UNL     1      -5.185   8.397  69.889  1.00  0.00    -0.026 A  
HETATM   34  C   UNL     1      -5.814   9.505  69.305  1.00  0.00    -0.034 A  
HETATM   35  C   UNL     1      -5.504   7.106  69.470  1.00  0.00    -0.015 A  
HETATM   36  C   UNL     1      -6.442   6.924  68.458  1.00  0.00    -0.036 A  
ENDBRANCH  30  31
ENDBRANCH  11  30
ENDBRANCH   9  11
ENDBRANCH   7   9
ENDBRANCH   5   7
ENDBRANCH   4   5
ENDBRANCH   2   4
TORSDOF 12
ENDMDL
MODEL      366
REMARK 921   NORMALIZED FREE ENERGY PREDICTED BY IDOCK:   -3.32 KCAL/MOL
REMARK 922        TOTAL FREE ENERGY PREDICTED BY IDOCK:   -7.36 KCAL/MOL
REMARK 923 INTER-LIGAND FREE ENERGY PREDICTED BY IDOCK:   -6.69 KCAL/MOL
REMARK 924 INTRA-LIGAND FREE ENERGY PREDICTED BY IDOCK:   -0.66 KCAL/MOL
REMARK 927      BINDING AFFINITY PREDICTED BY RF-SCORE:    0.00 PKD
ROOT
HETATM    1  C   UNL     1     -11.250  10.149  70.573  1.00  0.00    -0.411 C  
HETATM    2  C   UNL     1     -12.246  11.189  70.054  1.00  0.00    -0.326 C  
HETATM    3  C   UNL     1     -12.609  12.195  71.155  1.00  0.00    -0.360 C  
ENDROOT
BRANCH   2   4
HETATM    4  O   UNL     1     -11.845  11.755  68.763  1.00  0.00    -0.306 OA 
BRANCH   4   5
HETATM    5  C   UNL     1     -10.805  12.623  68.708  1.00  0.00    -0.231 C  
HETATM    6  O   UNL     1     -10.866  13.771  69.152  1.00  0.00    -0.237 OA 
BRANCH   5   7
HETATM    7  C   UNL     1      -9.501  12.112  68.029  1.00  0.00    -0.201 C  
HETATM    8  C   UNL     1      -9.411  12.688  66.617  1.00  0.00    -0.236 C  
BRANCH   7   9
HETATM    9  N   UNL     1      -9.186  10.631  68.042  1.00  0.00    -0.145 NA 
HETATM   10  H   UNL     1      -9.689  10.152  68.788  1.00  0.00     0.000 HD 
BRANCH   9  11
HETATM   11  P   UNL     1      -9.490   9.878  66.479  1.00  0.00    -0.205 P  
HETATM   12  O   UNL     1     -11.007  10.186  66.508  1.00  0.00    -0.041 OA 
BRANCH  11  13
HETATM   13  C   UNL     1      -9.899   8.016  66.625  1.00  0.00    -0.252 C  
BRANCH  13  14
HETATM   14  O   UNL     1      -8.796   7.222  67.204  1.00  0.00    -0.122 OA 
BRANCH  14  15
HETATM   15  C   UNL     1      -8.916   5.784  67.371  1.00  0.00    -0.108 C  
HETATM   16  C   UNL     1      -8.407   5.068  66.114  1.00  0.00    -0.113 C  
BRANCH  15  17
HETATM   17  C   UNL     1     -10.277   5.307  67.859  1.00  0.00    -0.145 C  
BRANCH  17  18
HETATM   18  N   UNL     1     -10.563   5.573  69.242  1.00  0.00    -0.273 NA 
HETATM   19  C   UNL     1     -11.376   6.546  69.759  1.00  0.00    -0.393 A  
HETATM   20  N   UNL     1     -11.477   6.450  71.067  1.00  0.00    -0.328 NA 
HETATM   21  C   UNL     1     -10.674   5.381  71.396  1.00  0.00    -0.188 A  
HETATM   22  C   UNL     1     -10.382   4.778  72.622  1.00  0.00    -0.198 A  
HETATM   23  N   UNL     1      -9.484   3.766  72.651  1.00  0.00    -0.120 NA 
HETATM   24  N   UNL     1     -10.979   5.197  73.801  1.00  0.00    -0.364 NA 
HETATM   25  C   UNL     1      -8.952   3.360  71.483  1.00  0.00    -0.100 A  
HETATM   26  H1  UNL     1     -10.765   4.758  74.697  1.00  0.00     0.000 HD 
HETATM   27  H2  UNL     1     -11.990   5.163  73.669  1.00  0.00     0.000 HD 
HETATM   28  N   UNL     1      -9.182   3.833  70.238  1.00  0.00    -0.132 NA 
HETATM   29  C   UNL     1     -10.061   4.846  70.281  1.00  0.00    -0.252 A  
ENDBRANCH  17  18
ENDBRANCH  15  17
ENDBRANCH  14  15
ENDBRANCH  13  14
ENDBRANCH  11  13
BRANCH  11  30
HETATM   30  O   UNL     1      -7.794   9.535  66.446  1.00  0.00    -0.097 OA 
BRANCH  30  31
HETATM   31  C   UNL     1      -7.125   9.847  65.276  1.00  0.00    -0.130 A  
HETATM   32  C   UNL     1      -7.837   9.695  64.085  1.00  0.00    -0.130 A  
HETATM   33  C   UNL     1      -5.181  10.533  63.998  1.00  0.00    -0.160 A  
HETATM   34  C   UNL     1      -5.795  10.276  65.231  1.00  0.00    -0.125 A  
HETATM   35  C   UNL     1      -5.889  10.360  62.810  1.00  0.00    -0.141 A  
HETATM   36  C   UNL     1      -7.215   9.941  62.855  1.00  0.00    -0.123 A  
ENDBRANCH  30  31
ENDBRANCH  11  30
ENDBRANCH   9  11
ENDBRANCH   7   9
ENDBRANCH   5   7
ENDBRANCH   4   5
ENDBRANCH   2   4
TORSDOF 12
ENDMDL
MODEL      367
REMARK 921   NORMALIZED FREE ENERGY PREDICTED BY IDOCK:   -3.31 KCAL/MOL
REMARK 922        TOTAL FREE ENERGY PREDICTED BY IDOCK:   -7.34 KCAL/MOL
REMARK 923 INTER-LIGAND FREE ENERGY PREDICTED BY IDOCK:   -5.44 KCAL/MOL
REMARK 924 INTRA-LIGAND FREE ENERGY PREDICTED BY IDOCK:   -1.90 KCAL/MOL
REMARK 927      BINDING AFFINITY PREDICTED BY RF-SCORE:    0.00 PKD
ROOT
HETATM    1  C   UNL     1      -8.471   8.060  73.652  1.00  0.00    -0.317 C  
HETATM    2  C   UNL     1      -7.248   7.308  74.181  1.00  0.00    -0.091 C  
HETATM    3  C   UNL     1      -7.596   5.844  74.485  1.00  0.00    -0.097 C  
ENDROOT
BRANCH   2   4
HETATM    4  O   UNL     1      -6.053   7.535  73.364  1.00  0.00    -0.058 OA 
BRANCH   4   5
HETATM    5  C   UNL     1      -6.110   8.397  72.319  1.00  0.00    -0.065 C  
HETATM    6  O   UNL     1      -6.124   9.622  72.461  1.00  0.00    -0.294 OA 
BRANCH   5   7
HETATM    7  C   UNL     1      -6.178   7.772  70.897  1.00  0.00    -0.034 C  
HETATM    8  C   UNL     1      -5.630   8.774  69.881  1.00  0.00    -0.028 C  
BRANCH   7   9
HETATM    9  N   UNL     1      -7.473   7.153  70.416  1.00  0.00    -0.083 NA 
HETATM   10  H   UNL     1      -7.790   7.585  69.548  1.00  0.00     0.000 HD 
BRANCH   9  11
HETATM   11  P   UNL     1      -7.348   5.404  70.251  1.00  0.00    -0.070 P  
HETATM   12  O   UNL     1      -5.914   5.347  70.830  1.00  0.00    -0.020 OA 
BRANCH  11  13
HETATM   13  C   UNL     1      -6.648   4.871  68.553  1.00  0.00    -0.049 C  
BRANCH  13  14
HETATM   14  O   UNL     1      -7.156   5.690  67.433  1.00  0.00    -0.071 OA 
BRANCH  14  15
HETATM   15  C   UNL     1      -7.844   5.077  66.309  1.00  0.00    -0.099 C  
HETATM   16  C   UNL     1      -6.822   4.583  65.278  1.00  0.00    -0.057 C  
BRANCH  15  17
HETATM   17  C   UNL     1      -8.979   5.906  65.724  1.00  0.00    -0.120 C  
BRANCH  17  18
HETATM   18  N   UNL     1      -8.702   7.307  65.572  1.00  0.00    -0.081 NA 
HETATM   19  C   UNL     1      -7.813   7.900  64.716  1.00  0.00    -0.125 A  
HETATM   20  N   UNL     1      -7.877   9.212  64.780  1.00  0.00    -0.114 NA 
HETATM   21  C   UNL     1      -8.835   9.462  65.737  1.00  0.00    -0.171 A  
HETATM   22  C   UNL     1      -9.360  10.656  66.240  1.00  0.00    -0.171 A  
HETATM   23  N   UNL     1     -10.260  10.596  67.248  1.00  0.00    -0.198 NA 
HETATM   24  N   UNL     1      -8.973  11.890  65.739  1.00  0.00    -0.412 NA 
HETATM   25  C   UNL     1     -10.641   9.381  67.684  1.00  0.00    -0.271 A  
HETATM   26  H1  UNL     1      -9.356  12.761  66.107  1.00  0.00     0.000 HD 
HETATM   27  H2  UNL     1      -9.128  11.880  64.731  1.00  0.00     0.000 HD 
HETATM   28  N   UNL     1     -10.239   8.164  67.256  1.00  0.00    -0.250 NA 
HETATM   29  C   UNL     1      -9.332   8.293  66.275  1.00  0.00    -0.204 A  
ENDBRANCH  17  18
ENDBRANCH  15  17
ENDBRANCH  14  15
ENDBRANCH  13  14
ENDBRANCH  11  13
BRANCH  11  30
HETATM   30  O   UNL     1      -8.952   5.468  69.605  1.00  0.00    -0.115 OA 
BRANCH  30  31
HETATM   31  C   UNL     1      -9.968   5.739  70.504  1.00  0.00    -0.195 A  
HETATM   32  C   UNL     1      -9.923   5.067  71.726  1.00  0.00    -0.250 A  
HETATM   33  C   UNL     1     -12.035   6.806  71.195  1.00  0.00    -0.421 A  
HETATM   34  C   UNL     1     -11.024   6.618  70.242  1.00  0.00    -0.355 A  
HETATM   35  C   UNL     1     -11.997   6.116  72.406  1.00  0.00    -0.240 A  
HETATM   36  C   UNL     1     -10.941   5.248  72.669  1.00  0.00    -0.316 A  
ENDBRANCH  30  31
ENDBRANCH  11  30
ENDBRANCH   9  11
ENDBRANCH   7   9
ENDBRANCH   5   7
ENDBRANCH   4   5
ENDBRANCH   2   4
TORSDOF 12
ENDMDL
MODEL      368
REMARK 921   NORMALIZED FREE ENERGY PREDICTED BY IDOCK:   -3.29 KCAL/MOL
REMARK 922        TOTAL FREE ENERGY PREDICTED BY IDOCK:   -7.32 KCAL/MOL
REMARK 923 INTER-LIGAND FREE ENERGY PREDICTED BY IDOCK:   -8.30 KCAL/MOL
REMARK 924 INTRA-LIGAND FREE ENERGY PREDICTED BY IDOCK:    0.99 KCAL/MOL
REMARK 927      BINDING AFFINITY PREDICTED BY RF-SCORE:    0.00 PKD
ROOT
HETATM    1  C   UNL     1      -8.813  10.334  62.330  1.00  0.00    -0.268 C  
HETATM    2  C   UNL     1      -8.758  10.041  63.832  1.00  0.00    -0.206 C  
HETATM    3  C   UNL     1      -7.342   9.627  64.256  1.00  0.00    -0.122 C  
ENDROOT
BRANCH   2   4
HETATM    4  O   UNL     1      -9.394  11.091  64.631  1.00  0.00    -0.212 OA 
BRANCH   4   5
HETATM    5  C   UNL     1     -10.321  10.755  65.562  1.00  0.00    -0.241 C  
HETATM    6  O   UNL     1     -10.324   9.668  66.142  1.00  0.00    -0.230 OA 
BRANCH   5   7
HETATM    7  C   UNL     1     -11.423  11.810  65.867  1.00  0.00    -0.207 C  
HETATM    8  C   UNL     1     -10.926  13.192  65.447  1.00  0.00    -0.298 C  
BRANCH   7   9
HETATM    9  N   UNL     1     -12.057  11.847  67.242  1.00  0.00    -0.522 NA 
HETATM   10  H   UNL     1     -12.468  10.946  67.485  1.00  0.00     0.000 HD 
BRANCH   9  11
HETATM   11  P   UNL     1     -10.924  12.387  68.477  1.00  0.00    -0.272 P  
HETATM   12  O   UNL     1      -9.812  12.732  67.456  1.00  0.00    -0.204 OA 
BRANCH  11  13
HETATM   13  C   UNL     1      -9.826  10.969  69.143  1.00  0.00    -0.096 C  
BRANCH  13  14
HETATM   14  O   UNL     1     -10.374  10.333  70.359  1.00  0.00    -0.210 OA 
BRANCH  14  15
HETATM   15  C   UNL     1     -10.364   8.888  70.516  1.00  0.00    -0.203 C  
HETATM   16  C   UNL     1     -11.767   8.394  70.890  1.00  0.00    -0.269 C  
BRANCH  15  17
HETATM   17  C   UNL     1      -9.250   8.349  71.403  1.00  0.00    -0.186 C  
BRANCH  17  18
HETATM   18  N   UNL     1      -9.635   7.298  72.305  1.00  0.00    -0.145 NA 
HETATM   19  C   UNL     1      -9.955   7.406  73.632  1.00  0.00    -0.328 A  
HETATM   20  N   UNL     1     -10.345   6.255  74.132  1.00  0.00    -0.315 NA 
HETATM   21  C   UNL     1     -10.247   5.372  73.080  1.00  0.00    -0.190 A  
HETATM   22  C   UNL     1     -10.533   4.008  72.979  1.00  0.00    -0.174 A  
HETATM   23  N   UNL     1     -10.268   3.373  71.814  1.00  0.00    -0.057 NA 
HETATM   24  N   UNL     1     -11.069   3.295  74.041  1.00  0.00    -0.142 NA 
HETATM   25  C   UNL     1      -9.784   4.103  70.792  1.00  0.00    -0.196 A  
HETATM   26  H1  UNL     1     -11.277   2.299  73.967  1.00  0.00     0.000 HD 
HETATM   27  H2  UNL     1     -11.920   3.771  74.340  1.00  0.00     0.000 HD 
HETATM   28  N   UNL     1      -9.504   5.425  70.755  1.00  0.00    -0.161 NA 
HETATM   29  C   UNL     1      -9.767   5.989  71.944  1.00  0.00    -0.153 A  
ENDBRANCH  17  18
ENDBRANCH  15  17
ENDBRANCH  14  15
ENDBRANCH  13  14
ENDBRANCH  11  13
BRANCH  11  30
HETATM   30  O   UNL     1     -12.167  12.003  69.619  1.00  0.00    -0.235 OA 
BRANCH  30  31
HETATM   31  C   UNL     1     -12.535  13.011  70.491  1.00  0.00    -0.231 A  
HETATM   32  C   UNL     1     -13.329  12.644  71.579  1.00  0.00    -0.208 A  
HETATM   33  C   UNL     1     -12.624  15.318  71.237  1.00  0.00    -0.449 A  
HETATM   34  C   UNL     1     -12.176  14.352  70.325  1.00  0.00    -0.397 A  
HETATM   35  C   UNL     1     -13.434  14.950  72.310  1.00  0.00    -0.510 A  
HETATM   36  C   UNL     1     -13.786  13.614  72.479  1.00  0.00    -0.663 A  
ENDBRANCH  30  31
ENDBRANCH  11  30
ENDBRANCH   9  11
ENDBRANCH   7   9
ENDBRANCH   5   7
ENDBRANCH   4   5
ENDBRANCH   2   4
TORSDOF 12
ENDMDL
MODEL      369
REMARK 921   NORMALIZED FREE ENERGY PREDICTED BY IDOCK:   -3.29 KCAL/MOL
REMARK 922        TOTAL FREE ENERGY PREDICTED BY IDOCK:   -7.31 KCAL/MOL
REMARK 923 INTER-LIGAND FREE ENERGY PREDICTED BY IDOCK:   -7.34 KCAL/MOL
REMARK 924 INTRA-LIGAND FREE ENERGY PREDICTED BY IDOCK:    0.03 KCAL/MOL
REMARK 927      BINDING AFFINITY PREDICTED BY RF-SCORE:    0.00 PKD
ROOT
HETATM    1  C   UNL     1     -12.004   7.440  71.997  1.00  0.00    -0.333 C  
HETATM    2  C   UNL     1     -10.774   8.288  71.663  1.00  0.00    -0.256 C  
HETATM    3  C   UNL     1      -9.653   8.050  72.683  1.00  0.00    -0.327 C  
ENDROOT
BRANCH   2   4
HETATM    4  O   UNL     1     -10.396   8.196  70.250  1.00  0.00    -0.201 OA 
BRANCH   4   5
HETATM    5  C   UNL     1      -9.403   7.352  69.876  1.00  0.00    -0.154 C  
HETATM    6  O   UNL     1      -9.512   6.125  69.930  1.00  0.00    -0.150 OA 
BRANCH   5   7
HETATM    7  C   UNL     1      -8.080   8.001  69.381  1.00  0.00    -0.118 C  
HETATM    8  C   UNL     1      -8.236   9.522  69.377  1.00  0.00    -0.126 C  
BRANCH   7   9
HETATM    9  N   UNL     1      -7.445   7.510  68.097  1.00  0.00    -0.102 NA 
HETATM   10  H   UNL     1      -7.405   6.492  68.069  1.00  0.00     0.000 HD 
BRANCH   9  11
HETATM   11  P   UNL     1      -8.252   8.157  66.671  1.00  0.00    -0.108 P  
HETATM   12  O   UNL     1      -7.230   9.304  66.482  1.00  0.00    -0.084 OA 
BRANCH  11  13
HETATM   13  C   UNL     1      -9.583   9.460  67.105  1.00  0.00    -0.154 C  
BRANCH  13  14
HETATM   14  O   UNL     1     -10.125  10.154  65.918  1.00  0.00    -0.258 OA 
BRANCH  14  15
HETATM   15  C   UNL     1     -10.189  11.605  65.864  1.00  0.00    -0.238 C  
HETATM   16  C   UNL     1      -9.017  12.209  66.648  1.00  0.00    -0.198 C  
BRANCH  15  17
HETATM   17  C   UNL     1     -11.548  12.199  66.208  1.00  0.00    -0.360 C  
BRANCH  17  18
HETATM   18  N   UNL     1     -11.771  12.458  67.603  1.00  0.00    -0.386 NA 
HETATM   19  C   UNL     1     -12.013  11.549  68.598  1.00  0.00    -0.246 A  
HETATM   20  N   UNL     1     -12.085  12.127  69.777  1.00  0.00    -0.271 NA 
HETATM   21  C   UNL     1     -11.901  13.466  69.515  1.00  0.00    -0.332 A  
HETATM   22  C   UNL     1     -11.857  14.582  70.355  1.00  0.00    -0.311 A  
HETATM   23  N   UNL     1     -11.730  15.809  69.799  1.00  0.00    -0.345 NA 
HETATM   24  N   UNL     1     -11.949  14.461  71.733  1.00  0.00    -0.339 NA 
HETATM   25  C   UNL     1     -11.605  15.887  68.461  1.00  0.00    -0.349 A  
HETATM   26  H1  UNL     1     -11.916  15.276  72.347  1.00  0.00     0.000 HD 
HETATM   27  H2  UNL     1     -11.225  13.811  72.039  1.00  0.00     0.000 HD 
HETATM   28  N   UNL     1     -11.594  14.886  67.552  1.00  0.00    -0.353 NA 
HETATM   29  C   UNL     1     -11.747  13.702  68.164  1.00  0.00    -0.357 A  
ENDBRANCH  17  18
ENDBRANCH  15  17
ENDBRANCH  14  15
ENDBRANCH  13  14
ENDBRANCH  11  13
BRANCH  11  30
HETATM   30  O   UNL     1      -9.395   6.874  66.882  1.00  0.00    -0.137 OA 
BRANCH  30  31
HETATM   31  C   UNL     1      -9.262   5.786  66.038  1.00  0.00    -0.141 A  
HETATM   32  C   UNL     1     -10.096   4.694  66.283  1.00  0.00    -0.292 A  
HETATM   33  C   UNL     1      -8.242   4.565  64.207  1.00  0.00    -0.109 A  
HETATM   34  C   UNL     1      -8.338   5.723  64.991  1.00  0.00    -0.138 A  
HETATM   35  C   UNL     1      -9.062   3.469  64.468  1.00  0.00    -0.130 A  
HETATM   36  C   UNL     1      -9.987   3.535  65.506  1.00  0.00     0.062 A  
ENDBRANCH  30  31
ENDBRANCH  11  30
ENDBRANCH   9  11
ENDBRANCH   7   9
ENDBRANCH   5   7
ENDBRANCH   4   5
ENDBRANCH   2   4
TORSDOF 12
ENDMDL
MODEL      370
REMARK 921   NORMALIZED FREE ENERGY PREDICTED BY IDOCK:   -3.28 KCAL/MOL
REMARK 922        TOTAL FREE ENERGY PREDICTED BY IDOCK:   -7.29 KCAL/MOL
REMARK 923 INTER-LIGAND FREE ENERGY PREDICTED BY IDOCK:   -5.64 KCAL/MOL
REMARK 924 INTRA-LIGAND FREE ENERGY PREDICTED BY IDOCK:   -1.65 KCAL/MOL
REMARK 927      BINDING AFFINITY PREDICTED BY RF-SCORE:    0.00 PKD
ROOT
HETATM    1  C   UNL     1      -9.747   3.709  70.988  1.00  0.00    -0.243 C  
HETATM    2  C   UNL     1      -9.777   5.214  70.714  1.00  0.00    -0.190 C  
HETATM    3  C   UNL     1     -10.609   5.525  69.462  1.00  0.00    -0.366 C  
ENDROOT
BRANCH   2   4
HETATM    4  O   UNL     1     -10.091   5.997  71.912  1.00  0.00    -0.187 OA 
BRANCH   4   5
HETATM    5  C   UNL     1      -9.175   6.093  72.907  1.00  0.00    -0.134 C  
HETATM    6  O   UNL     1      -9.183   5.361  73.898  1.00  0.00    -0.122 OA 
BRANCH   5   7
HETATM    7  C   UNL     1      -8.094   7.203  72.761  1.00  0.00    -0.106 C  
HETATM    8  C   UNL     1      -8.292   8.246  73.860  1.00  0.00    -0.261 C  
BRANCH   7   9
HETATM    9  N   UNL     1      -7.877   7.858  71.413  1.00  0.00    -0.085 NA 
HETATM   10  H   UNL     1      -8.081   8.856  71.449  1.00  0.00     0.000 HD 
BRANCH   9  11
HETATM   11  P   UNL     1      -6.259   7.558  70.785  1.00  0.00    -0.035 P  
HETATM   12  O   UNL     1      -5.561   8.374  71.901  1.00  0.00    -0.036 OA 
BRANCH  11  13
HETATM   13  C   UNL     1      -5.703   8.878  69.518  1.00  0.00    -0.034 C  
BRANCH  13  14
HETATM   14  O   UNL     1      -6.772   9.837  69.172  1.00  0.00    -0.051 OA 
BRANCH  14  15
HETATM   15  C   UNL     1      -7.395   9.821  67.859  1.00  0.00    -0.085 C  
HETATM   16  C   UNL     1      -6.659   8.833  66.945  1.00  0.00    -0.061 C  
BRANCH  15  17
HETATM   17  C   UNL     1      -7.627  11.194  67.243  1.00  0.00    -0.126 C  
BRANCH  17  18
HETATM   18  N   UNL     1      -8.999  11.520  66.966  1.00  0.00    -0.169 NA 
HETATM   19  C   UNL     1      -9.938  12.006  67.836  1.00  0.00    -0.197 A  
HETATM   20  N   UNL     1     -11.072  12.274  67.226  1.00  0.00    -0.259 NA 
HETATM   21  C   UNL     1     -10.847  11.922  65.914  1.00  0.00    -0.297 A  
HETATM   22  C   UNL     1     -11.662  11.985  64.780  1.00  0.00    -0.275 A  
HETATM   23  N   UNL     1     -11.189  11.492  63.611  1.00  0.00    -0.410 NA 
HETATM   24  N   UNL     1     -12.936  12.528  64.827  1.00  0.00    -0.842 NA 
HETATM   25  C   UNL     1      -9.933  11.007  63.592  1.00  0.00    -0.361 A  
HETATM   26  H1  UNL     1     -13.531  12.575  63.999  1.00  0.00     0.000 HD 
HETATM   27  H2  UNL     1     -12.861  13.471  65.211  1.00  0.00     0.000 HD 
HETATM   28  N   UNL     1      -9.041  10.927  64.605  1.00  0.00    -0.194 NA 
HETATM   29  C   UNL     1      -9.579  11.409  65.736  1.00  0.00    -0.233 A  
ENDBRANCH  17  18
ENDBRANCH  15  17
ENDBRANCH  14  15
ENDBRANCH  13  14
ENDBRANCH  11  13
BRANCH  11  30
HETATM   30  O   UNL     1      -7.039   6.645  69.539  1.00  0.00    -0.071 OA 
BRANCH  30  31
HETATM   31  C   UNL     1      -6.663   5.318  69.421  1.00  0.00    -0.052 A  
HETATM   32  C   UNL     1      -7.005   4.671  68.233  1.00  0.00    -0.056 A  
HETATM   33  C   UNL     1      -5.685   3.253  70.236  1.00  0.00    -0.017 A  
HETATM   34  C   UNL     1      -5.994   4.608  70.422  1.00  0.00    -0.017 A  
HETATM   35  C   UNL     1      -6.046   2.606  69.056  1.00  0.00    -0.025 A  
HETATM   36  C   UNL     1      -6.706   3.315  68.056  1.00  0.00    -0.045 A  
ENDBRANCH  30  31
ENDBRANCH  11  30
ENDBRANCH   9  11
ENDBRANCH   7   9
ENDBRANCH   5   7
ENDBRANCH   4   5
ENDBRANCH   2   4
TORSDOF 12
ENDMDL
MODEL      371
REMARK 921   NORMALIZED FREE ENERGY PREDICTED BY IDOCK:   -3.26 KCAL/MOL
REMARK 922        TOTAL FREE ENERGY PREDICTED BY IDOCK:   -7.26 KCAL/MOL
REMARK 923 INTER-LIGAND FREE ENERGY PREDICTED BY IDOCK:   -5.76 KCAL/MOL
REMARK 924 INTRA-LIGAND FREE ENERGY PREDICTED BY IDOCK:   -1.51 KCAL/MOL
REMARK 927      BINDING AFFINITY PREDICTED BY RF-SCORE:    0.00 PKD
ROOT
HETATM    1  C   UNL     1     -11.438  10.633  68.530  1.00  0.00    -0.333 C  
HETATM    2  C   UNL     1     -10.902  11.861  67.790  1.00  0.00    -0.211 C  
HETATM    3  C   UNL     1     -12.006  12.912  67.606  1.00  0.00    -0.344 C  
ENDROOT
BRANCH   2   4
HETATM    4  O   UNL     1      -9.635  12.342  68.345  1.00  0.00    -0.216 OA 
BRANCH   4   5
HETATM    5  C   UNL     1      -8.471  12.038  67.719  1.00  0.00    -0.157 C  
HETATM    6  O   UNL     1      -8.425  11.604  66.566  1.00  0.00    -0.172 OA 
BRANCH   5   7
HETATM    7  C   UNL     1      -7.162  12.243  68.533  1.00  0.00    -0.103 C  
HETATM    8  C   UNL     1      -6.001  12.477  67.567  1.00  0.00    -0.152 C  
BRANCH   7   9
HETATM    9  N   UNL     1      -6.790  11.245  69.609  1.00  0.00    -0.245 NA 
HETATM   10  H   UNL     1      -7.114  11.552  70.526  1.00  0.00     0.000 HD 
BRANCH   9  11
HETATM   11  P   UNL     1      -7.368   9.624  69.236  1.00  0.00    -0.095 P  
HETATM   12  O   UNL     1      -8.607   9.740  70.158  1.00  0.00    -0.203 OA 
BRANCH  11  13
HETATM   13  C   UNL     1      -6.656   8.297  70.414  1.00  0.00    -0.036 C  
BRANCH  13  14
HETATM   14  O   UNL     1      -7.016   8.524  71.829  1.00  0.00    -0.082 OA 
BRANCH  14  15
HETATM   15  C   UNL     1      -6.612   7.587  72.864  1.00  0.00    -0.065 C  
HETATM   16  C   UNL     1      -5.145   7.188  72.663  1.00  0.00    -0.037 C  
BRANCH  15  17
HETATM   17  C   UNL     1      -7.561   6.413  73.070  1.00  0.00    -0.095 C  
BRANCH  17  18
HETATM   18  N   UNL     1      -8.945   6.687  72.798  1.00  0.00    -0.123 NA 
HETATM   19  C   UNL     1      -9.850   7.321  73.606  1.00  0.00    -0.307 A  
HETATM   20  N   UNL     1     -11.010   7.478  73.007  1.00  0.00    -0.381 NA 
HETATM   21  C   UNL     1     -10.839   6.897  71.770  1.00  0.00    -0.225 A  
HETATM   22  C   UNL     1     -11.701   6.759  70.679  1.00  0.00    -0.386 A  
HETATM   23  N   UNL     1     -11.275   6.065  69.598  1.00  0.00    -0.408 NA 
HETATM   24  N   UNL     1     -12.976   7.303  70.684  1.00  0.00    -0.537 NA 
HETATM   25  C   UNL     1     -10.018   5.583  69.612  1.00  0.00    -0.214 A  
HETATM   26  H1  UNL     1     -13.606   7.202  69.887  1.00  0.00     0.000 HD 
HETATM   27  H2  UNL     1     -12.890   8.299  70.890  1.00  0.00     0.000 HD 
HETATM   28  N   UNL     1      -9.084   5.683  70.584  1.00  0.00    -0.148 NA 
HETATM   29  C   UNL     1      -9.576   6.360  71.633  1.00  0.00    -0.160 A  
ENDBRANCH  17  18
ENDBRANCH  15  17
ENDBRANCH  14  15
ENDBRANCH  13  14
ENDBRANCH  11  13
BRANCH  11  30
HETATM   30  O   UNL     1      -5.985   9.495  68.204  1.00  0.00    -0.047 OA 
BRANCH  30  31
HETATM   31  C   UNL     1      -6.124   8.694  67.085  1.00  0.00    -0.055 A  
HETATM   32  C   UNL     1      -5.852   7.335  67.245  1.00  0.00    -0.030 A  
HETATM   33  C   UNL     1      -6.574   8.301  64.733  1.00  0.00    -0.067 A  
HETATM   34  C   UNL     1      -6.494   9.176  65.825  1.00  0.00    -0.064 A  
HETATM   35  C   UNL     1      -6.281   6.947  64.894  1.00  0.00    -0.036 A  
HETATM   36  C   UNL     1      -5.920   6.467  66.150  1.00  0.00    -0.025 A  
ENDBRANCH  30  31
ENDBRANCH  11  30
ENDBRANCH   9  11
ENDBRANCH   7   9
ENDBRANCH   5   7
ENDBRANCH   4   5
ENDBRANCH   2   4
TORSDOF 12
ENDMDL
MODEL      372
REMARK 921   NORMALIZED FREE ENERGY PREDICTED BY IDOCK:   -3.26 KCAL/MOL
REMARK 922        TOTAL FREE ENERGY PREDICTED BY IDOCK:   -7.26 KCAL/MOL
REMARK 923 INTER-LIGAND FREE ENERGY PREDICTED BY IDOCK:   -6.86 KCAL/MOL
REMARK 924 INTRA-LIGAND FREE ENERGY PREDICTED BY IDOCK:   -0.40 KCAL/MOL
REMARK 927      BINDING AFFINITY PREDICTED BY RF-SCORE:    0.00 PKD
ROOT
HETATM    1  C   UNL     1      -6.064  11.933  67.594  1.00  0.00    -0.084 C  
HETATM    2  C   UNL     1      -6.619  10.726  68.356  1.00  0.00    -0.055 C  
HETATM    3  C   UNL     1      -7.198  11.155  69.712  1.00  0.00     0.053 C  
ENDROOT
BRANCH   2   4
HETATM    4  O   UNL     1      -7.477   9.882  67.522  1.00  0.00    -0.090 OA 
BRANCH   4   5
HETATM    5  C   UNL     1      -7.204   8.559  67.404  1.00  0.00    -0.084 C  
HETATM    6  O   UNL     1      -6.105   8.131  67.045  1.00  0.00    -0.051 OA 
BRANCH   5   7
HETATM    7  C   UNL     1      -8.361   7.572  67.729  1.00  0.00    -0.119 C  
HETATM    8  C   UNL     1      -9.171   7.311  66.461  1.00  0.00    -0.195 C  
BRANCH   7   9
HETATM    9  N   UNL     1      -9.265   7.848  68.913  1.00  0.00    -0.144 NA 
HETATM   10  H   UNL     1      -9.824   8.687  68.763  1.00  0.00     0.000 HD 
BRANCH   9  11
HETATM   11  P   UNL     1     -10.281   6.463  69.304  1.00  0.00    -0.231 P  
HETATM   12  O   UNL     1     -11.469   6.958  68.442  1.00  0.00     0.036 OA 
BRANCH  11  13
HETATM   13  C   UNL     1     -11.343   6.747  70.869  1.00  0.00    -0.315 C  
BRANCH  13  14
HETATM   14  O   UNL     1     -12.011   8.065  70.887  1.00  0.00    -0.278 OA 
BRANCH  14  15
HETATM   15  C   UNL     1     -13.026   8.377  71.880  1.00  0.00    -0.355 C  
HETATM   16  C   UNL     1     -14.403   7.930  71.375  1.00  0.00    -0.502 C  
BRANCH  15  17
HETATM   17  C   UNL     1     -12.982   9.802  72.414  1.00  0.00    -0.228 C  
BRANCH  17  18
HETATM   18  N   UNL     1     -12.602  10.806  71.458  1.00  0.00    -0.399 NA 
HETATM   19  C   UNL     1     -12.048  10.619  70.220  1.00  0.00    -0.338 A  
HETATM   20  N   UNL     1     -11.905  11.756  69.575  1.00  0.00    -0.324 NA 
HETATM   21  C   UNL     1     -12.370  12.709  70.454  1.00  0.00    -0.237 A  
HETATM   22  C   UNL     1     -12.490  14.097  70.344  1.00  0.00    -0.357 A  
HETATM   23  N   UNL     1     -12.923  14.799  71.417  1.00  0.00    -0.320 NA 
HETATM   24  N   UNL     1     -12.169  14.766  69.173  1.00  0.00    -0.555 NA 
HETATM   25  C   UNL     1     -13.262  14.114  72.525  1.00  0.00    -0.502 A  
HETATM   26  H1  UNL     1     -12.256  15.780  69.093  1.00  0.00     0.000 HD 
HETATM   27  H2  UNL     1     -12.705  14.345  68.415  1.00  0.00     0.000 HD 
HETATM   28  N   UNL     1     -13.227  12.780  72.739  1.00  0.00    -0.123 NA 
HETATM   29  C   UNL     1     -12.768  12.146  71.649  1.00  0.00    -0.209 A  
ENDBRANCH  17  18
ENDBRANCH  15  17
ENDBRANCH  14  15
ENDBRANCH  13  14
ENDBRANCH  11  13
BRANCH  11  30
HETATM   30  O   UNL     1      -8.954   5.910  70.267  1.00  0.00    -0.143 OA 
BRANCH  30  31
HETATM   31  C   UNL     1      -8.865   4.544  70.465  1.00  0.00    -0.099 A  
HETATM   32  C   UNL     1      -8.572   3.762  69.347  1.00  0.00    -0.113 A  
HETATM   33  C   UNL     1      -9.000   2.527  71.807  1.00  0.00    -0.134 A  
HETATM   34  C   UNL     1      -9.071   3.923  71.701  1.00  0.00    -0.170 A  
HETATM   35  C   UNL     1      -8.728   1.750  70.683  1.00  0.00    -0.105 A  
HETATM   36  C   UNL     1      -8.515   2.368  69.454  1.00  0.00    -0.092 A  
ENDBRANCH  30  31
ENDBRANCH  11  30
ENDBRANCH   9  11
ENDBRANCH   7   9
ENDBRANCH   5   7
ENDBRANCH   4   5
ENDBRANCH   2   4
TORSDOF 12
ENDMDL
MODEL      373
REMARK 921   NORMALIZED FREE ENERGY PREDICTED BY IDOCK:   -3.25 KCAL/MOL
REMARK 922        TOTAL FREE ENERGY PREDICTED BY IDOCK:   -7.25 KCAL/MOL
REMARK 923 INTER-LIGAND FREE ENERGY PREDICTED BY IDOCK:   -6.76 KCAL/MOL
REMARK 924 INTRA-LIGAND FREE ENERGY PREDICTED BY IDOCK:   -0.50 KCAL/MOL
REMARK 927      BINDING AFFINITY PREDICTED BY RF-SCORE:    0.00 PKD
ROOT
HETATM    1  C   UNL     1      -6.675  17.372  67.131  1.00  0.00    -0.203 C  
HETATM    2  C   UNL     1      -8.110  17.901  67.085  1.00  0.00    -0.212 C  
HETATM    3  C   UNL     1      -8.165  19.369  67.531  1.00  0.00    -0.321 C  
ENDROOT
BRANCH   2   4
HETATM    4  O   UNL     1      -8.788  17.579  65.827  1.00  0.00    -0.514 OA 
BRANCH   4   5
HETATM    5  C   UNL     1      -9.997  16.967  65.855  1.00  0.00    -0.252 C  
HETATM    6  O   UNL     1     -10.818  17.062  64.941  1.00  0.00    -0.717 OA 
BRANCH   5   7
HETATM    7  C   UNL     1     -10.331  16.131  67.124  1.00  0.00    -0.291 C  
HETATM    8  C   UNL     1     -10.891  17.057  68.203  1.00  0.00    -0.338 C  
BRANCH   7   9
HETATM    9  N   UNL     1      -9.288  15.192  67.692  1.00  0.00    -0.189 NA 
HETATM   10  H   UNL     1      -9.129  15.371  68.684  1.00  0.00     0.000 HD 
BRANCH   9  11
HETATM   11  P   UNL     1      -9.695  13.502  67.406  1.00  0.00    -0.243 P  
HETATM   12  O   UNL     1     -10.773  13.832  66.345  1.00  0.00    -0.279 OA 
BRANCH  11  13
HETATM   13  C   UNL     1     -11.078  12.870  68.565  1.00  0.00    -0.267 C  
BRANCH  13  14
HETATM   14  O   UNL     1     -10.668  11.704  69.376  1.00  0.00    -0.156 OA 
BRANCH  14  15
HETATM   15  C   UNL     1     -10.510  10.391  68.772  1.00  0.00    -0.199 C  
HETATM   16  C   UNL     1     -11.095  10.396  67.355  1.00  0.00    -0.297 C  
BRANCH  15  17
HETATM   17  C   UNL     1     -10.971   9.228  69.640  1.00  0.00    -0.175 C  
BRANCH  17  18
HETATM   18  N   UNL     1     -10.127   8.927  70.764  1.00  0.00    -0.209 NA 
HETATM   19  C   UNL     1     -10.495   8.783  72.075  1.00  0.00    -0.344 A  
HETATM   20  N   UNL     1      -9.478   8.423  72.827  1.00  0.00    -0.268 NA 
HETATM   21  C   UNL     1      -8.413   8.356  71.957  1.00  0.00    -0.183 A  
HETATM   22  C   UNL     1      -7.072   8.015  72.151  1.00  0.00    -0.079 A  
HETATM   23  N   UNL     1      -6.220   8.107  71.104  1.00  0.00    -0.034 NA 
HETATM   24  N   UNL     1      -6.597   7.596  73.385  1.00  0.00    -0.066 NA 
HETATM   25  C   UNL     1      -6.722   8.481  69.912  1.00  0.00    -0.042 A  
HETATM   26  H1  UNL     1      -5.618   7.347  73.526  1.00  0.00     0.000 HD 
HETATM   27  H2  UNL     1      -7.168   6.807  73.688  1.00  0.00     0.000 HD 
HETATM   28  N   UNL     1      -7.997   8.797  69.592  1.00  0.00    -0.093 NA 
HETATM   29  C   UNL     1      -8.783   8.707  70.675  1.00  0.00    -0.165 A  
ENDBRANCH  17  18
ENDBRANCH  15  17
ENDBRANCH  14  15
ENDBRANCH  13  14
ENDBRANCH  11  13
BRANCH  11  30
HETATM   30  O   UNL     1      -8.489  13.133  68.591  1.00  0.00    -0.096 OA 
BRANCH  30  31
HETATM   31  C   UNL     1      -7.418  12.368  68.163  1.00  0.00    -0.118 A  
HETATM   32  C   UNL     1      -7.548  11.742  66.922  1.00  0.00    -0.119 A  
HETATM   33  C   UNL     1      -5.228  11.357  68.417  1.00  0.00    -0.039 A  
HETATM   34  C   UNL     1      -6.250  12.181  68.908  1.00  0.00    -0.077 A  
HETATM   35  C   UNL     1      -5.370  10.718  67.186  1.00  0.00    -0.044 A  
HETATM   36  C   UNL     1      -6.530  10.911  66.441  1.00  0.00    -0.130 A  
ENDBRANCH  30  31
ENDBRANCH  11  30
ENDBRANCH   9  11
ENDBRANCH   7   9
ENDBRANCH   5   7
ENDBRANCH   4   5
ENDBRANCH   2   4
TORSDOF 12
ENDMDL
MODEL      374
REMARK 921   NORMALIZED FREE ENERGY PREDICTED BY IDOCK:   -3.24 KCAL/MOL
REMARK 922        TOTAL FREE ENERGY PREDICTED BY IDOCK:   -7.24 KCAL/MOL
REMARK 923 INTER-LIGAND FREE ENERGY PREDICTED BY IDOCK:   -6.73 KCAL/MOL
REMARK 924 INTRA-LIGAND FREE ENERGY PREDICTED BY IDOCK:   -0.50 KCAL/MOL
REMARK 927      BINDING AFFINITY PREDICTED BY RF-SCORE:    0.00 PKD
ROOT
HETATM    1  C   UNL     1      -8.528   2.733  63.062  1.00  0.00    -0.085 C  
HETATM    2  C   UNL     1      -9.401   3.901  63.526  1.00  0.00    -0.131 C  
HETATM    3  C   UNL     1     -10.857   3.453  63.715  1.00  0.00    -0.183 C  
ENDROOT
BRANCH   2   4
HETATM    4  O   UNL     1      -8.801   4.642  64.638  1.00  0.00    -0.145 OA 
BRANCH   4   5
HETATM    5  C   UNL     1      -8.666   4.043  65.847  1.00  0.00    -0.116 C  
HETATM    6  O   UNL     1      -8.993   2.873  66.055  1.00  0.00    -0.138 OA 
BRANCH   5   7
HETATM    7  C   UNL     1      -8.083   4.911  66.999  1.00  0.00    -0.107 C  
HETATM    8  C   UNL     1      -6.795   4.267  67.511  1.00  0.00    -0.052 C  
BRANCH   7   9
HETATM    9  N   UNL     1      -8.981   5.330  68.143  1.00  0.00    -0.108 NA 
HETATM   10  H   UNL     1      -8.804   4.771  68.978  1.00  0.00     0.000 HD 
BRANCH   9  11
HETATM   11  P   UNL     1      -8.851   7.052  68.488  1.00  0.00    -0.121 P  
HETATM   12  O   UNL     1      -9.586   6.943  69.847  1.00  0.00    -0.157 OA 
BRANCH  11  13
HETATM   13  C   UNL     1     -10.329   8.056  67.807  1.00  0.00    -0.231 C  
BRANCH  13  14
HETATM   14  O   UNL     1     -10.435   9.406  68.396  1.00  0.00    -0.208 OA 
BRANCH  14  15
HETATM   15  C   UNL     1     -11.034  10.503  67.653  1.00  0.00    -0.314 C  
HETATM   16  C   UNL     1     -10.663  10.390  66.169  1.00  0.00    -0.076 C  
BRANCH  15  17
HETATM   17  C   UNL     1     -10.809  11.883  68.255  1.00  0.00    -0.224 C  
BRANCH  17  18
HETATM   18  N   UNL     1     -11.561  12.164  69.446  1.00  0.00    -0.302 NA 
HETATM   19  C   UNL     1     -12.013  11.275  70.384  1.00  0.00    -0.380 A  
HETATM   20  N   UNL     1     -12.595  11.886  71.393  1.00  0.00    -0.295 NA 
HETATM   21  C   UNL     1     -12.527  13.222  71.069  1.00  0.00    -0.336 A  
HETATM   22  C   UNL     1     -12.958  14.367  71.746  1.00  0.00    -0.345 A  
HETATM   23  N   UNL     1     -12.819  15.570  71.141  1.00  0.00    -0.465 NA 
HETATM   24  N   UNL     1     -13.527  14.297  73.008  1.00  0.00    -0.635 NA 
HETATM   25  C   UNL     1     -12.227  15.605  69.932  1.00  0.00    -0.294 A  
HETATM   26  H1  UNL     1     -13.842  15.133  73.502  1.00  0.00     0.000 HD 
HETATM   27  H2  UNL     1     -12.878  13.800  73.617  1.00  0.00     0.000 HD 
HETATM   28  N   UNL     1     -11.738  14.580  69.199  1.00  0.00    -0.296 NA 
HETATM   29  C   UNL     1     -11.927  13.418  69.842  1.00  0.00    -0.338 A  
ENDBRANCH  17  18
ENDBRANCH  15  17
ENDBRANCH  14  15
ENDBRANCH  13  14
ENDBRANCH  11  13
BRANCH  11  30
HETATM   30  O   UNL     1      -8.028   7.174  66.971  1.00  0.00    -0.109 OA 
BRANCH  30  31
HETATM   31  C   UNL     1      -7.387   8.373  66.712  1.00  0.00    -0.083 A  
HETATM   32  C   UNL     1      -7.051   8.633  65.383  1.00  0.00    -0.083 A  
HETATM   33  C   UNL     1      -6.364  10.476  67.357  1.00  0.00    -0.058 A  
HETATM   34  C   UNL     1      -7.049   9.302  67.701  1.00  0.00    -0.082 A  
HETATM   35  C   UNL     1      -6.012  10.722  66.031  1.00  0.00    -0.138 A  
HETATM   36  C   UNL     1      -6.356   9.800  65.046  1.00  0.00    -0.096 A  
ENDBRANCH  30  31
ENDBRANCH  11  30
ENDBRANCH   9  11
ENDBRANCH   7   9
ENDBRANCH   5   7
ENDBRANCH   4   5
ENDBRANCH   2   4
TORSDOF 12
ENDMDL
MODEL      375
REMARK 921   NORMALIZED FREE ENERGY PREDICTED BY IDOCK:   -3.24 KCAL/MOL
REMARK 922        TOTAL FREE ENERGY PREDICTED BY IDOCK:   -7.24 KCAL/MOL
REMARK 923 INTER-LIGAND FREE ENERGY PREDICTED BY IDOCK:   -6.03 KCAL/MOL
REMARK 924 INTRA-LIGAND FREE ENERGY PREDICTED BY IDOCK:   -1.20 KCAL/MOL
REMARK 927      BINDING AFFINITY PREDICTED BY RF-SCORE:    0.00 PKD
ROOT
HETATM    1  C   UNL     1     -13.661   9.415  72.324  1.00  0.00    -0.532 C  
HETATM    2  C   UNL     1     -12.273   9.658  71.725  1.00  0.00    -0.384 C  
HETATM    3  C   UNL     1     -11.627   8.335  71.290  1.00  0.00    -0.318 C  
ENDROOT
BRANCH   2   4
HETATM    4  O   UNL     1     -12.270  10.738  70.735  1.00  0.00    -0.316 OA 
BRANCH   4   5
HETATM    5  C   UNL     1     -11.096  11.150  70.198  1.00  0.00    -0.025 C  
HETATM    6  O   UNL     1     -10.094  10.434  70.147  1.00  0.00    -0.144 OA 
BRANCH   5   7
HETATM    7  C   UNL     1     -11.049  12.604  69.647  1.00  0.00     0.097 C  
HETATM    8  C   UNL     1     -12.466  13.173  69.607  1.00  0.00     0.017 C  
BRANCH   7   9
HETATM    9  N   UNL     1     -10.304  12.889  68.359  1.00  0.00    -0.242 NA 
HETATM   10  H   UNL     1     -10.932  12.865  67.556  1.00  0.00     0.000 HD 
BRANCH   9  11
HETATM   11  P   UNL     1      -9.417  14.409  68.432  1.00  0.00    -0.200 P  
HETATM   12  O   UNL     1     -10.214  14.938  69.649  1.00  0.00    -0.187 OA 
BRANCH  11  13
HETATM   13  C   UNL     1     -10.212  15.779  67.359  1.00  0.00    -0.270 C  
BRANCH  13  14
HETATM   14  O   UNL     1     -11.470  15.352  66.711  1.00  0.00    -0.206 OA 
BRANCH  14  15
HETATM   15  C   UNL     1     -11.454  14.641  65.444  1.00  0.00    -0.352 C  
HETATM   16  C   UNL     1     -11.907  15.577  64.316  1.00  0.00    -0.179 C  
BRANCH  15  17
HETATM   17  C   UNL     1     -12.155  13.290  65.459  1.00  0.00    -0.435 C  
BRANCH  17  18
HETATM   18  N   UNL     1     -11.421  12.210  64.860  1.00  0.00    -0.331 NA 
HETATM   19  C   UNL     1     -10.925  12.137  63.586  1.00  0.00    -0.461 A  
HETATM   20  N   UNL     1     -10.228  11.037  63.398  1.00  0.00    -0.355 NA 
HETATM   21  C   UNL     1     -10.304  10.373  64.602  1.00  0.00    -0.120 A  
HETATM   22  C   UNL     1      -9.759   9.160  65.032  1.00  0.00     0.311 A  
HETATM   23  N   UNL     1     -10.067   8.713  66.272  1.00  0.00    -0.237 NA 
HETATM   24  N   UNL     1      -8.925   8.407  64.221  1.00  0.00    -0.243 NA 
HETATM   25  C   UNL     1     -10.848   9.488  67.048  1.00  0.00    -0.055 A  
HETATM   26  H1  UNL     1      -8.527   7.521  64.535  1.00  0.00     0.000 HD 
HETATM   27  H2  UNL     1      -8.156   9.006  63.920  1.00  0.00     0.000 HD 
HETATM   28  N   UNL     1     -11.400  10.688  66.761  1.00  0.00    -0.154 NA 
HETATM   29  C   UNL     1     -11.077  11.062  65.514  1.00  0.00     0.071 A  
ENDBRANCH  17  18
ENDBRANCH  15  17
ENDBRANCH  14  15
ENDBRANCH  13  14
ENDBRANCH  11  13
BRANCH  11  30
HETATM   30  O   UNL     1      -8.526  13.818  67.071  1.00  0.00    -0.201 OA 
BRANCH  30  31
HETATM   31  C   UNL     1      -7.552  12.872  67.337  1.00  0.00    -0.148 A  
HETATM   32  C   UNL     1      -6.480  13.279  68.133  1.00  0.00    -0.112 A  
HETATM   33  C   UNL     1      -6.532  10.681  67.127  1.00  0.00    -0.075 A  
HETATM   34  C   UNL     1      -7.581  11.565  66.840  1.00  0.00    -0.151 A  
HETATM   35  C   UNL     1      -5.453  11.098  67.904  1.00  0.00    -0.043 A  
HETATM   36  C   UNL     1      -5.428  12.396  68.406  1.00  0.00    -0.053 A  
ENDBRANCH  30  31
ENDBRANCH  11  30
ENDBRANCH   9  11
ENDBRANCH   7   9
ENDBRANCH   5   7
ENDBRANCH   4   5
ENDBRANCH   2   4
TORSDOF 12
ENDMDL
MODEL      376
REMARK 921   NORMALIZED FREE ENERGY PREDICTED BY IDOCK:   -3.22 KCAL/MOL
REMARK 922        TOTAL FREE ENERGY PREDICTED BY IDOCK:   -7.19 KCAL/MOL
REMARK 923 INTER-LIGAND FREE ENERGY PREDICTED BY IDOCK:   -7.59 KCAL/MOL
REMARK 924 INTRA-LIGAND FREE ENERGY PREDICTED BY IDOCK:    0.40 KCAL/MOL
REMARK 927      BINDING AFFINITY PREDICTED BY RF-SCORE:    0.00 PKD
ROOT
HETATM    1  C   UNL     1      -8.818   9.839  62.347  1.00  0.00    -0.263 C  
HETATM    2  C   UNL     1      -8.695  10.125  63.845  1.00  0.00    -0.210 C  
HETATM    3  C   UNL     1      -7.224  10.115  64.285  1.00  0.00    -0.108 C  
ENDROOT
BRANCH   2   4
HETATM    4  O   UNL     1      -9.489  11.284  64.262  1.00  0.00    -0.225 OA 
BRANCH   4   5
HETATM    5  C   UNL     1     -10.450  11.132  65.206  1.00  0.00    -0.263 C  
HETATM    6  O   UNL     1     -10.705  10.049  65.734  1.00  0.00     0.004 OA 
BRANCH   5   7
HETATM    7  C   UNL     1     -11.255  12.404  65.598  1.00  0.00    -0.322 C  
HETATM    8  C   UNL     1     -10.428  13.646  65.266  1.00  0.00    -0.362 C  
BRANCH   7   9
HETATM    9  N   UNL     1     -11.864  12.503  66.981  1.00  0.00    -0.503 NA 
HETATM   10  H   UNL     1     -12.480  11.713  67.172  1.00  0.00     0.000 HD 
BRANCH   9  11
HETATM   11  P   UNL     1     -10.637  12.674  68.233  1.00  0.00    -0.245 P  
HETATM   12  O   UNL     1      -9.511  13.023  67.229  1.00  0.00    -0.210 OA 
BRANCH  11  13
HETATM   13  C   UNL     1      -9.739  11.029  68.615  1.00  0.00    -0.195 C  
BRANCH  13  14
HETATM   14  O   UNL     1     -10.077  10.479  69.944  1.00  0.00    -0.165 OA 
BRANCH  14  15
HETATM   15  C   UNL     1     -10.170   9.044  70.159  1.00  0.00    -0.197 C  
HETATM   16  C   UNL     1     -11.156   8.750  71.296  1.00  0.00    -0.348 C  
BRANCH  15  17
HETATM   17  C   UNL     1      -8.833   8.328  70.284  1.00  0.00    -0.141 C  
BRANCH  17  18
HETATM   18  N   UNL     1      -8.788   7.005  69.725  1.00  0.00    -0.142 NA 
HETATM   19  C   UNL     1      -8.827   5.810  70.391  1.00  0.00    -0.142 A  
HETATM   20  N   UNL     1      -8.853   4.791  69.560  1.00  0.00    -0.085 NA 
HETATM   21  C   UNL     1      -8.809   5.366  68.310  1.00  0.00    -0.104 A  
HETATM   22  C   UNL     1      -8.824   4.810  67.028  1.00  0.00    -0.107 A  
HETATM   23  N   UNL     1      -8.694   5.633  65.961  1.00  0.00    -0.139 NA 
HETATM   24  N   UNL     1      -8.957   3.445  66.826  1.00  0.00    -0.143 NA 
HETATM   25  C   UNL     1      -8.605   6.957  66.191  1.00  0.00    -0.143 A  
HETATM   26  H1  UNL     1      -8.968   3.039  65.890  1.00  0.00     0.000 HD 
HETATM   27  H2  UNL     1      -9.802   3.139  67.310  1.00  0.00     0.000 HD 
HETATM   28  N   UNL     1      -8.617   7.613  67.373  1.00  0.00    -0.124 NA 
HETATM   29  C   UNL     1      -8.724   6.741  68.387  1.00  0.00    -0.123 A  
ENDBRANCH  17  18
ENDBRANCH  15  17
ENDBRANCH  14  15
ENDBRANCH  13  14
ENDBRANCH  11  13
BRANCH  11  30
HETATM   30  O   UNL     1     -11.896  12.284  69.355  1.00  0.00    -0.303 OA 
BRANCH  30  31
HETATM   31  C   UNL     1     -12.186  13.241  70.311  1.00  0.00    -0.321 A  
HETATM   32  C   UNL     1     -11.467  14.435  70.245  1.00  0.00    -0.255 A  
HETATM   33  C   UNL     1     -13.334  14.070  72.281  1.00  0.00    -0.574 A  
HETATM   34  C   UNL     1     -13.129  13.063  71.328  1.00  0.00    -0.263 A  
HETATM   35  C   UNL     1     -12.598  15.253  72.224  1.00  0.00    -0.436 A  
HETATM   36  C   UNL     1     -11.665  15.433  71.207  1.00  0.00    -0.433 A  
ENDBRANCH  30  31
ENDBRANCH  11  30
ENDBRANCH   9  11
ENDBRANCH   7   9
ENDBRANCH   5   7
ENDBRANCH   4   5
ENDBRANCH   2   4
TORSDOF 12
ENDMDL
MODEL      377
REMARK 921   NORMALIZED FREE ENERGY PREDICTED BY IDOCK:   -3.21 KCAL/MOL
REMARK 922        TOTAL FREE ENERGY PREDICTED BY IDOCK:   -7.17 KCAL/MOL
REMARK 923 INTER-LIGAND FREE ENERGY PREDICTED BY IDOCK:   -6.28 KCAL/MOL
REMARK 924 INTRA-LIGAND FREE ENERGY PREDICTED BY IDOCK:   -0.89 KCAL/MOL
REMARK 927      BINDING AFFINITY PREDICTED BY RF-SCORE:    0.00 PKD
ROOT
HETATM    1  C   UNL     1      -6.747   8.843  72.969  1.00  0.00     0.154 C  
HETATM    2  C   UNL     1      -6.347   8.874  71.492  1.00  0.00    -0.075 C  
HETATM    3  C   UNL     1      -5.133   9.787  71.273  1.00  0.00    -0.053 C  
ENDROOT
BRANCH   2   4
HETATM    4  O   UNL     1      -6.266   7.534  70.905  1.00  0.00    -0.035 OA 
BRANCH   4   5
HETATM    5  C   UNL     1      -6.941   7.261  69.761  1.00  0.00    -0.057 C  
HETATM    6  O   UNL     1      -6.377   6.982  68.701  1.00  0.00    -0.032 OA 
BRANCH   5   7
HETATM    7  C   UNL     1      -8.493   7.333  69.829  1.00  0.00    -0.136 C  
HETATM    8  C   UNL     1      -9.057   5.918  69.957  1.00  0.00    -0.154 C  
BRANCH   7   9
HETATM    9  N   UNL     1      -9.248   8.133  68.788  1.00  0.00    -0.144 NA 
HETATM   10  H   UNL     1     -10.088   7.643  68.482  1.00  0.00     0.000 HD 
BRANCH   9  11
HETATM   11  P   UNL     1      -9.625   9.759  69.352  1.00  0.00    -0.232 P  
HETATM   12  O   UNL     1      -9.384   9.412  70.841  1.00  0.00    -0.252 OA 
BRANCH  11  13
HETATM   13  C   UNL     1     -11.483   9.991  69.742  1.00  0.00    -0.184 C  
BRANCH  13  14
HETATM   14  O   UNL     1     -11.870  11.409  69.901  1.00  0.00    -0.301 OA 
BRANCH  14  15
HETATM   15  C   UNL     1     -12.461  11.889  71.139  1.00  0.00    -0.261 C  
HETATM   16  C   UNL     1     -13.165  10.734  71.863  1.00  0.00    -0.524 C  
BRANCH  15  17
HETATM   17  C   UNL     1     -13.302  13.150  71.000  1.00  0.00     0.165 C  
BRANCH  17  18
HETATM   18  N   UNL     1     -12.560  14.368  70.827  1.00  0.00    -0.338 NA 
HETATM   19  C   UNL     1     -12.176  15.261  71.792  1.00  0.00    -0.360 A  
HETATM   20  N   UNL     1     -11.434  16.225  71.293  1.00  0.00    -0.392 NA 
HETATM   21  C   UNL     1     -11.362  15.943  69.947  1.00  0.00    -0.348 A  
HETATM   22  C   UNL     1     -10.709  16.587  68.893  1.00  0.00    -0.337 A  
HETATM   23  N   UNL     1     -10.878  16.113  67.637  1.00  0.00    -0.317 NA 
HETATM   24  N   UNL     1      -9.906  17.698  69.103  1.00  0.00    -0.205 NA 
HETATM   25  C   UNL     1     -11.633  15.011  67.473  1.00  0.00    -0.301 A  
HETATM   26  H1  UNL     1      -9.429  18.168  68.334  1.00  0.00     0.000 HD 
HETATM   27  H2  UNL     1      -9.205  17.449  69.801  1.00  0.00     0.000 HD 
HETATM   28  N   UNL     1     -12.280  14.282  68.410  1.00  0.00    -0.248 NA 
HETATM   29  C   UNL     1     -12.092  14.816  69.626  1.00  0.00    -0.304 A  
ENDBRANCH  17  18
ENDBRANCH  15  17
ENDBRANCH  14  15
ENDBRANCH  13  14
ENDBRANCH  11  13
BRANCH  11  30
HETATM   30  O   UNL     1      -9.895  10.146  67.686  1.00  0.00    -0.164 OA 
BRANCH  30  31
HETATM   31  C   UNL     1      -8.898   9.779  66.800  1.00  0.00    -0.138 A  
HETATM   32  C   UNL     1      -9.278   8.975  65.724  1.00  0.00    -0.293 A  
HETATM   33  C   UNL     1      -6.603   9.700  66.017  1.00  0.00    -0.079 A  
HETATM   34  C   UNL     1      -7.557  10.149  66.941  1.00  0.00    -0.100 A  
HETATM   35  C   UNL     1      -6.984   8.881  64.955  1.00  0.00    -0.073 A  
HETATM   36  C   UNL     1      -8.320   8.519  64.810  1.00  0.00    -0.163 A  
ENDBRANCH  30  31
ENDBRANCH  11  30
ENDBRANCH   9  11
ENDBRANCH   7   9
ENDBRANCH   5   7
ENDBRANCH   4   5
ENDBRANCH   2   4
TORSDOF 12
ENDMDL
MODEL      378
REMARK 921   NORMALIZED FREE ENERGY PREDICTED BY IDOCK:   -3.20 KCAL/MOL
REMARK 922        TOTAL FREE ENERGY PREDICTED BY IDOCK:   -7.17 KCAL/MOL
REMARK 923 INTER-LIGAND FREE ENERGY PREDICTED BY IDOCK:   -6.22 KCAL/MOL
REMARK 924 INTRA-LIGAND FREE ENERGY PREDICTED BY IDOCK:   -0.94 KCAL/MOL
REMARK 927      BINDING AFFINITY PREDICTED BY RF-SCORE:    0.00 PKD
ROOT
HETATM    1  C   UNL     1     -11.582  11.948  69.775  1.00  0.00    -0.359 C  
HETATM    2  C   UNL     1     -10.860  11.051  68.766  1.00  0.00    -0.210 C  
HETATM    3  C   UNL     1     -11.218  11.448  67.327  1.00  0.00    -0.370 C  
ENDROOT
BRANCH   2   4
HETATM    4  O   UNL     1      -9.433  10.907  69.064  1.00  0.00    -0.197 OA 
BRANCH   4   5
HETATM    5  C   UNL     1      -8.515  11.385  68.188  1.00  0.00    -0.152 C  
HETATM    6  O   UNL     1      -7.982  10.684  67.326  1.00  0.00    -0.113 OA 
BRANCH   5   7
HETATM    7  C   UNL     1      -8.134  12.887  68.323  1.00  0.00    -0.151 C  
HETATM    8  C   UNL     1      -6.650  13.060  68.004  1.00  0.00    -0.116 C  
BRANCH   7   9
HETATM    9  N   UNL     1      -8.519  13.644  69.577  1.00  0.00     0.263 NA 
HETATM   10  H   UNL     1      -7.703  13.833  70.160  1.00  0.00     0.000 HD 
BRANCH   9  11
HETATM   11  P   UNL     1      -9.400  15.124  69.211  1.00  0.00    -0.122 P  
HETATM   12  O   UNL     1     -10.458  14.893  70.318  1.00  0.00    -0.089 OA 
BRANCH  11  13
HETATM   13  C   UNL     1     -10.766  14.864  67.898  1.00  0.00    -0.265 C  
BRANCH  13  14
HETATM   14  O   UNL     1     -11.217  16.124  67.272  1.00  0.00    -0.160 OA 
BRANCH  14  15
HETATM   15  C   UNL     1     -10.324  16.901  66.427  1.00  0.00    -0.300 C  
HETATM   16  C   UNL     1     -10.791  18.361  66.379  1.00  0.00    -0.037 C  
BRANCH  15  17
HETATM   17  C   UNL     1     -10.038  16.287  65.063  1.00  0.00     0.338 C  
BRANCH  17  18
HETATM   18  N   UNL     1     -11.003  15.324  64.608  1.00  0.00    -0.359 NA 
HETATM   19  C   UNL     1     -12.325  15.533  64.319  1.00  0.00     0.004 A  
HETATM   20  N   UNL     1     -12.896  14.448  63.844  1.00  0.00    -0.488 NA 
HETATM   21  C   UNL     1     -11.895  13.502  63.851  1.00  0.00    -0.411 A  
HETATM   22  C   UNL     1     -11.875  12.163  63.452  1.00  0.00    -0.461 A  
HETATM   23  N   UNL     1     -10.745  11.443  63.645  1.00  0.00    -0.392 NA 
HETATM   24  N   UNL     1     -12.982  11.558  62.877  1.00  0.00    -0.729 NA 
HETATM   25  C   UNL     1      -9.678  12.072  64.172  1.00  0.00    -0.098 A  
HETATM   26  H1  UNL     1     -12.968  10.580  62.586  1.00  0.00     0.000 HD 
HETATM   27  H2  UNL     1     -13.263  12.119  62.073  1.00  0.00     0.000 HD 
HETATM   28  N   UNL     1      -9.562  13.363  64.559  1.00  0.00     0.241 NA 
HETATM   29  C   UNL     1     -10.719  14.012  64.363  1.00  0.00    -0.216 A  
ENDBRANCH  17  18
ENDBRANCH  15  17
ENDBRANCH  14  15
ENDBRANCH  13  14
ENDBRANCH  11  13
BRANCH  11  30
HETATM   30  O   UNL     1      -8.217  15.383  67.975  1.00  0.00    -0.139 OA 
BRANCH  30  31
HETATM   31  C   UNL     1      -7.466  16.541  68.074  1.00  0.00    -0.156 A  
HETATM   32  C   UNL     1      -6.631  16.844  66.997  1.00  0.00    -0.241 A  
HETATM   33  C   UNL     1      -6.664  18.522  69.221  1.00  0.00    -0.252 A  
HETATM   34  C   UNL     1      -7.487  17.388  69.186  1.00  0.00    -0.117 A  
HETATM   35  C   UNL     1      -5.817  18.810  68.152  1.00  0.00    -0.207 A  
HETATM   36  C   UNL     1      -5.801  17.970  67.042  1.00  0.00    -0.162 A  
ENDBRANCH  30  31
ENDBRANCH  11  30
ENDBRANCH   9  11
ENDBRANCH   7   9
ENDBRANCH   5   7
ENDBRANCH   4   5
ENDBRANCH   2   4
TORSDOF 12
ENDMDL
MODEL      379
REMARK 921   NORMALIZED FREE ENERGY PREDICTED BY IDOCK:   -3.20 KCAL/MOL
REMARK 922        TOTAL FREE ENERGY PREDICTED BY IDOCK:   -7.16 KCAL/MOL
REMARK 923 INTER-LIGAND FREE ENERGY PREDICTED BY IDOCK:   -6.63 KCAL/MOL
REMARK 924 INTRA-LIGAND FREE ENERGY PREDICTED BY IDOCK:   -0.53 KCAL/MOL
REMARK 927      BINDING AFFINITY PREDICTED BY RF-SCORE:    0.00 PKD
ROOT
HETATM    1  C   UNL     1      -8.952   4.637  64.703  1.00  0.00    -0.151 C  
HETATM    2  C   UNL     1      -7.713   4.104  65.427  1.00  0.00    -0.086 C  
HETATM    3  C   UNL     1      -6.445   4.355  64.599  1.00  0.00    -0.039 C  
ENDROOT
BRANCH   2   4
HETATM    4  O   UNL     1      -7.663   4.518  66.832  1.00  0.00    -0.092 OA 
BRANCH   4   5
HETATM    5  C   UNL     1      -8.789   4.466  67.586  1.00  0.00    -0.109 C  
HETATM    6  O   UNL     1      -9.508   3.467  67.648  1.00  0.00    -0.205 OA 
BRANCH   5   7
HETATM    7  C   UNL     1      -9.163   5.751  68.379  1.00  0.00    -0.117 C  
HETATM    8  C   UNL     1      -8.211   6.880  67.985  1.00  0.00    -0.115 C  
BRANCH   7   9
HETATM    9  N   UNL     1      -9.334   5.675  69.882  1.00  0.00    -0.144 NA 
HETATM   10  H   UNL     1      -8.771   6.381  70.355  1.00  0.00     0.000 HD 
BRANCH   9  11
HETATM   11  P   UNL     1     -11.026   5.782  70.359  1.00  0.00    -0.101 P  
HETATM   12  O   UNL     1     -11.521   6.089  68.924  1.00  0.00    -0.221 OA 
BRANCH  11  13
HETATM   13  C   UNL     1     -11.536   7.552  70.876  1.00  0.00    -0.281 C  
BRANCH  13  14
HETATM   14  O   UNL     1     -10.454   8.543  70.700  1.00  0.00    -0.194 OA 
BRANCH  14  15
HETATM   15  C   UNL     1     -10.501   9.519  69.623  1.00  0.00    -0.223 C  
HETATM   16  C   UNL     1      -9.291  10.457  69.717  1.00  0.00    -0.019 C  
BRANCH  15  17
HETATM   17  C   UNL     1     -11.838  10.230  69.462  1.00  0.00    -0.077 C  
BRANCH  17  18
HETATM   18  N   UNL     1     -11.786  11.663  69.542  1.00  0.00    -0.316 NA 
HETATM   19  C   UNL     1     -11.244  12.535  68.637  1.00  0.00    -0.278 A  
HETATM   20  N   UNL     1     -11.447  13.787  68.986  1.00  0.00    -0.284 NA 
HETATM   21  C   UNL     1     -12.130  13.704  70.179  1.00  0.00    -0.361 A  
HETATM   22  C   UNL     1     -12.637  14.687  71.032  1.00  0.00    -0.329 A  
HETATM   23  N   UNL     1     -13.214  14.305  72.195  1.00  0.00    -0.369 NA 
HETATM   24  N   UNL     1     -12.556  16.036  70.720  1.00  0.00    -0.532 NA 
HETATM   25  C   UNL     1     -13.310  12.986  72.449  1.00  0.00    -0.460 A  
HETATM   26  H1  UNL     1     -12.927  16.754  71.343  1.00  0.00     0.000 HD 
HETATM   27  H2  UNL     1     -12.979  16.170  69.801  1.00  0.00     0.000 HD 
HETATM   28  N   UNL     1     -12.895  11.946  71.691  1.00  0.00    -0.356 NA 
HETATM   29  C   UNL     1     -12.314  12.393  70.567  1.00  0.00    -0.262 A  
ENDBRANCH  17  18
ENDBRANCH  15  17
ENDBRANCH  14  15
ENDBRANCH  13  14
ENDBRANCH  11  13
BRANCH  11  30
HETATM   30  O   UNL     1     -10.473   5.440  71.963  1.00  0.00    -0.209 OA 
BRANCH  30  31
HETATM   31  C   UNL     1      -9.623   4.357  72.103  1.00  0.00    -0.151 A  
HETATM   32  C   UNL     1      -8.461   4.562  72.849  1.00  0.00    -0.106 A  
HETATM   33  C   UNL     1      -8.923   2.072  71.686  1.00  0.00    -0.128 A  
HETATM   34  C   UNL     1      -9.857   3.105  71.527  1.00  0.00    -0.200 A  
HETATM   35  C   UNL     1      -7.755   2.287  72.415  1.00  0.00    -0.052 A  
HETATM   36  C   UNL     1      -7.525   3.532  72.995  1.00  0.00    -0.060 A  
ENDBRANCH  30  31
ENDBRANCH  11  30
ENDBRANCH   9  11
ENDBRANCH   7   9
ENDBRANCH   5   7
ENDBRANCH   4   5
ENDBRANCH   2   4
TORSDOF 12
ENDMDL
MODEL      380
REMARK 921   NORMALIZED FREE ENERGY PREDICTED BY IDOCK:   -3.19 KCAL/MOL
REMARK 922        TOTAL FREE ENERGY PREDICTED BY IDOCK:   -7.15 KCAL/MOL
REMARK 923 INTER-LIGAND FREE ENERGY PREDICTED BY IDOCK:   -7.18 KCAL/MOL
REMARK 924 INTRA-LIGAND FREE ENERGY PREDICTED BY IDOCK:    0.03 KCAL/MOL
REMARK 927      BINDING AFFINITY PREDICTED BY RF-SCORE:    0.00 PKD
ROOT
HETATM    1  C   UNL     1      -7.231  12.143  68.344  1.00  0.00    -0.097 C  
HETATM    2  C   UNL     1      -6.032  12.117  67.393  1.00  0.00    -0.139 C  
HETATM    3  C   UNL     1      -5.128  13.336  67.621  1.00  0.00    -0.017 C  
ENDROOT
BRANCH   2   4
HETATM    4  O   UNL     1      -5.366  10.812  67.366  1.00  0.00    -0.039 OA 
BRANCH   4   5
HETATM    5  C   UNL     1      -5.801   9.857  66.507  1.00  0.00    -0.055 C  
HETATM    6  O   UNL     1      -5.869  10.031  65.289  1.00  0.00    -0.073 OA 
BRANCH   5   7
HETATM    7  C   UNL     1      -6.239   8.500  67.130  1.00  0.00    -0.056 C  
HETATM    8  C   UNL     1      -7.126   7.753  66.135  1.00  0.00    -0.069 C  
BRANCH   7   9
HETATM    9  N   UNL     1      -6.834   8.478  68.523  1.00  0.00    -0.063 NA 
HETATM   10  H   UNL     1      -6.521   9.279  69.072  1.00  0.00     0.000 HD 
BRANCH   9  11
HETATM   11  P   UNL     1      -8.592   8.375  68.487  1.00  0.00    -0.136 P  
HETATM   12  O   UNL     1      -8.727   9.300  67.253  1.00  0.00    -0.127 OA 
BRANCH  11  13
HETATM   13  C   UNL     1      -9.432   9.727  69.549  1.00  0.00    -0.212 C  
BRANCH  13  14
HETATM   14  O   UNL     1     -10.465  10.484  68.814  1.00  0.00    -0.174 OA 
BRANCH  14  15
HETATM   15  C   UNL     1     -10.962  11.754  69.316  1.00  0.00    -0.175 C  
HETATM   16  C   UNL     1     -12.473  11.661  69.566  1.00  0.00    -0.017 C  
BRANCH  15  17
HETATM   17  C   UNL     1     -10.531  12.973  68.514  1.00  0.00    -0.249 C  
BRANCH  17  18
HETATM   18  N   UNL     1     -11.246  13.186  67.286  1.00  0.00    -0.276 NA 
HETATM   19  C   UNL     1     -12.404  13.893  67.101  1.00  0.00    -0.210 A  
HETATM   20  N   UNL     1     -12.737  13.956  65.830  1.00  0.00    -0.472 NA 
HETATM   21  C   UNL     1     -11.756  13.239  65.182  1.00  0.00    -0.330 A  
HETATM   22  C   UNL     1     -11.547  12.959  63.829  1.00  0.00    -0.475 A  
HETATM   23  N   UNL     1     -10.516  12.152  63.484  1.00  0.00    -0.450 NA 
HETATM   24  N   UNL     1     -12.371  13.475  62.842  1.00  0.00    -0.900 NA 
HETATM   25  C   UNL     1      -9.712  11.699  64.465  1.00  0.00    -0.178 A  
HETATM   26  H1  UNL     1     -12.219  13.270  61.854  1.00  0.00     0.000 HD 
HETATM   27  H2  UNL     1     -12.393  14.489  62.951  1.00  0.00     0.000 HD 
HETATM   28  N   UNL     1      -9.787  11.930  65.795  1.00  0.00    -0.234 NA 
HETATM   29  C   UNL     1     -10.841  12.714  66.071  1.00  0.00    -0.277 A  
ENDBRANCH  17  18
ENDBRANCH  15  17
ENDBRANCH  14  15
ENDBRANCH  13  14
ENDBRANCH  11  13
BRANCH  11  30
HETATM   30  O   UNL     1      -8.442   7.341  69.867  1.00  0.00    -0.136 OA 
BRANCH  30  31
HETATM   31  C   UNL     1      -9.608   7.063  70.558  1.00  0.00    -0.169 A  
HETATM   32  C   UNL     1      -9.546   7.134  71.950  1.00  0.00    -0.161 A  
HETATM   33  C   UNL     1     -11.935   6.397  70.720  1.00  0.00    -0.248 A  
HETATM   34  C   UNL     1     -10.809   6.701  69.941  1.00  0.00    -0.329 A  
HETATM   35  C   UNL     1     -11.863   6.450  72.111  1.00  0.00    -0.361 A  
HETATM   36  C   UNL     1     -10.669   6.818  72.724  1.00  0.00    -0.277 A  
ENDBRANCH  30  31
ENDBRANCH  11  30
ENDBRANCH   9  11
ENDBRANCH   7   9
ENDBRANCH   5   7
ENDBRANCH   4   5
ENDBRANCH   2   4
TORSDOF 12
ENDMDL
MODEL      381
REMARK 921   NORMALIZED FREE ENERGY PREDICTED BY IDOCK:   -3.17 KCAL/MOL
REMARK 922        TOTAL FREE ENERGY PREDICTED BY IDOCK:   -7.11 KCAL/MOL
REMARK 923 INTER-LIGAND FREE ENERGY PREDICTED BY IDOCK:   -6.37 KCAL/MOL
REMARK 924 INTRA-LIGAND FREE ENERGY PREDICTED BY IDOCK:   -0.74 KCAL/MOL
REMARK 927      BINDING AFFINITY PREDICTED BY RF-SCORE:    0.00 PKD
ROOT
HETATM    1  C   UNL     1     -13.778   9.065  72.635  1.00  0.00    -0.422 C  
HETATM    2  C   UNL     1     -12.748   8.532  71.636  1.00  0.00    -0.332 C  
HETATM    3  C   UNL     1     -13.212   7.200  71.030  1.00  0.00    -0.158 C  
ENDROOT
BRANCH   2   4
HETATM    4  O   UNL     1     -12.305   9.557  70.687  1.00  0.00    -0.210 OA 
BRANCH   4   5
HETATM    5  C   UNL     1     -11.006   9.947  70.681  1.00  0.00    -0.337 C  
HETATM    6  O   UNL     1     -10.104   9.279  71.188  1.00  0.00    -0.288 OA 
BRANCH   5   7
HETATM    7  C   UNL     1     -10.687  11.313  70.008  1.00  0.00     0.333 C  
HETATM    8  C   UNL     1     -11.954  12.167  69.978  1.00  0.00    -0.391 C  
BRANCH   7   9
HETATM    9  N   UNL     1      -9.975  11.337  68.672  1.00  0.00    -0.202 NA 
HETATM   10  H   UNL     1      -9.766  10.393  68.347  1.00  0.00     0.000 HD 
BRANCH   9  11
HETATM   11  P   UNL     1     -10.875  12.244  67.460  1.00  0.00    -0.259 P  
HETATM   12  O   UNL     1     -12.114  11.318  67.535  1.00  0.00    -0.530 OA 
BRANCH  11  13
HETATM   13  C   UNL     1     -10.556  11.617  65.681  1.00  0.00    -0.275 C  
BRANCH  13  14
HETATM   14  O   UNL     1      -9.131  11.335  65.412  1.00  0.00    -0.205 OA 
BRANCH  14  15
HETATM   15  C   UNL     1      -8.505  10.117  65.900  1.00  0.00    -0.141 C  
HETATM   16  C   UNL     1      -7.018  10.108  65.520  1.00  0.00    -0.131 C  
BRANCH  15  17
HETATM   17  C   UNL     1      -9.249   8.834  65.560  1.00  0.00    -0.137 C  
BRANCH  17  18
HETATM   18  N   UNL     1      -8.995   7.724  66.437  1.00  0.00    -0.156 NA 
HETATM   19  C   UNL     1      -9.486   7.521  67.698  1.00  0.00    -0.138 A  
HETATM   20  N   UNL     1      -9.116   6.356  68.182  1.00  0.00    -0.115 NA 
HETATM   21  C   UNL     1      -8.337   5.804  67.190  1.00  0.00    -0.104 A  
HETATM   22  C   UNL     1      -7.671   4.579  67.101  1.00  0.00    -0.090 A  
HETATM   23  N   UNL     1      -6.907   4.331  66.012  1.00  0.00    -0.056 NA 
HETATM   24  N   UNL     1      -7.767   3.623  68.101  1.00  0.00    -0.065 NA 
HETATM   25  C   UNL     1      -6.867   5.265  65.043  1.00  0.00    -0.049 A  
HETATM   26  H1  UNL     1      -7.280   2.728  68.037  1.00  0.00     0.000 HD 
HETATM   27  H2  UNL     1      -8.757   3.431  68.256  1.00  0.00     0.000 HD 
HETATM   28  N   UNL     1      -7.492   6.463  64.995  1.00  0.00    -0.078 NA 
HETATM   29  C   UNL     1      -8.211   6.656  66.111  1.00  0.00    -0.124 A  
ENDBRANCH  17  18
ENDBRANCH  15  17
ENDBRANCH  14  15
ENDBRANCH  13  14
ENDBRANCH  11  13
BRANCH  11  30
HETATM   30  O   UNL     1      -9.491  13.279  67.377  1.00  0.00    -0.205 OA 
BRANCH  30  31
HETATM   31  C   UNL     1      -9.723  14.633  67.547  1.00  0.00    -0.210 A  
HETATM   32  C   UNL     1      -9.257  15.208  68.730  1.00  0.00    -0.200 A  
HETATM   33  C   UNL     1     -10.631  16.784  66.889  1.00  0.00    -0.219 A  
HETATM   34  C   UNL     1     -10.405  15.427  66.621  1.00  0.00    -0.281 A  
HETATM   35  C   UNL     1     -10.182  17.349  68.081  1.00  0.00    -0.350 A  
HETATM   36  C   UNL     1      -9.496  16.560  69.001  1.00  0.00    -0.249 A  
ENDBRANCH  30  31
ENDBRANCH  11  30
ENDBRANCH   9  11
ENDBRANCH   7   9
ENDBRANCH   5   7
ENDBRANCH   4   5
ENDBRANCH   2   4
TORSDOF 12
ENDMDL
MODEL      382
REMARK 921   NORMALIZED FREE ENERGY PREDICTED BY IDOCK:   -3.17 KCAL/MOL
REMARK 922        TOTAL FREE ENERGY PREDICTED BY IDOCK:   -7.11 KCAL/MOL
REMARK 923 INTER-LIGAND FREE ENERGY PREDICTED BY IDOCK:   -9.39 KCAL/MOL
REMARK 924 INTRA-LIGAND FREE ENERGY PREDICTED BY IDOCK:    2.28 KCAL/MOL
REMARK 927      BINDING AFFINITY PREDICTED BY RF-SCORE:    0.00 PKD
ROOT
HETATM    1  C   UNL     1     -10.117   9.970  69.623  1.00  0.00    -0.263 C  
HETATM    2  C   UNL     1      -9.437  11.003  68.721  1.00  0.00    -0.183 C  
HETATM    3  C   UNL     1      -7.991  10.590  68.411  1.00  0.00    -0.116 C  
ENDROOT
BRANCH   2   4
HETATM    4  O   UNL     1     -10.266  11.378  67.573  1.00  0.00    -0.181 OA 
BRANCH   4   5
HETATM    5  C   UNL     1     -11.513  11.868  67.779  1.00  0.00    -0.319 C  
HETATM    6  O   UNL     1     -12.257  11.453  68.669  1.00  0.00    -0.532 OA 
BRANCH   5   7
HETATM    7  C   UNL     1     -11.993  12.992  66.816  1.00  0.00    -0.369 C  
HETATM    8  C   UNL     1     -11.041  13.072  65.623  1.00  0.00    -0.301 C  
BRANCH   7   9
HETATM    9  N   UNL     1     -12.298  14.367  67.370  1.00  0.00    -0.600 NA 
HETATM   10  H   UNL     1     -12.893  14.310  68.196  1.00  0.00     0.000 HD 
BRANCH   9  11
HETATM   11  P   UNL     1     -10.832  15.286  67.702  1.00  0.00    -0.305 P  
HETATM   12  O   UNL     1      -9.960  14.442  66.741  1.00  0.00    -0.251 OA 
BRANCH  11  13
HETATM   13  C   UNL     1      -9.835  14.578  69.173  1.00  0.00    -0.080 C  
BRANCH  13  14
HETATM   14  O   UNL     1      -8.717  15.450  69.590  1.00  0.00    -0.257 OA 
BRANCH  14  15
HETATM   15  C   UNL     1      -7.425  15.378  68.927  1.00  0.00    -0.152 C  
HETATM   16  C   UNL     1      -6.831  13.974  69.095  1.00  0.00    -0.112 C  
BRANCH  15  17
HETATM   17  C   UNL     1      -6.468  16.512  69.267  1.00  0.00    -0.201 C  
BRANCH  17  18
HETATM   18  N   UNL     1      -6.308  17.509  68.245  1.00  0.00    -0.176 NA 
HETATM   19  C   UNL     1      -5.232  17.702  67.421  1.00  0.00    -0.131 A  
HETATM   20  N   UNL     1      -5.457  18.654  66.542  1.00  0.00    -0.145 NA 
HETATM   21  C   UNL     1      -6.727  19.099  66.837  1.00  0.00    -0.196 A  
HETATM   22  C   UNL     1      -7.528  20.082  66.251  1.00  0.00    -0.299 A  
HETATM   23  N   UNL     1      -8.730  20.359  66.808  1.00  0.00    -0.246 NA 
HETATM   24  N   UNL     1      -7.118  20.782  65.126  1.00  0.00    -0.527 NA 
HETATM   25  C   UNL     1      -9.113  19.634  67.876  1.00  0.00    -0.327 A  
HETATM   26  H1  UNL     1      -7.704  21.500  64.698  1.00  0.00     0.000 HD 
HETATM   27  H2  UNL     1      -6.880  20.102  64.404  1.00  0.00     0.000 HD 
HETATM   28  N   UNL     1      -8.449  18.639  68.506  1.00  0.00    -0.335 NA 
HETATM   29  C   UNL     1      -7.260  18.431  67.920  1.00  0.00    -0.229 A  
ENDBRANCH  17  18
ENDBRANCH  15  17
ENDBRANCH  14  15
ENDBRANCH  13  14
ENDBRANCH  11  13
BRANCH  11  30
HETATM   30  O   UNL     1     -11.807  16.229  68.777  1.00  0.00    -0.278 OA 
BRANCH  30  31
HETATM   31  C   UNL     1     -12.149  15.636  69.979  1.00  0.00    -0.359 A  
HETATM   32  C   UNL     1     -11.573  16.171  71.132  1.00  0.00    -0.453 A  
HETATM   33  C   UNL     1     -13.273  13.973  71.342  1.00  0.00    -0.404 A  
HETATM   34  C   UNL     1     -13.009  14.538  70.087  1.00  0.00    -0.048 A  
HETATM   35  C   UNL     1     -12.678  14.498  72.488  1.00  0.00    -0.433 A  
HETATM   36  C   UNL     1     -11.829  15.595  72.382  1.00  0.00    -0.584 A  
ENDBRANCH  30  31
ENDBRANCH  11  30
ENDBRANCH   9  11
ENDBRANCH   7   9
ENDBRANCH   5   7
ENDBRANCH   4   5
ENDBRANCH   2   4
TORSDOF 12
ENDMDL
MODEL      383
REMARK 921   NORMALIZED FREE ENERGY PREDICTED BY IDOCK:   -3.17 KCAL/MOL
REMARK 922        TOTAL FREE ENERGY PREDICTED BY IDOCK:   -7.10 KCAL/MOL
REMARK 923 INTER-LIGAND FREE ENERGY PREDICTED BY IDOCK:   -5.34 KCAL/MOL
REMARK 924 INTRA-LIGAND FREE ENERGY PREDICTED BY IDOCK:   -1.77 KCAL/MOL
REMARK 927      BINDING AFFINITY PREDICTED BY RF-SCORE:    0.00 PKD
ROOT
HETATM    1  C   UNL     1     -11.452  10.794  68.987  1.00  0.00    -0.368 C  
HETATM    2  C   UNL     1     -10.749  11.780  68.050  1.00  0.00    -0.208 C  
HETATM    3  C   UNL     1     -11.679  12.947  67.689  1.00  0.00    -0.422 C  
ENDROOT
BRANCH   2   4
HETATM    4  O   UNL     1      -9.408  12.140  68.518  1.00  0.00    -0.183 OA 
BRANCH   4   5
HETATM    5  C   UNL     1      -8.321  11.646  67.876  1.00  0.00    -0.143 C  
HETATM    6  O   UNL     1      -8.343  11.292  66.695  1.00  0.00    -0.154 OA 
BRANCH   5   7
HETATM    7  C   UNL     1      -7.012  11.522  68.707  1.00  0.00    -0.096 C  
HETATM    8  C   UNL     1      -5.809  11.645  67.772  1.00  0.00    -0.052 C  
BRANCH   7   9
HETATM    9  N   UNL     1      -6.846  10.362  69.666  1.00  0.00    -0.091 NA 
HETATM   10  H   UNL     1      -7.073  10.637  70.622  1.00  0.00     0.000 HD 
BRANCH   9  11
HETATM   11  P   UNL     1      -7.779   8.954  69.168  1.00  0.00    -0.095 P  
HETATM   12  O   UNL     1      -8.991   9.309  70.063  1.00  0.00    -0.163 OA 
BRANCH  11  13
HETATM   13  C   UNL     1      -7.455   7.426  70.271  1.00  0.00    -0.083 C  
BRANCH  13  14
HETATM   14  O   UNL     1      -8.170   7.481  71.563  1.00  0.00    -0.101 OA 
BRANCH  14  15
HETATM   15  C   UNL     1      -8.400   6.276  72.343  1.00  0.00    -0.111 C  
HETATM   16  C   UNL     1      -7.196   5.334  72.213  1.00  0.00    -0.091 C  
BRANCH  15  17
HETATM   17  C   UNL     1      -9.748   5.609  72.110  1.00  0.00    -0.153 C  
BRANCH  17  18
HETATM   18  N   UNL     1     -10.315   5.806  70.804  1.00  0.00    -0.224 NA 
HETATM   19  C   UNL     1     -11.159   6.805  70.397  1.00  0.00    -0.308 A  
HETATM   20  N   UNL     1     -11.414   6.730  69.110  1.00  0.00    -0.121 NA 
HETATM   21  C   UNL     1     -10.717   5.621  68.685  1.00  0.00    -0.179 A  
HETATM   22  C   UNL     1     -10.579   5.034  67.425  1.00  0.00     0.029 A  
HETATM   23  N   UNL     1      -9.874   3.884  67.317  1.00  0.00    -0.127 NA 
HETATM   24  N   UNL     1     -11.151   5.594  66.293  1.00  0.00    -0.772 NA 
HETATM   25  C   UNL     1      -9.300   3.388  68.429  1.00  0.00    -0.177 A  
HETATM   26  H1  UNL     1     -11.050   5.165  65.372  1.00  0.00     0.000 HD 
HETATM   27  H2  UNL     1     -10.830   6.559  66.225  1.00  0.00     0.000 HD 
HETATM   28  N   UNL     1      -9.329   3.880  69.688  1.00  0.00    -0.160 NA 
HETATM   29  C   UNL     1     -10.060   5.004  69.730  1.00  0.00    -0.267 A  
ENDBRANCH  17  18
ENDBRANCH  15  17
ENDBRANCH  14  15
ENDBRANCH  13  14
ENDBRANCH  11  13
BRANCH  11  30
HETATM   30  O   UNL     1      -6.424   8.557  68.167  1.00  0.00    -0.054 OA 
BRANCH  30  31
HETATM   31  C   UNL     1      -6.707   8.216  66.856  1.00  0.00    -0.065 A  
HETATM   32  C   UNL     1      -7.978   7.701  66.599  1.00  0.00    -0.107 A  
HETATM   33  C   UNL     1      -6.146   7.935  64.512  1.00  0.00    -0.048 A  
HETATM   34  C   UNL     1      -5.791   8.340  65.806  1.00  0.00    -0.041 A  
HETATM   35  C   UNL     1      -7.410   7.402  64.264  1.00  0.00    -0.090 A  
HETATM   36  C   UNL     1      -8.324   7.285  65.308  1.00  0.00    -0.110 A  
ENDBRANCH  30  31
ENDBRANCH  11  30
ENDBRANCH   9  11
ENDBRANCH   7   9
ENDBRANCH   5   7
ENDBRANCH   4   5
ENDBRANCH   2   4
TORSDOF 12
ENDMDL
MODEL      384
REMARK 921   NORMALIZED FREE ENERGY PREDICTED BY IDOCK:   -3.16 KCAL/MOL
REMARK 922        TOTAL FREE ENERGY PREDICTED BY IDOCK:   -7.10 KCAL/MOL
REMARK 923 INTER-LIGAND FREE ENERGY PREDICTED BY IDOCK:   -8.38 KCAL/MOL
REMARK 924 INTRA-LIGAND FREE ENERGY PREDICTED BY IDOCK:    1.29 KCAL/MOL
REMARK 927      BINDING AFFINITY PREDICTED BY RF-SCORE:    0.00 PKD
ROOT
HETATM    1  C   UNL     1     -11.200  16.041  72.037  1.00  0.00     0.014 C  
HETATM    2  C   UNL     1     -11.557  15.353  70.717  1.00  0.00    -0.347 C  
HETATM    3  C   UNL     1     -13.046  15.538  70.390  1.00  0.00    -0.160 C  
ENDROOT
BRANCH   2   4
HETATM    4  O   UNL     1     -10.613  15.673  69.644  1.00  0.00    -0.239 OA 
BRANCH   4   5
HETATM    5  C   UNL     1     -10.960  15.437  68.354  1.00  0.00    -0.284 C  
HETATM    6  O   UNL     1     -11.434  16.305  67.619  1.00  0.00    -0.100 OA 
BRANCH   5   7
HETATM    7  C   UNL     1     -10.751  13.990  67.825  1.00  0.00    -0.243 C  
HETATM    8  C   UNL     1     -11.958  13.134  68.209  1.00  0.00    -0.328 C  
BRANCH   7   9
HETATM    9  N   UNL     1      -9.452  13.270  68.117  1.00  0.00    -0.218 NA 
HETATM   10  H   UNL     1      -9.402  12.976  69.092  1.00  0.00     0.000 HD 
BRANCH   9  11
HETATM   11  P   UNL     1      -9.189  11.912  67.026  1.00  0.00    -0.202 P  
HETATM   12  O   UNL     1     -10.685  11.514  66.992  1.00  0.00    -0.233 OA 
BRANCH  11  13
HETATM   13  C   UNL     1      -8.811  10.283  67.954  1.00  0.00    -0.122 C  
BRANCH  13  14
HETATM   14  O   UNL     1      -9.665   9.157  67.521  1.00  0.00    -0.148 OA 
BRANCH  14  15
HETATM   15  C   UNL     1      -9.571   7.857  68.164  1.00  0.00    -0.152 C  
HETATM   16  C   UNL     1     -10.716   6.955  67.686  1.00  0.00    -0.344 C  
BRANCH  15  17
HETATM   17  C   UNL     1      -9.394   7.901  69.675  1.00  0.00    -0.153 C  
BRANCH  17  18
HETATM   18  N   UNL     1     -10.609   7.838  70.439  1.00  0.00    -0.223 NA 
HETATM   19  C   UNL     1     -11.203   6.731  70.983  1.00  0.00    -0.290 A  
HETATM   20  N   UNL     1     -12.262   7.047  71.694  1.00  0.00    -0.339 NA 
HETATM   21  C   UNL     1     -12.357   8.416  71.579  1.00  0.00    -0.309 A  
HETATM   22  C   UNL     1     -13.261   9.336  72.117  1.00  0.00    -0.461 A  
HETATM   23  N   UNL     1     -13.148  10.639  71.767  1.00  0.00    -0.468 NA 
HETATM   24  N   UNL     1     -14.268   8.945  72.986  1.00  0.00    -1.158 NA 
HETATM   25  C   UNL     1     -12.136  10.989  70.951  1.00  0.00    -0.339 A  
HETATM   26  H1  UNL     1     -14.928   9.617  73.379  1.00  0.00     0.000 HD 
HETATM   27  H2  UNL     1     -13.834   8.443  73.761  1.00  0.00     0.000 HD 
HETATM   28  N   UNL     1     -11.182  10.204  70.401  1.00  0.00    -0.308 NA 
HETATM   29  C   UNL     1     -11.364   8.926  70.767  1.00  0.00    -0.278 A  
ENDBRANCH  17  18
ENDBRANCH  15  17
ENDBRANCH  14  15
ENDBRANCH  13  14
ENDBRANCH  11  13
BRANCH  11  30
HETATM   30  O   UNL     1      -7.517  12.358  67.063  1.00  0.00    -0.128 OA 
BRANCH  30  31
HETATM   31  C   UNL     1      -7.191  13.462  67.831  1.00  0.00    -0.133 A  
HETATM   32  C   UNL     1      -6.808  13.221  69.151  1.00  0.00    -0.067 A  
HETATM   33  C   UNL     1      -6.937  15.843  68.219  1.00  0.00    -0.120 A  
HETATM   34  C   UNL     1      -7.247  14.778  67.362  1.00  0.00    -0.202 A  
HETATM   35  C   UNL     1      -6.575  15.599  69.542  1.00  0.00    -0.179 A  
HETATM   36  C   UNL     1      -6.511  14.288  70.006  1.00  0.00    -0.126 A  
ENDBRANCH  30  31
ENDBRANCH  11  30
ENDBRANCH   9  11
ENDBRANCH   7   9
ENDBRANCH   5   7
ENDBRANCH   4   5
ENDBRANCH   2   4
TORSDOF 12
ENDMDL
MODEL      385
REMARK 921   NORMALIZED FREE ENERGY PREDICTED BY IDOCK:   -3.14 KCAL/MOL
REMARK 922        TOTAL FREE ENERGY PREDICTED BY IDOCK:   -7.06 KCAL/MOL
REMARK 923 INTER-LIGAND FREE ENERGY PREDICTED BY IDOCK:   -7.26 KCAL/MOL
REMARK 924 INTRA-LIGAND FREE ENERGY PREDICTED BY IDOCK:    0.20 KCAL/MOL
REMARK 927      BINDING AFFINITY PREDICTED BY RF-SCORE:    0.00 PKD
ROOT
HETATM    1  C   UNL     1      -9.160   7.683  72.586  1.00  0.00    -0.209 C  
HETATM    2  C   UNL     1      -8.012   8.682  72.423  1.00  0.00     0.015 C  
HETATM    3  C   UNL     1      -6.654   7.991  72.614  1.00  0.00    -0.082 C  
ENDROOT
BRANCH   2   4
HETATM    4  O   UNL     1      -8.155   9.509  71.222  1.00  0.00    -0.284 OA 
BRANCH   4   5
HETATM    5  C   UNL     1      -7.517   9.149  70.081  1.00  0.00    -0.082 C  
HETATM    6  O   UNL     1      -7.838   8.160  69.418  1.00  0.00    -0.101 OA 
BRANCH   5   7
HETATM    7  C   UNL     1      -6.323  10.039  69.633  1.00  0.00    -0.053 C  
HETATM    8  C   UNL     1      -6.334  11.338  70.438  1.00  0.00     0.006 C  
BRANCH   7   9
HETATM    9  N   UNL     1      -6.105  10.307  68.159  1.00  0.00    -0.048 NA 
HETATM   10  H   UNL     1      -5.921   9.443  67.649  1.00  0.00     0.000 HD 
BRANCH   9  11
HETATM   11  P   UNL     1      -7.447  11.197  67.445  1.00  0.00    -0.122 P  
HETATM   12  O   UNL     1      -7.218  12.453  68.321  1.00  0.00    -0.087 OA 
BRANCH  11  13
HETATM   13  C   UNL     1      -9.100  10.900  68.361  1.00  0.00    -0.164 C  
BRANCH  13  14
HETATM   14  O   UNL     1      -9.904  12.130  68.519  1.00  0.00    -0.209 OA 
BRANCH  14  15
HETATM   15  C   UNL     1     -11.165  12.111  69.243  1.00  0.00    -0.226 C  
HETATM   16  C   UNL     1     -11.747  10.692  69.239  1.00  0.00    -0.336 C  
BRANCH  15  17
HETATM   17  C   UNL     1     -12.152  13.197  68.838  1.00  0.00    -0.194 C  
BRANCH  17  18
HETATM   18  N   UNL     1     -11.562  14.425  68.380  1.00  0.00    -0.301 NA 
HETATM   19  C   UNL     1     -10.973  15.405  69.133  1.00  0.00    -0.252 A  
HETATM   20  N   UNL     1     -10.460  16.354  68.381  1.00  0.00    -0.281 NA 
HETATM   21  C   UNL     1     -10.756  15.967  67.092  1.00  0.00    -0.283 A  
HETATM   22  C   UNL     1     -10.466  16.549  65.855  1.00  0.00    -0.323 A  
HETATM   23  N   UNL     1     -10.954  15.970  64.734  1.00  0.00    -0.609 NA 
HETATM   24  N   UNL     1      -9.703  17.703  65.753  1.00  0.00    -0.538 NA 
HETATM   25  C   UNL     1     -11.659  14.831  64.866  1.00  0.00    -0.401 A  
HETATM   26  H1  UNL     1      -9.491  18.128  64.850  1.00  0.00     0.000 HD 
HETATM   27  H2  UNL     1      -8.820  17.537  66.236  1.00  0.00     0.000 HD 
HETATM   28  N   UNL     1     -11.971  14.155  65.995  1.00  0.00    -0.396 NA 
HETATM   29  C   UNL     1     -11.478  14.792  67.069  1.00  0.00    -0.353 A  
ENDBRANCH  17  18
ENDBRANCH  15  17
ENDBRANCH  14  15
ENDBRANCH  13  14
ENDBRANCH  11  13
BRANCH  11  30
HETATM   30  O   UNL     1      -7.702   9.793  66.465  1.00  0.00    -0.103 OA 
BRANCH  30  31
HETATM   31  C   UNL     1      -7.903  10.014  65.114  1.00  0.00    -0.136 A  
HETATM   32  C   UNL     1      -9.190  10.379  64.719  1.00  0.00    -0.273 A  
HETATM   33  C   UNL     1      -7.201  10.075  62.792  1.00  0.00    -0.126 A  
HETATM   34  C   UNL     1      -6.903   9.869  64.146  1.00  0.00    -0.126 A  
HETATM   35  C   UNL     1      -8.494  10.419  62.401  1.00  0.00    -0.231 A  
HETATM   36  C   UNL     1      -9.487  10.570  63.365  1.00  0.00    -0.354 A  
ENDBRANCH  30  31
ENDBRANCH  11  30
ENDBRANCH   9  11
ENDBRANCH   7   9
ENDBRANCH   5   7
ENDBRANCH   4   5
ENDBRANCH   2   4
TORSDOF 12
ENDMDL
MODEL      386
REMARK 921   NORMALIZED FREE ENERGY PREDICTED BY IDOCK:   -3.13 KCAL/MOL
REMARK 922        TOTAL FREE ENERGY PREDICTED BY IDOCK:   -7.04 KCAL/MOL
REMARK 923 INTER-LIGAND FREE ENERGY PREDICTED BY IDOCK:   -7.36 KCAL/MOL
REMARK 924 INTRA-LIGAND FREE ENERGY PREDICTED BY IDOCK:    0.32 KCAL/MOL
REMARK 927      BINDING AFFINITY PREDICTED BY RF-SCORE:    0.00 PKD
ROOT
HETATM    1  C   UNL     1      -7.198  12.829  69.147  1.00  0.00     0.087 C  
HETATM    2  C   UNL     1      -6.328  12.270  68.019  1.00  0.00    -0.073 C  
HETATM    3  C   UNL     1      -5.141  13.200  67.731  1.00  0.00    -0.082 C  
ENDROOT
BRANCH   2   4
HETATM    4  O   UNL     1      -6.011  10.851  68.205  1.00  0.00    -0.049 OA 
BRANCH   4   5
HETATM    5  C   UNL     1      -6.175   9.988  67.173  1.00  0.00    -0.066 C  
HETATM    6  O   UNL     1      -5.399   9.932  66.216  1.00  0.00    -0.042 OA 
BRANCH   5   7
HETATM    7  C   UNL     1      -7.419   9.056  67.229  1.00  0.00    -0.084 C  
HETATM    8  C   UNL     1      -7.759   8.585  65.815  1.00  0.00    -0.098 C  
BRANCH   7   9
HETATM    9  N   UNL     1      -8.658   9.512  67.969  1.00  0.00    -0.120 NA 
HETATM   10  H   UNL     1      -8.431  10.207  68.680  1.00  0.00     0.000 HD 
BRANCH   9  11
HETATM   11  P   UNL     1      -9.903  10.103  66.872  1.00  0.00    -0.213 P  
HETATM   12  O   UNL     1      -8.901  10.885  65.989  1.00  0.00    -0.176 OA 
BRANCH  11  13
HETATM   13  C   UNL     1     -10.653  11.769  67.437  1.00  0.00    -0.224 C  
BRANCH  13  14
HETATM   14  O   UNL     1     -10.393  12.874  66.491  1.00  0.00    -0.257 OA 
BRANCH  14  15
HETATM   15  C   UNL     1     -11.329  13.977  66.353  1.00  0.00    -0.333 C  
HETATM   16  C   UNL     1     -11.454  14.373  64.876  1.00  0.00    -0.386 C  
BRANCH  15  17
HETATM   17  C   UNL     1     -11.086  15.145  67.299  1.00  0.00    -0.332 C  
BRANCH  17  18
HETATM   18  N   UNL     1     -10.101  16.095  66.862  1.00  0.00    -0.265 NA 
HETATM   19  C   UNL     1      -8.999  15.864  66.084  1.00  0.00    -0.341 A  
HETATM   20  N   UNL     1      -8.358  16.979  65.805  1.00  0.00    -0.435 NA 
HETATM   21  C   UNL     1      -9.076  17.959  66.454  1.00  0.00    -0.235 A  
HETATM   22  C   UNL     1      -8.906  19.344  66.527  1.00  0.00    -0.352 A  
HETATM   23  N   UNL     1      -9.742  20.060  67.315  1.00  0.00    -0.384 NA 
HETATM   24  N   UNL     1      -7.903  19.993  65.824  1.00  0.00    -0.464 NA 
HETATM   25  C   UNL     1     -10.728  19.403  67.953  1.00  0.00    -0.310 A  
HETATM   26  H1  UNL     1      -7.780  21.005  65.877  1.00  0.00     0.000 HD 
HETATM   27  H2  UNL     1      -7.998  19.741  64.840  1.00  0.00     0.000 HD 
HETATM   28  N   UNL     1     -11.016  18.082  67.932  1.00  0.00    -0.198 NA 
HETATM   29  C   UNL     1     -10.140  17.428  67.154  1.00  0.00    -0.307 A  
ENDBRANCH  17  18
ENDBRANCH  15  17
ENDBRANCH  14  15
ENDBRANCH  13  14
ENDBRANCH  11  13
BRANCH  11  30
HETATM   30  O   UNL     1     -11.023   9.228  67.860  1.00  0.00    -0.168 OA 
BRANCH  30  31
HETATM   31  C   UNL     1     -10.738   7.892  68.079  1.00  0.00    -0.054 A  
HETATM   32  C   UNL     1     -10.638   7.077  66.950  1.00  0.00    -0.372 A  
HETATM   33  C   UNL     1     -10.322   5.958  69.483  1.00  0.00    -0.314 A  
HETATM   34  C   UNL     1     -10.571   7.331  69.348  1.00  0.00    -0.238 A  
HETATM   35  C   UNL     1     -10.244   5.144  68.354  1.00  0.00    -0.175 A  
HETATM   36  C   UNL     1     -10.403   5.704  67.090  1.00  0.00    -0.301 A  
ENDBRANCH  30  31
ENDBRANCH  11  30
ENDBRANCH   9  11
ENDBRANCH   7   9
ENDBRANCH   5   7
ENDBRANCH   4   5
ENDBRANCH   2   4
TORSDOF 12
ENDMDL
MODEL      387
REMARK 921   NORMALIZED FREE ENERGY PREDICTED BY IDOCK:   -3.13 KCAL/MOL
REMARK 922        TOTAL FREE ENERGY PREDICTED BY IDOCK:   -7.04 KCAL/MOL
REMARK 923 INTER-LIGAND FREE ENERGY PREDICTED BY IDOCK:   -6.34 KCAL/MOL
REMARK 924 INTRA-LIGAND FREE ENERGY PREDICTED BY IDOCK:   -0.70 KCAL/MOL
REMARK 927      BINDING AFFINITY PREDICTED BY RF-SCORE:    0.00 PKD
ROOT
HETATM    1  C   UNL     1      -6.896   8.186  70.459  1.00  0.00    -0.037 C  
HETATM    2  C   UNL     1      -7.981   7.109  70.519  1.00  0.00    -0.105 C  
HETATM    3  C   UNL     1      -9.176   7.583  71.359  1.00  0.00    -0.150 C  
ENDROOT
BRANCH   2   4
HETATM    4  O   UNL     1      -8.296   6.555  69.200  1.00  0.00    -0.117 OA 
BRANCH   4   5
HETATM    5  C   UNL     1      -8.149   7.329  68.096  1.00  0.00    -0.124 C  
HETATM    6  O   UNL     1      -7.130   7.319  67.402  1.00  0.00    -0.082 OA 
BRANCH   5   7
HETATM    7  C   UNL     1      -9.335   8.268  67.735  1.00  0.00    -0.138 C  
HETATM    8  C   UNL     1      -9.556   8.240  66.224  1.00  0.00    -0.266 C  
BRANCH   7   9
HETATM    9  N   UNL     1      -9.350   9.686  68.268  1.00  0.00    -0.133 NA 
HETATM   10  H   UNL     1      -8.730   9.787  69.071  1.00  0.00     0.000 HD 
BRANCH   9  11
HETATM   11  P   UNL     1      -8.972  10.866  67.016  1.00  0.00    -0.146 P  
HETATM   12  O   UNL     1      -7.443  10.759  67.230  1.00  0.00    -0.095 OA 
BRANCH  11  13
HETATM   13  C   UNL     1      -8.907  12.656  67.685  1.00  0.00    -0.184 C  
BRANCH  13  14
HETATM   14  O   UNL     1      -9.112  13.676  66.636  1.00  0.00    -0.238 OA 
BRANCH  14  15
HETATM   15  C   UNL     1      -9.318  15.073  66.980  1.00  0.00    -0.224 C  
HETATM   16  C   UNL     1     -10.652  15.561  66.402  1.00  0.00    -0.312 C  
BRANCH  15  17
HETATM   17  C   UNL     1      -8.135  15.986  66.689  1.00  0.00    -0.276 C  
BRANCH  17  18
HETATM   18  N   UNL     1      -7.425  16.460  67.844  1.00  0.00    -0.137 NA 
HETATM   19  C   UNL     1      -7.360  17.742  68.321  1.00  0.00    -0.240 A  
HETATM   20  N   UNL     1      -6.690  17.806  69.451  1.00  0.00    -0.219 NA 
HETATM   21  C   UNL     1      -6.295  16.509  69.690  1.00  0.00    -0.216 A  
HETATM   22  C   UNL     1      -5.569  15.934  70.737  1.00  0.00    -0.009 A  
HETATM   23  N   UNL     1      -5.262  14.618  70.669  1.00  0.00    -0.116 NA 
HETATM   24  N   UNL     1      -5.151  16.679  71.829  1.00  0.00    -0.250 NA 
HETATM   25  C   UNL     1      -5.716  13.917  69.613  1.00  0.00    -0.098 A  
HETATM   26  H1  UNL     1      -4.620  16.259  72.593  1.00  0.00     0.000 HD 
HETATM   27  H2  UNL     1      -5.971  17.133  72.230  1.00  0.00     0.000 HD 
HETATM   28  N   UNL     1      -6.454  14.347  68.566  1.00  0.00    -0.088 NA 
HETATM   29  C   UNL     1      -6.703  15.661  68.681  1.00  0.00    -0.115 A  
ENDBRANCH  17  18
ENDBRANCH  15  17
ENDBRANCH  14  15
ENDBRANCH  13  14
ENDBRANCH  11  13
BRANCH  11  30
HETATM   30  O   UNL     1     -10.682  10.984  66.776  1.00  0.00    -0.256 OA 
BRANCH  30  31
HETATM   31  C   UNL     1     -11.101  11.698  65.668  1.00  0.00    -0.249 A  
HETATM   32  C   UNL     1     -12.299  12.404  65.789  1.00  0.00    -0.106 A  
HETATM   33  C   UNL     1     -10.921  12.447  63.367  1.00  0.00    -0.442 A  
HETATM   34  C   UNL     1     -10.406  11.727  64.454  1.00  0.00    -0.353 A  
HETATM   35  C   UNL     1     -12.129  13.132  63.486  1.00  0.00    -0.585 A  
HETATM   36  C   UNL     1     -12.816  13.110  64.696  1.00  0.00    -0.235 A  
ENDBRANCH  30  31
ENDBRANCH  11  30
ENDBRANCH   9  11
ENDBRANCH   7   9
ENDBRANCH   5   7
ENDBRANCH   4   5
ENDBRANCH   2   4
TORSDOF 12
ENDMDL
MODEL      388
REMARK 921   NORMALIZED FREE ENERGY PREDICTED BY IDOCK:   -3.13 KCAL/MOL
REMARK 922        TOTAL FREE ENERGY PREDICTED BY IDOCK:   -7.04 KCAL/MOL
REMARK 923 INTER-LIGAND FREE ENERGY PREDICTED BY IDOCK:   -6.39 KCAL/MOL
REMARK 924 INTRA-LIGAND FREE ENERGY PREDICTED BY IDOCK:   -0.65 KCAL/MOL
REMARK 927      BINDING AFFINITY PREDICTED BY RF-SCORE:    0.00 PKD
ROOT
HETATM    1  C   UNL     1      -9.154   2.246  73.304  1.00  0.00    -0.080 C  
HETATM    2  C   UNL     1      -8.149   3.338  72.932  1.00  0.00    -0.079 C  
HETATM    3  C   UNL     1      -6.832   3.153  73.699  1.00  0.00    -0.035 C  
ENDROOT
BRANCH   2   4
HETATM    4  O   UNL     1      -8.035   3.526  71.483  1.00  0.00    -0.059 OA 
BRANCH   4   5
HETATM    5  C   UNL     1      -7.828   4.769  70.984  1.00  0.00    -0.082 C  
HETATM    6  O   UNL     1      -6.818   5.431  71.229  1.00  0.00    -0.049 OA 
BRANCH   5   7
HETATM    7  C   UNL     1      -8.949   5.357  70.079  1.00  0.00    -0.129 C  
HETATM    8  C   UNL     1     -10.312   4.950  70.638  1.00  0.00    -0.233 C  
BRANCH   7   9
HETATM    9  N   UNL     1      -8.884   5.148  68.581  1.00  0.00    -0.096 NA 
HETATM   10  H   UNL     1      -9.704   4.644  68.242  1.00  0.00     0.000 HD 
BRANCH   9  11
HETATM   11  P   UNL     1      -8.659   6.663  67.711  1.00  0.00    -0.119 P  
HETATM   12  O   UNL     1      -7.558   7.173  68.672  1.00  0.00    -0.105 OA 
BRANCH  11  13
HETATM   13  C   UNL     1      -9.808   8.055  68.345  1.00  0.00    -0.171 C  
BRANCH  13  14
HETATM   14  O   UNL     1      -9.979   8.044  69.813  1.00  0.00    -0.185 OA 
BRANCH  14  15
HETATM   15  C   UNL     1     -10.427   9.230  70.523  1.00  0.00    -0.255 C  
HETATM   16  C   UNL     1     -10.486   8.945  72.029  1.00  0.00    -0.383 C  
BRANCH  15  17
HETATM   17  C   UNL     1     -11.681   9.881  69.956  1.00  0.00    -0.124 C  
BRANCH  17  18
HETATM   18  N   UNL     1     -11.685  11.317  69.961  1.00  0.00    -0.323 NA 
HETATM   19  C   UNL     1     -10.967  12.162  69.157  1.00  0.00    -0.161 A  
HETATM   20  N   UNL     1     -11.277  13.421  69.375  1.00  0.00    -0.216 NA 
HETATM   21  C   UNL     1     -12.220  13.374  70.378  1.00  0.00    -0.345 A  
HETATM   22  C   UNL     1     -12.939  14.380  71.029  1.00  0.00    -0.349 A  
HETATM   23  N   UNL     1     -13.763  14.035  72.046  1.00  0.00    -0.437 NA 
HETATM   24  N   UNL     1     -12.820  15.712  70.666  1.00  0.00    -0.534 NA 
HETATM   25  C   UNL     1     -13.883  12.729  72.347  1.00  0.00    -0.263 A  
HETATM   26  H1  UNL     1     -13.344  16.447  71.141  1.00  0.00     0.000 HD 
HETATM   27  H2  UNL     1     -13.017  15.783  69.668  1.00  0.00     0.000 HD 
HETATM   28  N   UNL     1     -13.276  11.668  71.770  1.00  0.00    -0.421 NA 
HETATM   29  C   UNL     1     -12.458  12.078  70.789  1.00  0.00    -0.279 A  
ENDBRANCH  17  18
ENDBRANCH  15  17
ENDBRANCH  14  15
ENDBRANCH  13  14
ENDBRANCH  11  13
BRANCH  11  30
HETATM   30  O   UNL     1      -9.891   6.093  66.637  1.00  0.00    -0.157 OA 
BRANCH  30  31
HETATM   31  C   UNL     1      -9.492   5.190  65.667  1.00  0.00    -0.115 A  
HETATM   32  C   UNL     1      -8.315   5.486  64.977  1.00  0.00    -0.146 A  
HETATM   33  C   UNL     1      -9.752   3.192  64.316  1.00  0.00    -0.156 A  
HETATM   34  C   UNL     1     -10.208   4.034  65.340  1.00  0.00    -0.124 A  
HETATM   35  C   UNL     1      -8.588   3.502  63.616  1.00  0.00    -0.090 A  
HETATM   36  C   UNL     1      -7.872   4.649  63.947  1.00  0.00    -0.087 A  
ENDBRANCH  30  31
ENDBRANCH  11  30
ENDBRANCH   9  11
ENDBRANCH   7   9
ENDBRANCH   5   7
ENDBRANCH   4   5
ENDBRANCH   2   4
TORSDOF 12
ENDMDL
MODEL      389
REMARK 921   NORMALIZED FREE ENERGY PREDICTED BY IDOCK:   -3.10 KCAL/MOL
REMARK 922        TOTAL FREE ENERGY PREDICTED BY IDOCK:   -6.99 KCAL/MOL
REMARK 923 INTER-LIGAND FREE ENERGY PREDICTED BY IDOCK:   -7.27 KCAL/MOL
REMARK 924 INTRA-LIGAND FREE ENERGY PREDICTED BY IDOCK:    0.28 KCAL/MOL
REMARK 927      BINDING AFFINITY PREDICTED BY RF-SCORE:    0.00 PKD
ROOT
HETATM    1  C   UNL     1      -6.670   8.955  72.021  1.00  0.00    -0.006 C  
HETATM    2  C   UNL     1      -6.137   9.352  70.642  1.00  0.00    -0.065 C  
HETATM    3  C   UNL     1      -5.130  10.505  70.757  1.00  0.00    -0.077 C  
ENDROOT
BRANCH   2   4
HETATM    4  O   UNL     1      -5.711   8.195  69.850  1.00  0.00    -0.023 OA 
BRANCH   4   5
HETATM    5  C   UNL     1      -6.150   8.059  68.575  1.00  0.00    -0.040 C  
HETATM    6  O   UNL     1      -5.390   8.017  67.606  1.00  0.00    -0.031 OA 
BRANCH   5   7
HETATM    7  C   UNL     1      -7.689   7.972  68.368  1.00  0.00    -0.117 C  
HETATM    8  C   UNL     1      -8.066   6.540  67.991  1.00  0.00    -0.113 C  
BRANCH   7   9
HETATM    9  N   UNL     1      -8.378   8.977  67.468  1.00  0.00    -0.116 NA 
HETATM   10  H   UNL     1      -9.208   8.576  67.032  1.00  0.00     0.000 HD 
BRANCH   9  11
HETATM   11  P   UNL     1      -8.762  10.470  68.320  1.00  0.00    -0.146 P  
HETATM   12  O   UNL     1      -9.366   9.740  69.544  1.00  0.00    -0.185 OA 
BRANCH  11  13
HETATM   13  C   UNL     1     -10.506  11.132  67.897  1.00  0.00    -0.190 C  
BRANCH  13  14
HETATM   14  O   UNL     1     -10.688  12.555  68.252  1.00  0.00    -0.213 OA 
BRANCH  14  15
HETATM   15  C   UNL     1     -11.346  12.939  69.490  1.00  0.00    -0.153 C  
HETATM   16  C   UNL     1     -12.213  11.782  70.000  1.00  0.00    -0.317 C  
BRANCH  15  17
HETATM   17  C   UNL     1     -12.055  14.286  69.447  1.00  0.00    -0.318 C  
BRANCH  17  18
HETATM   18  N   UNL     1     -11.307  15.356  68.847  1.00  0.00    -0.293 NA 
HETATM   19  C   UNL     1     -10.626  16.362  69.480  1.00  0.00    -0.320 A  
HETATM   20  N   UNL     1      -9.980  17.123  68.625  1.00  0.00    -0.295 NA 
HETATM   21  C   UNL     1     -10.282  16.589  67.392  1.00  0.00    -0.287 A  
HETATM   22  C   UNL     1      -9.887  16.946  66.100  1.00  0.00    -0.297 A  
HETATM   23  N   UNL     1     -10.409  16.269  65.051  1.00  0.00    -0.581 NA 
HETATM   24  N   UNL     1      -8.987  17.975  65.871  1.00  0.00    -0.486 NA 
HETATM   25  C   UNL     1     -11.250  15.251  65.311  1.00  0.00    -0.336 A  
HETATM   26  H1  UNL     1      -8.698  18.235  64.928  1.00  0.00     0.000 HD 
HETATM   27  H2  UNL     1      -8.145  17.781  66.413  1.00  0.00     0.000 HD 
HETATM   28  N   UNL     1     -11.675  14.789  66.508  1.00  0.00    -0.319 NA 
HETATM   29  C   UNL     1     -11.141  15.515  67.502  1.00  0.00    -0.305 A  
ENDBRANCH  17  18
ENDBRANCH  15  17
ENDBRANCH  14  15
ENDBRANCH  13  14
ENDBRANCH  11  13
BRANCH  11  30
HETATM   30  O   UNL     1      -8.086  11.286  66.951  1.00  0.00    -0.142 OA 
BRANCH  30  31
HETATM   31  C   UNL     1      -8.690  11.043  65.730  1.00  0.00    -0.174 A  
HETATM   32  C   UNL     1      -8.202   9.966  64.989  1.00  0.00    -0.143 A  
HETATM   33  C   UNL     1     -10.257  11.530  63.942  1.00  0.00    -0.411 A  
HETATM   34  C   UNL     1      -9.727  11.822  65.207  1.00  0.00    -0.236 A  
HETATM   35  C   UNL     1      -9.752  10.466  63.197  1.00  0.00    -0.301 A  
HETATM   36  C   UNL     1      -8.725   9.686  63.721  1.00  0.00    -0.241 A  
ENDBRANCH  30  31
ENDBRANCH  11  30
ENDBRANCH   9  11
ENDBRANCH   7   9
ENDBRANCH   5   7
ENDBRANCH   4   5
ENDBRANCH   2   4
TORSDOF 12
ENDMDL
MODEL      390
REMARK 921   NORMALIZED FREE ENERGY PREDICTED BY IDOCK:   -3.07 KCAL/MOL
REMARK 922        TOTAL FREE ENERGY PREDICTED BY IDOCK:   -6.94 KCAL/MOL
REMARK 923 INTER-LIGAND FREE ENERGY PREDICTED BY IDOCK:   -7.02 KCAL/MOL
REMARK 924 INTRA-LIGAND FREE ENERGY PREDICTED BY IDOCK:    0.08 KCAL/MOL
REMARK 927      BINDING AFFINITY PREDICTED BY RF-SCORE:    0.00 PKD
ROOT
HETATM    1  C   UNL     1      -8.997  16.790  68.322  1.00  0.00    -0.228 C  
HETATM    2  C   UNL     1      -9.905  15.668  67.812  1.00  0.00    -0.220 C  
HETATM    3  C   UNL     1     -11.382  16.076  67.906  1.00  0.00    -0.218 C  
ENDROOT
BRANCH   2   4
HETATM    4  O   UNL     1      -9.462  15.128  66.525  1.00  0.00    -0.246 OA 
BRANCH   4   5
HETATM    5  C   UNL     1     -10.328  15.084  65.483  1.00  0.00    -0.373 C  
HETATM    6  O   UNL     1     -10.579  16.064  64.779  1.00  0.00    -0.600 OA 
BRANCH   5   7
HETATM    7  C   UNL     1     -11.028  13.722  65.209  1.00  0.00    -0.322 C  
HETATM    8  C   UNL     1     -12.499  13.969  64.878  1.00  0.00    -0.419 C  
BRANCH   7   9
HETATM    9  N   UNL     1     -10.871  12.591  66.204  1.00  0.00    -0.266 NA 
HETATM   10  H   UNL     1     -11.680  11.970  66.189  1.00  0.00     0.000 HD 
BRANCH   9  11
HETATM   11  P   UNL     1      -9.374  11.697  65.956  1.00  0.00    -0.177 P  
HETATM   12  O   UNL     1      -9.663  11.420  64.460  1.00  0.00    -0.237 OA 
BRANCH  11  13
HETATM   13  C   UNL     1      -9.566   9.826  66.304  1.00  0.00    -0.213 C  
BRANCH  13  14
HETATM   14  O   UNL     1      -8.310   9.186  66.747  1.00  0.00    -0.120 OA 
BRANCH  14  15
HETATM   15  C   UNL     1      -7.509   8.392  65.830  1.00  0.00    -0.077 C  
HETATM   16  C   UNL     1      -6.547   9.302  65.057  1.00  0.00    -0.077 C  
BRANCH  15  17
HETATM   17  C   UNL     1      -8.302   7.429  64.957  1.00  0.00    -0.050 C  
BRANCH  17  18
HETATM   18  N   UNL     1      -8.312   6.062  65.402  1.00  0.00    -0.147 NA 
HETATM   19  C   UNL     1      -7.641   4.999  64.861  1.00  0.00    -0.078 A  
HETATM   20  N   UNL     1      -7.809   3.905  65.572  1.00  0.00    -0.092 NA 
HETATM   21  C   UNL     1      -8.642   4.289  66.599  1.00  0.00    -0.112 A  
HETATM   22  C   UNL     1      -9.169   3.582  67.683  1.00  0.00    -0.188 A  
HETATM   23  N   UNL     1     -10.035   4.213  68.511  1.00  0.00     0.001 NA 
HETATM   24  N   UNL     1      -8.835   2.258  67.923  1.00  0.00    -0.116 NA 
HETATM   25  C   UNL     1     -10.308   5.509  68.271  1.00  0.00    -0.173 A  
HETATM   26  H1  UNL     1      -9.220   1.743  68.715  1.00  0.00     0.000 HD 
HETATM   27  H2  UNL     1      -7.818   2.197  67.974  1.00  0.00     0.000 HD 
HETATM   28  N   UNL     1      -9.835   6.305  67.285  1.00  0.00    -0.129 NA 
HETATM   29  C   UNL     1      -9.004   5.616  66.490  1.00  0.00    -0.126 A  
ENDBRANCH  17  18
ENDBRANCH  15  17
ENDBRANCH  14  15
ENDBRANCH  13  14
ENDBRANCH  11  13
BRANCH  11  30
HETATM   30  O   UNL     1      -9.050  12.006  67.628  1.00  0.00    -0.168 OA 
BRANCH  30  31
HETATM   31  C   UNL     1      -9.953  11.484  68.537  1.00  0.00    -0.204 A  
HETATM   32  C   UNL     1      -9.490  10.462  69.368  1.00  0.00    -0.204 A  
HETATM   33  C   UNL     1     -12.142  11.297  69.566  1.00  0.00    -0.386 A  
HETATM   34  C   UNL     1     -11.281  11.907  68.643  1.00  0.00    -0.311 A  
HETATM   35  C   UNL     1     -11.681  10.263  70.380  1.00  0.00    -0.404 A  
HETATM   36  C   UNL     1     -10.356   9.847  70.279  1.00  0.00    -0.339 A  
ENDBRANCH  30  31
ENDBRANCH  11  30
ENDBRANCH   9  11
ENDBRANCH   7   9
ENDBRANCH   5   7
ENDBRANCH   4   5
ENDBRANCH   2   4
TORSDOF 12
ENDMDL
MODEL      391
REMARK 921   NORMALIZED FREE ENERGY PREDICTED BY IDOCK:   -3.05 KCAL/MOL
REMARK 922        TOTAL FREE ENERGY PREDICTED BY IDOCK:   -6.91 KCAL/MOL
REMARK 923 INTER-LIGAND FREE ENERGY PREDICTED BY IDOCK:   -6.59 KCAL/MOL
REMARK 924 INTRA-LIGAND FREE ENERGY PREDICTED BY IDOCK:   -0.32 KCAL/MOL
REMARK 927      BINDING AFFINITY PREDICTED BY RF-SCORE:    0.00 PKD
ROOT
HETATM    1  C   UNL     1      -8.948   4.656  64.701  1.00  0.00    -0.151 C  
HETATM    2  C   UNL     1      -7.683   4.194  65.429  1.00  0.00    -0.086 C  
HETATM    3  C   UNL     1      -6.460   4.275  64.505  1.00  0.00    -0.042 C  
ENDROOT
BRANCH   2   4
HETATM    4  O   UNL     1      -7.540   4.809  66.751  1.00  0.00    -0.085 OA 
BRANCH   4   5
HETATM    5  C   UNL     1      -8.629   4.947  67.547  1.00  0.00    -0.104 C  
HETATM    6  O   UNL     1      -9.366   4.005  67.842  1.00  0.00    -0.146 OA 
BRANCH   5   7
HETATM    7  C   UNL     1      -8.935   6.377  68.076  1.00  0.00    -0.115 C  
HETATM    8  C   UNL     1      -8.015   7.379  67.379  1.00  0.00    -0.112 C  
BRANCH   7   9
HETATM    9  N   UNL     1      -8.986   6.624  69.569  1.00  0.00    -0.138 NA 
HETATM   10  H   UNL     1      -8.376   7.396  69.838  1.00  0.00     0.000 HD 
BRANCH   9  11
HETATM   11  P   UNL     1     -10.632   6.879  70.141  1.00  0.00    -0.243 P  
HETATM   12  O   UNL     1     -11.244   6.836  68.719  1.00  0.00    -0.195 OA 
BRANCH  11  13
HETATM   13  C   UNL     1     -11.097   8.732  70.247  1.00  0.00    -0.222 C  
BRANCH  13  14
HETATM   14  O   UNL     1     -10.065   9.623  69.676  1.00  0.00    -0.196 OA 
BRANCH  14  15
HETATM   15  C   UNL     1     -10.275  10.290  68.402  1.00  0.00    -0.167 C  
HETATM   16  C   UNL     1      -9.072  11.185  68.078  1.00  0.00    -0.153 C  
BRANCH  15  17
HETATM   17  C   UNL     1     -11.626  10.975  68.253  1.00  0.00    -0.284 C  
BRANCH  17  18
HETATM   18  N   UNL     1     -11.575  12.370  67.911  1.00  0.00    -0.336 NA 
HETATM   19  C   UNL     1     -11.861  13.442  68.712  1.00  0.00    -0.351 A  
HETATM   20  N   UNL     1     -11.626  14.582  68.100  1.00  0.00    -0.314 NA 
HETATM   21  C   UNL     1     -11.191  14.216  66.846  1.00  0.00    -0.317 A  
HETATM   22  C   UNL     1     -10.776  14.971  65.747  1.00  0.00    -0.342 A  
HETATM   23  N   UNL     1     -10.464  14.329  64.597  1.00  0.00    -0.388 NA 
HETATM   24  N   UNL     1     -10.685  16.354  65.805  1.00  0.00    -0.282 NA 
HETATM   25  C   UNL     1     -10.527  12.984  64.587  1.00  0.00    -0.380 A  
HETATM   26  H1  UNL     1     -10.382  16.906  65.002  1.00  0.00     0.000 HD 
HETATM   27  H2  UNL     1     -10.086  16.595  66.595  1.00  0.00     0.000 HD 
HETATM   28  N   UNL     1     -10.874  12.146  65.590  1.00  0.00    -0.274 NA 
HETATM   29  C   UNL     1     -11.192  12.845  66.690  1.00  0.00    -0.304 A  
ENDBRANCH  17  18
ENDBRANCH  15  17
ENDBRANCH  14  15
ENDBRANCH  13  14
ENDBRANCH  11  13
BRANCH  11  30
HETATM   30  O   UNL     1      -9.948   6.928  71.730  1.00  0.00    -0.175 OA 
BRANCH  30  31
HETATM   31  C   UNL     1      -9.110   5.881  72.071  1.00  0.00    -0.144 A  
HETATM   32  C   UNL     1      -7.883   6.218  72.645  1.00  0.00    -0.105 A  
HETATM   33  C   UNL     1      -8.496   3.537  72.196  1.00  0.00    -0.090 A  
HETATM   34  C   UNL     1      -9.420   4.535  71.854  1.00  0.00    -0.201 A  
HETATM   35  C   UNL     1      -7.264   3.880  72.749  1.00  0.00    -0.062 A  
HETATM   36  C   UNL     1      -6.958   5.220  72.972  1.00  0.00    -0.083 A  
ENDBRANCH  30  31
ENDBRANCH  11  30
ENDBRANCH   9  11
ENDBRANCH   7   9
ENDBRANCH   5   7
ENDBRANCH   4   5
ENDBRANCH   2   4
TORSDOF 12
ENDMDL
MODEL      392
REMARK 921   NORMALIZED FREE ENERGY PREDICTED BY IDOCK:   -3.05 KCAL/MOL
REMARK 922        TOTAL FREE ENERGY PREDICTED BY IDOCK:   -6.91 KCAL/MOL
REMARK 923 INTER-LIGAND FREE ENERGY PREDICTED BY IDOCK:   -6.88 KCAL/MOL
REMARK 924 INTRA-LIGAND FREE ENERGY PREDICTED BY IDOCK:   -0.02 KCAL/MOL
REMARK 927      BINDING AFFINITY PREDICTED BY RF-SCORE:    0.00 PKD
ROOT
HETATM    1  C   UNL     1      -7.738   1.838  67.492  1.00  0.00    -0.059 C  
HETATM    2  C   UNL     1      -7.792   3.254  68.070  1.00  0.00    -0.063 C  
HETATM    3  C   UNL     1      -7.138   3.302  69.458  1.00  0.00    -0.041 C  
ENDROOT
BRANCH   2   4
HETATM    4  O   UNL     1      -7.353   4.269  67.110  1.00  0.00    -0.068 OA 
BRANCH   4   5
HETATM    5  C   UNL     1      -8.277   4.993  66.431  1.00  0.00    -0.108 C  
HETATM    6  O   UNL     1      -8.125   5.344  65.260  1.00  0.00    -0.110 OA 
BRANCH   5   7
HETATM    7  C   UNL     1      -9.564   5.393  67.209  1.00  0.00    -0.132 C  
HETATM    8  C   UNL     1     -10.777   4.748  66.538  1.00  0.00     0.001 C  
BRANCH   7   9
HETATM    9  N   UNL     1      -9.820   6.851  67.525  1.00  0.00    -0.132 NA 
HETATM   10  H   UNL     1     -10.797   7.010  67.773  1.00  0.00     0.000 HD 
BRANCH   9  11
HETATM   11  P   UNL     1      -8.737   7.456  68.775  1.00  0.00    -0.126 P  
HETATM   12  O   UNL     1      -9.603   6.911  69.937  1.00  0.00    -0.157 OA 
BRANCH  11  13
HETATM   13  C   UNL     1      -9.171   9.234  69.330  1.00  0.00    -0.159 C  
BRANCH  13  14
HETATM   14  O   UNL     1     -10.539   9.643  68.951  1.00  0.00    -0.209 OA 
BRANCH  14  15
HETATM   15  C   UNL     1     -11.261  10.643  69.720  1.00  0.00    -0.297 C  
HETATM   16  C   UNL     1     -11.824  10.011  71.000  1.00  0.00    -0.476 C  
BRANCH  15  17
HETATM   17  C   UNL     1     -12.271  11.456  68.923  1.00  0.00    -0.087 C  
BRANCH  17  18
HETATM   18  N   UNL     1     -11.759  12.658  68.326  1.00  0.00    -0.328 NA 
HETATM   19  C   UNL     1     -11.105  13.690  68.944  1.00  0.00    -0.256 A  
HETATM   20  N   UNL     1     -10.698  14.594  68.079  1.00  0.00    -0.243 NA 
HETATM   21  C   UNL     1     -11.133  14.124  66.860  1.00  0.00    -0.307 A  
HETATM   22  C   UNL     1     -10.997  14.630  65.565  1.00  0.00    -0.340 A  
HETATM   23  N   UNL     1     -11.601  13.976  64.545  1.00  0.00    -0.387 NA 
HETATM   24  N   UNL     1     -10.270  15.782  65.304  1.00  0.00    -0.442 NA 
HETATM   25  C   UNL     1     -12.266  12.840  64.828  1.00  0.00    -0.459 A  
HETATM   26  H1  UNL     1     -10.171  16.151  64.358  1.00  0.00     0.000 HD 
HETATM   27  H2  UNL     1      -9.335  15.655  65.691  1.00  0.00     0.000 HD 
HETATM   28  N   UNL     1     -12.435  12.234  66.025  1.00  0.00    -0.328 NA 
HETATM   29  C   UNL     1     -11.833  12.943  66.993  1.00  0.00    -0.374 A  
ENDBRANCH  17  18
ENDBRANCH  15  17
ENDBRANCH  14  15
ENDBRANCH  13  14
ENDBRANCH  11  13
BRANCH  11  30
HETATM   30  O   UNL     1      -7.768   8.064  67.476  1.00  0.00    -0.102 OA 
BRANCH  30  31
HETATM   31  C   UNL     1      -8.295   9.124  66.759  1.00  0.00    -0.123 A  
HETATM   32  C   UNL     1      -9.344   8.834  65.886  1.00  0.00    -0.284 A  
HETATM   33  C   UNL     1      -8.388  11.445  66.060  1.00  0.00    -0.019 A  
HETATM   34  C   UNL     1      -7.822  10.436  66.852  1.00  0.00    -0.114 A  
HETATM   35  C   UNL     1      -9.422  11.147  65.174  1.00  0.00    -0.257 A  
HETATM   36  C   UNL     1      -9.898   9.841  65.088  1.00  0.00    -0.294 A  
ENDBRANCH  30  31
ENDBRANCH  11  30
ENDBRANCH   9  11
ENDBRANCH   7   9
ENDBRANCH   5   7
ENDBRANCH   4   5
ENDBRANCH   2   4
TORSDOF 12
ENDMDL
MODEL      393
REMARK 921   NORMALIZED FREE ENERGY PREDICTED BY IDOCK:   -2.94 KCAL/MOL
REMARK 922        TOTAL FREE ENERGY PREDICTED BY IDOCK:   -6.72 KCAL/MOL
REMARK 923 INTER-LIGAND FREE ENERGY PREDICTED BY IDOCK:   -6.05 KCAL/MOL
REMARK 924 INTRA-LIGAND FREE ENERGY PREDICTED BY IDOCK:   -0.67 KCAL/MOL
REMARK 927      BINDING AFFINITY PREDICTED BY RF-SCORE:    0.00 PKD
ROOT
HETATM    1  C   UNL     1      -7.946  12.088  67.479  1.00  0.00    -0.159 C  
HETATM    2  C   UNL     1      -6.537  12.683  67.418  1.00  0.00    -0.144 C  
HETATM    3  C   UNL     1      -6.548  14.159  67.839  1.00  0.00    -0.174 C  
ENDROOT
BRANCH   2   4
HETATM    4  O   UNL     1      -5.539  11.830  68.069  1.00  0.00    -0.043 OA 
BRANCH   4   5
HETATM    5  C   UNL     1      -5.534  10.497  67.823  1.00  0.00    -0.043 C  
HETATM    6  O   UNL     1      -5.431  10.026  66.689  1.00  0.00    -0.044 OA 
BRANCH   5   7
HETATM    7  C   UNL     1      -5.685   9.556  69.052  1.00  0.00    -0.036 C  
HETATM    8  C   UNL     1      -5.747   8.106  68.571  1.00  0.00    -0.037 C  
BRANCH   7   9
HETATM    9  N   UNL     1      -6.760   9.840  70.080  1.00  0.00    -0.075 NA 
HETATM   10  H   UNL     1      -7.190  10.752  69.924  1.00  0.00     0.000 HD 
BRANCH   9  11
HETATM   11  P   UNL     1      -7.973   8.564  70.138  1.00  0.00    -0.119 P  
HETATM   12  O   UNL     1      -8.593   8.946  68.772  1.00  0.00    -0.133 OA 
BRANCH  11  13
HETATM   13  C   UNL     1      -9.591   9.122  70.991  1.00  0.00    -0.280 C  
BRANCH  13  14
HETATM   14  O   UNL     1     -10.674   9.433  70.035  1.00  0.00    -0.215 OA 
BRANCH  14  15
HETATM   15  C   UNL     1     -11.713  10.393  70.368  1.00  0.00    -0.331 C  
HETATM   16  C   UNL     1     -12.971   9.655  70.844  1.00  0.00    -0.244 C  
BRANCH  15  17
HETATM   17  C   UNL     1     -11.970  11.453  69.306  1.00  0.00    -0.332 C  
BRANCH  17  18
HETATM   18  N   UNL     1     -11.648  12.799  69.690  1.00  0.00    -0.278 NA 
HETATM   19  C   UNL     1     -10.783  13.663  69.074  1.00  0.00    -0.165 A  
HETATM   20  N   UNL     1     -10.793  14.849  69.644  1.00  0.00    -0.260 NA 
HETATM   21  C   UNL     1     -11.690  14.723  70.681  1.00  0.00    -0.297 A  
HETATM   22  C   UNL     1     -12.141  15.637  71.638  1.00  0.00    -0.426 A  
HETATM   23  N   UNL     1     -12.989  15.205  72.600  1.00  0.00    -0.364 NA 
HETATM   24  N   UNL     1     -11.734  16.962  71.629  1.00  0.00    -0.305 NA 
HETATM   25  C   UNL     1     -13.393  13.921  72.556  1.00  0.00    -0.554 A  
HETATM   26  H1  UNL     1     -12.064  17.629  72.328  1.00  0.00     0.000 HD 
HETATM   27  H2  UNL     1     -11.942  17.347  70.708  1.00  0.00     0.000 HD 
HETATM   28  N   UNL     1     -13.061  12.959  71.666  1.00  0.00    -0.380 NA 
HETATM   29  C   UNL     1     -12.202  13.445  70.757  1.00  0.00    -0.328 A  
ENDBRANCH  17  18
ENDBRANCH  15  17
ENDBRANCH  14  15
ENDBRANCH  13  14
ENDBRANCH  11  13
BRANCH  11  30
HETATM   30  O   UNL     1      -7.279   8.136  71.665  1.00  0.00    -0.068 OA 
BRANCH  30  31
HETATM   31  C   UNL     1      -6.688   6.888  71.744  1.00  0.00    -0.053 A  
HETATM   32  C   UNL     1      -6.982   5.985  70.721  1.00  0.00    -0.067 A  
HETATM   33  C   UNL     1      -5.320   5.192  72.812  1.00  0.00    -0.013 A  
HETATM   34  C   UNL     1      -5.847   6.491  72.789  1.00  0.00    -0.038 A  
HETATM   35  C   UNL     1      -5.634   4.288  71.799  1.00  0.00    -0.011 A  
HETATM   36  C   UNL     1      -6.464   4.685  70.755  1.00  0.00    -0.030 A  
ENDBRANCH  30  31
ENDBRANCH  11  30
ENDBRANCH   9  11
ENDBRANCH   7   9
ENDBRANCH   5   7
ENDBRANCH   4   5
ENDBRANCH   2   4
TORSDOF 12
ENDMDL
MODEL      394
REMARK 921   NORMALIZED FREE ENERGY PREDICTED BY IDOCK:   -2.91 KCAL/MOL
REMARK 922        TOTAL FREE ENERGY PREDICTED BY IDOCK:   -6.67 KCAL/MOL
REMARK 923 INTER-LIGAND FREE ENERGY PREDICTED BY IDOCK:   -6.55 KCAL/MOL
REMARK 924 INTRA-LIGAND FREE ENERGY PREDICTED BY IDOCK:   -0.11 KCAL/MOL
REMARK 927      BINDING AFFINITY PREDICTED BY RF-SCORE:    0.00 PKD
ROOT
HETATM    1  C   UNL     1      -8.279   4.210  65.398  1.00  0.00    -0.105 C  
HETATM    2  C   UNL     1      -6.750   4.136  65.389  1.00  0.00    -0.052 C  
HETATM    3  C   UNL     1      -6.208   4.199  63.954  1.00  0.00    -0.022 C  
ENDROOT
BRANCH   2   4
HETATM    4  O   UNL     1      -6.138   5.052  66.354  1.00  0.00    -0.028 OA 
BRANCH   4   5
HETATM    5  C   UNL     1      -6.742   5.268  67.549  1.00  0.00    -0.055 C  
HETATM    6  O   UNL     1      -6.844   4.397  68.415  1.00  0.00    -0.049 OA 
BRANCH   5   7
HETATM    7  C   UNL     1      -7.335   6.685  67.789  1.00  0.00    -0.096 C  
HETATM    8  C   UNL     1      -6.521   7.711  67.001  1.00  0.00    -0.054 C  
BRANCH   7   9
HETATM    9  N   UNL     1      -7.589   7.156  69.206  1.00  0.00    -0.100 NA 
HETATM   10  H   UNL     1      -7.043   7.990  69.423  1.00  0.00     0.000 HD 
BRANCH   9  11
HETATM   11  P   UNL     1      -9.303   7.416  69.518  1.00  0.00    -0.154 P  
HETATM   12  O   UNL     1      -9.641   7.683  68.030  1.00  0.00    -0.142 OA 
BRANCH  11  13
HETATM   13  C   UNL     1      -9.714   9.243  69.904  1.00  0.00    -0.201 C  
BRANCH  13  14
HETATM   14  O   UNL     1      -9.745  10.099  68.700  1.00  0.00    -0.153 OA 
BRANCH  14  15
HETATM   15  C   UNL     1     -10.973  10.285  67.945  1.00  0.00    -0.292 C  
HETATM   16  C   UNL     1     -10.648  10.478  66.459  1.00  0.00    -0.240 C  
BRANCH  15  17
HETATM   17  C   UNL     1     -11.927  11.323  68.521  1.00  0.00    -0.218 C  
BRANCH  17  18
HETATM   18  N   UNL     1     -11.458  12.680  68.478  1.00  0.00    -0.286 NA 
HETATM   19  C   UNL     1     -10.814  13.314  67.449  1.00  0.00    -0.267 A  
HETATM   20  N   UNL     1     -10.604  14.584  67.716  1.00  0.00    -0.249 NA 
HETATM   21  C   UNL     1     -11.118  14.758  68.981  1.00  0.00    -0.256 A  
HETATM   22  C   UNL     1     -11.206  15.885  69.804  1.00  0.00    -0.339 A  
HETATM   23  N   UNL     1     -11.708  15.740  71.053  1.00  0.00    -0.385 NA 
HETATM   24  N   UNL     1     -10.786  17.135  69.376  1.00  0.00    -0.366 NA 
HETATM   25  C   UNL     1     -12.142  14.520  71.422  1.00  0.00    -0.354 A  
HETATM   26  H1  UNL     1     -10.850  17.957  69.977  1.00  0.00     0.000 HD 
HETATM   27  H2  UNL     1     -11.270  17.346  68.504  1.00  0.00     0.000 HD 
HETATM   28  N   UNL     1     -12.145  13.372  70.709  1.00  0.00    -0.316 NA 
HETATM   29  C   UNL     1     -11.616  13.578  69.493  1.00  0.00    -0.294 A  
ENDBRANCH  17  18
ENDBRANCH  15  17
ENDBRANCH  14  15
ENDBRANCH  13  14
ENDBRANCH  11  13
BRANCH  11  30
HETATM   30  O   UNL     1      -8.926   7.116  71.180  1.00  0.00    -0.144 OA 
BRANCH  30  31
HETATM   31  C   UNL     1      -9.565   6.042  71.773  1.00  0.00    -0.151 A  
HETATM   32  C   UNL     1     -10.166   6.272  73.011  1.00  0.00    -0.213 A  
HETATM   33  C   UNL     1     -10.251   3.718  71.899  1.00  0.00    -0.128 A  
HETATM   34  C   UNL     1      -9.615   4.762  71.212  1.00  0.00    -0.232 A  
HETATM   35  C   UNL     1     -10.833   3.948  73.145  1.00  0.00    -0.267 A  
HETATM   36  C   UNL     1     -10.789   5.224  73.699  1.00  0.00    -0.347 A  
ENDBRANCH  30  31
ENDBRANCH  11  30
ENDBRANCH   9  11
ENDBRANCH   7   9
ENDBRANCH   5   7
ENDBRANCH   4   5
ENDBRANCH   2   4
TORSDOF 12
ENDMDL
MODEL      395
REMARK 921   NORMALIZED FREE ENERGY PREDICTED BY IDOCK:   -2.90 KCAL/MOL
REMARK 922        TOTAL FREE ENERGY PREDICTED BY IDOCK:   -6.64 KCAL/MOL
REMARK 923 INTER-LIGAND FREE ENERGY PREDICTED BY IDOCK:   -5.40 KCAL/MOL
REMARK 924 INTRA-LIGAND FREE ENERGY PREDICTED BY IDOCK:   -1.24 KCAL/MOL
REMARK 927      BINDING AFFINITY PREDICTED BY RF-SCORE:    0.00 PKD
ROOT
HETATM    1  C   UNL     1      -9.088   4.313  63.762  1.00  0.00    -0.142 C  
HETATM    2  C   UNL     1      -7.622   3.872  63.786  1.00  0.00    -0.066 C  
HETATM    3  C   UNL     1      -6.923   4.230  62.467  1.00  0.00    -0.031 C  
ENDROOT
BRANCH   2   4
HETATM    4  O   UNL     1      -6.935   4.276  65.015  1.00  0.00    -0.055 OA 
BRANCH   4   5
HETATM    5  C   UNL     1      -7.464   3.945  66.218  1.00  0.00    -0.084 C  
HETATM    6  O   UNL     1      -7.579   2.779  66.601  1.00  0.00    -0.073 OA 
BRANCH   5   7
HETATM    7  C   UNL     1      -7.951   5.116  67.117  1.00  0.00    -0.100 C  
HETATM    8  C   UNL     1      -9.421   4.899  67.475  1.00  0.00    -0.161 C  
BRANCH   7   9
HETATM    9  N   UNL     1      -7.697   6.544  66.683  1.00  0.00    -0.098 NA 
HETATM   10  H   UNL     1      -7.990   6.696  65.717  1.00  0.00     0.000 HD 
BRANCH   9  11
HETATM   11  P   UNL     1      -8.449   7.709  67.769  1.00  0.00    -0.120 P  
HETATM   12  O   UNL     1      -9.556   8.096  66.758  1.00  0.00    -0.182 OA 
BRANCH  11  13
HETATM   13  C   UNL     1      -7.716   9.467  67.587  1.00  0.00    -0.088 C  
BRANCH  13  14
HETATM   14  O   UNL     1      -8.719  10.536  67.777  1.00  0.00    -0.122 OA 
BRANCH  14  15
HETATM   15  C   UNL     1      -8.340  11.938  67.708  1.00  0.00    -0.149 C  
HETATM   16  C   UNL     1      -6.894  12.111  68.190  1.00  0.00    -0.075 C  
BRANCH  15  17
HETATM   17  C   UNL     1      -9.334  12.901  68.342  1.00  0.00    -0.147 C  
BRANCH  17  18
HETATM   18  N   UNL     1      -9.951  13.831  67.437  1.00  0.00    -0.234 NA 
HETATM   19  C   UNL     1     -11.133  13.687  66.762  1.00  0.00    -0.307 A  
HETATM   20  N   UNL     1     -11.440  14.771  66.084  1.00  0.00    -0.338 NA 
HETATM   21  C   UNL     1     -10.395  15.634  66.324  1.00  0.00    -0.306 A  
HETATM   22  C   UNL     1     -10.150  16.942  65.897  1.00  0.00    -0.283 A  
HETATM   23  N   UNL     1      -8.979  17.529  66.239  1.00  0.00    -0.435 NA 
HETATM   24  N   UNL     1     -11.067  17.642  65.128  1.00  0.00    -0.497 NA 
HETATM   25  C   UNL     1      -8.128  16.835  67.018  1.00  0.00    -0.194 A  
HETATM   26  H1  UNL     1     -10.888  18.597  64.816  1.00  0.00     0.000 HD 
HETATM   27  H2  UNL     1     -11.959  17.637  65.623  1.00  0.00     0.000 HD 
HETATM   28  N   UNL     1      -8.268  15.589  67.523  1.00  0.00    -0.152 NA 
HETATM   29  C   UNL     1      -9.434  15.056  67.128  1.00  0.00    -0.216 A  
ENDBRANCH  17  18
ENDBRANCH  15  17
ENDBRANCH  14  15
ENDBRANCH  13  14
ENDBRANCH  11  13
BRANCH  11  30
HETATM   30  O   UNL     1      -7.212   7.277  68.899  1.00  0.00    -0.084 OA 
BRANCH  30  31
HETATM   31  C   UNL     1      -7.606   7.128  70.217  1.00  0.00    -0.090 A  
HETATM   32  C   UNL     1      -8.907   7.522  70.533  1.00  0.00    -0.147 A  
HETATM   33  C   UNL     1      -7.242   6.551  72.545  1.00  0.00    -0.082 A  
HETATM   34  C   UNL     1      -6.774   6.633  71.226  1.00  0.00    -0.058 A  
HETATM   35  C   UNL     1      -8.535   6.965  72.859  1.00  0.00    -0.127 A  
HETATM   36  C   UNL     1      -9.366   7.451  71.853  1.00  0.00    -0.157 A  
ENDBRANCH  30  31
ENDBRANCH  11  30
ENDBRANCH   9  11
ENDBRANCH   7   9
ENDBRANCH   5   7
ENDBRANCH   4   5
ENDBRANCH   2   4
TORSDOF 12
ENDMDL
MODEL      396
REMARK 921   NORMALIZED FREE ENERGY PREDICTED BY IDOCK:   -2.89 KCAL/MOL
REMARK 922        TOTAL FREE ENERGY PREDICTED BY IDOCK:   -6.63 KCAL/MOL
REMARK 923 INTER-LIGAND FREE ENERGY PREDICTED BY IDOCK:   -5.32 KCAL/MOL
REMARK 924 INTRA-LIGAND FREE ENERGY PREDICTED BY IDOCK:   -1.31 KCAL/MOL
REMARK 927      BINDING AFFINITY PREDICTED BY RF-SCORE:    0.00 PKD
ROOT
HETATM    1  C   UNL     1     -12.396  14.878  64.330  1.00  0.00    -0.342 C  
HETATM    2  C   UNL     1     -11.746  13.527  64.640  1.00  0.00    -0.381 C  
HETATM    3  C   UNL     1     -11.559  12.704  63.358  1.00  0.00    -0.536 C  
ENDROOT
BRANCH   2   4
HETATM    4  O   UNL     1     -10.570  13.656  65.506  1.00  0.00    -0.280 OA 
BRANCH   4   5
HETATM    5  C   UNL     1     -10.099  12.566  66.161  1.00  0.00    -0.251 C  
HETATM    6  O   UNL     1      -9.196  11.856  65.717  1.00  0.00    -0.201 OA 
BRANCH   5   7
HETATM    7  C   UNL     1     -10.769  12.223  67.523  1.00  0.00    -0.225 C  
HETATM    8  C   UNL     1     -11.430  13.479  68.089  1.00  0.00    -0.338 C  
BRANCH   7   9
HETATM    9  N   UNL     1      -9.969  11.496  68.583  1.00  0.00    -0.250 NA 
HETATM   10  H   UNL     1     -10.370  11.636  69.511  1.00  0.00     0.000 HD 
BRANCH   9  11
HETATM   11  P   UNL     1      -9.790   9.783  68.217  1.00  0.00    -0.159 P  
HETATM   12  O   UNL     1     -11.271   9.609  67.801  1.00  0.00    -0.142 OA 
BRANCH  11  13
HETATM   13  C   UNL     1     -10.120   8.665  69.734  1.00  0.00    -0.199 C  
BRANCH  13  14
HETATM   14  O   UNL     1      -9.838   7.238  69.476  1.00  0.00    -0.161 OA 
BRANCH  14  15
HETATM   15  C   UNL     1     -10.913   6.301  69.197  1.00  0.00    -0.377 C  
HETATM   16  C   UNL     1     -11.965   6.368  70.311  1.00  0.00    -0.147 C  
BRANCH  15  17
HETATM   17  C   UNL     1     -10.458   4.891  68.845  1.00  0.00     0.106 C  
BRANCH  17  18
HETATM   18  N   UNL     1     -10.184   4.663  67.453  1.00  0.00    -0.096 NA 
HETATM   19  C   UNL     1     -10.832   5.196  66.371  1.00  0.00    -0.103 A  
HETATM   20  N   UNL     1     -10.265   4.839  65.240  1.00  0.00    -0.069 NA 
HETATM   21  C   UNL     1      -9.221   4.025  65.621  1.00  0.00    -0.150 A  
HETATM   22  C   UNL     1      -8.246   3.352  64.881  1.00  0.00    -0.090 A  
HETATM   23  N   UNL     1      -7.371   2.551  65.533  1.00  0.00    -0.065 NA 
HETATM   24  N   UNL     1      -8.161   3.479  63.503  1.00  0.00    -0.087 NA 
HETATM   25  C   UNL     1      -7.459   2.481  66.875  1.00  0.00    -0.069 A  
HETATM   26  H1  UNL     1      -7.448   2.988  62.962  1.00  0.00     0.000 HD 
HETATM   27  H2  UNL     1      -8.090   4.473  63.284  1.00  0.00     0.000 HD 
HETATM   28  N   UNL     1      -8.326   3.108  67.700  1.00  0.00    -0.080 NA 
HETATM   29  C   UNL     1      -9.177   3.865  66.991  1.00  0.00    -0.175 A  
ENDBRANCH  17  18
ENDBRANCH  15  17
ENDBRANCH  14  15
ENDBRANCH  13  14
ENDBRANCH  11  13
BRANCH  11  30
HETATM   30  O   UNL     1      -8.134   9.977  68.681  1.00  0.00    -0.096 OA 
BRANCH  30  31
HETATM   31  C   UNL     1      -7.186   9.688  67.716  1.00  0.00    -0.085 A  
HETATM   32  C   UNL     1      -7.138   8.372  67.254  1.00  0.00    -0.079 A  
HETATM   33  C   UNL     1      -5.326  10.241  66.260  1.00  0.00    -0.054 A  
HETATM   34  C   UNL     1      -6.281  10.627  67.210  1.00  0.00    -0.056 A  
HETATM   35  C   UNL     1      -5.268   8.921  65.817  1.00  0.00    -0.033 A  
HETATM   36  C   UNL     1      -6.174   7.988  66.315  1.00  0.00    -0.046 A  
ENDBRANCH  30  31
ENDBRANCH  11  30
ENDBRANCH   9  11
ENDBRANCH   7   9
ENDBRANCH   5   7
ENDBRANCH   4   5
ENDBRANCH   2   4
TORSDOF 12
ENDMDL
MODEL      397
REMARK 921   NORMALIZED FREE ENERGY PREDICTED BY IDOCK:   -2.85 KCAL/MOL
REMARK 922        TOTAL FREE ENERGY PREDICTED BY IDOCK:   -6.56 KCAL/MOL
REMARK 923 INTER-LIGAND FREE ENERGY PREDICTED BY IDOCK:   -5.96 KCAL/MOL
REMARK 924 INTRA-LIGAND FREE ENERGY PREDICTED BY IDOCK:   -0.60 KCAL/MOL
REMARK 927      BINDING AFFINITY PREDICTED BY RF-SCORE:    0.00 PKD
ROOT
HETATM    1  C   UNL     1     -10.307   5.812  66.692  1.00  0.00    -0.300 C  
HETATM    2  C   UNL     1      -8.811   5.568  66.908  1.00  0.00    -0.112 C  
HETATM    3  C   UNL     1      -8.201   4.826  65.711  1.00  0.00    -0.112 C  
ENDROOT
BRANCH   2   4
HETATM    4  O   UNL     1      -8.105   6.772  67.354  1.00  0.00    -0.116 OA 
BRANCH   4   5
HETATM    5  C   UNL     1      -6.963   6.649  68.075  1.00  0.00    -0.080 C  
HETATM    6  O   UNL     1      -6.658   5.617  68.676  1.00  0.00    -0.044 OA 
BRANCH   5   7
HETATM    7  C   UNL     1      -6.034   7.895  68.135  1.00  0.00    -0.041 C  
HETATM    8  C   UNL     1      -5.427   8.003  69.533  1.00  0.00    -0.026 C  
BRANCH   7   9
HETATM    9  N   UNL     1      -6.553   9.234  67.656  1.00  0.00    -0.063 NA 
HETATM   10  H   UNL     1      -7.271   9.119  66.941  1.00  0.00     0.000 HD 
BRANCH   9  11
HETATM   11  P   UNL     1      -7.131  10.234  68.986  1.00  0.00    -0.089 P  
HETATM   12  O   UNL     1      -8.224   9.222  69.410  1.00  0.00    -0.103 OA 
BRANCH  11  13
HETATM   13  C   UNL     1      -8.510  11.447  68.452  1.00  0.00    -0.155 C  
BRANCH  13  14
HETATM   14  O   UNL     1      -9.858  11.017  68.876  1.00  0.00    -0.193 OA 
BRANCH  14  15
HETATM   15  C   UNL     1     -10.897  10.738  67.898  1.00  0.00    -0.264 C  
HETATM   16  C   UNL     1     -10.268  10.183  66.614  1.00  0.00    -0.287 C  
BRANCH  15  17
HETATM   17  C   UNL     1     -11.886  11.873  67.674  1.00  0.00    -0.195 C  
BRANCH  17  18
HETATM   18  N   UNL     1     -11.362  13.195  67.877  1.00  0.00    -0.269 NA 
HETATM   19  C   UNL     1     -10.574  13.925  67.028  1.00  0.00    -0.279 A  
HETATM   20  N   UNL     1     -10.347  15.134  67.494  1.00  0.00    -0.240 NA 
HETATM   21  C   UNL     1     -11.005  15.164  68.704  1.00  0.00    -0.255 A  
HETATM   22  C   UNL     1     -11.148  16.172  69.661  1.00  0.00    -0.344 A  
HETATM   23  N   UNL     1     -11.804  15.889  70.810  1.00  0.00    -0.387 NA 
HETATM   24  N   UNL     1     -10.630  17.443  69.465  1.00  0.00    -0.322 NA 
HETATM   25  C   UNL     1     -12.328  14.657  70.952  1.00  0.00    -0.336 A  
HETATM   26  H1  UNL     1     -10.734  18.179  70.164  1.00  0.00     0.000 HD 
HETATM   27  H2  UNL     1     -10.995  17.797  68.581  1.00  0.00     0.000 HD 
HETATM   28  N   UNL     1     -12.289  13.617  70.089  1.00  0.00    -0.326 NA 
HETATM   29  C   UNL     1     -11.608  13.955  68.984  1.00  0.00    -0.310 A  
ENDBRANCH  17  18
ENDBRANCH  15  17
ENDBRANCH  14  15
ENDBRANCH  13  14
ENDBRANCH  11  13
BRANCH  11  30
HETATM   30  O   UNL     1      -5.909  11.364  68.513  1.00  0.00    -0.043 OA 
BRANCH  30  31
HETATM   31  C   UNL     1      -6.125  12.686  68.860  1.00  0.00    -0.079 A  
HETATM   32  C   UNL     1      -6.043  13.002  70.217  1.00  0.00    -0.071 A  
HETATM   33  C   UNL     1      -6.679  14.999  68.381  1.00  0.00    -0.111 A  
HETATM   34  C   UNL     1      -6.436  13.691  67.939  1.00  0.00    -0.159 A  
HETATM   35  C   UNL     1      -6.616  15.305  69.739  1.00  0.00    -0.177 A  
HETATM   36  C   UNL     1      -6.299  14.306  70.655  1.00  0.00    -0.074 A  
ENDBRANCH  30  31
ENDBRANCH  11  30
ENDBRANCH   9  11
ENDBRANCH   7   9
ENDBRANCH   5   7
ENDBRANCH   4   5
ENDBRANCH   2   4
TORSDOF 12
ENDMDL
MODEL      398
REMARK 921   NORMALIZED FREE ENERGY PREDICTED BY IDOCK:   -2.82 KCAL/MOL
REMARK 922        TOTAL FREE ENERGY PREDICTED BY IDOCK:   -6.52 KCAL/MOL
REMARK 923 INTER-LIGAND FREE ENERGY PREDICTED BY IDOCK:   -6.07 KCAL/MOL
REMARK 924 INTRA-LIGAND FREE ENERGY PREDICTED BY IDOCK:   -0.45 KCAL/MOL
REMARK 927      BINDING AFFINITY PREDICTED BY RF-SCORE:    0.00 PKD
ROOT
HETATM    1  C   UNL     1      -9.883   4.063  69.753  1.00  0.00    -0.173 C  
HETATM    2  C   UNL     1      -8.834   3.838  70.845  1.00  0.00    -0.082 C  
HETATM    3  C   UNL     1      -7.512   4.529  70.484  1.00  0.00    -0.050 C  
ENDROOT
BRANCH   2   4
HETATM    4  O   UNL     1      -9.358   4.100  72.188  1.00  0.00    -0.119 OA 
BRANCH   4   5
HETATM    5  C   UNL     1     -10.378   4.978  72.349  1.00  0.00    -0.206 C  
HETATM    6  O   UNL     1     -11.549   4.626  72.501  1.00  0.00     0.112 OA 
BRANCH   5   7
HETATM    7  C   UNL     1     -10.013   6.490  72.317  1.00  0.00    -0.163 C  
HETATM    8  C   UNL     1      -9.824   6.993  73.748  1.00  0.00    -0.341 C  
BRANCH   7   9
HETATM    9  N   UNL     1     -10.864   7.445  71.507  1.00  0.00    -0.224 NA 
HETATM   10  H   UNL     1     -11.684   7.748  72.032  1.00  0.00     0.000 HD 
BRANCH   9  11
HETATM   11  P   UNL     1      -9.936   8.823  70.921  1.00  0.00    -0.268 P  
HETATM   12  O   UNL     1      -9.832   9.481  72.319  1.00  0.00     0.437 OA 
BRANCH  11  13
HETATM   13  C   UNL     1     -11.046  10.274  70.357  1.00  0.00    -0.319 C  
BRANCH  13  14
HETATM   14  O   UNL     1     -10.277  11.445  69.886  1.00  0.00     0.399 OA 
BRANCH  14  15
HETATM   15  C   UNL     1     -10.526  12.026  68.577  1.00  0.00    -0.229 C  
HETATM   16  C   UNL     1      -9.223  12.597  68.004  1.00  0.00    -0.208 C  
BRANCH  15  17
HETATM   17  C   UNL     1     -11.712  12.979  68.515  1.00  0.00    -0.342 C  
BRANCH  17  18
HETATM   18  N   UNL     1     -11.704  14.035  69.490  1.00  0.00    -0.293 NA 
HETATM   19  C   UNL     1     -11.202  15.301  69.351  1.00  0.00    -0.285 A  
HETATM   20  N   UNL     1     -11.440  16.037  70.415  1.00  0.00    -0.372 NA 
HETATM   21  C   UNL     1     -12.104  15.192  71.275  1.00  0.00    -0.342 A  
HETATM   22  C   UNL     1     -12.632  15.391  72.554  1.00  0.00    -0.385 A  
HETATM   23  N   UNL     1     -13.181  14.337  73.202  1.00  0.00    -0.609 NA 
HETATM   24  N   UNL     1     -12.597  16.632  73.172  1.00  0.00    -0.109 NA 
HETATM   25  C   UNL     1     -13.232  13.156  72.558  1.00  0.00    -0.332 A  
HETATM   26  H1  UNL     1     -12.983  16.777  74.105  1.00  0.00     0.000 HD 
HETATM   27  H2  UNL     1     -13.036  17.306  72.544  1.00  0.00     0.000 HD 
HETATM   28  N   UNL     1     -12.794  12.850  71.316  1.00  0.00    -0.329 NA 
HETATM   29  C   UNL     1     -12.242  13.928  70.739  1.00  0.00    -0.369 A  
ENDBRANCH  17  18
ENDBRANCH  15  17
ENDBRANCH  14  15
ENDBRANCH  13  14
ENDBRANCH  11  13
BRANCH  11  30
HETATM   30  O   UNL     1     -10.051   8.087  69.359  1.00  0.00    -0.187 OA 
BRANCH  30  31
HETATM   31  C   UNL     1      -9.026   8.362  68.471  1.00  0.00    -0.136 A  
HETATM   32  C   UNL     1      -9.330   9.203  67.400  1.00  0.00    -0.161 A  
HETATM   33  C   UNL     1      -6.768   8.130  67.616  1.00  0.00    -0.062 A  
HETATM   34  C   UNL     1      -7.738   7.830  68.583  1.00  0.00    -0.118 A  
HETATM   35  C   UNL     1      -7.081   8.955  66.538  1.00  0.00    -0.084 A  
HETATM   36  C   UNL     1      -8.362   9.489  66.430  1.00  0.00    -0.120 A  
ENDBRANCH  30  31
ENDBRANCH  11  30
ENDBRANCH   9  11
ENDBRANCH   7   9
ENDBRANCH   5   7
ENDBRANCH   4   5
ENDBRANCH   2   4
TORSDOF 12
ENDMDL
MODEL      399
REMARK 921   NORMALIZED FREE ENERGY PREDICTED BY IDOCK:   -2.80 KCAL/MOL
REMARK 922        TOTAL FREE ENERGY PREDICTED BY IDOCK:   -6.48 KCAL/MOL
REMARK 923 INTER-LIGAND FREE ENERGY PREDICTED BY IDOCK:   -5.30 KCAL/MOL
REMARK 924 INTRA-LIGAND FREE ENERGY PREDICTED BY IDOCK:   -1.18 KCAL/MOL
REMARK 927      BINDING AFFINITY PREDICTED BY RF-SCORE:    0.00 PKD
ROOT
HETATM    1  C   UNL     1      -9.111  16.305  68.594  1.00  0.00    -0.228 C  
HETATM    2  C   UNL     1     -10.026  15.160  68.152  1.00  0.00    -0.221 C  
HETATM    3  C   UNL     1     -11.488  15.624  68.086  1.00  0.00    -0.325 C  
ENDROOT
BRANCH   2   4
HETATM    4  O   UNL     1      -9.515  14.457  66.972  1.00  0.00    -0.229 OA 
BRANCH   4   5
HETATM    5  C   UNL     1     -10.323  14.274  65.899  1.00  0.00    -0.314 C  
HETATM    6  O   UNL     1     -10.515  15.146  65.049  1.00  0.00    -0.398 OA 
BRANCH   5   7
HETATM    7  C   UNL     1     -11.033  12.895  65.782  1.00  0.00    -0.278 C  
HETATM    8  C   UNL     1     -12.476  13.110  65.329  1.00  0.00    -0.550 C  
BRANCH   7   9
HETATM    9  N   UNL     1     -10.958  11.919  66.937  1.00  0.00    -0.273 NA 
HETATM   10  H   UNL     1     -11.795  11.339  66.987  1.00  0.00     0.000 HD 
BRANCH   9  11
HETATM   11  P   UNL     1      -9.500  10.932  66.874  1.00  0.00    -0.182 P  
HETATM   12  O   UNL     1      -9.786  10.414  65.443  1.00  0.00    -0.243 OA 
BRANCH  11  13
HETATM   13  C   UNL     1      -9.780   9.159  67.535  1.00  0.00    -0.160 C  
BRANCH  13  14
HETATM   14  O   UNL     1      -8.527   8.391  67.687  1.00  0.00    -0.128 OA 
BRANCH  14  15
HETATM   15  C   UNL     1      -8.415   7.034  67.178  1.00  0.00    -0.121 C  
HETATM   16  C   UNL     1      -8.655   7.024  65.663  1.00  0.00    -0.121 C  
BRANCH  15  17
HETATM   17  C   UNL     1      -9.214   5.993  67.949  1.00  0.00    -0.111 C  
BRANCH  17  18
HETATM   18  N   UNL     1      -8.463   4.856  68.405  1.00  0.00    -0.094 NA 
HETATM   19  C   UNL     1      -7.840   3.902  67.646  1.00  0.00    -0.082 A  
HETATM   20  N   UNL     1      -7.171   3.049  68.391  1.00  0.00    -0.049 NA 
HETATM   21  C   UNL     1      -7.397   3.470  69.682  1.00  0.00    -0.045 A  
HETATM   22  C   UNL     1      -6.946   2.985  70.913  1.00  0.00    -0.033 A  
HETATM   23  N   UNL     1      -7.398   3.569  72.047  1.00  0.00    -0.053 NA 
HETATM   24  N   UNL     1      -6.062   1.920  70.997  1.00  0.00    -0.017 NA 
HETATM   25  C   UNL     1      -8.226   4.624  71.928  1.00  0.00    -0.105 A  
HETATM   26  H1  UNL     1      -5.733   1.566  71.895  1.00  0.00     0.000 HD 
HETATM   27  H2  UNL     1      -5.243   2.149  70.432  1.00  0.00     0.000 HD 
HETATM   28  N   UNL     1      -8.699   5.206  70.803  1.00  0.00    -0.126 NA 
HETATM   29  C   UNL     1      -8.233   4.567  69.719  1.00  0.00    -0.063 A  
ENDBRANCH  17  18
ENDBRANCH  15  17
ENDBRANCH  14  15
ENDBRANCH  13  14
ENDBRANCH  11  13
BRANCH  11  30
HETATM   30  O   UNL     1      -9.180  11.511  68.473  1.00  0.00    -0.183 OA 
BRANCH  30  31
HETATM   31  C   UNL     1      -7.849  11.654  68.822  1.00  0.00    -0.096 A  
HETATM   32  C   UNL     1      -7.283  10.626  69.577  1.00  0.00    -0.140 A  
HETATM   33  C   UNL     1      -5.737  12.846  68.906  1.00  0.00    -0.073 A  
HETATM   34  C   UNL     1      -7.070  12.763  68.478  1.00  0.00    -0.101 A  
HETATM   35  C   UNL     1      -5.182  11.827  69.678  1.00  0.00    -0.067 A  
HETATM   36  C   UNL     1      -5.956  10.719  70.013  1.00  0.00    -0.094 A  
ENDBRANCH  30  31
ENDBRANCH  11  30
ENDBRANCH   9  11
ENDBRANCH   7   9
ENDBRANCH   5   7
ENDBRANCH   4   5
ENDBRANCH   2   4
TORSDOF 12
ENDMDL
MODEL      400
REMARK 921   NORMALIZED FREE ENERGY PREDICTED BY IDOCK:   -2.78 KCAL/MOL
REMARK 922        TOTAL FREE ENERGY PREDICTED BY IDOCK:   -6.45 KCAL/MOL
REMARK 923 INTER-LIGAND FREE ENERGY PREDICTED BY IDOCK:   -8.49 KCAL/MOL
REMARK 924 INTRA-LIGAND FREE ENERGY PREDICTED BY IDOCK:    2.04 KCAL/MOL
REMARK 927      BINDING AFFINITY PREDICTED BY RF-SCORE:    0.00 PKD
ROOT
HETATM    1  C   UNL     1      -8.164  10.728  62.368  1.00  0.00    -0.264 C  
HETATM    2  C   UNL     1      -8.695  10.049  63.633  1.00  0.00    -0.218 C  
HETATM    3  C   UNL     1      -7.828   8.840  64.008  1.00  0.00    -0.140 C  
ENDROOT
BRANCH   2   4
HETATM    4  O   UNL     1      -8.976  11.005  64.707  1.00  0.00    -0.175 OA 
BRANCH   4   5
HETATM    5  C   UNL     1     -10.195  11.007  65.300  1.00  0.00    -0.284 C  
HETATM    6  O   UNL     1     -10.683  10.007  65.831  1.00  0.00    -0.011 OA 
BRANCH   5   7
HETATM    7  C   UNL     1     -10.987  12.345  65.272  1.00  0.00    -0.298 C  
HETATM    8  C   UNL     1     -10.014  13.501  65.040  1.00  0.00    -0.193 C  
BRANCH   7   9
HETATM    9  N   UNL     1     -11.958  12.660  66.391  1.00  0.00    -0.540 NA 
HETATM   10  H   UNL     1     -12.265  11.810  66.864  1.00  0.00     0.000 HD 
BRANCH   9  11
HETATM   11  P   UNL     1     -11.293  13.823  67.535  1.00  0.00    -0.346 P  
HETATM   12  O   UNL     1     -10.658  14.704  66.431  1.00  0.00    -0.290 OA 
BRANCH  11  13
HETATM   13  C   UNL     1      -9.534  13.355  68.124  1.00  0.00    -0.218 C  
BRANCH  13  14
HETATM   14  O   UNL     1      -9.228  11.920  67.953  1.00  0.00    -0.174 OA 
BRANCH  14  15
HETATM   15  C   UNL     1      -8.896  11.084  69.095  1.00  0.00     0.012 C  
HETATM   16  C   UNL     1      -7.392  10.784  69.102  1.00  0.00    -0.115 C  
BRANCH  15  17
HETATM   17  C   UNL     1      -9.783   9.859  69.271  1.00  0.00    -0.208 C  
BRANCH  17  18
HETATM   18  N   UNL     1      -9.548   9.096  70.465  1.00  0.00    -0.223 NA 
HETATM   19  C   UNL     1      -8.456   9.143  71.291  1.00  0.00    -0.047 A  
HETATM   20  N   UNL     1      -8.609   8.370  72.343  1.00  0.00    -0.252 NA 
HETATM   21  C   UNL     1      -9.845   7.789  72.166  1.00  0.00    -0.187 A  
HETATM   22  C   UNL     1     -10.572   6.888  72.949  1.00  0.00    -0.261 A  
HETATM   23  N   UNL     1     -11.754   6.426  72.480  1.00  0.00    -0.230 NA 
HETATM   24  N   UNL     1     -10.108   6.454  74.181  1.00  0.00    -0.303 NA 
HETATM   25  C   UNL     1     -12.193   6.898  71.298  1.00  0.00    -0.380 A  
HETATM   26  H1  UNL     1     -10.638   5.796  74.753  1.00  0.00     0.000 HD 
HETATM   27  H2  UNL     1      -9.914   7.277  74.751  1.00  0.00     0.000 HD 
HETATM   28  N   UNL     1     -11.605   7.793  70.473  1.00  0.00    -0.214 NA 
HETATM   29  C   UNL     1     -10.430   8.193  70.983  1.00  0.00    -0.201 A  
ENDBRANCH  17  18
ENDBRANCH  15  17
ENDBRANCH  14  15
ENDBRANCH  13  14
ENDBRANCH  11  13
BRANCH  11  30
HETATM   30  O   UNL     1     -12.003  12.838  68.768  1.00  0.00    -0.305 OA 
BRANCH  30  31
HETATM   31  C   UNL     1     -12.393  13.488  69.926  1.00  0.00    -0.224 A  
HETATM   32  C   UNL     1     -12.743  12.683  71.011  1.00  0.00    -0.316 A  
HETATM   33  C   UNL     1     -12.917  15.455  71.246  1.00  0.00    -0.541 A  
HETATM   34  C   UNL     1     -12.473  14.878  70.047  1.00  0.00    -0.320 A  
HETATM   35  C   UNL     1     -13.284  14.647  72.320  1.00  0.00    -0.467 A  
HETATM   36  C   UNL     1     -13.198  13.263  72.202  1.00  0.00    -0.562 A  
ENDBRANCH  30  31
ENDBRANCH  11  30
ENDBRANCH   9  11
ENDBRANCH   7   9
ENDBRANCH   5   7
ENDBRANCH   4   5
ENDBRANCH   2   4
TORSDOF 12
ENDMDL
MODEL      401
REMARK 921   NORMALIZED FREE ENERGY PREDICTED BY IDOCK:   -2.72 KCAL/MOL
REMARK 922        TOTAL FREE ENERGY PREDICTED BY IDOCK:   -6.34 KCAL/MOL
REMARK 923 INTER-LIGAND FREE ENERGY PREDICTED BY IDOCK:   -7.34 KCAL/MOL
REMARK 924 INTRA-LIGAND FREE ENERGY PREDICTED BY IDOCK:    0.99 KCAL/MOL
REMARK 927      BINDING AFFINITY PREDICTED BY RF-SCORE:    0.00 PKD
ROOT
HETATM    1  C   UNL     1     -12.383  16.475  72.989  1.00  0.00    -0.357 C  
HETATM    2  C   UNL     1     -12.792  15.059  72.576  1.00  0.00    -0.357 C  
HETATM    3  C   UNL     1     -14.274  15.012  72.181  1.00  0.00    -0.636 C  
ENDROOT
BRANCH   2   4
HETATM    4  O   UNL     1     -11.849  14.456  71.630  1.00  0.00    -0.276 OA 
BRANCH   4   5
HETATM    5  C   UNL     1     -12.062  14.588  70.297  1.00  0.00    -0.323 C  
HETATM    6  O   UNL     1     -12.362  15.660  69.769  1.00  0.00    -0.333 OA 
BRANCH   5   7
HETATM    7  C   UNL     1     -11.929  13.300  69.435  1.00  0.00    -0.301 C  
HETATM    8  C   UNL     1     -12.294  12.085  70.286  1.00  0.00    -0.275 C  
BRANCH   7   9
HETATM    9  N   UNL     1     -10.658  13.058  68.649  1.00  0.00    -0.286 NA 
HETATM   10  H   UNL     1     -10.205  12.190  68.934  1.00  0.00     0.000 HD 
BRANCH   9  11
HETATM   11  P   UNL     1     -10.940  13.090  66.910  1.00  0.00    -0.280 P  
HETATM   12  O   UNL     1     -11.358  11.601  66.845  1.00  0.00    -0.320 OA 
BRANCH  11  13
HETATM   13  C   UNL     1      -9.374  12.660  65.900  1.00  0.00    -0.004 C  
BRANCH  13  14
HETATM   14  O   UNL     1      -9.422  11.310  65.302  1.00  0.00    -0.219 OA 
BRANCH  14  15
HETATM   15  C   UNL     1      -8.363  10.345  65.548  1.00  0.00    -0.168 C  
HETATM   16  C   UNL     1      -8.825   8.945  65.122  1.00  0.00    -0.209 C  
BRANCH  15  17
HETATM   17  C   UNL     1      -7.750  10.408  66.940  1.00  0.00    -0.111 C  
BRANCH  17  18
HETATM   18  N   UNL     1      -8.569   9.883  67.998  1.00  0.00    -0.121 NA 
HETATM   19  C   UNL     1      -9.869   9.462  67.922  1.00  0.00    -0.165 A  
HETATM   20  N   UNL     1     -10.284   8.959  69.064  1.00  0.00    -0.201 NA 
HETATM   21  C   UNL     1      -9.204   9.087  69.908  1.00  0.00    -0.173 A  
HETATM   22  C   UNL     1      -9.017   8.723  71.245  1.00  0.00    -0.231 A  
HETATM   23  N   UNL     1      -7.849   9.043  71.849  1.00  0.00    -0.341 NA 
HETATM   24  N   UNL     1      -9.999   8.057  71.963  1.00  0.00    -0.196 NA 
HETATM   25  C   UNL     1      -6.904   9.656  71.112  1.00  0.00     0.083 A  
HETATM   26  H1  UNL     1      -9.863   7.792  72.939  1.00  0.00     0.000 HD 
HETATM   27  H2  UNL     1     -10.250   7.216  71.442  1.00  0.00     0.000 HD 
HETATM   28  N   UNL     1      -6.950  10.022  69.811  1.00  0.00    -0.090 NA 
HETATM   29  C   UNL     1      -8.139   9.699  69.279  1.00  0.00    -0.107 A  
ENDBRANCH  17  18
ENDBRANCH  15  17
ENDBRANCH  14  15
ENDBRANCH  13  14
ENDBRANCH  11  13
BRANCH  11  30
HETATM   30  O   UNL     1     -10.474  14.755  66.984  1.00  0.00    -0.264 OA 
BRANCH  30  31
HETATM   31  C   UNL     1      -9.403  15.059  67.805  1.00  0.00    -0.186 A  
HETATM   32  C   UNL     1      -9.265  16.393  68.192  1.00  0.00    -0.201 A  
HETATM   33  C   UNL     1      -7.384  14.518  69.036  1.00  0.00    -0.132 A  
HETATM   34  C   UNL     1      -8.463  14.118  68.236  1.00  0.00    -0.169 A  
HETATM   35  C   UNL     1      -7.239  15.855  69.403  1.00  0.00    -0.214 A  
HETATM   36  C   UNL     1      -8.179  16.790  68.980  1.00  0.00    -0.172 A  
ENDBRANCH  30  31
ENDBRANCH  11  30
ENDBRANCH   9  11
ENDBRANCH   7   9
ENDBRANCH   5   7
ENDBRANCH   4   5
ENDBRANCH   2   4
TORSDOF 12
ENDMDL
MODEL      402
REMARK 921   NORMALIZED FREE ENERGY PREDICTED BY IDOCK:   -2.70 KCAL/MOL
REMARK 922        TOTAL FREE ENERGY PREDICTED BY IDOCK:   -6.30 KCAL/MOL
REMARK 923 INTER-LIGAND FREE ENERGY PREDICTED BY IDOCK:   -5.74 KCAL/MOL
REMARK 924 INTRA-LIGAND FREE ENERGY PREDICTED BY IDOCK:   -0.56 KCAL/MOL
REMARK 927      BINDING AFFINITY PREDICTED BY RF-SCORE:    0.00 PKD
ROOT
HETATM    1  C   UNL     1     -10.445  11.405  64.131  1.00  0.00    -0.421 C  
HETATM    2  C   UNL     1      -9.514  10.946  65.255  1.00  0.00    -0.217 C  
HETATM    3  C   UNL     1     -10.189   9.870  66.118  1.00  0.00    -0.277 C  
ENDROOT
BRANCH   2   4
HETATM    4  O   UNL     1      -8.164  10.640  64.775  1.00  0.00    -0.139 OA 
BRANCH   4   5
HETATM    5  C   UNL     1      -7.809   9.350  64.552  1.00  0.00    -0.121 C  
HETATM    6  O   UNL     1      -8.293   8.669  63.646  1.00  0.00    -0.168 OA 
BRANCH   5   7
HETATM    7  C   UNL     1      -6.753   8.736  65.516  1.00  0.00    -0.071 C  
HETATM    8  C   UNL     1      -5.353   9.108  65.031  1.00  0.00    -0.041 C  
BRANCH   7   9
HETATM    9  N   UNL     1      -6.839   7.268  65.876  1.00  0.00    -0.056 NA 
HETATM   10  H   UNL     1      -5.914   6.839  65.902  1.00  0.00     0.000 HD 
BRANCH   9  11
HETATM   11  P   UNL     1      -7.706   7.008  67.386  1.00  0.00    -0.113 P  
HETATM   12  O   UNL     1      -6.771   7.931  68.205  1.00  0.00    -0.060 OA 
BRANCH  11  13
HETATM   13  C   UNL     1      -7.038   5.512  68.373  1.00  0.00    -0.070 C  
BRANCH  13  14
HETATM   14  O   UNL     1      -7.296   5.612  69.825  1.00  0.00    -0.066 OA 
BRANCH  14  15
HETATM   15  C   UNL     1      -7.496   4.421  70.633  1.00  0.00    -0.052 C  
HETATM   16  C   UNL     1      -6.660   3.264  70.072  1.00  0.00    -0.033 C  
BRANCH  15  17
HETATM   17  C   UNL     1      -8.952   4.070  70.906  1.00  0.00    -0.100 C  
BRANCH  17  18
HETATM   18  N   UNL     1      -9.901   5.109  70.610  1.00  0.00    -0.190 NA 
HETATM   19  C   UNL     1     -10.642   5.269  69.470  1.00  0.00    -0.173 A  
HETATM   20  N   UNL     1     -11.475   6.281  69.571  1.00  0.00    -0.411 NA 
HETATM   21  C   UNL     1     -11.236   6.800  70.824  1.00  0.00    -0.304 A  
HETATM   22  C   UNL     1     -11.812   7.868  71.515  1.00  0.00    -0.289 A  
HETATM   23  N   UNL     1     -11.317   8.199  72.731  1.00  0.00    -0.388 NA 
HETATM   24  N   UNL     1     -12.865   8.598  70.984  1.00  0.00    -0.495 NA 
HETATM   25  C   UNL     1     -10.321   7.447  73.233  1.00  0.00    -0.355 A  
HETATM   26  H1  UNL     1     -13.286   9.378  71.488  1.00  0.00     0.000 HD 
HETATM   27  H2  UNL     1     -13.609   7.943  70.744  1.00  0.00     0.000 HD 
HETATM   28  N   UNL     1      -9.710   6.373  72.682  1.00  0.00    -0.161 NA 
HETATM   29  C   UNL     1     -10.230   6.113  71.473  1.00  0.00    -0.203 A  
ENDBRANCH  17  18
ENDBRANCH  15  17
ENDBRANCH  14  15
ENDBRANCH  13  14
ENDBRANCH  11  13
BRANCH  11  30
HETATM   30  O   UNL     1      -8.753   5.977  66.471  1.00  0.00    -0.120 OA 
BRANCH  30  31
HETATM   31  C   UNL     1      -8.385   4.646  66.385  1.00  0.00    -0.106 A  
HETATM   32  C   UNL     1      -9.236   3.718  66.985  1.00  0.00    -0.202 A  
HETATM   33  C   UNL     1      -6.899   2.836  65.751  1.00  0.00    -0.048 A  
HETATM   34  C   UNL     1      -7.216   4.202  65.759  1.00  0.00    -0.072 A  
HETATM   35  C   UNL     1      -7.742   1.915  66.370  1.00  0.00    -0.067 A  
HETATM   36  C   UNL     1      -8.909   2.357  66.986  1.00  0.00    -0.151 A  
ENDBRANCH  30  31
ENDBRANCH  11  30
ENDBRANCH   9  11
ENDBRANCH   7   9
ENDBRANCH   5   7
ENDBRANCH   4   5
ENDBRANCH   2   4
TORSDOF 12
ENDMDL
MODEL      403
REMARK 921   NORMALIZED FREE ENERGY PREDICTED BY IDOCK:   -2.70 KCAL/MOL
REMARK 922        TOTAL FREE ENERGY PREDICTED BY IDOCK:   -6.30 KCAL/MOL
REMARK 923 INTER-LIGAND FREE ENERGY PREDICTED BY IDOCK:   -6.12 KCAL/MOL
REMARK 924 INTRA-LIGAND FREE ENERGY PREDICTED BY IDOCK:   -0.18 KCAL/MOL
REMARK 927      BINDING AFFINITY PREDICTED BY RF-SCORE:    0.00 PKD
ROOT
HETATM    1  C   UNL     1      -7.592   2.727  70.688  1.00  0.00    -0.039 C  
HETATM    2  C   UNL     1      -8.017   3.483  71.949  1.00  0.00    -0.063 C  
HETATM    3  C   UNL     1      -8.310   2.508  73.097  1.00  0.00    -0.070 C  
ENDROOT
BRANCH   2   4
HETATM    4  O   UNL     1      -7.124   4.603  72.260  1.00  0.00    -0.061 OA 
BRANCH   4   5
HETATM    5  C   UNL     1      -7.651   5.814  72.565  1.00  0.00    -0.101 C  
HETATM    6  O   UNL     1      -8.020   6.117  73.701  1.00  0.00    -0.102 OA 
BRANCH   5   7
HETATM    7  C   UNL     1      -7.796   6.831  71.397  1.00  0.00    -0.098 C  
HETATM    8  C   UNL     1      -9.107   6.565  70.658  1.00  0.00    -0.148 C  
BRANCH   7   9
HETATM    9  N   UNL     1      -6.647   7.020  70.428  1.00  0.00    -0.050 NA 
HETATM   10  H   UNL     1      -6.740   6.407  69.619  1.00  0.00     0.000 HD 
BRANCH   9  11
HETATM   11  P   UNL     1      -6.468   8.702  69.938  1.00  0.00    -0.035 P  
HETATM   12  O   UNL     1      -7.053   9.260  71.258  1.00  0.00    -0.233 OA 
BRANCH  11  13
HETATM   13  C   UNL     1      -8.004   9.369  69.014  1.00  0.00    -0.091 C  
BRANCH  13  14
HETATM   14  O   UNL     1      -8.494  10.655  69.555  1.00  0.00    -0.104 OA 
BRANCH  14  15
HETATM   15  C   UNL     1      -9.875  11.067  69.369  1.00  0.00     0.051 C  
HETATM   16  C   UNL     1     -10.730  10.567  70.541  1.00  0.00     0.045 C  
BRANCH  15  17
HETATM   17  C   UNL     1     -10.454  10.765  67.994  1.00  0.00    -0.194 C  
BRANCH  17  18
HETATM   18  N   UNL     1     -11.100  11.871  67.342  1.00  0.00    -0.261 NA 
HETATM   19  C   UNL     1     -11.671  12.970  67.924  1.00  0.00    -0.357 A  
HETATM   20  N   UNL     1     -12.096  13.830  67.024  1.00  0.00    -0.410 NA 
HETATM   21  C   UNL     1     -11.799  13.238  65.817  1.00  0.00    -0.387 A  
HETATM   22  C   UNL     1     -11.990  13.663  64.499  1.00  0.00    -0.418 A  
HETATM   23  N   UNL     1     -11.658  12.824  63.491  1.00  0.00    -0.501 NA 
HETATM   24  N   UNL     1     -12.518  14.911  64.205  1.00  0.00    -0.912 NA 
HETATM   25  C   UNL     1     -11.113  11.635  63.812  1.00  0.00    -0.420 A  
HETATM   26  H1  UNL     1     -12.657  15.221  63.243  1.00  0.00     0.000 HD 
HETATM   27  H2  UNL     1     -11.948  15.611  64.680  1.00  0.00     0.000 HD 
HETATM   28  N   UNL     1     -10.845  11.130  65.037  1.00  0.00    -0.224 NA 
HETATM   29  C   UNL     1     -11.218  11.999  65.989  1.00  0.00    -0.335 A  
ENDBRANCH  17  18
ENDBRANCH  15  17
ENDBRANCH  14  15
ENDBRANCH  13  14
ENDBRANCH  11  13
BRANCH  11  30
HETATM   30  O   UNL     1      -5.813   8.079  68.462  1.00  0.00    -0.037 OA 
BRANCH  30  31
HETATM   31  C   UNL     1      -6.673   8.027  67.380  1.00  0.00    -0.069 A  
HETATM   32  C   UNL     1      -7.301   6.805  67.133  1.00  0.00    -0.086 A  
HETATM   33  C   UNL     1      -7.779   8.959  65.431  1.00  0.00    -0.092 A  
HETATM   34  C   UNL     1      -6.920   9.109  66.530  1.00  0.00    -0.080 A  
HETATM   35  C   UNL     1      -8.387   7.731  65.178  1.00  0.00    -0.113 A  
HETATM   36  C   UNL     1      -8.147   6.655  66.028  1.00  0.00    -0.122 A  
ENDBRANCH  30  31
ENDBRANCH  11  30
ENDBRANCH   9  11
ENDBRANCH   7   9
ENDBRANCH   5   7
ENDBRANCH   4   5
ENDBRANCH   2   4
TORSDOF 12
ENDMDL
MODEL      404
REMARK 921   NORMALIZED FREE ENERGY PREDICTED BY IDOCK:   -2.66 KCAL/MOL
REMARK 922        TOTAL FREE ENERGY PREDICTED BY IDOCK:   -6.24 KCAL/MOL
REMARK 923 INTER-LIGAND FREE ENERGY PREDICTED BY IDOCK:   -5.62 KCAL/MOL
REMARK 924 INTRA-LIGAND FREE ENERGY PREDICTED BY IDOCK:   -0.62 KCAL/MOL
REMARK 927      BINDING AFFINITY PREDICTED BY RF-SCORE:    0.00 PKD
ROOT
HETATM    1  C   UNL     1     -12.368  11.405  69.643  1.00  0.00    -0.236 C  
HETATM    2  C   UNL     1     -11.203  10.778  68.874  1.00  0.00    -0.268 C  
HETATM    3  C   UNL     1     -11.194   9.253  69.045  1.00  0.00     0.130 C  
ENDROOT
BRANCH   2   4
HETATM    4  O   UNL     1     -11.104  11.278  67.500  1.00  0.00    -0.249 OA 
BRANCH   4   5
HETATM    5  C   UNL     1     -11.509  12.540  67.216  1.00  0.00    -0.353 C  
HETATM    6  O   UNL     1     -12.370  12.794  66.372  1.00  0.00    -0.500 OA 
BRANCH   5   7
HETATM    7  C   UNL     1     -10.818  13.692  68.001  1.00  0.00    -0.246 C  
HETATM    8  C   UNL     1     -10.767  14.940  67.122  1.00  0.00    -0.296 C  
BRANCH   7   9
HETATM    9  N   UNL     1      -9.486  13.439  68.676  1.00  0.00    -0.392 NA 
HETATM   10  H   UNL     1      -9.433  12.490  69.046  1.00  0.00     0.000 HD 
BRANCH   9  11
HETATM   11  P   UNL     1      -8.129  13.786  67.609  1.00  0.00    -0.199 P  
HETATM   12  O   UNL     1      -8.414  12.580  66.681  1.00  0.00    -0.127 OA 
BRANCH  11  13
HETATM   13  C   UNL     1      -6.513  12.929  68.169  1.00  0.00    -0.096 C  
BRANCH  13  14
HETATM   14  O   UNL     1      -5.890  12.113  67.106  1.00  0.00    -0.141 OA 
BRANCH  14  15
HETATM   15  C   UNL     1      -5.484  10.740  67.358  1.00  0.00    -0.040 C  
HETATM   16  C   UNL     1      -6.440   9.774  66.647  1.00  0.00    -0.070 C  
BRANCH  15  17
HETATM   17  C   UNL     1      -5.225  10.408  68.821  1.00  0.00    -0.038 C  
BRANCH  17  18
HETATM   18  N   UNL     1      -6.260   9.653  69.472  1.00  0.00    -0.039 NA 
HETATM   19  C   UNL     1      -7.444  10.117  69.980  1.00  0.00    -0.162 A  
HETATM   20  N   UNL     1      -8.196   9.138  70.432  1.00  0.00    -0.151 NA 
HETATM   21  C   UNL     1      -7.445   8.003  70.220  1.00  0.00    -0.072 A  
HETATM   22  C   UNL     1      -7.705   6.653  70.474  1.00  0.00    -0.104 A  
HETATM   23  N   UNL     1      -6.733   5.746  70.222  1.00  0.00    -0.046 NA 
HETATM   24  N   UNL     1      -8.922   6.228  70.983  1.00  0.00    -0.143 NA 
HETATM   25  C   UNL     1      -5.577   6.188  69.692  1.00  0.00    -0.013 A  
HETATM   26  H1  UNL     1      -9.112   5.243  71.169  1.00  0.00     0.000 HD 
HETATM   27  H2  UNL     1      -9.657   6.578  70.369  1.00  0.00     0.000 HD 
HETATM   28  N   UNL     1      -5.224   7.453  69.368  1.00  0.00    -0.015 NA 
HETATM   29  C   UNL     1      -6.219   8.303  69.664  1.00  0.00    -0.032 A  
ENDBRANCH  17  18
ENDBRANCH  15  17
ENDBRANCH  14  15
ENDBRANCH  13  14
ENDBRANCH  11  13
BRANCH  11  30
HETATM   30  O   UNL     1      -7.810  15.134  68.646  1.00  0.00    -0.125 OA 
BRANCH  30  31
HETATM   31  C   UNL     1      -7.699  16.370  68.034  1.00  0.00    -0.153 A  
HETATM   32  C   UNL     1      -8.042  17.485  68.799  1.00  0.00    -0.232 A  
HETATM   33  C   UNL     1      -7.243  17.832  66.152  1.00  0.00    -0.346 A  
HETATM   34  C   UNL     1      -7.291  16.546  66.708  1.00  0.00    -0.274 A  
HETATM   35  C   UNL     1      -7.606  18.941  66.915  1.00  0.00    -0.240 A  
HETATM   36  C   UNL     1      -8.006  18.766  68.237  1.00  0.00    -0.346 A  
ENDBRANCH  30  31
ENDBRANCH  11  30
ENDBRANCH   9  11
ENDBRANCH   7   9
ENDBRANCH   5   7
ENDBRANCH   4   5
ENDBRANCH   2   4
TORSDOF 12
ENDMDL
MODEL      405
REMARK 921   NORMALIZED FREE ENERGY PREDICTED BY IDOCK:   -2.63 KCAL/MOL
REMARK 922        TOTAL FREE ENERGY PREDICTED BY IDOCK:   -6.20 KCAL/MOL
REMARK 923 INTER-LIGAND FREE ENERGY PREDICTED BY IDOCK:   -5.63 KCAL/MOL
REMARK 924 INTRA-LIGAND FREE ENERGY PREDICTED BY IDOCK:   -0.56 KCAL/MOL
REMARK 927      BINDING AFFINITY PREDICTED BY RF-SCORE:    0.00 PKD
ROOT
HETATM    1  C   UNL     1     -10.181   6.826  73.796  1.00  0.00    -0.378 C  
HETATM    2  C   UNL     1     -10.854   7.124  72.454  1.00  0.00    -0.246 C  
HETATM    3  C   UNL     1     -12.054   6.194  72.227  1.00  0.00    -0.237 C  
ENDROOT
BRANCH   2   4
HETATM    4  O   UNL     1     -11.096   8.555  72.253  1.00  0.00    -0.342 OA 
BRANCH   4   5
HETATM    5  C   UNL     1     -10.312   9.251  71.394  1.00  0.00    -0.321 C  
HETATM    6  O   UNL     1      -9.106   9.426  71.578  1.00  0.00    -0.275 OA 
BRANCH   5   7
HETATM    7  C   UNL     1     -11.009   9.855  70.140  1.00  0.00    -0.301 C  
HETATM    8  C   UNL     1     -12.461  10.183  70.482  1.00  0.00    -0.304 C  
BRANCH   7   9
HETATM    9  N   UNL     1     -10.905   9.135  68.812  1.00  0.00    -0.420 NA 
HETATM   10  H   UNL     1     -11.825   8.994  68.395  1.00  0.00     0.000 HD 
BRANCH   9  11
HETATM   11  P   UNL     1      -9.817   9.959  67.698  1.00  0.00    -0.181 P  
HETATM   12  O   UNL     1     -10.865  11.026  67.299  1.00  0.00    -0.248 OA 
BRANCH  11  13
HETATM   13  C   UNL     1      -9.908   9.254  65.922  1.00  0.00    -0.265 C  
BRANCH  13  14
HETATM   14  O   UNL     1      -8.825   9.746  65.046  1.00  0.00    -0.164 OA 
BRANCH  14  15
HETATM   15  C   UNL     1      -9.111  10.253  63.714  1.00  0.00    -0.256 C  
HETATM   16  C   UNL     1     -10.519  10.860  63.679  1.00  0.00    -0.301 C  
BRANCH  15  17
HETATM   17  C   UNL     1      -8.817   9.279  62.582  1.00  0.00    -0.204 C  
BRANCH  17  18
HETATM   18  N   UNL     1      -7.739   8.361  62.824  1.00  0.00    -0.119 NA 
HETATM   19  C   UNL     1      -6.418   8.654  63.034  1.00  0.00    -0.090 A  
HETATM   20  N   UNL     1      -5.719   7.576  63.310  1.00  0.00    -0.048 NA 
HETATM   21  C   UNL     1      -6.634   6.549  63.251  1.00  0.00    -0.037 A  
HETATM   22  C   UNL     1      -6.506   5.173  63.463  1.00  0.00    -0.026 A  
HETATM   23  N   UNL     1      -7.584   4.381  63.262  1.00  0.00    -0.057 NA 
HETATM   24  N   UNL     1      -5.305   4.606  63.861  1.00  0.00    -0.012 NA 
HETATM   25  C   UNL     1      -8.744   4.969  62.912  1.00  0.00    -0.096 A  
HETATM   26  H1  UNL     1      -5.211   3.602  64.015  1.00  0.00     0.000 HD 
HETATM   27  H2  UNL     1      -5.000   5.083  64.710  1.00  0.00     0.000 HD 
HETATM   28  N   UNL     1      -9.002   6.282  62.716  1.00  0.00     0.499 NA 
HETATM   29  C   UNL     1      -7.889   7.007  62.908  1.00  0.00    -0.111 A  
ENDBRANCH  17  18
ENDBRANCH  15  17
ENDBRANCH  14  15
ENDBRANCH  13  14
ENDBRANCH  11  13
BRANCH  11  30
HETATM   30  O   UNL     1      -8.646   8.765  68.145  1.00  0.00    -0.132 OA 
BRANCH  30  31
HETATM   31  C   UNL     1      -9.016   7.444  67.971  1.00  0.00    -0.132 A  
HETATM   32  C   UNL     1      -8.524   6.796  66.838  1.00  0.00    -0.115 A  
HETATM   33  C   UNL     1     -10.215   5.423  68.576  1.00  0.00    -0.237 A  
HETATM   34  C   UNL     1      -9.858   6.751  68.847  1.00  0.00    -0.146 A  
HETATM   35  C   UNL     1      -9.737   4.786  67.431  1.00  0.00    -0.209 A  
HETATM   36  C   UNL     1      -8.893   5.474  66.564  1.00  0.00    -0.121 A  
ENDBRANCH  30  31
ENDBRANCH  11  30
ENDBRANCH   9  11
ENDBRANCH   7   9
ENDBRANCH   5   7
ENDBRANCH   4   5
ENDBRANCH   2   4
TORSDOF 12
ENDMDL
MODEL      406
REMARK 921   NORMALIZED FREE ENERGY PREDICTED BY IDOCK:   -2.62 KCAL/MOL
REMARK 922        TOTAL FREE ENERGY PREDICTED BY IDOCK:   -6.18 KCAL/MOL
REMARK 923 INTER-LIGAND FREE ENERGY PREDICTED BY IDOCK:   -5.01 KCAL/MOL
REMARK 924 INTRA-LIGAND FREE ENERGY PREDICTED BY IDOCK:   -1.17 KCAL/MOL
REMARK 927      BINDING AFFINITY PREDICTED BY RF-SCORE:    0.00 PKD
ROOT
HETATM    1  C   UNL     1      -6.556   8.552  73.022  1.00  0.00    -0.084 C  
HETATM    2  C   UNL     1      -6.042   8.449  71.584  1.00  0.00    -0.046 C  
HETATM    3  C   UNL     1      -5.200   9.678  71.216  1.00  0.00    -0.058 C  
ENDROOT
BRANCH   2   4
HETATM    4  O   UNL     1      -5.444   7.143  71.294  1.00  0.00    -0.027 OA 
BRANCH   4   5
HETATM    5  C   UNL     1      -5.996   6.351  70.342  1.00  0.00    -0.023 C  
HETATM    6  O   UNL     1      -5.462   6.144  69.250  1.00  0.00    -0.011 OA 
BRANCH   5   7
HETATM    7  C   UNL     1      -7.372   5.708  70.675  1.00  0.00    -0.083 C  
HETATM    8  C   UNL     1      -7.156   4.267  71.137  1.00  0.00    -0.036 C  
BRANCH   7   9
HETATM    9  N   UNL     1      -8.500   5.800  69.669  1.00  0.00    -0.111 NA 
HETATM   10  H   UNL     1      -9.163   5.033  69.784  1.00  0.00     0.000 HD 
BRANCH   9  11
HETATM   11  P   UNL     1      -9.313   7.361  69.728  1.00  0.00    -0.143 P  
HETATM   12  O   UNL     1      -8.927   7.624  71.204  1.00  0.00    -0.136 OA 
BRANCH  11  13
HETATM   13  C   UNL     1     -11.143   7.221  70.267  1.00  0.00    -0.266 C  
BRANCH  13  14
HETATM   14  O   UNL     1     -11.888   8.489  70.129  1.00  0.00     0.069 OA 
BRANCH  14  15
HETATM   15  C   UNL     1     -12.281   9.257  71.299  1.00  0.00    -0.334 C  
HETATM   16  C   UNL     1     -12.629   8.308  72.453  1.00  0.00    -0.323 C  
BRANCH  15  17
HETATM   17  C   UNL     1     -13.323  10.336  71.035  1.00  0.00    -0.225 C  
BRANCH  17  18
HETATM   18  N   UNL     1     -12.797  11.627  70.688  1.00  0.00    -0.114 NA 
HETATM   19  C   UNL     1     -12.620  12.709  71.508  1.00  0.00    -0.151 A  
HETATM   20  N   UNL     1     -12.034  13.704  70.878  1.00  0.00    -0.239 NA 
HETATM   21  C   UNL     1     -11.852  13.239  69.595  1.00  0.00    -0.327 A  
HETATM   22  C   UNL     1     -11.272  13.823  68.466  1.00  0.00    -0.275 A  
HETATM   23  N   UNL     1     -11.296  13.142  67.297  1.00  0.00    -0.291 NA 
HETATM   24  N   UNL     1     -10.685  15.079  68.515  1.00  0.00    -0.237 NA 
HETATM   25  C   UNL     1     -11.839  11.911  67.294  1.00  0.00    -0.148 A  
HETATM   26  H1  UNL     1     -10.262  15.505  67.690  1.00  0.00     0.000 HD 
HETATM   27  H2  UNL     1      -9.985  15.068  69.256  1.00  0.00     0.000 HD 
HETATM   28  N   UNL     1     -12.392  11.227  68.321  1.00  0.00    -0.327 NA 
HETATM   29  C   UNL     1     -12.358  11.964  69.441  1.00  0.00     0.003 A  
ENDBRANCH  17  18
ENDBRANCH  15  17
ENDBRANCH  14  15
ENDBRANCH  13  14
ENDBRANCH  11  13
BRANCH  11  30
HETATM   30  O   UNL     1      -9.744   7.068  68.078  1.00  0.00    -0.128 OA 
BRANCH  30  31
HETATM   31  C   UNL     1      -9.313   8.002  67.153  1.00  0.00    -0.149 A  
HETATM   32  C   UNL     1      -8.759   7.508  65.971  1.00  0.00    -0.178 A  
HETATM   33  C   UNL     1      -8.888  10.262  66.380  1.00  0.00    -0.158 A  
HETATM   34  C   UNL     1      -9.384   9.384  67.353  1.00  0.00    -0.151 A  
HETATM   35  C   UNL     1      -8.317   9.764  65.210  1.00  0.00    -0.146 A  
HETATM   36  C   UNL     1      -8.253   8.388  65.007  1.00  0.00    -0.155 A  
ENDBRANCH  30  31
ENDBRANCH  11  30
ENDBRANCH   9  11
ENDBRANCH   7   9
ENDBRANCH   5   7
ENDBRANCH   4   5
ENDBRANCH   2   4
TORSDOF 12
ENDMDL
MODEL      407
REMARK 921   NORMALIZED FREE ENERGY PREDICTED BY IDOCK:   -2.52 KCAL/MOL
REMARK 922        TOTAL FREE ENERGY PREDICTED BY IDOCK:   -6.00 KCAL/MOL
REMARK 923 INTER-LIGAND FREE ENERGY PREDICTED BY IDOCK:   -5.76 KCAL/MOL
REMARK 924 INTRA-LIGAND FREE ENERGY PREDICTED BY IDOCK:   -0.24 KCAL/MOL
REMARK 927      BINDING AFFINITY PREDICTED BY RF-SCORE:    0.00 PKD
ROOT
HETATM    1  C   UNL     1      -6.850   9.088  72.951  1.00  0.00     0.300 C  
HETATM    2  C   UNL     1      -6.193   9.137  71.569  1.00  0.00    -0.069 C  
HETATM    3  C   UNL     1      -5.233  10.330  71.463  1.00  0.00    -0.068 C  
ENDROOT
BRANCH   2   4
HETATM    4  O   UNL     1      -5.660   7.836  71.155  1.00  0.00    -0.034 OA 
BRANCH   4   5
HETATM    5  C   UNL     1      -6.025   7.313  69.958  1.00  0.00    -0.024 C  
HETATM    6  O   UNL     1      -5.226   7.112  69.042  1.00  0.00    -0.014 OA 
BRANCH   5   7
HETATM    7  C   UNL     1      -7.533   6.983  69.769  1.00  0.00    -0.098 C  
HETATM    8  C   UNL     1      -7.755   5.490  70.011  1.00  0.00    -0.078 C  
BRANCH   7   9
HETATM    9  N   UNL     1      -8.247   7.449  68.517  1.00  0.00    -0.124 NA 
HETATM   10  H   UNL     1      -9.008   6.817  68.268  1.00  0.00     0.000 HD 
BRANCH   9  11
HETATM   11  P   UNL     1      -8.816   9.109  68.662  1.00  0.00    -0.133 P  
HETATM   12  O   UNL     1      -8.918   9.052  70.206  1.00  0.00    -0.164 OA 
BRANCH  11  13
HETATM   13  C   UNL     1     -10.722   9.246  68.575  1.00  0.00    -0.142 C  
BRANCH  13  14
HETATM   14  O   UNL     1     -11.191  10.597  68.204  1.00  0.00    -0.270 OA 
BRANCH  14  15
HETATM   15  C   UNL     1     -11.452  11.604  69.220  1.00  0.00    -0.300 C  
HETATM   16  C   UNL     1     -11.652  10.929  70.583  1.00  0.00    -0.341 C  
BRANCH  15  17
HETATM   17  C   UNL     1     -12.527  12.618  68.856  1.00  0.00     0.477 C  
BRANCH  17  18
HETATM   18  N   UNL     1     -12.111  13.658  67.956  1.00  0.00    -0.334 NA 
HETATM   19  C   UNL     1     -11.591  14.884  68.272  1.00  0.00    -0.334 A  
HETATM   20  N   UNL     1     -11.239  15.555  67.198  1.00  0.00    -0.260 NA 
HETATM   21  C   UNL     1     -11.571  14.725  66.151  1.00  0.00    -0.292 A  
HETATM   22  C   UNL     1     -11.430  14.867  64.768  1.00  0.00    -0.410 A  
HETATM   23  N   UNL     1     -11.921  13.898  63.961  1.00  0.00    -0.426 NA 
HETATM   24  N   UNL     1     -10.812  15.975  64.208  1.00  0.00    -0.879 NA 
HETATM   25  C   UNL     1     -12.481  12.819  64.538  1.00  0.00    -0.428 A  
HETATM   26  H1  UNL     1     -10.709  16.080  63.199  1.00  0.00     0.000 HD 
HETATM   27  H2  UNL     1      -9.886  16.062  64.628  1.00  0.00     0.000 HD 
HETATM   28  N   UNL     1     -12.641  12.550  65.853  1.00  0.00    -0.381 NA 
HETATM   29  C   UNL     1     -12.155  13.556  66.596  1.00  0.00    -0.396 A  
ENDBRANCH  17  18
ENDBRANCH  15  17
ENDBRANCH  14  15
ENDBRANCH  13  14
ENDBRANCH  11  13
BRANCH  11  30
HETATM   30  O   UNL     1      -8.702   9.174  66.936  1.00  0.00    -0.121 OA 
BRANCH  30  31
HETATM   31  C   UNL     1      -7.826   8.282  66.343  1.00  0.00    -0.095 A  
HETATM   32  C   UNL     1      -6.471   8.615  66.376  1.00  0.00    -0.062 A  
HETATM   33  C   UNL     1      -7.277   6.273  65.099  1.00  0.00    -0.070 A  
HETATM   34  C   UNL     1      -8.229   7.103  65.709  1.00  0.00    -0.132 A  
HETATM   35  C   UNL     1      -5.928   6.620  65.116  1.00  0.00    -0.034 A  
HETATM   36  C   UNL     1      -5.526   7.790  65.753  1.00  0.00    -0.029 A  
ENDBRANCH  30  31
ENDBRANCH  11  30
ENDBRANCH   9  11
ENDBRANCH   7   9
ENDBRANCH   5   7
ENDBRANCH   4   5
ENDBRANCH   2   4
TORSDOF 12
ENDMDL
MODEL      408
REMARK 921   NORMALIZED FREE ENERGY PREDICTED BY IDOCK:   -2.52 KCAL/MOL
REMARK 922        TOTAL FREE ENERGY PREDICTED BY IDOCK:   -6.00 KCAL/MOL
REMARK 923 INTER-LIGAND FREE ENERGY PREDICTED BY IDOCK:   -6.45 KCAL/MOL
REMARK 924 INTRA-LIGAND FREE ENERGY PREDICTED BY IDOCK:    0.46 KCAL/MOL
REMARK 927      BINDING AFFINITY PREDICTED BY RF-SCORE:    0.00 PKD
ROOT
HETATM    1  C   UNL     1     -12.872  14.271  65.134  1.00  0.00    -0.259 C  
HETATM    2  C   UNL     1     -12.088  12.997  65.457  1.00  0.00    -0.452 C  
HETATM    3  C   UNL     1     -12.198  11.982  64.310  1.00  0.00    -0.404 C  
ENDROOT
BRANCH   2   4
HETATM    4  O   UNL     1     -10.737  13.278  65.947  1.00  0.00    -0.271 OA 
BRANCH   4   5
HETATM    5  C   UNL     1     -10.026  12.295  66.554  1.00  0.00    -0.220 C  
HETATM    6  O   UNL     1      -9.403  11.436  65.928  1.00  0.00    -0.219 OA 
BRANCH   5   7
HETATM    7  C   UNL     1     -10.039  12.278  68.109  1.00  0.00    -0.211 C  
HETATM    8  C   UNL     1     -10.505  13.639  68.624  1.00  0.00    -0.242 C  
BRANCH   7   9
HETATM    9  N   UNL     1      -8.815  11.796  68.859  1.00  0.00    -0.378 NA 
HETATM   10  H   UNL     1      -8.828  12.109  69.829  1.00  0.00     0.000 HD 
BRANCH   9  11
HETATM   11  P   UNL     1      -8.622  10.048  68.753  1.00  0.00    -0.148 P  
HETATM   12  O   UNL     1     -10.129   9.763  68.965  1.00  0.00    -0.171 OA 
BRANCH  11  13
HETATM   13  C   UNL     1      -8.266   9.242  70.450  1.00  0.00    -0.178 C  
BRANCH  13  14
HETATM   14  O   UNL     1      -9.244   8.196  70.813  1.00  0.00    -0.146 OA 
BRANCH  14  15
HETATM   15  C   UNL     1      -9.876   8.183  72.122  1.00  0.00    -0.246 C  
HETATM   16  C   UNL     1      -8.803   8.196  73.218  1.00  0.00    -0.324 C  
BRANCH  15  17
HETATM   17  C   UNL     1     -10.949   7.119  72.305  1.00  0.00    -0.243 C  
BRANCH  17  18
HETATM   18  N   UNL     1     -10.584   5.797  71.876  1.00  0.00    -0.225 NA 
HETATM   19  C   UNL     1     -10.426   5.344  70.593  1.00  0.00    -0.259 A  
HETATM   20  N   UNL     1     -10.003   4.100  70.566  1.00  0.00    -0.173 NA 
HETATM   21  C   UNL     1      -9.909   3.740  71.892  1.00  0.00    -0.178 A  
HETATM   22  C   UNL     1      -9.504   2.553  72.508  1.00  0.00    -0.096 A  
HETATM   23  N   UNL     1      -9.584   2.461  73.856  1.00  0.00    -0.083 NA 
HETATM   24  N   UNL     1      -9.036   1.474  71.775  1.00  0.00    -0.062 NA 
HETATM   25  C   UNL     1     -10.007   3.541  74.540  1.00  0.00    -0.152 A  
HETATM   26  H1  UNL     1      -8.740   0.607  72.225  1.00  0.00     0.000 HD 
HETATM   27  H2  UNL     1      -8.265   1.802  71.193  1.00  0.00     0.000 HD 
HETATM   28  N   UNL     1     -10.387   4.748  74.064  1.00  0.00    -0.226 NA 
HETATM   29  C   UNL     1     -10.307   4.765  72.725  1.00  0.00    -0.192 A  
ENDBRANCH  17  18
ENDBRANCH  15  17
ENDBRANCH  14  15
ENDBRANCH  13  14
ENDBRANCH  11  13
BRANCH  11  30
HETATM   30  O   UNL     1      -6.937  10.367  68.516  1.00  0.00    -0.060 OA 
BRANCH  30  31
HETATM   31  C   UNL     1      -6.505  11.647  68.814  1.00  0.00    -0.064 A  
HETATM   32  C   UNL     1      -6.256  11.931  70.157  1.00  0.00    -0.087 A  
HETATM   33  C   UNL     1      -5.927  13.935  68.248  1.00  0.00    -0.117 A  
HETATM   34  C   UNL     1      -6.332  12.651  67.856  1.00  0.00    -0.111 A  
HETATM   35  C   UNL     1      -5.699  14.219  69.593  1.00  0.00    -0.100 A  
HETATM   36  C   UNL     1      -5.865  13.218  70.546  1.00  0.00    -0.154 A  
ENDBRANCH  30  31
ENDBRANCH  11  30
ENDBRANCH   9  11
ENDBRANCH   7   9
ENDBRANCH   5   7
ENDBRANCH   4   5
ENDBRANCH   2   4
TORSDOF 12
ENDMDL
MODEL      409
REMARK 921   NORMALIZED FREE ENERGY PREDICTED BY IDOCK:   -2.45 KCAL/MOL
REMARK 922        TOTAL FREE ENERGY PREDICTED BY IDOCK:   -5.89 KCAL/MOL
REMARK 923 INTER-LIGAND FREE ENERGY PREDICTED BY IDOCK:   -4.72 KCAL/MOL
REMARK 924 INTRA-LIGAND FREE ENERGY PREDICTED BY IDOCK:   -1.18 KCAL/MOL
REMARK 927      BINDING AFFINITY PREDICTED BY RF-SCORE:    0.00 PKD
ROOT
HETATM    1  C   UNL     1     -13.120  14.460  64.674  1.00  0.00     0.559 C  
HETATM    2  C   UNL     1     -12.235  13.246  64.966  1.00  0.00    -0.432 C  
HETATM    3  C   UNL     1     -12.120  12.344  63.729  1.00  0.00    -0.618 C  
ENDROOT
BRANCH   2   4
HETATM    4  O   UNL     1     -10.977  13.613  65.621  1.00  0.00    -0.287 OA 
BRANCH   4   5
HETATM    5  C   UNL     1     -10.197  12.645  66.162  1.00  0.00    -0.258 C  
HETATM    6  O   UNL     1      -9.513  11.878  65.483  1.00  0.00    -0.220 OA 
BRANCH   5   7
HETATM    7  C   UNL     1     -10.209  12.520  67.713  1.00  0.00    -0.217 C  
HETATM    8  C   UNL     1     -10.539  13.880  68.325  1.00  0.00    -0.263 C  
BRANCH   7   9
HETATM    9  N   UNL     1      -9.036  11.870  68.416  1.00  0.00    -0.238 NA 
HETATM   10  H   UNL     1      -8.922  12.236  69.362  1.00  0.00     0.000 HD 
BRANCH   9  11
HETATM   11  P   UNL     1      -9.159  10.113  68.422  1.00  0.00    -0.142 P  
HETATM   12  O   UNL     1     -10.705  10.117  68.513  1.00  0.00    -0.207 OA 
BRANCH  11  13
HETATM   13  C   UNL     1      -9.092   9.375  70.185  1.00  0.00    -0.231 C  
BRANCH  13  14
HETATM   14  O   UNL     1      -9.492   7.953  70.234  1.00  0.00    -0.163 OA 
BRANCH  14  15
HETATM   15  C   UNL     1     -10.685   7.536  70.951  1.00  0.00    -0.235 C  
HETATM   16  C   UNL     1     -10.907   8.444  72.167  1.00  0.00    -0.407 C  
BRANCH  15  17
HETATM   17  C   UNL     1     -10.761   6.046  71.256  1.00  0.00    -0.263 C  
BRANCH  17  18
HETATM   18  N   UNL     1      -9.511   5.422  71.588  1.00  0.00    -0.146 NA 
HETATM   19  C   UNL     1      -8.853   5.445  72.789  1.00  0.00    -0.122 A  
HETATM   20  N   UNL     1      -7.774   4.694  72.766  1.00  0.00    -0.086 NA 
HETATM   21  C   UNL     1      -7.734   4.189  71.486  1.00  0.00    -0.065 A  
HETATM   22  C   UNL     1      -6.839   3.320  70.855  1.00  0.00    -0.033 A  
HETATM   23  N   UNL     1      -7.014   3.049  69.540  1.00  0.00    -0.040 NA 
HETATM   24  N   UNL     1      -5.780   2.742  71.537  1.00  0.00    -0.012 NA 
HETATM   25  C   UNL     1      -8.075   3.598  68.918  1.00  0.00    -0.061 A  
HETATM   26  H1  UNL     1      -5.127   2.108  71.076  1.00  0.00     0.000 HD 
HETATM   27  H2  UNL     1      -6.159   2.262  72.354  1.00  0.00     0.000 HD 
HETATM   28  N   UNL     1      -9.024   4.416  69.425  1.00  0.00    -0.091 NA 
HETATM   29  C   UNL     1      -8.780   4.662  70.721  1.00  0.00    -0.104 A  
ENDBRANCH  17  18
ENDBRANCH  15  17
ENDBRANCH  14  15
ENDBRANCH  13  14
ENDBRANCH  11  13
BRANCH  11  30
HETATM   30  O   UNL     1      -7.432  10.109  68.320  1.00  0.00    -0.081 OA 
BRANCH  30  31
HETATM   31  C   UNL     1      -6.833   8.889  68.062  1.00  0.00    -0.070 A  
HETATM   32  C   UNL     1      -5.987   8.381  69.049  1.00  0.00    -0.043 A  
HETATM   33  C   UNL     1      -6.339   6.957  66.680  1.00  0.00    -0.046 A  
HETATM   34  C   UNL     1      -7.016   8.169  66.877  1.00  0.00    -0.074 A  
HETATM   35  C   UNL     1      -5.479   6.464  67.660  1.00  0.00    -0.005 A  
HETATM   36  C   UNL     1      -5.303   7.177  68.842  1.00  0.00    -0.018 A  
ENDBRANCH  30  31
ENDBRANCH  11  30
ENDBRANCH   9  11
ENDBRANCH   7   9
ENDBRANCH   5   7
ENDBRANCH   4   5
ENDBRANCH   2   4
TORSDOF 12
ENDMDL
MODEL      410
REMARK 921   NORMALIZED FREE ENERGY PREDICTED BY IDOCK:   -2.36 KCAL/MOL
REMARK 922        TOTAL FREE ENERGY PREDICTED BY IDOCK:   -5.74 KCAL/MOL
REMARK 923 INTER-LIGAND FREE ENERGY PREDICTED BY IDOCK:   -4.74 KCAL/MOL
REMARK 924 INTRA-LIGAND FREE ENERGY PREDICTED BY IDOCK:   -0.99 KCAL/MOL
REMARK 927      BINDING AFFINITY PREDICTED BY RF-SCORE:    0.00 PKD
ROOT
HETATM    1  C   UNL     1      -7.686  16.742  66.818  1.00  0.00    -0.285 C  
HETATM    2  C   UNL     1      -7.079  15.484  67.442  1.00  0.00    -0.202 C  
HETATM    3  C   UNL     1      -5.693  15.781  68.031  1.00  0.00    -0.141 C  
ENDROOT
BRANCH   2   4
HETATM    4  O   UNL     1      -8.019  14.782  68.320  1.00  0.00    -0.119 OA 
BRANCH   4   5
HETATM    5  C   UNL     1      -7.648  13.616  68.903  1.00  0.00    -0.016 C  
HETATM    6  O   UNL     1      -6.860  13.562  69.850  1.00  0.00     0.064 OA 
BRANCH   5   7
HETATM    7  C   UNL     1      -8.251  12.311  68.310  1.00  0.00    -0.167 C  
HETATM    8  C   UNL     1      -8.806  12.601  66.916  1.00  0.00    -0.201 C  
BRANCH   7   9
HETATM    9  N   UNL     1      -9.230  11.502  69.135  1.00  0.00    -0.390 NA 
HETATM   10  H   UNL     1     -10.071  11.283  68.601  1.00  0.00     0.000 HD 
BRANCH   9  11
HETATM   11  P   UNL     1      -8.493  10.044  69.793  1.00  0.00    -0.057 P  
HETATM   12  O   UNL     1      -7.175  10.226  69.000  1.00  0.00    -0.068 OA 
BRANCH  11  13
HETATM   13  C   UNL     1      -8.869   8.489  68.744  1.00  0.00    -0.139 C  
BRANCH  13  14
HETATM   14  O   UNL     1      -8.824   8.745  67.289  1.00  0.00    -0.130 OA 
BRANCH  14  15
HETATM   15  C   UNL     1      -7.894   8.029  66.432  1.00  0.00    -0.097 C  
HETATM   16  C   UNL     1      -7.002   9.026  65.683  1.00  0.00    -0.080 C  
BRANCH  15  17
HETATM   17  C   UNL     1      -8.530   6.965  65.547  1.00  0.00    -0.116 C  
BRANCH  17  18
HETATM   18  N   UNL     1      -7.863   5.692  65.541  1.00  0.00    -0.096 NA 
HETATM   19  C   UNL     1      -6.810   5.300  64.759  1.00  0.00    -0.049 A  
HETATM   20  N   UNL     1      -6.392   4.094  65.075  1.00  0.00    -0.033 NA 
HETATM   21  C   UNL     1      -7.233   3.695  66.090  1.00  0.00    -0.068 A  
HETATM   22  C   UNL     1      -7.287   2.522  66.848  1.00  0.00    -0.061 A  
HETATM   23  N   UNL     1      -8.287   2.375  67.748  1.00  0.00    -0.065 NA 
HETATM   24  N   UNL     1      -6.353   1.510  66.692  1.00  0.00    -0.020 NA 
HETATM   25  C   UNL     1      -9.155   3.393  67.900  1.00  0.00    -0.163 A  
HETATM   26  H1  UNL     1      -6.392   0.653  67.245  1.00  0.00     0.000 HD 
HETATM   27  H2  UNL     1      -5.426   1.918  66.814  1.00  0.00     0.000 HD 
HETATM   28  N   UNL     1      -9.184   4.583  67.259  1.00  0.00    -0.128 NA 
HETATM   29  C   UNL     1      -8.184   4.655  66.368  1.00  0.00    -0.107 A  
ENDBRANCH  17  18
ENDBRANCH  15  17
ENDBRANCH  14  15
ENDBRANCH  13  14
ENDBRANCH  11  13
BRANCH  11  30
HETATM   30  O   UNL     1      -9.965   9.841  70.679  1.00  0.00    -0.262 OA 
BRANCH  30  31
HETATM   31  C   UNL     1     -10.121   8.639  71.347  1.00  0.00    -0.254 A  
HETATM   32  C   UNL     1     -11.318   7.953  71.137  1.00  0.00    -0.289 A  
HETATM   33  C   UNL     1      -9.422   6.899  72.886  1.00  0.00    -0.161 A  
HETATM   34  C   UNL     1      -9.167   8.105  72.218  1.00  0.00    -0.266 A  
HETATM   35  C   UNL     1     -10.627   6.227  72.689  1.00  0.00    -0.243 A  
HETATM   36  C   UNL     1     -11.574   6.756  71.816  1.00  0.00    -0.336 A  
ENDBRANCH  30  31
ENDBRANCH  11  30
ENDBRANCH   9  11
ENDBRANCH   7   9
ENDBRANCH   5   7
ENDBRANCH   4   5
ENDBRANCH   2   4
TORSDOF 12
ENDMDL
MODEL      411
REMARK 921   NORMALIZED FREE ENERGY PREDICTED BY IDOCK:   -2.24 KCAL/MOL
REMARK 922        TOTAL FREE ENERGY PREDICTED BY IDOCK:   -5.53 KCAL/MOL
REMARK 923 INTER-LIGAND FREE ENERGY PREDICTED BY IDOCK:   -6.50 KCAL/MOL
REMARK 924 INTRA-LIGAND FREE ENERGY PREDICTED BY IDOCK:    0.97 KCAL/MOL
REMARK 927      BINDING AFFINITY PREDICTED BY RF-SCORE:    0.00 PKD
ROOT
HETATM    1  C   UNL     1     -10.977   5.473  67.041  1.00  0.00    -0.038 C  
HETATM    2  C   UNL     1      -9.618   5.560  67.739  1.00  0.00    -0.123 C  
HETATM    3  C   UNL     1      -8.816   4.267  67.535  1.00  0.00    -0.122 C  
ENDROOT
BRANCH   2   4
HETATM    4  O   UNL     1      -8.915   6.812  67.446  1.00  0.00    -0.116 OA 
BRANCH   4   5
HETATM    5  C   UNL     1      -7.722   7.064  68.037  1.00  0.00    -0.113 C  
HETATM    6  O   UNL     1      -7.413   6.612  69.142  1.00  0.00    -0.090 OA 
BRANCH   5   7
HETATM    7  C   UNL     1      -6.735   7.983  67.262  1.00  0.00    -0.065 C  
HETATM    8  C   UNL     1      -5.658   8.487  68.222  1.00  0.00    -0.035 C  
BRANCH   7   9
HETATM    9  N   UNL     1      -7.280   9.108  66.407  1.00  0.00    -0.090 NA 
HETATM   10  H   UNL     1      -8.273   8.979  66.215  1.00  0.00     0.000 HD 
BRANCH   9  11
HETATM   11  P   UNL     1      -6.967  10.689  67.117  1.00  0.00    -0.099 P  
HETATM   12  O   UNL     1      -7.735  10.371  68.423  1.00  0.00    -0.093 OA 
BRANCH  11  13
HETATM   13  C   UNL     1      -8.313  11.975  66.678  1.00  0.00    -0.085 C  
BRANCH  13  14
HETATM   14  O   UNL     1      -9.650  11.615  67.195  1.00  0.00    -0.174 OA 
BRANCH  14  15
HETATM   15  C   UNL     1     -10.810  11.598  66.320  1.00  0.00    -0.286 C  
HETATM   16  C   UNL     1     -10.379  11.255  64.888  1.00  0.00    -0.362 C  
BRANCH  15  17
HETATM   17  C   UNL     1     -11.713  12.818  66.430  1.00  0.00    -0.403 C  
BRANCH  17  18
HETATM   18  N   UNL     1     -11.090  14.075  66.118  1.00  0.00    -0.299 NA 
HETATM   19  C   UNL     1     -10.484  14.443  64.947  1.00  0.00    -0.423 A  
HETATM   20  N   UNL     1     -10.094  15.699  64.976  1.00  0.00    -0.400 NA 
HETATM   21  C   UNL     1     -10.451  16.140  66.230  1.00  0.00    -0.315 A  
HETATM   22  C   UNL     1     -10.318  17.384  66.853  1.00  0.00    -0.317 A  
HETATM   23  N   UNL     1     -10.703  17.509  68.145  1.00  0.00    -0.368 NA 
HETATM   24  N   UNL     1      -9.795  18.481  66.186  1.00  0.00    -0.502 NA 
HETATM   25  C   UNL     1     -11.241  16.434  68.751  1.00  0.00    -0.313 A  
HETATM   26  H1  UNL     1      -9.697  19.390  66.640  1.00  0.00     0.000 HD 
HETATM   27  H2  UNL     1     -10.337  18.615  65.332  1.00  0.00     0.000 HD 
HETATM   28  N   UNL     1     -11.456  15.198  68.247  1.00  0.00    -0.325 NA 
HETATM   29  C   UNL     1     -11.033  15.135  66.975  1.00  0.00    -0.322 A  
ENDBRANCH  17  18
ENDBRANCH  15  17
ENDBRANCH  14  15
ENDBRANCH  13  14
ENDBRANCH  11  13
BRANCH  11  30
HETATM   30  O   UNL     1      -6.107  11.044  65.657  1.00  0.00    -0.092 OA 
BRANCH  30  31
HETATM   31  C   UNL     1      -6.186  10.097  64.651  1.00  0.00    -0.130 A  
HETATM   32  C   UNL     1      -5.178   9.132  64.615  1.00  0.00    -0.049 A  
HETATM   33  C   UNL     1      -7.174   9.103  62.671  1.00  0.00    -0.097 A  
HETATM   34  C   UNL     1      -7.191  10.076  63.680  1.00  0.00    -0.128 A  
HETATM   35  C   UNL     1      -6.154   8.154  62.627  1.00  0.00    -0.082 A  
HETATM   36  C   UNL     1      -5.157   8.170  63.598  1.00  0.00    -0.041 A  
ENDBRANCH  30  31
ENDBRANCH  11  30
ENDBRANCH   9  11
ENDBRANCH   7   9
ENDBRANCH   5   7
ENDBRANCH   4   5
ENDBRANCH   2   4
TORSDOF 12
ENDMDL
MODEL      412
REMARK 921   NORMALIZED FREE ENERGY PREDICTED BY IDOCK:   -2.21 KCAL/MOL
REMARK 922        TOTAL FREE ENERGY PREDICTED BY IDOCK:   -5.47 KCAL/MOL
REMARK 923 INTER-LIGAND FREE ENERGY PREDICTED BY IDOCK:   -7.62 KCAL/MOL
REMARK 924 INTRA-LIGAND FREE ENERGY PREDICTED BY IDOCK:    2.14 KCAL/MOL
REMARK 927      BINDING AFFINITY PREDICTED BY RF-SCORE:    0.00 PKD
ROOT
HETATM    1  C   UNL     1      -5.474  14.616  71.586  1.00  0.00    -0.083 C  
HETATM    2  C   UNL     1      -6.181  14.027  70.364  1.00  0.00    -0.129 C  
HETATM    3  C   UNL     1      -6.354  15.088  69.268  1.00  0.00    -0.116 C  
ENDROOT
BRANCH   2   4
HETATM    4  O   UNL     1      -5.602  12.748  69.943  1.00  0.00    -0.093 OA 
BRANCH   4   5
HETATM    5  C   UNL     1      -6.193  11.588  70.324  1.00  0.00    -0.089 C  
HETATM    6  O   UNL     1      -6.179  11.180  71.486  1.00  0.00     0.152 OA 
BRANCH   5   7
HETATM    7  C   UNL     1      -6.894  10.759  69.210  1.00  0.00    -0.092 C  
HETATM    8  C   UNL     1      -6.576  11.376  67.848  1.00  0.00    -0.059 C  
BRANCH   7   9
HETATM    9  N   UNL     1      -8.368  10.436  69.337  1.00  0.00    -0.247 NA 
HETATM   10  H   UNL     1      -8.944  11.163  68.913  1.00  0.00     0.000 HD 
BRANCH   9  11
HETATM   11  P   UNL     1      -8.755   8.849  68.679  1.00  0.00    -0.134 P  
HETATM   12  O   UNL     1      -7.880   9.042  67.417  1.00  0.00    -0.099 OA 
BRANCH  11  13
HETATM   13  C   UNL     1     -10.309   8.873  67.563  1.00  0.00    -0.263 C  
BRANCH  13  14
HETATM   14  O   UNL     1     -10.421  10.101  66.750  1.00  0.00    -0.232 OA 
BRANCH  14  15
HETATM   15  C   UNL     1     -10.406  10.040  65.298  1.00  0.00     0.012 C  
HETATM   16  C   UNL     1      -9.002   9.670  64.805  1.00  0.00    -0.268 C  
BRANCH  15  17
HETATM   17  C   UNL     1     -11.020  11.247  64.601  1.00  0.00    -0.211 C  
BRANCH  17  18
HETATM   18  N   UNL     1     -10.649  12.525  65.142  1.00  0.00    -0.285 NA 
HETATM   19  C   UNL     1      -9.696  12.791  66.089  1.00  0.00    -0.246 A  
HETATM   20  N   UNL     1      -9.558  14.083  66.289  1.00  0.00    -0.284 NA 
HETATM   21  C   UNL     1     -10.479  14.662  65.446  1.00  0.00    -0.380 A  
HETATM   22  C   UNL     1     -10.800  15.998  65.193  1.00  0.00    -0.395 A  
HETATM   23  N   UNL     1     -11.820  16.273  64.347  1.00  0.00    -0.516 NA 
HETATM   24  N   UNL     1     -10.108  17.040  65.791  1.00  0.00    -0.566 NA 
HETATM   25  C   UNL     1     -12.446  15.239  63.754  1.00  0.00     0.548 A  
HETATM   26  H1  UNL     1     -10.342  18.016  65.606  1.00  0.00     0.000 HD 
HETATM   27  H2  UNL     1      -9.116  16.913  65.590  1.00  0.00     0.000 HD 
HETATM   28  N   UNL     1     -12.204  13.915  63.887  1.00  0.00    -0.629 NA 
HETATM   29  C   UNL     1     -11.200  13.711  64.753  1.00  0.00    -0.360 A  
ENDBRANCH  17  18
ENDBRANCH  15  17
ENDBRANCH  14  15
ENDBRANCH  13  14
ENDBRANCH  11  13
BRANCH  11  30
HETATM   30  O   UNL     1      -9.734   8.633  70.090  1.00  0.00    -0.167 OA 
BRANCH  30  31
HETATM   31  C   UNL     1     -10.697   9.598  70.326  1.00  0.00    -0.281 A  
HETATM   32  C   UNL     1     -11.605   9.343  71.354  1.00  0.00    -0.451 A  
HETATM   33  C   UNL     1     -11.842  11.687  69.865  1.00  0.00    -0.434 A  
HETATM   34  C   UNL     1     -10.811  10.778  69.585  1.00  0.00    -0.294 A  
HETATM   35  C   UNL     1     -12.760  11.418  70.879  1.00  0.00    -0.397 A  
HETATM   36  C   UNL     1     -12.641  10.246  71.621  1.00  0.00    -0.534 A  
ENDBRANCH  30  31
ENDBRANCH  11  30
ENDBRANCH   9  11
ENDBRANCH   7   9
ENDBRANCH   5   7
ENDBRANCH   4   5
ENDBRANCH   2   4
TORSDOF 12
ENDMDL
MODEL      413
REMARK 921   NORMALIZED FREE ENERGY PREDICTED BY IDOCK:   -2.21 KCAL/MOL
REMARK 922        TOTAL FREE ENERGY PREDICTED BY IDOCK:   -5.47 KCAL/MOL
REMARK 923 INTER-LIGAND FREE ENERGY PREDICTED BY IDOCK:   -5.95 KCAL/MOL
REMARK 924 INTRA-LIGAND FREE ENERGY PREDICTED BY IDOCK:    0.48 KCAL/MOL
REMARK 927      BINDING AFFINITY PREDICTED BY RF-SCORE:    0.00 PKD
ROOT
HETATM    1  C   UNL     1      -6.961  14.643  67.597  1.00  0.00    -0.205 C  
HETATM    2  C   UNL     1      -6.967  13.113  67.547  1.00  0.00    -0.149 C  
HETATM    3  C   UNL     1      -5.546  12.567  67.354  1.00  0.00    -0.112 C  
ENDROOT
BRANCH   2   4
HETATM    4  O   UNL     1      -7.748  12.519  68.636  1.00  0.00    -0.120 OA 
BRANCH   4   5
HETATM    5  C   UNL     1      -7.399  11.303  69.124  1.00  0.00    -0.104 C  
HETATM    6  O   UNL     1      -6.447  11.136  69.888  1.00  0.00    -0.124 OA 
BRANCH   5   7
HETATM    7  C   UNL     1      -8.255  10.090  68.660  1.00  0.00    -0.111 C  
HETATM    8  C   UNL     1      -8.763  10.345  67.242  1.00  0.00    -0.125 C  
BRANCH   7   9
HETATM    9  N   UNL     1      -9.360   9.572  69.556  1.00  0.00    -0.177 NA 
HETATM   10  H   UNL     1     -10.180   9.300  69.013  1.00  0.00     0.000 HD 
BRANCH   9  11
HETATM   11  P   UNL     1      -8.811   8.254  70.587  1.00  0.00    -0.158 P  
HETATM   12  O   UNL     1      -8.069   7.525  69.440  1.00  0.00    -0.124 OA 
BRANCH  11  13
HETATM   13  C   UNL     1     -10.057   6.804  70.657  1.00  0.00    -0.187 C  
BRANCH  13  14
HETATM   14  O   UNL     1     -10.851   6.661  69.420  1.00  0.00    -0.244 OA 
BRANCH  14  15
HETATM   15  C   UNL     1     -10.213   6.343  68.153  1.00  0.00    -0.167 C  
HETATM   16  C   UNL     1     -10.920   7.084  67.012  1.00  0.00    -0.357 C  
BRANCH  15  17
HETATM   17  C   UNL     1      -9.998   4.857  67.900  1.00  0.00    -0.123 C  
BRANCH  17  18
HETATM   18  N   UNL     1      -8.730   4.337  68.333  1.00  0.00    -0.094 NA 
HETATM   19  C   UNL     1      -7.513   4.474  67.722  1.00  0.00    -0.073 A  
HETATM   20  N   UNL     1      -6.547   3.942  68.438  1.00  0.00    -0.044 NA 
HETATM   21  C   UNL     1      -7.184   3.425  69.544  1.00  0.00    -0.045 A  
HETATM   22  C   UNL     1      -6.698   2.754  70.669  1.00  0.00    -0.032 A  
HETATM   23  N   UNL     1      -7.584   2.290  71.582  1.00  0.00    -0.040 NA 
HETATM   24  N   UNL     1      -5.342   2.546  70.866  1.00  0.00    -0.004 NA 
HETATM   25  C   UNL     1      -8.891   2.542  71.379  1.00  0.00    -0.073 A  
HETATM   26  H1  UNL     1      -4.987   2.056  71.687  1.00  0.00     0.000 HD 
HETATM   27  H2  UNL     1      -4.877   3.453  70.817  1.00  0.00     0.000 HD 
HETATM   28  N   UNL     1      -9.476   3.208  70.358  1.00  0.00    -0.165 NA 
HETATM   29  C   UNL     1      -8.548   3.620  69.480  1.00  0.00    -0.067 A  
ENDBRANCH  17  18
ENDBRANCH  15  17
ENDBRANCH  14  15
ENDBRANCH  13  14
ENDBRANCH  11  13
BRANCH  11  30
HETATM   30  O   UNL     1      -9.640   9.069  71.869  1.00  0.00    -0.287 OA 
BRANCH  30  31
HETATM   31  C   UNL     1     -11.015   9.162  71.752  1.00  0.00    -0.359 A  
HETATM   32  C   UNL     1     -11.511  10.207  70.971  1.00  0.00    -0.436 A  
HETATM   33  C   UNL     1     -13.292   8.481  72.243  1.00  0.00    -0.357 A  
HETATM   34  C   UNL     1     -11.910   8.292  72.384  1.00  0.00    -0.461 A  
HETATM   35  C   UNL     1     -13.782   9.538  71.479  1.00  0.00    -0.341 A  
HETATM   36  C   UNL     1     -12.892  10.400  70.844  1.00  0.00    -0.482 A  
ENDBRANCH  30  31
ENDBRANCH  11  30
ENDBRANCH   9  11
ENDBRANCH   7   9
ENDBRANCH   5   7
ENDBRANCH   4   5
ENDBRANCH   2   4
TORSDOF 12
ENDMDL
MODEL      414
REMARK 921   NORMALIZED FREE ENERGY PREDICTED BY IDOCK:   -2.18 KCAL/MOL
REMARK 922        TOTAL FREE ENERGY PREDICTED BY IDOCK:   -5.43 KCAL/MOL
REMARK 923 INTER-LIGAND FREE ENERGY PREDICTED BY IDOCK:   -6.40 KCAL/MOL
REMARK 924 INTRA-LIGAND FREE ENERGY PREDICTED BY IDOCK:    0.98 KCAL/MOL
REMARK 927      BINDING AFFINITY PREDICTED BY RF-SCORE:    0.00 PKD
ROOT
HETATM    1  C   UNL     1      -6.957  14.940  67.500  1.00  0.00    -0.203 C  
HETATM    2  C   UNL     1      -6.892  13.413  67.580  1.00  0.00    -0.144 C  
HETATM    3  C   UNL     1      -5.435  12.928  67.590  1.00  0.00    -0.109 C  
ENDROOT
BRANCH   2   4
HETATM    4  O   UNL     1      -7.764  12.868  68.624  1.00  0.00    -0.127 OA 
BRANCH   4   5
HETATM    5  C   UNL     1      -7.623  11.574  69.005  1.00  0.00    -0.058 C  
HETATM    6  O   UNL     1      -6.581  11.127  69.487  1.00  0.00    -0.098 OA 
BRANCH   5   7
HETATM    7  C   UNL     1      -8.851  10.643  68.792  1.00  0.00    -0.161 C  
HETATM    8  C   UNL     1      -9.849  11.331  67.863  1.00  0.00    -0.187 C  
BRANCH   7   9
HETATM    9  N   UNL     1      -9.545  10.039  69.995  1.00  0.00    -0.378 NA 
HETATM   10  H   UNL     1     -10.545   9.930  69.829  1.00  0.00     0.000 HD 
BRANCH   9  11
HETATM   11  P   UNL     1      -8.809   8.516  70.487  1.00  0.00    -0.180 P  
HETATM   12  O   UNL     1      -8.018   8.350  69.166  1.00  0.00    -0.106 OA 
BRANCH  11  13
HETATM   13  C   UNL     1      -9.866   6.996  70.005  1.00  0.00    -0.177 C  
BRANCH  13  14
HETATM   14  O   UNL     1     -10.659   7.207  68.777  1.00  0.00    -0.205 OA 
BRANCH  14  15
HETATM   15  C   UNL     1     -10.125   6.858  67.471  1.00  0.00    -0.174 C  
HETATM   16  C   UNL     1     -10.215   8.066  66.531  1.00  0.00    -0.228 C  
BRANCH  15  17
HETATM   17  C   UNL     1     -10.666   5.561  66.884  1.00  0.00    -0.230 C  
BRANCH  17  18
HETATM   18  N   UNL     1      -9.687   4.535  66.654  1.00  0.00    -0.189 NA 
HETATM   19  C   UNL     1      -9.518   3.366  67.346  1.00  0.00    -0.176 A  
HETATM   20  N   UNL     1      -8.579   2.616  66.812  1.00  0.00    -0.104 NA 
HETATM   21  C   UNL     1      -8.117   3.353  65.744  1.00  0.00    -0.093 A  
HETATM   22  C   UNL     1      -7.137   3.089  64.784  1.00  0.00    -0.057 A  
HETATM   23  N   UNL     1      -6.841   4.048  63.876  1.00  0.00    -0.044 NA 
HETATM   24  N   UNL     1      -6.460   1.880  64.747  1.00  0.00    -0.019 NA 
HETATM   25  C   UNL     1      -7.544   5.196  63.917  1.00  0.00    -0.069 A  
HETATM   26  H1  UNL     1      -5.744   1.687  64.046  1.00  0.00     0.000 HD 
HETATM   27  H2  UNL     1      -7.155   1.134  64.698  1.00  0.00     0.000 HD 
HETATM   28  N   UNL     1      -8.534   5.552  64.766  1.00  0.00    -0.143 NA 
HETATM   29  C   UNL     1      -8.762   4.570  65.652  1.00  0.00    -0.124 A  
ENDBRANCH  17  18
ENDBRANCH  15  17
ENDBRANCH  14  15
ENDBRANCH  13  14
ENDBRANCH  11  13
BRANCH  11  30
HETATM   30  O   UNL     1      -9.692   8.701  71.964  1.00  0.00    -0.276 OA 
BRANCH  30  31
HETATM   31  C   UNL     1     -11.071   8.726  71.857  1.00  0.00    -0.364 A  
HETATM   32  C   UNL     1     -11.659   9.961  71.578  1.00  0.00    -0.375 A  
HETATM   33  C   UNL     1     -13.278   7.724  71.947  1.00  0.00    -0.300 A  
HETATM   34  C   UNL     1     -11.884   7.603  72.034  1.00  0.00    -0.342 A  
HETATM   35  C   UNL     1     -13.862   8.963  71.689  1.00  0.00    -0.432 A  
HETATM   36  C   UNL     1     -13.051  10.080  71.505  1.00  0.00    -0.531 A  
ENDBRANCH  30  31
ENDBRANCH  11  30
ENDBRANCH   9  11
ENDBRANCH   7   9
ENDBRANCH   5   7
ENDBRANCH   4   5
ENDBRANCH   2   4
TORSDOF 12
ENDMDL
MODEL      415
REMARK 921   NORMALIZED FREE ENERGY PREDICTED BY IDOCK:   -2.18 KCAL/MOL
REMARK 922        TOTAL FREE ENERGY PREDICTED BY IDOCK:   -5.42 KCAL/MOL
REMARK 923 INTER-LIGAND FREE ENERGY PREDICTED BY IDOCK:   -5.05 KCAL/MOL
REMARK 924 INTRA-LIGAND FREE ENERGY PREDICTED BY IDOCK:   -0.38 KCAL/MOL
REMARK 927      BINDING AFFINITY PREDICTED BY RF-SCORE:    0.00 PKD
ROOT
HETATM    1  C   UNL     1     -10.832   6.730  67.816  1.00  0.00    -0.339 C  
HETATM    2  C   UNL     1     -10.470   8.134  67.327  1.00  0.00    -0.309 C  
HETATM    3  C   UNL     1     -10.983   9.202  68.304  1.00  0.00    -0.010 C  
ENDROOT
BRANCH   2   4
HETATM    4  O   UNL     1      -9.065   8.244  66.925  1.00  0.00    -0.138 OA 
BRANCH   4   5
HETATM    5  C   UNL     1      -8.247   7.171  67.054  1.00  0.00    -0.117 C  
HETATM    6  O   UNL     1      -8.052   6.362  66.145  1.00  0.00    -0.108 OA 
BRANCH   5   7
HETATM    7  C   UNL     1      -7.554   6.980  68.434  1.00  0.00    -0.111 C  
HETATM    8  C   UNL     1      -6.653   5.747  68.378  1.00  0.00    -0.052 C  
BRANCH   7   9
HETATM    9  N   UNL     1      -8.392   6.992  69.696  1.00  0.00    -0.131 NA 
HETATM   10  H   UNL     1      -8.522   6.049  70.063  1.00  0.00     0.000 HD 
BRANCH   9  11
HETATM   11  P   UNL     1      -7.727   8.070  70.920  1.00  0.00    -0.093 P  
HETATM   12  O   UNL     1      -8.877   9.098  70.790  1.00  0.00    -0.208 OA 
BRANCH  11  13
HETATM   13  C   UNL     1      -6.529   9.368  70.187  1.00  0.00    -0.058 C  
BRANCH  13  14
HETATM   14  O   UNL     1      -7.150  10.696  70.010  1.00  0.00    -0.158 OA 
BRANCH  14  15
HETATM   15  C   UNL     1      -6.955  11.456  68.786  1.00  0.00    -0.097 C  
HETATM   16  C   UNL     1      -5.541  11.214  68.242  1.00  0.00    -0.045 C  
BRANCH  15  17
HETATM   17  C   UNL     1      -7.354  12.923  68.872  1.00  0.00    -0.014 C  
BRANCH  17  18
HETATM   18  N   UNL     1      -8.201  13.393  67.812  1.00  0.00    -0.157 NA 
HETATM   19  C   UNL     1      -9.050  12.660  67.027  1.00  0.00    -0.215 A  
HETATM   20  N   UNL     1      -9.739  13.425  66.209  1.00  0.00    -0.284 NA 
HETATM   21  C   UNL     1      -9.292  14.700  66.473  1.00  0.00    -0.288 A  
HETATM   22  C   UNL     1      -9.651  15.942  65.942  1.00  0.00    -0.343 A  
HETATM   23  N   UNL     1      -8.978  17.043  66.351  1.00  0.00    -0.292 NA 
HETATM   24  N   UNL     1     -10.666  16.068  65.006  1.00  0.00    -0.593 NA 
HETATM   25  C   UNL     1      -8.024  16.889  67.289  1.00  0.00    -0.174 A  
HETATM   26  H1  UNL     1     -10.928  16.975  64.619  1.00  0.00     0.000 HD 
HETATM   27  H2  UNL     1     -11.506  15.640  65.396  1.00  0.00     0.000 HD 
HETATM   28  N   UNL     1      -7.616  15.755  67.902  1.00  0.00    -0.125 NA 
HETATM   29  C   UNL     1      -8.304  14.701  67.437  1.00  0.00    -0.206 A  
ENDBRANCH  17  18
ENDBRANCH  15  17
ENDBRANCH  14  15
ENDBRANCH  13  14
ENDBRANCH  11  13
BRANCH  11  30
HETATM   30  O   UNL     1      -6.442   6.919  71.065  1.00  0.00    -0.043 OA 
BRANCH  30  31
HETATM   31  C   UNL     1      -6.457   6.118  72.193  1.00  0.00    -0.058 A  
HETATM   32  C   UNL     1      -5.844   6.630  73.337  1.00  0.00    -0.054 A  
HETATM   33  C   UNL     1      -6.965   4.080  73.407  1.00  0.00    -0.058 A  
HETATM   34  C   UNL     1      -7.027   4.842  72.232  1.00  0.00    -0.062 A  
HETATM   35  C   UNL     1      -6.332   4.587  74.541  1.00  0.00    -0.053 A  
HETATM   36  C   UNL     1      -5.772   5.860  74.504  1.00  0.00    -0.054 A  
ENDBRANCH  30  31
ENDBRANCH  11  30
ENDBRANCH   9  11
ENDBRANCH   7   9
ENDBRANCH   5   7
ENDBRANCH   4   5
ENDBRANCH   2   4
TORSDOF 12
ENDMDL
MODEL      416
REMARK 921   NORMALIZED FREE ENERGY PREDICTED BY IDOCK:   -2.05 KCAL/MOL
REMARK 922        TOTAL FREE ENERGY PREDICTED BY IDOCK:   -5.21 KCAL/MOL
REMARK 923 INTER-LIGAND FREE ENERGY PREDICTED BY IDOCK:   -5.51 KCAL/MOL
REMARK 924 INTRA-LIGAND FREE ENERGY PREDICTED BY IDOCK:    0.30 KCAL/MOL
REMARK 927      BINDING AFFINITY PREDICTED BY RF-SCORE:    0.00 PKD
ROOT
HETATM    1  C   UNL     1     -13.283  14.673  65.329  1.00  0.00     0.488 C  
HETATM    2  C   UNL     1     -12.326  13.512  65.608  1.00  0.00    -0.476 C  
HETATM    3  C   UNL     1     -12.162  12.627  64.364  1.00  0.00    -0.518 C  
ENDROOT
BRANCH   2   4
HETATM    4  O   UNL     1     -11.089  13.948  66.261  1.00  0.00    -0.300 OA 
BRANCH   4   5
HETATM    5  C   UNL     1     -10.199  13.023  66.696  1.00  0.00    -0.257 C  
HETATM    6  O   UNL     1      -9.482  12.372  65.934  1.00  0.00    -0.219 OA 
BRANCH   5   7
HETATM    7  C   UNL     1     -10.124  12.790  68.232  1.00  0.00    -0.237 C  
HETATM    8  C   UNL     1     -10.659  14.025  68.955  1.00  0.00    -0.205 C  
BRANCH   7   9
HETATM    9  N   UNL     1      -8.828  12.309  68.850  1.00  0.00    -0.366 NA 
HETATM   10  H   UNL     1      -8.761  12.583  69.830  1.00  0.00     0.000 HD 
BRANCH   9  11
HETATM   11  P   UNL     1      -8.608  10.572  68.656  1.00  0.00    -0.152 P  
HETATM   12  O   UNL     1     -10.116  10.258  68.814  1.00  0.00    -0.170 OA 
BRANCH  11  13
HETATM   13  C   UNL     1      -8.283   9.680  70.317  1.00  0.00    -0.191 C  
BRANCH  13  14
HETATM   14  O   UNL     1      -9.211   8.556  70.563  1.00  0.00    -0.145 OA 
BRANCH  14  15
HETATM   15  C   UNL     1      -9.061   7.705  71.732  1.00  0.00    -0.133 C  
HETATM   16  C   UNL     1      -7.577   7.397  71.966  1.00  0.00    -0.084 C  
BRANCH  15  17
HETATM   17  C   UNL     1      -9.968   6.483  71.754  1.00  0.00    -0.176 C  
BRANCH  17  18
HETATM   18  N   UNL     1     -10.184   5.854  70.480  1.00  0.00    -0.199 NA 
HETATM   19  C   UNL     1     -11.057   6.230  69.495  1.00  0.00    -0.408 A  
HETATM   20  N   UNL     1     -10.933   5.478  68.423  1.00  0.00     0.008 NA 
HETATM   21  C   UNL     1      -9.952   4.570  68.752  1.00  0.00    -0.050 A  
HETATM   22  C   UNL     1      -9.368   3.527  68.029  1.00  0.00    -0.184 A  
HETATM   23  N   UNL     1      -8.458   2.738  68.646  1.00  0.00    -0.065 NA 
HETATM   24  N   UNL     1      -9.705   3.278  66.707  1.00  0.00    -0.408 NA 
HETATM   25  C   UNL     1      -8.126   3.031  69.917  1.00  0.00    -0.044 A  
HETATM   26  H1  UNL     1      -9.278   2.516  66.179  1.00  0.00     0.000 HD 
HETATM   27  H2  UNL     1      -9.564   4.141  66.181  1.00  0.00     0.000 HD 
HETATM   28  N   UNL     1      -8.588   4.028  70.704  1.00  0.00    -0.070 NA 
HETATM   29  C   UNL     1      -9.501   4.756  70.043  1.00  0.00    -0.170 A  
ENDBRANCH  17  18
ENDBRANCH  15  17
ENDBRANCH  14  15
ENDBRANCH  13  14
ENDBRANCH  11  13
BRANCH  11  30
HETATM   30  O   UNL     1      -6.923  10.924  68.480  1.00  0.00    -0.066 OA 
BRANCH  30  31
HETATM   31  C   UNL     1      -6.554  12.251  68.611  1.00  0.00    -0.078 A  
HETATM   32  C   UNL     1      -6.231  12.690  69.896  1.00  0.00    -0.088 A  
HETATM   33  C   UNL     1      -6.163  14.494  67.773  1.00  0.00    -0.152 A  
HETATM   34  C   UNL     1      -6.511  13.155  67.545  1.00  0.00    -0.154 A  
HETATM   35  C   UNL     1      -5.862  14.932  69.061  1.00  0.00    -0.096 A  
HETATM   36  C   UNL     1      -5.897  14.031  70.121  1.00  0.00    -0.142 A  
ENDBRANCH  30  31
ENDBRANCH  11  30
ENDBRANCH   9  11
ENDBRANCH   7   9
ENDBRANCH   5   7
ENDBRANCH   4   5
ENDBRANCH   2   4
TORSDOF 12
ENDMDL
MODEL      417
REMARK 921   NORMALIZED FREE ENERGY PREDICTED BY IDOCK:   -2.01 KCAL/MOL
REMARK 922        TOTAL FREE ENERGY PREDICTED BY IDOCK:   -5.14 KCAL/MOL
REMARK 923 INTER-LIGAND FREE ENERGY PREDICTED BY IDOCK:   -4.38 KCAL/MOL
REMARK 924 INTRA-LIGAND FREE ENERGY PREDICTED BY IDOCK:   -0.75 KCAL/MOL
REMARK 927      BINDING AFFINITY PREDICTED BY RF-SCORE:    0.00 PKD
ROOT
HETATM    1  C   UNL     1      -6.738   8.809  72.998  1.00  0.00     0.059 C  
HETATM    2  C   UNL     1      -6.386   8.822  71.508  1.00  0.00    -0.071 C  
HETATM    3  C   UNL     1      -5.178   9.731  71.239  1.00  0.00    -0.065 C  
ENDROOT
BRANCH   2   4
HETATM    4  O   UNL     1      -6.325   7.475  70.934  1.00  0.00    -0.038 OA 
BRANCH   4   5
HETATM    5  C   UNL     1      -7.073   7.178  69.843  1.00  0.00    -0.073 C  
HETATM    6  O   UNL     1      -6.581   6.939  68.738  1.00  0.00    -0.044 OA 
BRANCH   5   7
HETATM    7  C   UNL     1      -8.617   7.166  70.033  1.00  0.00    -0.141 C  
HETATM    8  C   UNL     1      -9.108   5.719  70.066  1.00  0.00    -0.157 C  
BRANCH   7   9
HETATM    9  N   UNL     1      -9.485   8.021  69.134  1.00  0.00    -0.155 NA 
HETATM   10  H   UNL     1     -10.307   7.508  68.816  1.00  0.00     0.000 HD 
BRANCH   9  11
HETATM   11  P   UNL     1      -9.938   9.540  69.904  1.00  0.00    -0.263 P  
HETATM   12  O   UNL     1      -9.694   9.007  71.337  1.00  0.00    -0.276 OA 
BRANCH  11  13
HETATM   13  C   UNL     1     -11.807   9.639  70.295  1.00  0.00    -0.099 C  
BRANCH  13  14
HETATM   14  O   UNL     1     -12.253  11.001  70.655  1.00  0.00    -0.326 OA 
BRANCH  14  15
HETATM   15  C   UNL     1     -12.854  11.274  71.950  1.00  0.00    -0.281 C  
HETATM   16  C   UNL     1     -13.475   9.991  72.517  1.00  0.00    -0.073 C  
BRANCH  15  17
HETATM   17  C   UNL     1     -13.773  12.488  71.986  1.00  0.00    -0.158 C  
BRANCH  17  18
HETATM   18  N   UNL     1     -13.109  13.762  71.989  1.00  0.00    -0.382 NA 
HETATM   19  C   UNL     1     -12.742  14.514  73.073  1.00  0.00    -0.396 A  
HETATM   20  N   UNL     1     -12.075  15.589  72.714  1.00  0.00    -0.405 NA 
HETATM   21  C   UNL     1     -12.037  15.527  71.339  1.00  0.00    -0.393 A  
HETATM   22  C   UNL     1     -11.461  16.369  70.384  1.00  0.00    -0.130 A  
HETATM   23  N   UNL     1     -11.648  16.088  69.073  1.00  0.00    -0.369 NA 
HETATM   24  N   UNL     1     -10.716  17.480  70.746  1.00  0.00     0.633 NA 
HETATM   25  C   UNL     1     -12.345  14.980  68.757  1.00  0.00     0.040 A  
HETATM   26  H1  UNL     1     -10.296  18.095  70.049  1.00  0.00     0.000 HD 
HETATM   27  H2  UNL     1      -9.977  17.169  71.376  1.00  0.00     0.000 HD 
HETATM   28  N   UNL     1     -12.913  14.074  69.583  1.00  0.00     0.381 NA 
HETATM   29  C   UNL     1     -12.712  14.421  70.863  1.00  0.00    -0.355 A  
ENDBRANCH  17  18
ENDBRANCH  15  17
ENDBRANCH  14  15
ENDBRANCH  13  14
ENDBRANCH  11  13
BRANCH  11  30
HETATM   30  O   UNL     1     -10.210  10.135  68.301  1.00  0.00    -0.154 OA 
BRANCH  30  31
HETATM   31  C   UNL     1      -9.743  11.409  68.030  1.00  0.00    -0.186 A  
HETATM   32  C   UNL     1      -8.893  11.547  66.932  1.00  0.00    -0.182 A  
HETATM   33  C   UNL     1      -9.512  13.782  68.477  1.00  0.00    -0.162 A  
HETATM   34  C   UNL     1     -10.060  12.532  68.800  1.00  0.00    -0.061 A  
HETATM   35  C   UNL     1      -8.647  13.911  67.392  1.00  0.00    -0.206 A  
HETATM   36  C   UNL     1      -8.338  12.794  66.621  1.00  0.00     0.107 A  
ENDBRANCH  30  31
ENDBRANCH  11  30
ENDBRANCH   9  11
ENDBRANCH   7   9
ENDBRANCH   5   7
ENDBRANCH   4   5
ENDBRANCH   2   4
TORSDOF 12
ENDMDL
MODEL      418
REMARK 921   NORMALIZED FREE ENERGY PREDICTED BY IDOCK:   -1.91 KCAL/MOL
REMARK 922        TOTAL FREE ENERGY PREDICTED BY IDOCK:   -4.96 KCAL/MOL
REMARK 923 INTER-LIGAND FREE ENERGY PREDICTED BY IDOCK:   -7.74 KCAL/MOL
REMARK 924 INTRA-LIGAND FREE ENERGY PREDICTED BY IDOCK:    2.78 KCAL/MOL
REMARK 927      BINDING AFFINITY PREDICTED BY RF-SCORE:    0.00 PKD
ROOT
HETATM    1  C   UNL     1     -11.577  15.626  71.847  1.00  0.00    -0.547 C  
HETATM    2  C   UNL     1     -11.347  15.579  70.335  1.00  0.00    -0.342 C  
HETATM    3  C   UNL     1     -12.651  15.255  69.593  1.00  0.00    -0.087 C  
ENDROOT
BRANCH   2   4
HETATM    4  O   UNL     1     -10.593  16.737  69.845  1.00  0.00    -0.250 OA 
BRANCH   4   5
HETATM    5  C   UNL     1     -10.539  16.986  68.514  1.00  0.00    -0.370 C  
HETATM    6  O   UNL     1     -11.124  17.933  67.985  1.00  0.00    -0.176 OA 
BRANCH   5   7
HETATM    7  C   UNL     1      -9.704  15.999  67.649  1.00  0.00    -0.224 C  
HETATM    8  C   UNL     1     -10.575  14.803  67.267  1.00  0.00    -0.273 C  
BRANCH   7   9
HETATM    9  N   UNL     1      -8.341  15.553  68.135  1.00  0.00    -0.143 NA 
HETATM   10  H   UNL     1      -8.317  15.474  69.151  1.00  0.00     0.000 HD 
BRANCH   9  11
HETATM   11  P   UNL     1      -7.822  14.056  67.365  1.00  0.00    -0.066 P  
HETATM   12  O   UNL     1      -9.053  13.988  66.428  1.00  0.00    -0.206 OA 
BRANCH  11  13
HETATM   13  C   UNL     1      -8.468  12.499  68.270  1.00  0.00    -0.165 C  
BRANCH  13  14
HETATM   14  O   UNL     1      -9.292  11.627  67.408  1.00  0.00    -0.165 OA 
BRANCH  14  15
HETATM   15  C   UNL     1      -9.657  10.285  67.832  1.00  0.00    -0.145 C  
HETATM   16  C   UNL     1     -11.113   9.995  67.448  1.00  0.00    -0.157 C  
BRANCH  15  17
HETATM   17  C   UNL     1      -9.309   9.954  69.277  1.00  0.00    -0.206 C  
BRANCH  17  18
HETATM   18  N   UNL     1     -10.386   9.416  70.061  1.00  0.00    -0.216 NA 
HETATM   19  C   UNL     1     -10.623   8.105  70.375  1.00  0.00    -0.224 A  
HETATM   20  N   UNL     1     -11.652   7.977  71.184  1.00  0.00    -0.280 NA 
HETATM   21  C   UNL     1     -12.101   9.265  71.375  1.00  0.00    -0.348 A  
HETATM   22  C   UNL     1     -13.150   9.782  72.140  1.00  0.00    -0.422 A  
HETATM   23  N   UNL     1     -13.406  11.110  72.078  1.00  0.00    -0.401 NA 
HETATM   24  N   UNL     1     -13.933   8.971  72.946  1.00  0.00    -1.067 NA 
HETATM   25  C   UNL     1     -12.602  11.874  71.315  1.00  0.00    -0.277 A  
HETATM   26  H1  UNL     1     -14.699   9.349  73.505  1.00  0.00     0.000 HD 
HETATM   27  H2  UNL     1     -13.311   8.460  73.573  1.00  0.00     0.000 HD 
HETATM   28  N   UNL     1     -11.541  11.500  70.565  1.00  0.00    -0.146 NA 
HETATM   29  C   UNL     1     -11.356  10.174  70.652  1.00  0.00    -0.352 A  
ENDBRANCH  17  18
ENDBRANCH  15  17
ENDBRANCH  14  15
ENDBRANCH  13  14
ENDBRANCH  11  13
BRANCH  11  30
HETATM   30  O   UNL     1      -6.446  14.132  68.411  1.00  0.00    -0.087 OA 
BRANCH  30  31
HETATM   31  C   UNL     1      -6.066  12.947  69.016  1.00  0.00    -0.089 A  
HETATM   32  C   UNL     1      -5.847  11.854  68.177  1.00  0.00    -0.051 A  
HETATM   33  C   UNL     1      -5.566  11.545  70.932  1.00  0.00    -0.070 A  
HETATM   34  C   UNL     1      -5.917  12.793  70.398  1.00  0.00    -0.104 A  
HETATM   35  C   UNL     1      -5.368  10.451  70.092  1.00  0.00    -0.044 A  
HETATM   36  C   UNL     1      -5.510  10.607  68.716  1.00  0.00    -0.041 A  
ENDBRANCH  30  31
ENDBRANCH  11  30
ENDBRANCH   9  11
ENDBRANCH   7   9
ENDBRANCH   5   7
ENDBRANCH   4   5
ENDBRANCH   2   4
TORSDOF 12
ENDMDL
MODEL      419
REMARK 921   NORMALIZED FREE ENERGY PREDICTED BY IDOCK:   -1.78 KCAL/MOL
REMARK 922        TOTAL FREE ENERGY PREDICTED BY IDOCK:   -4.74 KCAL/MOL
REMARK 923 INTER-LIGAND FREE ENERGY PREDICTED BY IDOCK:   -4.11 KCAL/MOL
REMARK 924 INTRA-LIGAND FREE ENERGY PREDICTED BY IDOCK:   -0.63 KCAL/MOL
REMARK 927      BINDING AFFINITY PREDICTED BY RF-SCORE:    0.00 PKD
ROOT
HETATM    1  C   UNL     1     -10.612   7.371  67.465  1.00  0.00    -0.340 C  
HETATM    2  C   UNL     1     -10.285   8.769  66.934  1.00  0.00    -0.287 C  
HETATM    3  C   UNL     1     -10.801   9.852  67.892  1.00  0.00    -0.312 C  
ENDROOT
BRANCH   2   4
HETATM    4  O   UNL     1      -8.889   8.894  66.506  1.00  0.00    -0.127 OA 
BRANCH   4   5
HETATM    5  C   UNL     1      -8.042   7.847  66.669  1.00  0.00    -0.107 C  
HETATM    6  O   UNL     1      -7.849   7.000  65.796  1.00  0.00    -0.097 OA 
BRANCH   5   7
HETATM    7  C   UNL     1      -7.316   7.740  68.040  1.00  0.00    -0.102 C  
HETATM    8  C   UNL     1      -6.376   6.536  68.018  1.00  0.00    -0.040 C  
BRANCH   7   9
HETATM    9  N   UNL     1      -8.128   7.780  69.318  1.00  0.00    -0.125 NA 
HETATM   10  H   UNL     1      -8.203   6.854  69.739  1.00  0.00     0.000 HD 
BRANCH   9  11
HETATM   11  P   UNL     1      -7.494   8.956  70.467  1.00  0.00    -0.117 P  
HETATM   12  O   UNL     1      -8.706   9.909  70.321  1.00  0.00    -0.183 OA 
BRANCH  11  13
HETATM   13  C   UNL     1      -6.395  10.281  69.634  1.00  0.00    -0.062 C  
BRANCH  13  14
HETATM   14  O   UNL     1      -7.096  11.563  69.414  1.00  0.00    -0.105 OA 
BRANCH  14  15
HETATM   15  C   UNL     1      -7.187  12.148  68.087  1.00  0.00    -0.096 C  
HETATM   16  C   UNL     1      -5.904  11.853  67.299  1.00  0.00    -0.130 C  
BRANCH  15  17
HETATM   17  C   UNL     1      -7.622  13.606  68.058  1.00  0.00    -0.139 C  
BRANCH  17  18
HETATM   18  N   UNL     1      -8.687  13.913  67.144  1.00  0.00    -0.221 NA 
HETATM   19  C   UNL     1      -8.586  14.437  65.883  1.00  0.00     1.128 A  
HETATM   20  N   UNL     1      -9.759  14.509  65.292  1.00  0.00    -0.171 NA 
HETATM   21  C   UNL     1     -10.646  14.029  66.229  1.00  0.00    -0.281 A  
HETATM   22  C   UNL     1     -12.030  13.843  66.192  1.00  0.00    -0.423 A  
HETATM   23  N   UNL     1     -12.659  13.411  67.310  1.00  0.00     0.063 NA 
HETATM   24  N   UNL     1     -12.770  14.098  65.047  1.00  0.00    -0.679 NA 
HETATM   25  C   UNL     1     -11.906  13.136  68.392  1.00  0.00    -0.351 A  
HETATM   26  H1  UNL     1     -13.781  13.963  65.019  1.00  0.00     0.000 HD 
HETATM   27  H2  UNL     1     -12.361  13.559  64.284  1.00  0.00     0.000 HD 
HETATM   28  N   UNL     1     -10.566  13.238  68.538  1.00  0.00    -0.253 NA 
HETATM   29  C   UNL     1     -10.008  13.692  67.405  1.00  0.00    -0.234 A  
ENDBRANCH  17  18
ENDBRANCH  15  17
ENDBRANCH  14  15
ENDBRANCH  13  14
ENDBRANCH  11  13
BRANCH  11  30
HETATM   30  O   UNL     1      -6.140   7.890  70.629  1.00  0.00    -0.033 OA 
BRANCH  30  31
HETATM   31  C   UNL     1      -6.077   7.149  71.796  1.00  0.00    -0.037 A  
HETATM   32  C   UNL     1      -6.308   5.777  71.683  1.00  0.00    -0.048 A  
HETATM   33  C   UNL     1      -5.811   6.882  74.193  1.00  0.00    -0.059 A  
HETATM   34  C   UNL     1      -5.819   7.701  73.054  1.00  0.00    -0.044 A  
HETATM   35  C   UNL     1      -6.063   5.516  74.078  1.00  0.00    -0.058 A  
HETATM   36  C   UNL     1      -6.312   4.965  72.824  1.00  0.00    -0.042 A  
ENDBRANCH  30  31
ENDBRANCH  11  30
ENDBRANCH   9  11
ENDBRANCH   7   9
ENDBRANCH   5   7
ENDBRANCH   4   5
ENDBRANCH   2   4
TORSDOF 12
ENDMDL
MODEL      420
REMARK 921   NORMALIZED FREE ENERGY PREDICTED BY IDOCK:   -1.72 KCAL/MOL
REMARK 922        TOTAL FREE ENERGY PREDICTED BY IDOCK:   -4.64 KCAL/MOL
REMARK 923 INTER-LIGAND FREE ENERGY PREDICTED BY IDOCK:   -5.31 KCAL/MOL
REMARK 924 INTRA-LIGAND FREE ENERGY PREDICTED BY IDOCK:    0.66 KCAL/MOL
REMARK 927      BINDING AFFINITY PREDICTED BY RF-SCORE:    0.00 PKD
ROOT
HETATM    1  C   UNL     1     -13.441   9.454  70.960  1.00  0.00    -0.159 C  
HETATM    2  C   UNL     1     -12.402  10.518  70.596  1.00  0.00    -0.356 C  
HETATM    3  C   UNL     1     -12.309  11.588  71.693  1.00  0.00    -0.023 C  
ENDROOT
BRANCH   2   4
HETATM    4  O   UNL     1     -11.135   9.934  70.149  1.00  0.00    -0.256 OA 
BRANCH   4   5
HETATM    5  C   UNL     1     -10.348  10.624  69.287  1.00  0.00    -0.218 C  
HETATM    6  O   UNL     1     -10.194  11.845  69.350  1.00  0.00     0.125 OA 
BRANCH   5   7
HETATM    7  C   UNL     1      -9.641   9.801  68.172  1.00  0.00    -0.143 C  
HETATM    8  C   UNL     1     -10.668   8.910  67.476  1.00  0.00    -0.223 C  
BRANCH   7   9
HETATM    9  N   UNL     1      -8.378   9.033  68.501  1.00  0.00    -0.123 NA 
HETATM   10  H   UNL     1      -8.466   8.049  68.244  1.00  0.00     0.000 HD 
BRANCH   9  11
HETATM   11  P   UNL     1      -6.952   9.760  67.766  1.00  0.00    -0.087 P  
HETATM   12  O   UNL     1      -6.803  10.836  68.869  1.00  0.00    -0.059 OA 
BRANCH  11  13
HETATM   13  C   UNL     1      -7.389  11.144  66.521  1.00  0.00    -0.129 C  
BRANCH  13  14
HETATM   14  O   UNL     1      -6.866  12.468  66.918  1.00  0.00    -0.029 OA 
BRANCH  14  15
HETATM   15  C   UNL     1      -7.766  13.555  67.264  1.00  0.00    -0.077 C  
HETATM   16  C   UNL     1      -7.758  13.775  68.782  1.00  0.00    -0.080 C  
BRANCH  15  17
HETATM   17  C   UNL     1      -9.156  13.456  66.650  1.00  0.00    -0.169 C  
BRANCH  17  18
HETATM   18  N   UNL     1      -9.787  14.711  66.349  1.00  0.00    -0.272 NA 
HETATM   19  C   UNL     1     -11.122  14.959  66.175  1.00  0.00    -0.335 A  
HETATM   20  N   UNL     1     -11.359  16.240  65.996  1.00  0.00     0.291 NA 
HETATM   21  C   UNL     1     -10.114  16.828  66.037  1.00  0.00    -0.332 A  
HETATM   22  C   UNL     1      -9.710  18.161  65.925  1.00  0.00     0.040 A  
HETATM   23  N   UNL     1      -8.386  18.442  65.932  1.00  0.00    -0.488 NA 
HETATM   24  N   UNL     1     -10.627  19.193  65.797  1.00  0.00    -0.513 NA 
HETATM   25  C   UNL     1      -7.524  17.420  66.096  1.00  0.00    -0.296 A  
HETATM   26  H1  UNL     1     -10.332  20.166  65.715  1.00  0.00     0.000 HD 
HETATM   27  H2  UNL     1     -11.280  19.129  66.578  1.00  0.00     0.000 HD 
HETATM   28  N   UNL     1      -7.792  16.104  66.252  1.00  0.00    -0.161 NA 
HETATM   29  C   UNL     1      -9.117  15.892  66.213  1.00  0.00    -0.344 A  
ENDBRANCH  17  18
ENDBRANCH  15  17
ENDBRANCH  14  15
ENDBRANCH  13  14
ENDBRANCH  11  13
BRANCH  11  30
HETATM   30  O   UNL     1      -7.118   8.556  66.533  1.00  0.00    -0.077 OA 
BRANCH  30  31
HETATM   31  C   UNL     1      -7.197   9.015  65.231  1.00  0.00    -0.088 A  
HETATM   32  C   UNL     1      -8.429   8.881  64.589  1.00  0.00    -0.185 A  
HETATM   33  C   UNL     1      -6.275   9.980  63.204  1.00  0.00    -0.132 A  
HETATM   34  C   UNL     1      -6.119   9.575  64.537  1.00  0.00    -0.082 A  
HETATM   35  C   UNL     1      -7.501   9.824  62.561  1.00  0.00    -0.120 A  
HETATM   36  C   UNL     1      -8.576   9.274  63.254  1.00  0.00    -0.207 A  
ENDBRANCH  30  31
ENDBRANCH  11  30
ENDBRANCH   9  11
ENDBRANCH   7   9
ENDBRANCH   5   7
ENDBRANCH   4   5
ENDBRANCH   2   4
TORSDOF 12
ENDMDL
MODEL      421
REMARK 921   NORMALIZED FREE ENERGY PREDICTED BY IDOCK:   -1.43 KCAL/MOL
REMARK 922        TOTAL FREE ENERGY PREDICTED BY IDOCK:   -4.16 KCAL/MOL
REMARK 923 INTER-LIGAND FREE ENERGY PREDICTED BY IDOCK:   -5.16 KCAL/MOL
REMARK 924 INTRA-LIGAND FREE ENERGY PREDICTED BY IDOCK:    1.00 KCAL/MOL
REMARK 927      BINDING AFFINITY PREDICTED BY RF-SCORE:    0.00 PKD
ROOT
HETATM    1  C   UNL     1      -6.944  14.595  67.469  1.00  0.00    -0.193 C  
HETATM    2  C   UNL     1      -6.769  13.113  67.808  1.00  0.00    -0.149 C  
HETATM    3  C   UNL     1      -5.380  12.615  67.385  1.00  0.00    -0.058 C  
ENDROOT
BRANCH   2   4
HETATM    4  O   UNL     1      -7.181  12.798  69.179  1.00  0.00    -0.038 OA 
BRANCH   4   5
HETATM    5  C   UNL     1      -6.870  11.591  69.710  1.00  0.00     0.013 C  
HETATM    6  O   UNL     1      -5.945  11.428  70.509  1.00  0.00    -0.206 OA 
BRANCH   5   7
HETATM    7  C   UNL     1      -7.733  10.380  69.253  1.00  0.00    -0.140 C  
HETATM    8  C   UNL     1      -8.920  10.888  68.436  1.00  0.00    -0.154 C  
BRANCH   7   9
HETATM    9  N   UNL     1      -8.168   9.348  70.272  1.00  0.00    -0.158 NA 
HETATM   10  H   UNL     1      -8.940   8.782  69.920  1.00  0.00     0.000 HD 
BRANCH   9  11
HETATM   11  P   UNL     1      -6.826   8.338  70.803  1.00  0.00    -0.045 P  
HETATM   12  O   UNL     1      -6.298   8.102  69.367  1.00  0.00    -0.034 OA 
BRANCH  11  13
HETATM   13  C   UNL     1      -7.291   6.485  70.900  1.00  0.00    -0.083 C  
BRANCH  13  14
HETATM   14  O   UNL     1      -8.609   6.185  70.303  1.00  0.00    -0.136 OA 
BRANCH  14  15
HETATM   15  C   UNL     1      -8.775   6.095  68.862  1.00  0.00    -0.123 C  
HETATM   16  C   UNL     1     -10.207   5.659  68.528  1.00  0.00    -0.253 C  
BRANCH  15  17
HETATM   17  C   UNL     1      -7.692   5.304  68.141  1.00  0.00    -0.084 C  
BRANCH  17  18
HETATM   18  N   UNL     1      -7.686   5.433  66.710  1.00  0.00    -0.099 NA 
HETATM   19  C   UNL     1      -7.547   4.439  65.778  1.00  0.00    -0.086 A  
HETATM   20  N   UNL     1      -7.673   4.901  64.553  1.00  0.00    -0.080 NA 
HETATM   21  C   UNL     1      -7.881   6.252  64.715  1.00  0.00    -0.110 A  
HETATM   22  C   UNL     1      -8.099   7.279  63.792  1.00  0.00    -0.011 A  
HETATM   23  N   UNL     1      -8.202   8.550  64.245  1.00  0.00    -0.161 NA 
HETATM   24  N   UNL     1      -8.201   7.026  62.433  1.00  0.00    -0.269 NA 
HETATM   25  C   UNL     1      -8.136   8.754  65.574  1.00  0.00    -0.115 A  
HETATM   26  H1  UNL     1      -8.360   7.776  61.758  1.00  0.00     0.000 HD 
HETATM   27  H2  UNL     1      -8.930   6.325  62.299  1.00  0.00     0.000 HD 
HETATM   28  N   UNL     1      -7.968   7.847  66.563  1.00  0.00    -0.100 NA 
HETATM   29  C   UNL     1      -7.850   6.614  66.046  1.00  0.00    -0.104 A  
ENDBRANCH  17  18
ENDBRANCH  15  17
ENDBRANCH  14  15
ENDBRANCH  13  14
ENDBRANCH  11  13
BRANCH  11  30
HETATM   30  O   UNL     1      -7.416   8.602  72.408  1.00  0.00    -0.279 OA 
BRANCH  30  31
HETATM   31  C   UNL     1      -8.739   8.270  72.641  1.00  0.00    -0.224 A  
HETATM   32  C   UNL     1      -8.988   7.355  73.664  1.00  0.00    -0.261 A  
HETATM   33  C   UNL     1     -11.119   8.362  72.177  1.00  0.00    -0.415 A  
HETATM   34  C   UNL     1      -9.810   8.781  71.901  1.00  0.00    -0.395 A  
HETATM   35  C   UNL     1     -11.361   7.432  73.187  1.00  0.00    -0.209 A  
HETATM   36  C   UNL     1     -10.295   6.929  73.929  1.00  0.00    -0.398 A  
ENDBRANCH  30  31
ENDBRANCH  11  30
ENDBRANCH   9  11
ENDBRANCH   7   9
ENDBRANCH   5   7
ENDBRANCH   4   5
ENDBRANCH   2   4
TORSDOF 12
ENDMDL
MODEL      422
REMARK 921   NORMALIZED FREE ENERGY PREDICTED BY IDOCK:   -0.88 KCAL/MOL
REMARK 922        TOTAL FREE ENERGY PREDICTED BY IDOCK:   -3.22 KCAL/MOL
REMARK 923 INTER-LIGAND FREE ENERGY PREDICTED BY IDOCK:   -4.04 KCAL/MOL
REMARK 924 INTRA-LIGAND FREE ENERGY PREDICTED BY IDOCK:    0.82 KCAL/MOL
REMARK 927      BINDING AFFINITY PREDICTED BY RF-SCORE:    0.00 PKD
ROOT
HETATM    1  C   UNL     1      -9.522   6.076  73.821  1.00  0.00    -0.144 C  
HETATM    2  C   UNL     1     -10.344   6.301  72.550  1.00  0.00    -0.192 C  
HETATM    3  C   UNL     1     -11.714   5.615  72.657  1.00  0.00    -0.256 C  
ENDROOT
BRANCH   2   4
HETATM    4  O   UNL     1     -10.353   7.704  72.128  1.00  0.00    -0.204 OA 
BRANCH   4   5
HETATM    5  C   UNL     1      -9.177   8.353  71.939  1.00  0.00    -0.238 C  
HETATM    6  O   UNL     1      -8.503   8.802  72.868  1.00  0.00    -0.409 OA 
BRANCH   5   7
HETATM    7  C   UNL     1      -8.704   8.533  70.468  1.00  0.00    -0.152 C  
HETATM    8  C   UNL     1      -9.617   9.537  69.766  1.00  0.00    -0.235 C  
BRANCH   7   9
HETATM    9  N   UNL     1      -8.465   7.310  69.608  1.00  0.00    -0.132 NA 
HETATM   10  H   UNL     1      -9.333   6.981  69.184  1.00  0.00     0.000 HD 
BRANCH   9  11
HETATM   11  P   UNL     1      -7.226   7.592  68.389  1.00  0.00    -0.094 P  
HETATM   12  O   UNL     1      -7.727   9.019  68.058  1.00  0.00    -0.095 OA 
BRANCH  11  13
HETATM   13  C   UNL     1      -7.768   7.033  66.642  1.00  0.00    -0.094 C  
BRANCH  13  14
HETATM   14  O   UNL     1      -7.125   7.806  65.559  1.00  0.00    -0.061 OA 
BRANCH  14  15
HETATM   15  C   UNL     1      -7.897   8.299  64.431  1.00  0.00    -0.135 C  
HETATM   16  C   UNL     1      -9.075   9.143  64.934  1.00  0.00    -0.190 C  
BRANCH  15  17
HETATM   17  C   UNL     1      -8.274   7.241  63.403  1.00  0.00     0.080 C  
BRANCH  17  18
HETATM   18  N   UNL     1      -7.528   6.016  63.479  1.00  0.00    -0.066 NA 
HETATM   19  C   UNL     1      -6.229   5.799  63.103  1.00  0.00    -0.024 A  
HETATM   20  N   UNL     1      -5.838   4.577  63.391  1.00  0.00    -0.017 NA 
HETATM   21  C   UNL     1      -6.946   3.985  63.955  1.00  0.00    -0.046 A  
HETATM   22  C   UNL     1      -7.155   2.706  64.476  1.00  0.00    -0.049 A  
HETATM   23  N   UNL     1      -8.394   2.374  64.909  1.00  0.00    -0.087 NA 
HETATM   24  N   UNL     1      -6.132   1.772  64.550  1.00  0.00    -0.017 NA 
HETATM   25  C   UNL     1      -9.354   3.316  64.858  1.00  0.00    -0.149 A  
HETATM   26  H1  UNL     1      -6.285   0.838  64.930  1.00  0.00     0.000 HD 
HETATM   27  H2  UNL     1      -5.359   2.196  65.062  1.00  0.00     0.000 HD 
HETATM   28  N   UNL     1      -9.266   4.591  64.416  1.00  0.00    -0.150 NA 
HETATM   29  C   UNL     1      -8.023   4.847  63.981  1.00  0.00    -0.101 A  
ENDBRANCH  17  18
ENDBRANCH  15  17
ENDBRANCH  14  15
ENDBRANCH  13  14
ENDBRANCH  11  13
BRANCH  11  30
HETATM   30  O   UNL     1      -6.665   5.998  68.759  1.00  0.00    -0.059 OA 
BRANCH  30  31
HETATM   31  C   UNL     1      -7.615   5.102  69.218  1.00  0.00    -0.069 A  
HETATM   32  C   UNL     1      -8.557   4.654  68.290  1.00  0.00    -0.105 A  
HETATM   33  C   UNL     1      -8.706   3.774  70.930  1.00  0.00    -0.119 A  
HETATM   34  C   UNL     1      -7.686   4.653  70.540  1.00  0.00    -0.054 A  
HETATM   35  C   UNL     1      -9.656   3.345  70.005  1.00  0.00    -0.202 A  
HETATM   36  C   UNL     1      -9.581   3.786  68.687  1.00  0.00    -0.173 A  
ENDBRANCH  30  31
ENDBRANCH  11  30
ENDBRANCH   9  11
ENDBRANCH   7   9
ENDBRANCH   5   7
ENDBRANCH   4   5
ENDBRANCH   2   4
TORSDOF 12
ENDMDL
MODEL      423
REMARK 921   NORMALIZED FREE ENERGY PREDICTED BY IDOCK:   -0.47 KCAL/MOL
REMARK 922        TOTAL FREE ENERGY PREDICTED BY IDOCK:   -2.51 KCAL/MOL
REMARK 923 INTER-LIGAND FREE ENERGY PREDICTED BY IDOCK:   -1.76 KCAL/MOL
REMARK 924 INTRA-LIGAND FREE ENERGY PREDICTED BY IDOCK:   -0.75 KCAL/MOL
REMARK 927      BINDING AFFINITY PREDICTED BY RF-SCORE:    0.00 PKD
ROOT
HETATM    1  C   UNL     1      -6.500  11.833  66.764  1.00  0.00    -0.069 C  
HETATM    2  C   UNL     1      -6.654  10.338  66.472  1.00  0.00    -0.085 C  
HETATM    3  C   UNL     1      -5.432   9.555  66.973  1.00  0.00    -0.046 C  
ENDROOT
BRANCH   2   4
HETATM    4  O   UNL     1      -7.965   9.820  66.872  1.00  0.00    -0.105 OA 
BRANCH   4   5
HETATM    5  C   UNL     1      -8.666   9.040  66.014  1.00  0.00    -0.160 C  
HETATM    6  O   UNL     1      -8.761   9.285  64.810  1.00  0.00    -0.175 OA 
BRANCH   5   7
HETATM    7  C   UNL     1      -9.383   7.799  66.620  1.00  0.00    -0.188 C  
HETATM    8  C   UNL     1     -10.813   7.733  66.085  1.00  0.00     1.733 C  
BRANCH   7   9
HETATM    9  N   UNL     1      -9.344   7.574  68.117  1.00  0.00    -0.137 NA 
HETATM   10  H   UNL     1      -9.957   8.227  68.605  1.00  0.00     0.000 HD 
BRANCH   9  11
HETATM   11  P   UNL     1      -9.717   5.907  68.544  1.00  0.00    -0.141 P  
HETATM   12  O   UNL     1     -11.249   6.135  68.530  1.00  0.00    -0.341 OA 
BRANCH  11  13
HETATM   13  C   UNL     1      -9.809   5.632  70.434  1.00  0.00    -0.194 C  
BRANCH  13  14
HETATM   14  O   UNL     1     -10.129   6.864  71.185  1.00  0.00    -0.192 OA 
BRANCH  14  15
HETATM   15  C   UNL     1     -10.926   6.814  72.400  1.00  0.00    -0.246 C  
HETATM   16  C   UNL     1     -10.901   8.180  73.096  1.00  0.00    -0.028 C  
BRANCH  15  17
HETATM   17  C   UNL     1     -10.625   5.635  73.315  1.00  0.00    -0.250 C  
BRANCH  17  18
HETATM   18  N   UNL     1      -9.231   5.392  73.566  1.00  0.00    -0.131 NA 
HETATM   19  C   UNL     1      -8.278   6.295  73.956  1.00  0.00    -0.111 A  
HETATM   20  N   UNL     1      -7.120   5.714  74.178  1.00  0.00    -0.081 NA 
HETATM   21  C   UNL     1      -7.344   4.384  73.897  1.00  0.00    -0.069 A  
HETATM   22  C   UNL     1      -6.508   3.266  73.958  1.00  0.00    -0.029 A  
HETATM   23  N   UNL     1      -6.990   2.071  73.546  1.00  0.00    -0.023 NA 
HETATM   24  N   UNL     1      -5.203   3.355  74.418  1.00  0.00     0.000 NA 
HETATM   25  C   UNL     1      -8.273   2.013  73.141  1.00  0.00    -0.057 A  
HETATM   26  H1  UNL     1      -4.593   2.539  74.462  1.00  0.00     0.000 HD 
HETATM   27  H2  UNL     1      -5.227   3.779  75.346  1.00  0.00     0.000 HD 
HETATM   28  N   UNL     1      -9.185   3.008  73.073  1.00  0.00    -0.089 NA 
HETATM   29  C   UNL     1      -8.638   4.167  73.473  1.00  0.00    -0.092 A  
ENDBRANCH  17  18
ENDBRANCH  15  17
ENDBRANCH  14  15
ENDBRANCH  13  14
ENDBRANCH  11  13
BRANCH  11  30
HETATM   30  O   UNL     1      -8.006   5.651  68.558  1.00  0.00    -0.098 OA 
BRANCH  30  31
HETATM   31  C   UNL     1      -7.541   4.553  67.855  1.00  0.00    -0.077 A  
HETATM   32  C   UNL     1      -8.470   3.871  67.068  1.00  0.00    -0.101 A  
HETATM   33  C   UNL     1      -5.843   2.950  67.199  1.00  0.00    -0.023 A  
HETATM   34  C   UNL     1      -6.221   4.095  67.914  1.00  0.00    -0.036 A  
HETATM   35  C   UNL     1      -6.779   2.259  66.431  1.00  0.00    -0.039 A  
HETATM   36  C   UNL     1      -8.091   2.720  66.367  1.00  0.00    -0.083 A  
ENDBRANCH  30  31
ENDBRANCH  11  30
ENDBRANCH   9  11
ENDBRANCH   7   9
ENDBRANCH   5   7
ENDBRANCH   4   5
ENDBRANCH   2   4
TORSDOF 12
ENDMDL
MODEL      424
REMARK 921   NORMALIZED FREE ENERGY PREDICTED BY IDOCK:   -0.26 KCAL/MOL
REMARK 922        TOTAL FREE ENERGY PREDICTED BY IDOCK:   -2.16 KCAL/MOL
REMARK 923 INTER-LIGAND FREE ENERGY PREDICTED BY IDOCK:   -4.20 KCAL/MOL
REMARK 924 INTRA-LIGAND FREE ENERGY PREDICTED BY IDOCK:    2.04 KCAL/MOL
REMARK 927      BINDING AFFINITY PREDICTED BY RF-SCORE:    0.00 PKD
ROOT
HETATM    1  C   UNL     1     -11.170   5.410  67.054  1.00  0.00     0.642 C  
HETATM    2  C   UNL     1      -9.801   5.335  67.734  1.00  0.00    -0.152 C  
HETATM    3  C   UNL     1      -9.247   3.904  67.692  1.00  0.00    -0.203 C  
ENDROOT
BRANCH   2   4
HETATM    4  O   UNL     1      -8.893   6.395  67.288  1.00  0.00    -0.110 OA 
BRANCH   4   5
HETATM    5  C   UNL     1      -7.611   6.407  67.727  1.00  0.00    -0.102 C  
HETATM    6  O   UNL     1      -7.248   5.827  68.751  1.00  0.00    -0.077 OA 
BRANCH   5   7
HETATM    7  C   UNL     1      -6.587   7.216  66.879  1.00  0.00    -0.055 C  
HETATM    8  C   UNL     1      -5.267   7.313  67.643  1.00  0.00    -0.020 C  
BRANCH   7   9
HETATM    9  N   UNL     1      -6.990   8.557  66.304  1.00  0.00    -0.076 NA 
HETATM   10  H   UNL     1      -7.982   8.741  66.454  1.00  0.00     0.000 HD 
BRANCH   9  11
HETATM   11  P   UNL     1      -5.996   9.870  66.929  1.00  0.00    -0.056 P  
HETATM   12  O   UNL     1      -6.434   9.643  68.397  1.00  0.00    -0.052 OA 
BRANCH  11  13
HETATM   13  C   UNL     1      -6.915  11.547  66.949  1.00  0.00    -0.134 C  
BRANCH  13  14
HETATM   14  O   UNL     1      -6.560  12.390  68.110  1.00  0.00    -0.062 OA 
BRANCH  14  15
HETATM   15  C   UNL     1      -7.562  12.774  69.090  1.00  0.00     0.259 C  
HETATM   16  C   UNL     1      -8.828  11.929  68.900  1.00  0.00     0.165 C  
BRANCH  15  17
HETATM   17  C   UNL     1      -7.814  14.271  69.194  1.00  0.00     0.018 C  
BRANCH  17  18
HETATM   18  N   UNL     1      -8.322  14.894  68.003  1.00  0.00    -0.142 NA 
HETATM   19  C   UNL     1      -7.647  15.694  67.120  1.00  0.00    -0.223 A  
HETATM   20  N   UNL     1      -8.397  16.023  66.091  1.00  0.00    -0.254 NA 
HETATM   21  C   UNL     1      -9.610  15.421  66.344  1.00  0.00    -0.293 A  
HETATM   22  C   UNL     1     -10.803  15.388  65.616  1.00  0.00    -0.355 A  
HETATM   23  N   UNL     1     -11.876  14.763  66.156  1.00  0.00    -0.263 NA 
HETATM   24  N   UNL     1     -10.913  15.984  64.370  1.00  0.00    -0.932 NA 
HETATM   25  C   UNL     1     -11.723  14.163  67.351  1.00  0.00    -0.391 A  
HETATM   26  H1  UNL     1     -11.784  15.960  63.839  1.00  0.00     0.000 HD 
HETATM   27  H2  UNL     1     -10.174  15.607  63.776  1.00  0.00     0.000 HD 
HETATM   28  N   UNL     1     -10.618  14.092  68.127  1.00  0.00    -0.241 NA 
HETATM   29  C   UNL     1      -9.601  14.748  67.549  1.00  0.00    -0.208 A  
ENDBRANCH  17  18
ENDBRANCH  15  17
ENDBRANCH  14  15
ENDBRANCH  13  14
ENDBRANCH  11  13
BRANCH  11  30
HETATM   30  O   UNL     1      -5.506  10.122  65.289  1.00  0.00    -0.059 OA 
BRANCH  30  31
HETATM   31  C   UNL     1      -6.405   9.734  64.311  1.00  0.00    -0.117 A  
HETATM   32  C   UNL     1      -7.697  10.253  64.402  1.00  0.00    -0.104 A  
HETATM   33  C   UNL     1      -7.074   8.479  62.345  1.00  0.00    -0.097 A  
HETATM   34  C   UNL     1      -6.091   8.850  63.274  1.00  0.00    -0.089 A  
HETATM   35  C   UNL     1      -8.369   8.984  62.453  1.00  0.00    -0.191 A  
HETATM   36  C   UNL     1      -8.679   9.870  63.481  1.00  0.00    -0.223 A  
ENDBRANCH  30  31
ENDBRANCH  11  30
ENDBRANCH   9  11
ENDBRANCH   7   9
ENDBRANCH   5   7
ENDBRANCH   4   5
ENDBRANCH   2   4
TORSDOF 12
ENDMDL
MODEL      425
REMARK 921   NORMALIZED FREE ENERGY PREDICTED BY IDOCK:   -0.26 KCAL/MOL
REMARK 922        TOTAL FREE ENERGY PREDICTED BY IDOCK:   -2.16 KCAL/MOL
REMARK 923 INTER-LIGAND FREE ENERGY PREDICTED BY IDOCK:   -4.77 KCAL/MOL
REMARK 924 INTRA-LIGAND FREE ENERGY PREDICTED BY IDOCK:    2.62 KCAL/MOL
REMARK 927      BINDING AFFINITY PREDICTED BY RF-SCORE:    0.00 PKD
ROOT
HETATM    1  C   UNL     1      -9.027   4.570  64.663  1.00  0.00    -0.152 C  
HETATM    2  C   UNL     1      -8.059   3.669  65.434  1.00  0.00    -0.097 C  
HETATM    3  C   UNL     1      -6.676   3.658  64.769  1.00  0.00    -0.047 C  
ENDROOT
BRANCH   2   4
HETATM    4  O   UNL     1      -8.083   3.924  66.877  1.00  0.00    -0.095 OA 
BRANCH   4   5
HETATM    5  C   UNL     1      -9.230   4.346  67.463  1.00  0.00    -0.143 C  
HETATM    6  O   UNL     1     -10.241   3.645  67.540  1.00  0.00     0.323 OA 
BRANCH   5   7
HETATM    7  C   UNL     1      -9.235   5.792  68.035  1.00  0.00    -0.109 C  
HETATM    8  C   UNL     1      -8.159   6.616  67.329  1.00  0.00    -0.121 C  
BRANCH   7   9
HETATM    9  N   UNL     1      -9.190   6.000  69.535  1.00  0.00    -0.136 NA 
HETATM   10  H   UNL     1      -8.363   6.528  69.811  1.00  0.00     0.000 HD 
BRANCH   9  11
HETATM   11  P   UNL     1     -10.662   6.754  70.141  1.00  0.00    -0.271 P  
HETATM   12  O   UNL     1     -11.344   6.785  68.751  1.00  0.00    -0.151 OA 
BRANCH  11  13
HETATM   13  C   UNL     1     -10.580   8.665  70.105  1.00  0.00    -0.225 C  
BRANCH  13  14
HETATM   14  O   UNL     1      -9.375   9.182  69.424  1.00  0.00    -0.153 OA 
BRANCH  14  15
HETATM   15  C   UNL     1      -9.425   9.608  68.036  1.00  0.00    -0.132 C  
HETATM   16  C   UNL     1      -8.047  10.119  67.598  1.00  0.00    -0.109 C  
BRANCH  15  17
HETATM   17  C   UNL     1     -10.580  10.540  67.694  1.00  0.00    -0.250 C  
BRANCH  17  18
HETATM   18  N   UNL     1     -10.207  11.775  67.061  1.00  0.00    -0.212 NA 
HETATM   19  C   UNL     1      -9.722  11.956  65.794  1.00  0.00    -0.237 A  
HETATM   20  N   UNL     1      -9.566  13.230  65.511  1.00  0.00    -0.030 NA 
HETATM   21  C   UNL     1      -9.951  13.887  66.658  1.00  0.00    -0.279 A  
HETATM   22  C   UNL     1     -10.023  15.246  66.975  1.00  0.00    -0.234 A  
HETATM   23  N   UNL     1     -10.376  15.603  68.231  1.00  0.00    -0.239 NA 
HETATM   24  N   UNL     1      -9.733  16.228  66.040  1.00  0.00    -0.325 NA 
HETATM   25  C   UNL     1     -10.688  14.625  69.102  1.00  0.00    -0.255 A  
HETATM   26  H1  UNL     1      -9.785  17.221  66.271  1.00  0.00     0.000 HD 
HETATM   27  H2  UNL     1     -10.321  16.066  65.223  1.00  0.00     0.000 HD 
HETATM   28  N   UNL     1     -10.693  13.287  68.906  1.00  0.00    -0.222 NA 
HETATM   29  C   UNL     1     -10.313  13.000  67.652  1.00  0.00    -0.222 A  
ENDBRANCH  17  18
ENDBRANCH  15  17
ENDBRANCH  14  15
ENDBRANCH  13  14
ENDBRANCH  11  13
BRANCH  11  30
HETATM   30  O   UNL     1      -9.900   6.719  71.694  1.00  0.00    -0.167 OA 
BRANCH  30  31
HETATM   31  C   UNL     1      -8.523   6.857  71.708  1.00  0.00    -0.115 A  
HETATM   32  C   UNL     1      -7.952   7.348  72.883  1.00  0.00    -0.120 A  
HETATM   33  C   UNL     1      -6.317   6.759  70.704  1.00  0.00    -0.043 A  
HETATM   34  C   UNL     1      -7.701   6.554  70.618  1.00  0.00    -0.105 A  
HETATM   35  C   UNL     1      -5.753   7.270  71.872  1.00  0.00    -0.037 A  
HETATM   36  C   UNL     1      -6.571   7.563  72.959  1.00  0.00    -0.065 A  
ENDBRANCH  30  31
ENDBRANCH  11  30
ENDBRANCH   9  11
ENDBRANCH   7   9
ENDBRANCH   5   7
ENDBRANCH   4   5
ENDBRANCH   2   4
TORSDOF 12
ENDMDL
MODEL      426
REMARK 921   NORMALIZED FREE ENERGY PREDICTED BY IDOCK:   -0.00 KCAL/MOL
REMARK 922        TOTAL FREE ENERGY PREDICTED BY IDOCK:   -1.71 KCAL/MOL
REMARK 923 INTER-LIGAND FREE ENERGY PREDICTED BY IDOCK:   -3.93 KCAL/MOL
REMARK 924 INTRA-LIGAND FREE ENERGY PREDICTED BY IDOCK:    2.22 KCAL/MOL
REMARK 927      BINDING AFFINITY PREDICTED BY RF-SCORE:    0.00 PKD
ROOT
HETATM    1  C   UNL     1     -11.185   5.393  67.064  1.00  0.00     0.642 C  
HETATM    2  C   UNL     1      -9.850   5.263  67.802  1.00  0.00    -0.152 C  
HETATM    3  C   UNL     1      -9.378   3.803  67.826  1.00  0.00    -0.237 C  
ENDROOT
BRANCH   2   4
HETATM    4  O   UNL     1      -8.867   6.256  67.361  1.00  0.00    -0.109 OA 
BRANCH   4   5
HETATM    5  C   UNL     1      -7.607   6.218  67.861  1.00  0.00    -0.102 C  
HETATM    6  O   UNL     1      -7.328   5.679  68.934  1.00  0.00    -0.078 OA 
BRANCH   5   7
HETATM    7  C   UNL     1      -6.497   6.912  67.020  1.00  0.00    -0.046 C  
HETATM    8  C   UNL     1      -5.213   6.984  67.845  1.00  0.00    -0.015 C  
BRANCH   7   9
HETATM    9  N   UNL     1      -6.793   8.234  66.344  1.00  0.00    -0.065 NA 
HETATM   10  H   UNL     1      -7.777   8.485  66.436  1.00  0.00     0.000 HD 
BRANCH   9  11
HETATM   11  P   UNL     1      -5.747   9.524  66.932  1.00  0.00    -0.052 P  
HETATM   12  O   UNL     1      -6.290   9.448  68.380  1.00  0.00    -0.052 OA 
BRANCH  11  13
HETATM   13  C   UNL     1      -6.543  11.255  66.761  1.00  0.00    -0.140 C  
BRANCH  13  14
HETATM   14  O   UNL     1      -5.844  12.296  67.542  1.00  0.00    -0.100 OA 
BRANCH  14  15
HETATM   15  C   UNL     1      -6.528  13.029  68.594  1.00  0.00    -0.087 C  
HETATM   16  C   UNL     1      -7.984  12.557  68.695  1.00  0.00    -0.029 C  
BRANCH  15  17
HETATM   17  C   UNL     1      -6.360  14.541  68.534  1.00  0.00    -0.088 C  
BRANCH  17  18
HETATM   18  N   UNL     1      -7.576  15.290  68.376  1.00  0.00    -0.112 NA 
HETATM   19  C   UNL     1      -8.767  15.102  69.023  1.00  0.00    -0.215 A  
HETATM   20  N   UNL     1      -9.647  16.024  68.699  1.00  0.00    -0.213 NA 
HETATM   21  C   UNL     1      -8.990  16.821  67.788  1.00  0.00    -0.216 A  
HETATM   22  C   UNL     1      -9.387  17.967  67.095  1.00  0.00    -0.259 A  
HETATM   23  N   UNL     1      -8.537  18.509  66.192  1.00  0.00    -0.491 NA 
HETATM   24  N   UNL     1     -10.627  18.551  67.303  1.00  0.00    -0.419 NA 
HETATM   25  C   UNL     1      -7.327  17.938  66.042  1.00  0.00    -0.271 A  
HETATM   26  H1  UNL     1     -10.918  19.388  66.797  1.00  0.00     0.000 HD 
HETATM   27  H2  UNL     1     -10.720  18.741  68.301  1.00  0.00     0.000 HD 
HETATM   28  N   UNL     1      -6.815  16.860  66.677  1.00  0.00    -0.225 NA 
HETATM   29  C   UNL     1      -7.714  16.358  67.538  1.00  0.00    -0.142 A  
ENDBRANCH  17  18
ENDBRANCH  15  17
ENDBRANCH  14  15
ENDBRANCH  13  14
ENDBRANCH  11  13
BRANCH  11  30
HETATM   30  O   UNL     1      -5.140   9.609  65.314  1.00  0.00    -0.038 OA 
BRANCH  30  31
HETATM   31  C   UNL     1      -5.999   9.197  64.311  1.00  0.00    -0.071 A  
HETATM   32  C   UNL     1      -7.133   9.981  64.091  1.00  0.00    -0.126 A  
HETATM   33  C   UNL     1      -6.742   7.679  62.570  1.00  0.00    -0.075 A  
HETATM   34  C   UNL     1      -5.800   8.046  63.542  1.00  0.00    -0.062 A  
HETATM   35  C   UNL     1      -7.883   8.454  62.369  1.00  0.00    -0.142 A  
HETATM   36  C   UNL     1      -8.077   9.603  63.129  1.00  0.00    -0.146 A  
ENDBRANCH  30  31
ENDBRANCH  11  30
ENDBRANCH   9  11
ENDBRANCH   7   9
ENDBRANCH   5   7
ENDBRANCH   4   5
ENDBRANCH   2   4
TORSDOF 12
ENDMDL
MODEL      427
REMARK 921   NORMALIZED FREE ENERGY PREDICTED BY IDOCK:    0.56 KCAL/MOL
REMARK 922        TOTAL FREE ENERGY PREDICTED BY IDOCK:   -0.77 KCAL/MOL
REMARK 923 INTER-LIGAND FREE ENERGY PREDICTED BY IDOCK:   -2.65 KCAL/MOL
REMARK 924 INTRA-LIGAND FREE ENERGY PREDICTED BY IDOCK:    1.88 KCAL/MOL
REMARK 927      BINDING AFFINITY PREDICTED BY RF-SCORE:    0.00 PKD
ROOT
HETATM    1  C   UNL     1      -6.898  10.236  72.879  1.00  0.00     3.217 C  
HETATM    2  C   UNL     1      -6.325   9.762  71.541  1.00  0.00     0.206 C  
HETATM    3  C   UNL     1      -5.128  10.626  71.122  1.00  0.00    -0.095 C  
ENDROOT
BRANCH   2   4
HETATM    4  O   UNL     1      -6.125   8.311  71.499  1.00  0.00    -0.035 OA 
BRANCH   4   5
HETATM    5  C   UNL     1      -6.505   7.615  70.400  1.00  0.00    -0.038 C  
HETATM    6  O   UNL     1      -5.703   7.190  69.565  1.00  0.00    -0.021 OA 
BRANCH   5   7
HETATM    7  C   UNL     1      -8.031   7.377  70.213  1.00  0.00    -0.107 C  
HETATM    8  C   UNL     1      -8.321   5.879  70.301  1.00  0.00    -0.122 C  
BRANCH   7   9
HETATM    9  N   UNL     1      -8.744   8.007  69.035  1.00  0.00    -0.137 NA 
HETATM   10  H   UNL     1      -9.738   7.778  69.038  1.00  0.00     0.000 HD 
BRANCH   9  11
HETATM   11  P   UNL     1      -8.489   9.749  68.964  1.00  0.00    -0.158 P  
HETATM   12  O   UNL     1      -9.471  10.046  70.123  1.00  0.00    -0.213 OA 
BRANCH  11  13
HETATM   13  C   UNL     1      -9.695  10.622  67.763  1.00  0.00    -0.161 C  
BRANCH  13  14
HETATM   14  O   UNL     1     -10.092  11.970  68.218  1.00  0.00    -0.192 OA 
BRANCH  14  15
HETATM   15  C   UNL     1     -11.494  12.335  68.342  1.00  0.00    -0.307 C  
HETATM   16  C   UNL     1     -12.322  11.101  68.724  1.00  0.00     0.132 C  
BRANCH  15  17
HETATM   17  C   UNL     1     -12.054  13.132  67.173  1.00  0.00    -0.286 C  
BRANCH  17  18
HETATM   18  N   UNL     1     -11.407  14.390  66.920  1.00  0.00    -0.335 NA 
HETATM   19  C   UNL     1     -10.957  14.877  65.722  1.00  0.00    -0.345 A  
HETATM   20  N   UNL     1     -10.492  16.101  65.839  1.00  0.00    -0.346 NA 
HETATM   21  C   UNL     1     -10.634  16.396  67.176  1.00  0.00    -0.276 A  
HETATM   22  C   UNL     1     -10.336  17.545  67.914  1.00  0.00    -0.371 A  
HETATM   23  N   UNL     1     -10.520  17.524  69.254  1.00  0.00    -0.237 NA 
HETATM   24  N   UNL     1      -9.850  18.694  67.308  1.00  0.00    -0.308 NA 
HETATM   25  C   UNL     1     -11.029  16.405  69.804  1.00  0.00    -0.341 A  
HETATM   26  H1  UNL     1      -9.632  19.533  67.847  1.00  0.00     0.000 HD 
HETATM   27  H2  UNL     1     -10.501  18.957  66.569  1.00  0.00     0.000 HD 
HETATM   28  N   UNL     1     -11.391  15.253  69.197  1.00  0.00    -0.276 NA 
HETATM   29  C   UNL     1     -11.162  15.331  67.877  1.00  0.00    -0.331 A  
ENDBRANCH  17  18
ENDBRANCH  15  17
ENDBRANCH  14  15
ENDBRANCH  13  14
ENDBRANCH  11  13
BRANCH  11  30
HETATM   30  O   UNL     1      -7.391   9.416  67.668  1.00  0.00    -0.083 OA 
BRANCH  30  31
HETATM   31  C   UNL     1      -7.878   9.597  66.386  1.00  0.00    -0.101 A  
HETATM   32  C   UNL     1      -6.946   9.915  65.397  1.00  0.00    -0.113 A  
HETATM   33  C   UNL     1      -9.645   9.736  64.729  1.00  0.00    -0.284 A  
HETATM   34  C   UNL     1      -9.231   9.499  66.048  1.00  0.00    -0.248 A  
HETATM   35  C   UNL     1      -8.713  10.074  63.750  1.00  0.00    -0.228 A  
HETATM   36  C   UNL     1      -7.365  10.164  64.085  1.00  0.00    -0.108 A  
ENDBRANCH  30  31
ENDBRANCH  11  30
ENDBRANCH   9  11
ENDBRANCH   7   9
ENDBRANCH   5   7
ENDBRANCH   4   5
ENDBRANCH   2   4
TORSDOF 12
ENDMDL
MODEL      428
REMARK 921   NORMALIZED FREE ENERGY PREDICTED BY IDOCK:    3.02 KCAL/MOL
REMARK 922        TOTAL FREE ENERGY PREDICTED BY IDOCK:    3.42 KCAL/MOL
REMARK 923 INTER-LIGAND FREE ENERGY PREDICTED BY IDOCK:    0.30 KCAL/MOL
REMARK 924 INTRA-LIGAND FREE ENERGY PREDICTED BY IDOCK:    3.12 KCAL/MOL
REMARK 927      BINDING AFFINITY PREDICTED BY RF-SCORE:    0.00 PKD
ROOT
HETATM    1  C   UNL     1     -10.870  15.507  69.960  1.00  0.00    -0.330 C  
HETATM    2  C   UNL     1     -11.287  14.091  69.557  1.00  0.00    -0.245 C  
HETATM    3  C   UNL     1     -11.847  14.073  68.127  1.00  0.00    -0.402 C  
ENDROOT
BRANCH   2   4
HETATM    4  O   UNL     1     -10.258  13.094  69.863  1.00  0.00     1.032 OA 
BRANCH   4   5
HETATM    5  C   UNL     1      -9.977  12.122  68.961  1.00  0.00     0.167 C  
HETATM    6  O   UNL     1     -10.442  12.113  67.819  1.00  0.00    -0.198 OA 
BRANCH   5   7
HETATM    7  C   UNL     1      -9.037  10.976  69.433  1.00  0.00     0.221 C  
HETATM    8  C   UNL     1      -9.782  10.096  70.436  1.00  0.00     0.132 C  
BRANCH   7   9
HETATM    9  N   UNL     1      -7.644  11.310  69.923  1.00  0.00    -0.261 NA 
HETATM   10  H   UNL     1      -7.111  10.465  70.127  1.00  0.00     0.000 HD 
BRANCH   9  11
HETATM   11  P   UNL     1      -6.781  12.354  68.797  1.00  0.00    -0.097 P  
HETATM   12  O   UNL     1      -5.901  12.993  69.899  1.00  0.00    -0.111 OA 
BRANCH  11  13
HETATM   13  C   UNL     1      -7.641  14.045  68.551  1.00  0.00    -0.130 C  
BRANCH  13  14
HETATM   14  O   UNL     1      -6.710  15.115  68.137  1.00  0.00    -0.110 OA 
BRANCH  14  15
HETATM   15  C   UNL     1      -6.138  16.028  69.112  1.00  0.00    -0.136 C  
HETATM   16  C   UNL     1      -6.664  15.691  70.513  1.00  0.00     0.491 C  
BRANCH  15  17
HETATM   17  C   UNL     1      -6.232  17.502  68.742  1.00  0.00    -0.188 C  
BRANCH  17  18
HETATM   18  N   UNL     1      -7.566  18.025  68.634  1.00  0.00    -0.289 NA 
HETATM   19  C   UNL     1      -8.461  18.257  69.644  1.00  0.00     0.927 A  
HETATM   20  N   UNL     1      -9.561  18.822  69.197  1.00  0.00    -0.227 NA 
HETATM   21  C   UNL     1      -9.363  18.934  67.839  1.00  0.00    -0.299 A  
HETATM   22  C   UNL     1     -10.161  19.463  66.822  1.00  0.00    -0.420 A  
HETATM   23  N   UNL     1      -9.729  19.372  65.542  1.00  0.00    -0.158 NA 
HETATM   24  N   UNL     1     -11.380  20.067  67.091  1.00  0.00     0.324 NA 
HETATM   25  C   UNL     1      -8.524  18.814  65.320  1.00  0.00     1.729 A  
HETATM   26  H1  UNL     1     -11.963  20.453  66.348  1.00  0.00     0.000 HD 
HETATM   27  H2  UNL     1     -11.219  20.803  67.777  1.00  0.00     0.000 HD 
HETATM   28  N   UNL     1      -7.649  18.305  66.217  1.00  0.00    -0.284 NA 
HETATM   29  C   UNL     1      -8.146  18.405  67.459  1.00  0.00    -0.247 A  
ENDBRANCH  17  18
ENDBRANCH  15  17
ENDBRANCH  14  15
ENDBRANCH  13  14
ENDBRANCH  11  13
BRANCH  11  30
HETATM   30  O   UNL     1      -7.764  11.640  67.564  1.00  0.00    -0.120 OA 
BRANCH  30  31
HETATM   31  C   UNL     1      -7.434  10.351  67.184  1.00  0.00    -0.092 A  
HETATM   32  C   UNL     1      -6.086   9.998  67.260  1.00  0.00    -0.058 A  
HETATM   33  C   UNL     1      -7.939   8.143  66.315  1.00  0.00    -0.101 A  
HETATM   34  C   UNL     1      -8.364   9.417  66.717  1.00  0.00    -0.123 A  
HETATM   35  C   UNL     1      -6.589   7.801  66.374  1.00  0.00    -0.050 A  
HETATM   36  C   UNL     1      -5.664   8.729  66.845  1.00  0.00    -0.045 A  
ENDBRANCH  30  31
ENDBRANCH  11  30
ENDBRANCH   9  11
ENDBRANCH   7   9
ENDBRANCH   5   7
ENDBRANCH   4   5
ENDBRANCH   2   4
TORSDOF 12
ENDMDL
MODEL      429
REMARK 921   NORMALIZED FREE ENERGY PREDICTED BY IDOCK:    3.20 KCAL/MOL
REMARK 922        TOTAL FREE ENERGY PREDICTED BY IDOCK:    3.73 KCAL/MOL
REMARK 923 INTER-LIGAND FREE ENERGY PREDICTED BY IDOCK:    2.29 KCAL/MOL
REMARK 924 INTRA-LIGAND FREE ENERGY PREDICTED BY IDOCK:    1.43 KCAL/MOL
REMARK 927      BINDING AFFINITY PREDICTED BY RF-SCORE:    0.00 PKD
ROOT
HETATM    1  C   UNL     1      -9.990   6.329  63.988  1.00  0.00     3.699 C  
HETATM    2  C   UNL     1     -10.707   5.886  65.266  1.00  0.00     2.065 C  
HETATM    3  C   UNL     1     -10.599   4.367  65.455  1.00  0.00    -0.192 C  
ENDROOT
BRANCH   2   4
HETATM    4  O   UNL     1     -10.352   6.711  66.424  1.00  0.00    -0.084 OA 
BRANCH   4   5
HETATM    5  C   UNL     1     -10.296   8.059  66.293  1.00  0.00     0.323 C  
HETATM    6  O   UNL     1     -10.141   8.621  65.207  1.00  0.00     0.710 OA 
BRANCH   5   7
HETATM    7  C   UNL     1     -10.420   8.896  67.598  1.00  0.00    -0.255 C  
HETATM    8  C   UNL     1     -10.640  10.364  67.236  1.00  0.00    -0.322 C  
BRANCH   7   9
HETATM    9  N   UNL     1      -9.371   8.748  68.680  1.00  0.00    -0.141 NA 
HETATM   10  H   UNL     1      -8.512   8.340  68.311  1.00  0.00     0.000 HD 
BRANCH   9  11
HETATM   11  P   UNL     1      -9.052  10.272  69.504  1.00  0.00    -0.037 P  
HETATM   12  O   UNL     1      -8.811  11.053  68.190  1.00  0.00    -0.131 OA 
BRANCH  11  13
HETATM   13  C   UNL     1      -7.204  10.502  69.941  1.00  0.00    -0.130 C  
BRANCH  13  14
HETATM   14  O   UNL     1      -6.349   9.407  69.438  1.00  0.00    -0.043 OA 
BRANCH  14  15
HETATM   15  C   UNL     1      -6.700   8.016  69.671  1.00  0.00    -0.038 C  
HETATM   16  C   UNL     1      -6.149   7.559  71.027  1.00  0.00    -0.035 C  
BRANCH  15  17
HETATM   17  C   UNL     1      -6.389   7.075  68.515  1.00  0.00    -0.035 C  
BRANCH  17  18
HETATM   18  N   UNL     1      -6.599   5.679  68.784  1.00  0.00    -0.046 NA 
HETATM   19  C   UNL     1      -5.653   4.714  69.001  1.00  0.00    -0.012 A  
HETATM   20  N   UNL     1      -6.200   3.557  69.303  1.00  0.00    -0.028 NA 
HETATM   21  C   UNL     1      -7.555   3.794  69.254  1.00  0.00    -0.053 A  
HETATM   22  C   UNL     1      -8.655   2.966  69.491  1.00  0.00    -0.067 A  
HETATM   23  N   UNL     1      -9.898   3.464  69.294  1.00  0.00     0.085 NA 
HETATM   24  N   UNL     1      -8.502   1.653  69.911  1.00  0.00    -0.045 NA 
HETATM   25  C   UNL     1     -10.011   4.753  68.923  1.00  0.00    -0.126 A  
HETATM   26  H1  UNL     1      -9.306   1.048  70.084  1.00  0.00     0.000 HD 
HETATM   27  H2  UNL     1      -7.928   1.660  70.754  1.00  0.00     0.000 HD 
HETATM   28  N   UNL     1      -9.033   5.659  68.701  1.00  0.00    -0.111 NA 
HETATM   29  C   UNL     1      -7.829   5.097  68.891  1.00  0.00    -0.082 A  
ENDBRANCH  17  18
ENDBRANCH  15  17
ENDBRANCH  14  15
ENDBRANCH  13  14
ENDBRANCH  11  13
BRANCH  11  30
HETATM   30  O   UNL     1      -9.323   9.398  70.974  1.00  0.00    -0.240 OA 
BRANCH  30  31
HETATM   31  C   UNL     1     -10.630   9.341  71.424  1.00  0.00    -0.347 A  
HETATM   32  C   UNL     1     -10.993   8.212  72.160  1.00  0.00    -0.372 A  
HETATM   33  C   UNL     1     -12.900  10.172  71.626  1.00  0.00    -0.559 A  
HETATM   34  C   UNL     1     -11.586  10.327  71.164  1.00  0.00    -0.385 A  
HETATM   35  C   UNL     1     -13.263   9.033  72.342  1.00  0.00    -0.507 A  
HETATM   36  C   UNL     1     -12.309   8.054  72.608  1.00  0.00    -0.165 A  
ENDBRANCH  30  31
ENDBRANCH  11  30
ENDBRANCH   9  11
ENDBRANCH   7   9
ENDBRANCH   5   7
ENDBRANCH   4   5
ENDBRANCH   2   4
TORSDOF 12
ENDMDL
MODEL      430
REMARK 921   NORMALIZED FREE ENERGY PREDICTED BY IDOCK:    6.43 KCAL/MOL
REMARK 922        TOTAL FREE ENERGY PREDICTED BY IDOCK:    9.23 KCAL/MOL
REMARK 923 INTER-LIGAND FREE ENERGY PREDICTED BY IDOCK:    5.53 KCAL/MOL
REMARK 924 INTRA-LIGAND FREE ENERGY PREDICTED BY IDOCK:    3.70 KCAL/MOL
REMARK 927      BINDING AFFINITY PREDICTED BY RF-SCORE:    0.00 PKD
ROOT
HETATM    1  C   UNL     1      -7.354  14.129  73.401  1.00  0.00     5.288 C  
HETATM    2  C   UNL     1      -6.830  13.759  72.012  1.00  0.00     3.284 C  
HETATM    3  C   UNL     1      -7.072  14.902  71.015  1.00  0.00     1.119 C  
ENDROOT
BRANCH   2   4
HETATM    4  O   UNL     1      -5.472  13.209  72.052  1.00  0.00    -0.388 OA 
BRANCH   4   5
HETATM    5  C   UNL     1      -5.273  11.897  71.777  1.00  0.00     0.142 C  
HETATM    6  O   UNL     1      -5.139  11.042  72.654  1.00  0.00    -0.324 OA 
BRANCH   5   7
HETATM    7  C   UNL     1      -5.201  11.497  70.275  1.00  0.00    -0.093 C  
HETATM    8  C   UNL     1      -5.134  12.762  69.421  1.00  0.00    -0.074 C  
BRANCH   7   9
HETATM    9  N   UNL     1      -6.205  10.510  69.718  1.00  0.00    -0.061 NA 
HETATM   10  H   UNL     1      -7.049  10.982  69.396  1.00  0.00     0.000 HD 
BRANCH   9  11
HETATM   11  P   UNL     1      -5.509   9.506  68.449  1.00  0.00    -0.035 P  
HETATM   12  O   UNL     1      -5.307  10.694  67.476  1.00  0.00    -0.040 OA 
BRANCH  11  13
HETATM   13  C   UNL     1      -6.830   8.800  67.259  1.00  0.00    -0.067 C  
BRANCH  13  14
HETATM   14  O   UNL     1      -7.916   9.757  66.965  1.00  0.00    -0.105 OA 
BRANCH  14  15
HETATM   15  C   UNL     1      -8.153  10.227  65.610  1.00  0.00    -0.155 C  
HETATM   16  C   UNL     1      -6.832  10.254  64.830  1.00  0.00    -0.087 C  
BRANCH  15  17
HETATM   17  C   UNL     1      -8.970  11.507  65.509  1.00  0.00    -0.031 C  
BRANCH  17  18
HETATM   18  N   UNL     1      -9.167  12.209  66.747  1.00  0.00    -0.202 NA 
HETATM   19  C   UNL     1      -8.256  12.419  67.748  1.00  0.00    -0.163 A  
HETATM   20  N   UNL     1      -8.750  13.177  68.702  1.00  0.00    -0.030 NA 
HETATM   21  C   UNL     1     -10.039  13.442  68.299  1.00  0.00    -0.247 A  
HETATM   22  C   UNL     1     -11.059  14.202  68.878  1.00  0.00    -0.263 A  
HETATM   23  N   UNL     1     -12.272  14.226  68.278  1.00  0.00    -0.237 NA 
HETATM   24  N   UNL     1     -10.860  14.918  70.048  1.00  0.00    -0.414 NA 
HETATM   25  C   UNL     1     -12.420  13.551  67.123  1.00  0.00    -0.007 A  
HETATM   26  H1  UNL     1     -11.605  15.472  70.471  1.00  0.00     0.000 HD 
HETATM   27  H2  UNL     1     -10.056  15.529  69.908  1.00  0.00     0.000 HD 
HETATM   28  N   UNL     1     -11.506  12.817  66.449  1.00  0.00    -0.337 NA 
HETATM   29  C   UNL     1     -10.336  12.815  67.106  1.00  0.00    -0.233 A  
ENDBRANCH  17  18
ENDBRANCH  15  17
ENDBRANCH  14  15
ENDBRANCH  13  14
ENDBRANCH  11  13
BRANCH  11  30
HETATM   30  O   UNL     1      -5.734   8.179  69.537  1.00  0.00    -0.026 OA 
BRANCH  30  31
HETATM   31  C   UNL     1      -7.006   7.637  69.592  1.00  0.00    -0.052 A  
HETATM   32  C   UNL     1      -7.195   6.564  70.464  1.00  0.00    -0.074 A  
HETATM   33  C   UNL     1      -9.326   7.459  68.909  1.00  0.00    -0.145 A  
HETATM   34  C   UNL     1      -8.078   8.091  68.819  1.00  0.00    -0.125 A  
HETATM   35  C   UNL     1      -9.505   6.374  69.765  1.00  0.00    -0.160 A  
HETATM   36  C   UNL     1      -8.439   5.927  70.541  1.00  0.00    -0.128 A  
ENDBRANCH  30  31
ENDBRANCH  11  30
ENDBRANCH   9  11
ENDBRANCH   7   9
ENDBRANCH   5   7
ENDBRANCH   4   5
ENDBRANCH   2   4
TORSDOF 12
ENDMDL
MODEL      431
REMARK 921   NORMALIZED FREE ENERGY PREDICTED BY IDOCK:    6.54 KCAL/MOL
REMARK 922        TOTAL FREE ENERGY PREDICTED BY IDOCK:    9.41 KCAL/MOL
REMARK 923 INTER-LIGAND FREE ENERGY PREDICTED BY IDOCK:    5.91 KCAL/MOL
REMARK 924 INTRA-LIGAND FREE ENERGY PREDICTED BY IDOCK:    3.51 KCAL/MOL
REMARK 927      BINDING AFFINITY PREDICTED BY RF-SCORE:    0.00 PKD
ROOT
HETATM    1  C   UNL     1      -7.392  14.119  73.404  1.00  0.00     5.288 C  
HETATM    2  C   UNL     1      -6.897  13.767  71.998  1.00  0.00     3.284 C  
HETATM    3  C   UNL     1      -7.093  14.950  71.039  1.00  0.00     1.119 C  
ENDROOT
BRANCH   2   4
HETATM    4  O   UNL     1      -5.566  13.154  72.009  1.00  0.00    -0.399 OA 
BRANCH   4   5
HETATM    5  C   UNL     1      -5.424  11.857  71.640  1.00  0.00     0.286 C  
HETATM    6  O   UNL     1      -5.375  10.931  72.451  1.00  0.00    -0.307 OA 
BRANCH   5   7
HETATM    7  C   UNL     1      -5.305  11.571  70.115  1.00  0.00    -0.094 C  
HETATM    8  C   UNL     1      -5.132  12.892  69.367  1.00  0.00    -0.074 C  
BRANCH   7   9
HETATM    9  N   UNL     1      -6.333  10.687  69.441  1.00  0.00    -0.053 NA 
HETATM   10  H   UNL     1      -5.892  10.037  68.790  1.00  0.00     0.000 HD 
BRANCH   9  11
HETATM   11  P   UNL     1      -7.341   9.838  70.608  1.00  0.00     0.209 P  
HETATM   12  O   UNL     1      -6.227   8.836  71.000  1.00  0.00    -0.037 OA 
BRANCH  11  13
HETATM   13  C   UNL     1      -8.318   8.392  69.825  1.00  0.00    -0.125 C  
BRANCH  13  14
HETATM   14  O   UNL     1      -7.534   7.635  68.827  1.00  0.00    -0.094 OA 
BRANCH  14  15
HETATM   15  C   UNL     1      -7.236   6.225  69.022  1.00  0.00    -0.083 C  
HETATM   16  C   UNL     1      -7.077   5.533  67.663  1.00  0.00    -0.071 C  
BRANCH  15  17
HETATM   17  C   UNL     1      -8.162   5.503  69.991  1.00  0.00    -0.104 C  
BRANCH  17  18
HETATM   18  N   UNL     1      -9.543   5.896  69.931  1.00  0.00    -0.155 NA 
HETATM   19  C   UNL     1     -10.407   5.764  68.877  1.00  0.00    -0.227 A  
HETATM   20  N   UNL     1     -11.623   6.151  69.196  1.00  0.00    -0.098 NA 
HETATM   21  C   UNL     1     -11.520   6.567  70.504  1.00  0.00    -0.387 A  
HETATM   22  C   UNL     1     -12.467   7.070  71.400  1.00  0.00    -0.384 A  
HETATM   23  N   UNL     1     -12.055   7.471  72.625  1.00  0.00    -0.117 NA 
HETATM   24  N   UNL     1     -13.807   7.176  71.060  1.00  0.00    -0.472 NA 
HETATM   25  C   UNL     1     -10.754   7.319  72.935  1.00  0.00    -0.322 A  
HETATM   26  H1  UNL     1     -14.499   7.544  71.714  1.00  0.00     0.000 HD 
HETATM   27  H2  UNL     1     -14.125   6.257  70.752  1.00  0.00     0.000 HD 
HETATM   28  N   UNL     1      -9.756   6.814  72.176  1.00  0.00    -0.150 NA 
HETATM   29  C   UNL     1     -10.225   6.458  70.970  1.00  0.00    -0.192 A  
ENDBRANCH  17  18
ENDBRANCH  15  17
ENDBRANCH  14  15
ENDBRANCH  13  14
ENDBRANCH  11  13
BRANCH  11  30
HETATM   30  O   UNL     1      -8.586  10.957  70.170  1.00  0.00     0.702 OA 
BRANCH  30  31
HETATM   31  C   UNL     1      -8.788  11.155  68.816  1.00  0.00    -0.125 A  
HETATM   32  C   UNL     1      -9.788  12.060  68.454  1.00  0.00    -0.204 A  
HETATM   33  C   UNL     1      -8.365  10.721  66.467  1.00  0.00    -0.146 A  
HETATM   34  C   UNL     1      -8.070  10.490  67.818  1.00  0.00    -0.106 A  
HETATM   35  C   UNL     1      -9.378  11.610  66.111  1.00  0.00    -0.237 A  
HETATM   36  C   UNL     1     -10.088  12.277  67.105  1.00  0.00    -0.218 A  
ENDBRANCH  30  31
ENDBRANCH  11  30
ENDBRANCH   9  11
ENDBRANCH   7   9
ENDBRANCH   5   7
ENDBRANCH   4   5
ENDBRANCH   2   4
TORSDOF 12
ENDMDL
MODEL      432
REMARK 921   NORMALIZED FREE ENERGY PREDICTED BY IDOCK:    8.04 KCAL/MOL
REMARK 922        TOTAL FREE ENERGY PREDICTED BY IDOCK:   11.96 KCAL/MOL
REMARK 923 INTER-LIGAND FREE ENERGY PREDICTED BY IDOCK:    6.87 KCAL/MOL
REMARK 924 INTRA-LIGAND FREE ENERGY PREDICTED BY IDOCK:    5.09 KCAL/MOL
REMARK 927      BINDING AFFINITY PREDICTED BY RF-SCORE:    0.00 PKD
ROOT
HETATM    1  C   UNL     1      -7.355  14.129  73.402  1.00  0.00     5.288 C  
HETATM    2  C   UNL     1      -6.834  13.760  72.011  1.00  0.00     3.284 C  
HETATM    3  C   UNL     1      -7.077  14.903  71.015  1.00  0.00     1.119 C  
ENDROOT
BRANCH   2   4
HETATM    4  O   UNL     1      -5.476  13.210  72.048  1.00  0.00    -0.388 OA 
BRANCH   4   5
HETATM    5  C   UNL     1      -5.278  11.897  71.772  1.00  0.00     0.142 C  
HETATM    6  O   UNL     1      -5.141  11.042  72.648  1.00  0.00    -0.324 OA 
BRANCH   5   7
HETATM    7  C   UNL     1      -5.209  11.499  70.270  1.00  0.00    -0.093 C  
HETATM    8  C   UNL     1      -5.146  12.765  69.416  1.00  0.00    -0.074 C  
BRANCH   7   9
HETATM    9  N   UNL     1      -6.213  10.511  69.715  1.00  0.00    -0.061 NA 
HETATM   10  H   UNL     1      -7.060  10.983  69.396  1.00  0.00     0.000 HD 
BRANCH   9  11
HETATM   11  P   UNL     1      -5.521   9.511  68.441  1.00  0.00    -0.035 P  
HETATM   12  O   UNL     1      -5.325  10.700  67.469  1.00  0.00    -0.040 OA 
BRANCH  11  13
HETATM   13  C   UNL     1      -6.846   8.804  67.256  1.00  0.00    -0.067 C  
BRANCH  13  14
HETATM   14  O   UNL     1      -7.936   9.759  66.968  1.00  0.00    -0.105 OA 
BRANCH  14  15
HETATM   15  C   UNL     1      -8.178  10.233  65.615  1.00  0.00    -0.153 C  
HETATM   16  C   UNL     1      -9.411  11.146  65.595  1.00  0.00    -0.243 C  
BRANCH  15  17
HETATM   17  C   UNL     1      -8.182   9.147  64.548  1.00  0.00    -0.152 C  
BRANCH  17  18
HETATM   18  N   UNL     1      -8.209   7.798  65.043  1.00  0.00    -0.137 NA 
HETATM   19  C   UNL     1      -9.206   7.184  65.753  1.00  0.00     0.137 A  
HETATM   20  N   UNL     1      -8.937   5.916  65.971  1.00  0.00    -0.152 NA 
HETATM   21  C   UNL     1      -7.703   5.722  65.392  1.00  0.00    -0.091 A  
HETATM   22  C   UNL     1      -6.895   4.587  65.278  1.00  0.00    -0.057 A  
HETATM   23  N   UNL     1      -5.675   4.713  64.706  1.00  0.00    -0.014 NA 
HETATM   24  N   UNL     1      -7.308   3.349  65.744  1.00  0.00    -0.071 NA 
HETATM   25  C   UNL     1      -5.321   5.922  64.231  1.00  0.00    -0.017 A  
HETATM   26  H1  UNL     1      -6.718   2.520  65.661  1.00  0.00     0.000 HD 
HETATM   27  H2  UNL     1      -8.208   3.137  65.312  1.00  0.00     0.000 HD 
HETATM   28  N   UNL     1      -6.025   7.076  64.246  1.00  0.00    -0.036 NA 
HETATM   29  C   UNL     1      -7.210   6.889  64.845  1.00  0.00    -0.078 A  
ENDBRANCH  17  18
ENDBRANCH  15  17
ENDBRANCH  14  15
ENDBRANCH  13  14
ENDBRANCH  11  13
BRANCH  11  30
HETATM   30  O   UNL     1      -5.740   8.182  69.528  1.00  0.00    -0.026 OA 
BRANCH  30  31
HETATM   31  C   UNL     1      -7.011   7.638  69.588  1.00  0.00    -0.052 A  
HETATM   32  C   UNL     1      -7.195   6.562  70.458  1.00  0.00    -0.074 A  
HETATM   33  C   UNL     1      -9.334   7.457  68.911  1.00  0.00    -0.145 A  
HETATM   34  C   UNL     1      -8.087   8.091  68.818  1.00  0.00    -0.125 A  
HETATM   35  C   UNL     1      -9.508   6.370  69.767  1.00  0.00    -0.160 A  
HETATM   36  C   UNL     1      -8.438   5.924  70.538  1.00  0.00    -0.128 A  
ENDBRANCH  30  31
ENDBRANCH  11  30
ENDBRANCH   9  11
ENDBRANCH   7   9
ENDBRANCH   5   7
ENDBRANCH   4   5
ENDBRANCH   2   4
TORSDOF 12
ENDMDL
MODEL      433
REMARK 921   NORMALIZED FREE ENERGY PREDICTED BY IDOCK:   13.23 KCAL/MOL
REMARK 922        TOTAL FREE ENERGY PREDICTED BY IDOCK:   20.80 KCAL/MOL
REMARK 923 INTER-LIGAND FREE ENERGY PREDICTED BY IDOCK:   16.98 KCAL/MOL
REMARK 924 INTRA-LIGAND FREE ENERGY PREDICTED BY IDOCK:    3.82 KCAL/MOL
REMARK 927      BINDING AFFINITY PREDICTED BY RF-SCORE:    0.00 PKD
ROOT
HETATM    1  C   UNL     1      -7.877  14.123  73.644  1.00  0.00     7.531 C  
HETATM    2  C   UNL     1      -7.321  13.707  72.280  1.00  0.00     6.494 C  
HETATM    3  C   UNL     1      -7.425  14.861  71.273  1.00  0.00     2.233 C  
ENDROOT
BRANCH   2   4
HETATM    4  O   UNL     1      -6.016  13.051  72.382  1.00  0.00     0.321 OA 
BRANCH   4   5
HETATM    5  C   UNL     1      -5.897  11.741  72.053  1.00  0.00     1.467 C  
HETATM    6  O   UNL     1      -6.008  10.830  72.876  1.00  0.00     0.725 OA 
BRANCH   5   7
HETATM    7  C   UNL     1      -5.591  11.417  70.563  1.00  0.00    -0.145 C  
HETATM    8  C   UNL     1      -5.136  12.692  69.854  1.00  0.00    -0.082 C  
BRANCH   7   9
HETATM    9  N   UNL     1      -6.615  10.665  69.739  1.00  0.00    -0.104 NA 
HETATM   10  H   UNL     1      -6.195   9.862  69.270  1.00  0.00     0.000 HD 
BRANCH   9  11
HETATM   11  P   UNL     1      -8.013  10.187  70.698  1.00  0.00     1.381 P  
HETATM   12  O   UNL     1      -7.157   9.543  71.816  1.00  0.00    -0.297 OA 
BRANCH  11  13
HETATM   13  C   UNL     1      -8.662   8.447  70.239  1.00  0.00    -0.140 C  
BRANCH  13  14
HETATM   14  O   UNL     1      -7.611   7.408  70.272  1.00  0.00    -0.085 OA 
BRANCH  14  15
HETATM   15  C   UNL     1      -7.717   6.266  71.165  1.00  0.00    -0.102 C  
HETATM   16  C   UNL     1      -6.354   5.980  71.808  1.00  0.00    -0.045 C  
BRANCH  15  17
HETATM   17  C   UNL     1      -8.398   5.045  70.565  1.00  0.00    -0.101 C  
BRANCH  17  18
HETATM   18  N   UNL     1      -7.997   4.712  69.226  1.00  0.00    -0.069 NA 
HETATM   19  C   UNL     1      -6.989   3.871  68.836  1.00  0.00    -0.047 A  
HETATM   20  N   UNL     1      -6.952   3.730  67.529  1.00  0.00    -0.054 NA 
HETATM   21  C   UNL     1      -7.970   4.535  67.068  1.00  0.00    -0.102 A  
HETATM   22  C   UNL     1      -8.440   4.796  65.778  1.00  0.00    -0.119 A  
HETATM   23  N   UNL     1      -9.430   5.705  65.618  1.00  0.00    -0.029 NA 
HETATM   24  N   UNL     1      -7.911   4.157  64.667  1.00  0.00    -0.088 NA 
HETATM   25  C   UNL     1      -9.946   6.278  66.721  1.00  0.00    -0.170 A  
HETATM   26  H1  UNL     1      -8.254   4.347  63.725  1.00  0.00     0.000 HD 
HETATM   27  H2  UNL     1      -7.974   3.151  64.825  1.00  0.00     0.000 HD 
HETATM   28  N   UNL     1      -9.605   6.081  68.015  1.00  0.00    -0.116 NA 
HETATM   29  C   UNL     1      -8.606   5.190  68.102  1.00  0.00    -0.102 A  
ENDBRANCH  17  18
ENDBRANCH  15  17
ENDBRANCH  14  15
ENDBRANCH  13  14
ENDBRANCH  11  13
BRANCH  11  30
HETATM   30  O   UNL     1      -8.969  10.907  69.448  1.00  0.00    -0.049 OA 
BRANCH  30  31
HETATM   31  C   UNL     1      -8.910  10.306  68.203  1.00  0.00    -0.123 A  
HETATM   32  C   UNL     1     -10.127   9.969  67.609  1.00  0.00    -0.232 A  
HETATM   33  C   UNL     1      -7.746   9.360  66.297  1.00  0.00    -0.097 A  
HETATM   34  C   UNL     1      -7.716  10.007  67.540  1.00  0.00    -0.091 A  
HETATM   35  C   UNL     1      -8.963   9.008  65.716  1.00  0.00    -0.242 A  
HETATM   36  C   UNL     1     -10.152   9.312  66.374  1.00  0.00    -0.337 A  
ENDBRANCH  30  31
ENDBRANCH  11  30
ENDBRANCH   9  11
ENDBRANCH   7   9
ENDBRANCH   5   7
ENDBRANCH   4   5
ENDBRANCH   2   4
TORSDOF 12
ENDMDL
MODEL      434
REMARK 921   NORMALIZED FREE ENERGY PREDICTED BY IDOCK:   13.97 KCAL/MOL
REMARK 922        TOTAL FREE ENERGY PREDICTED BY IDOCK:   22.06 KCAL/MOL
REMARK 923 INTER-LIGAND FREE ENERGY PREDICTED BY IDOCK:    1.66 KCAL/MOL
REMARK 924 INTRA-LIGAND FREE ENERGY PREDICTED BY IDOCK:   20.40 KCAL/MOL
REMARK 927      BINDING AFFINITY PREDICTED BY RF-SCORE:    0.00 PKD
ROOT
HETATM    1  C   UNL     1      -8.719   9.740  65.766  1.00  0.00    -0.160 C  
HETATM    2  C   UNL     1      -9.704   9.431  66.896  1.00  0.00    -0.186 C  
HETATM    3  C   UNL     1      -9.019   8.634  68.015  1.00  0.00    -0.141 C  
ENDROOT
BRANCH   2   4
HETATM    4  O   UNL     1     -10.467  10.610  67.313  1.00  0.00    -0.217 OA 
BRANCH   4   5
HETATM    5  C   UNL     1      -9.841  11.808  67.425  1.00  0.00    -0.178 C  
HETATM    6  O   UNL     1     -10.241  12.828  66.861  1.00  0.00    -0.233 OA 
BRANCH   5   7
HETATM    7  C   UNL     1      -8.554  11.848  68.298  1.00  0.00    -0.162 C  
HETATM    8  C   UNL     1      -8.217  10.432  68.762  1.00  0.00    -0.128 C  
BRANCH   7   9
HETATM    9  N   UNL     1      -8.459  12.839  69.439  1.00  0.00     0.358 NA 
HETATM   10  H   UNL     1      -9.309  12.836  70.003  1.00  0.00     0.000 HD 
BRANCH   9  11
HETATM   11  P   UNL     1      -7.031  12.566  70.433  1.00  0.00     2.454 P  
HETATM   12  O   UNL     1      -7.329  13.758  71.374  1.00  0.00     2.278 OA 
BRANCH  11  13
HETATM   13  C   UNL     1      -5.493  13.503  69.788  1.00  0.00    -0.096 C  
BRANCH  13  14
HETATM   14  O   UNL     1      -5.300  14.817  70.436  1.00  0.00    -0.108 OA 
BRANCH  14  15
HETATM   15  C   UNL     1      -6.007  15.996  69.964  1.00  0.00    -0.161 C  
HETATM   16  C   UNL     1      -7.509  15.699  69.869  1.00  0.00     0.081 C  
BRANCH  15  17
HETATM   17  C   UNL     1      -5.414  16.643  68.721  1.00  0.00    -0.123 C  
BRANCH  17  18
HETATM   18  N   UNL     1      -6.190  17.710  68.153  1.00  0.00    -0.165 NA 
HETATM   19  C   UNL     1      -7.188  18.433  68.750  1.00  0.00    -0.284 A  
HETATM   20  N   UNL     1      -7.627  19.394  67.968  1.00  0.00    -0.279 NA 
HETATM   21  C   UNL     1      -6.889  19.261  66.813  1.00  0.00    -0.198 A  
HETATM   22  C   UNL     1      -6.882  19.992  65.622  1.00  0.00    -0.288 A  
HETATM   23  N   UNL     1      -6.083  19.580  64.611  1.00  0.00    -0.272 NA 
HETATM   24  N   UNL     1      -7.677  21.115  65.452  1.00  0.00     0.427 NA 
HETATM   25  C   UNL     1      -5.297  18.508  64.823  1.00  0.00    -0.149 A  
HETATM   26  H1  UNL     1      -7.672  21.649  64.582  1.00  0.00     0.000 HD 
HETATM   27  H2  UNL     1      -7.474  21.760  66.216  1.00  0.00     0.000 HD 
HETATM   28  N   UNL     1      -5.186  17.747  65.935  1.00  0.00    -0.187 NA 
HETATM   29  C   UNL     1      -6.018  18.193  66.888  1.00  0.00    -0.147 A  
ENDBRANCH  17  18
ENDBRANCH  15  17
ENDBRANCH  14  15
ENDBRANCH  13  14
ENDBRANCH  11  13
BRANCH  11  30
HETATM   30  O   UNL     1      -6.698  11.233  69.381  1.00  0.00    -0.099 OA 
BRANCH  30  31
HETATM   31  C   UNL     1      -7.082   9.982  69.831  1.00  0.00    -0.130 A  
HETATM   32  C   UNL     1      -7.974   9.946  70.904  1.00  0.00     0.572 A  
HETATM   33  C   UNL     1      -7.025   7.557  69.829  1.00  0.00    -0.055 A  
HETATM   34  C   UNL     1      -6.613   8.782  69.287  1.00  0.00    -0.049 A  
HETATM   35  C   UNL     1      -7.900   7.526  70.914  1.00  0.00    -0.094 A  
HETATM   36  C   UNL     1      -8.372   8.721  71.450  1.00  0.00    -0.222 A  
ENDBRANCH  30  31
ENDBRANCH  11  30
ENDBRANCH   9  11
ENDBRANCH   7   9
ENDBRANCH   5   7
ENDBRANCH   4   5
ENDBRANCH   2   4
TORSDOF 12
ENDMDL
