MODEL        1
REMARK 921   NORMALIZED FREE ENERGY PREDICTED BY IDOCK:   -7.06 KCAL/MOL
REMARK 922        TOTAL FREE ENERGY PREDICTED BY IDOCK:  -14.68 KCAL/MOL
REMARK 923 INTER-LIGAND FREE ENERGY PREDICTED BY IDOCK:  -12.84 KCAL/MOL
REMARK 924 INTRA-LIGAND FREE ENERGY PREDICTED BY IDOCK:   -1.84 KCAL/MOL
REMARK 927      BINDING AFFINITY PREDICTED BY RF-SCORE:    0.00 PKD
ROOT
HETATM    1  C   UNL     1     -12.146  14.438  68.851  1.00  0.00    -0.253 C  
HETATM    2  C   UNL     1     -11.493  15.808  69.028  1.00  0.00    -0.394 C  
ENDROOT
BRANCH   1   3
HETATM    3  C   UNL     1     -11.445  13.321  69.613  1.00  0.00    -0.198 C  
BRANCH   3   4
HETATM    4  N   UNL     1     -12.263  12.566  70.524  1.00  0.00    -0.352 NA 
HETATM    5  C   UNL     1     -12.157  11.216  70.659  1.00  0.00    -0.379 A  
HETATM    6  N   UNL     1     -12.328   8.658  71.355  1.00  0.00    -0.305 NA 
HETATM    7  C   UNL     1     -13.120  13.018  71.488  1.00  0.00    -0.310 A  
HETATM    8  N   UNL     1     -13.880   9.081  73.081  1.00  0.00    -1.177 NA 
HETATM    9  N   UNL     1     -11.390  10.382  69.940  1.00  0.00    -0.281 NA 
HETATM   10  C   UNL     1     -13.064   9.547  72.057  1.00  0.00    -0.438 A  
HETATM   11  N   UNL     1     -13.610  12.033  72.206  1.00  0.00    -0.266 NA 
HETATM   12  C   UNL     1     -11.535   9.118  70.362  1.00  0.00    -0.194 A  
HETATM   13  C   UNL     1     -12.996  10.902  71.710  1.00  0.00    -0.451 A  
HETATM   14  H1  UNL     1     -13.929   8.094  73.334  1.00  0.00     0.000 HD 
HETATM   15  H2  UNL     1     -14.829   9.397  72.887  1.00  0.00     0.000 HD 
ENDBRANCH   3   4
ENDBRANCH   1   3
BRANCH   1  16
HETATM   16  O   UNL     1     -12.291  14.179  67.438  1.00  0.00    -0.317 OA 
BRANCH  16  17
HETATM   17  C   UNL     1     -11.893  12.862  66.986  1.00  0.00    -0.374 C  
HETATM   18  O   UNL     1     -13.090  12.484  64.946  1.00  0.00    -0.833 OA 
HETATM   19  O   UNL     1     -11.316  14.406  65.073  1.00  0.00    -0.339 OA 
HETATM   20  P   UNL     1     -11.608  12.788  65.180  1.00  0.00    -0.380 P  
HETATM   21  O   UNL     1     -11.339  12.717  63.472  1.00  0.00    -0.458 OA 
BRANCH  19  22
HETATM   22  C   UNL     1      -9.990  14.885  65.141  1.00  0.00    -0.242 C  
BRANCH  22  23
HETATM   23  O   UNL     1      -9.906  16.127  65.852  1.00  0.00    -0.320 OA 
BRANCH  23  24
HETATM   24  C   UNL     1     -10.665  17.119  65.324  1.00  0.00    -0.056 C  
HETATM   25  O   UNL     1     -11.227  17.086  64.237  1.00  0.00    -1.186 OA 
BRANCH  24  26
HETATM   26  O   UNL     1     -10.687  18.171  66.185  1.00  0.00    -0.320 OA 
BRANCH  26  27
HETATM   27  C   UNL     1      -9.422  18.483  66.809  1.00  0.00    -0.301 C  
HETATM   28  C   UNL     1      -8.787  19.664  66.082  1.00  0.00    -0.367 C  
HETATM   29  C   UNL     1      -9.655  18.828  68.277  1.00  0.00    -0.395 C  
ENDBRANCH  26  27
ENDBRANCH  24  26
ENDBRANCH  23  24
ENDBRANCH  22  23
ENDBRANCH  19  22
BRANCH  21  30
HETATM   30  C   UNL     1     -10.593  11.583  63.084  1.00  0.00    -0.255 C  
BRANCH  30  31
HETATM   31  O   UNL     1     -10.382  10.693  64.176  1.00  0.00    -0.351 OA 
BRANCH  31  32
HETATM   32  C   UNL     1      -9.341   9.846  64.005  1.00  0.00    -0.223 C  
HETATM   33  O   UNL     1      -8.932   9.423  62.932  1.00  0.00    -0.242 OA 
BRANCH  32  34
HETATM   34  O   UNL     1      -8.794   9.600  65.222  1.00  0.00    -0.148 OA 
BRANCH  34  35
HETATM   35  C   UNL     1      -9.691   9.655  66.349  1.00  0.00    -0.224 C  
HETATM   36  C   UNL     1      -8.966  10.385  67.476  1.00  0.00    -0.138 C  
HETATM   37  C   UNL     1     -10.068   8.247  66.799  1.00  0.00    -0.373 C  
ENDBRANCH  34  35
ENDBRANCH  32  34
ENDBRANCH  31  32
ENDBRANCH  30  31
ENDBRANCH  21  30
ENDBRANCH  16  17
ENDBRANCH   1  16
TORSDOF 14
ENDMDL
MODEL        2
REMARK 921   NORMALIZED FREE ENERGY PREDICTED BY IDOCK:   -6.99 KCAL/MOL
REMARK 922        TOTAL FREE ENERGY PREDICTED BY IDOCK:  -14.55 KCAL/MOL
REMARK 923 INTER-LIGAND FREE ENERGY PREDICTED BY IDOCK:  -12.70 KCAL/MOL
REMARK 924 INTRA-LIGAND FREE ENERGY PREDICTED BY IDOCK:   -1.85 KCAL/MOL
REMARK 927      BINDING AFFINITY PREDICTED BY RF-SCORE:    0.00 PKD
ROOT
HETATM    1  C   UNL     1      -9.817  13.154  68.828  1.00  0.00     0.015 C  
HETATM    2  C   UNL     1      -9.957  11.664  68.524  1.00  0.00    -0.198 C  
ENDROOT
BRANCH   1   3
HETATM    3  C   UNL     1     -11.112  13.938  68.663  1.00  0.00    -0.265 C  
BRANCH   3   4
HETATM    4  N   UNL     1     -11.479  14.793  69.760  1.00  0.00    -0.277 NA 
HETATM    5  C   UNL     1     -12.268  14.372  70.786  1.00  0.00    -0.343 A  
HETATM    6  N   UNL     1     -13.683  14.068  73.014  1.00  0.00    -0.494 NA 
HETATM    7  C   UNL     1     -11.015  16.040  70.072  1.00  0.00    -0.365 A  
HETATM    8  N   UNL     1     -13.122  16.208  73.834  1.00  0.00    -0.917 NA 
HETATM    9  N   UNL     1     -12.892  13.189  70.903  1.00  0.00    -0.214 NA 
HETATM   10  C   UNL     1     -13.017  15.232  72.850  1.00  0.00    -0.463 A  
HETATM   11  N   UNL     1     -11.497  16.467  71.217  1.00  0.00    -0.330 NA 
HETATM   12  C   UNL     1     -13.575  13.123  72.055  1.00  0.00    -0.465 A  
HETATM   13  C   UNL     1     -12.265  15.421  71.684  1.00  0.00    -0.375 A  
HETATM   14  H1  UNL     1     -13.669  16.071  74.683  1.00  0.00     0.000 HD 
HETATM   15  H2  UNL     1     -13.456  17.062  73.387  1.00  0.00     0.000 HD 
ENDBRANCH   3   4
ENDBRANCH   1   3
BRANCH   1  16
HETATM   16  O   UNL     1      -8.715  13.677  68.056  1.00  0.00    -0.159 OA 
BRANCH  16  17
HETATM   17  C   UNL     1      -7.866  14.640  68.726  1.00  0.00    -0.146 C  
HETATM   18  O   UNL     1      -5.981  14.962  67.284  1.00  0.00    -0.312 OA 
HETATM   19  O   UNL     1      -8.369  15.673  66.478  1.00  0.00    -0.269 OA 
HETATM   20  P   UNL     1      -7.165  15.885  67.583  1.00  0.00    -0.195 P  
HETATM   21  O   UNL     1      -6.502  17.063  66.502  1.00  0.00    -0.210 OA 
BRANCH  19  22
HETATM   22  C   UNL     1      -9.503  16.512  66.506  1.00  0.00    -0.273 C  
BRANCH  22  23
HETATM   23  O   UNL     1     -10.702  15.804  66.170  1.00  0.00    -0.316 OA 
BRANCH  23  24
HETATM   24  C   UNL     1     -10.951  15.738  64.838  1.00  0.00    -0.427 C  
HETATM   25  O   UNL     1     -11.343  16.663  64.139  1.00  0.00    -1.141 OA 
BRANCH  24  26
HETATM   26  O   UNL     1     -10.716  14.472  64.402  1.00  0.00    -0.270 OA 
BRANCH  26  27
HETATM   27  C   UNL     1     -11.894  13.709  64.059  1.00  0.00    -0.400 C  
HETATM   28  C   UNL     1     -11.464  12.357  63.500  1.00  0.00    -0.561 C  
HETATM   29  C   UNL     1     -12.751  13.519  65.306  1.00  0.00    -0.481 C  
ENDBRANCH  26  27
ENDBRANCH  24  26
ENDBRANCH  23  24
ENDBRANCH  22  23
ENDBRANCH  19  22
BRANCH  21  30
HETATM   30  C   UNL     1      -6.010  18.203  67.173  1.00  0.00    -0.148 C  
BRANCH  30  31
HETATM   31  O   UNL     1      -7.032  18.856  67.919  1.00  0.00    -0.224 OA 
BRANCH  31  32
HETATM   32  C   UNL     1      -7.483  20.000  67.354  1.00  0.00    -0.279 C  
HETATM   33  O   UNL     1      -7.037  21.122  67.558  1.00  0.00    -0.409 OA 
BRANCH  32  34
HETATM   34  O   UNL     1      -8.470  19.679  66.481  1.00  0.00    -0.312 OA 
BRANCH  34  35
HETATM   35  C   UNL     1      -9.773  20.228  66.758  1.00  0.00    -0.431 C  
HETATM   36  C   UNL     1     -10.193  19.735  68.140  1.00  0.00    -0.577 C  
HETATM   37  C   UNL     1     -10.781  19.764  65.712  1.00  0.00    -0.474 C  
ENDBRANCH  34  35
ENDBRANCH  32  34
ENDBRANCH  31  32
ENDBRANCH  30  31
ENDBRANCH  21  30
ENDBRANCH  16  17
ENDBRANCH   1  16
TORSDOF 14
ENDMDL
MODEL        3
REMARK 921   NORMALIZED FREE ENERGY PREDICTED BY IDOCK:   -6.81 KCAL/MOL
REMARK 922        TOTAL FREE ENERGY PREDICTED BY IDOCK:  -14.23 KCAL/MOL
REMARK 923 INTER-LIGAND FREE ENERGY PREDICTED BY IDOCK:  -12.98 KCAL/MOL
REMARK 924 INTRA-LIGAND FREE ENERGY PREDICTED BY IDOCK:   -1.25 KCAL/MOL
REMARK 927      BINDING AFFINITY PREDICTED BY RF-SCORE:    0.00 PKD
ROOT
HETATM    1  C   UNL     1     -10.039  10.124  67.585  1.00  0.00    -0.190 C  
HETATM    2  C   UNL     1     -10.171   8.640  67.246  1.00  0.00    -0.337 C  
ENDROOT
BRANCH   1   3
HETATM    3  C   UNL     1      -9.867  10.402  69.072  1.00  0.00    -0.212 C  
BRANCH   3   4
HETATM    4  N   UNL     1     -11.055  10.303  69.877  1.00  0.00    -0.283 NA 
HETATM    5  C   UNL     1     -11.304   9.241  70.690  1.00  0.00    -0.275 A  
HETATM    6  N   UNL     1     -12.244   7.484  72.448  1.00  0.00    -0.189 NA 
HETATM    7  C   UNL     1     -12.016  11.246  70.111  1.00  0.00    -0.369 A  
HETATM    8  N   UNL     1     -14.071   8.850  73.053  1.00  0.00    -1.139 NA 
HETATM    9  N   UNL     1     -10.582   8.115  70.807  1.00  0.00    -0.210 NA 
HETATM   10  C   UNL     1     -12.920   8.646  72.301  1.00  0.00    -0.381 A  
HETATM   11  N   UNL     1     -12.898  10.834  70.994  1.00  0.00    -0.380 NA 
HETATM   12  C   UNL     1     -11.125   7.293  71.715  1.00  0.00    -0.235 A  
HETATM   13  C   UNL     1     -12.449   9.588  71.380  1.00  0.00    -0.362 A  
HETATM   14  H1  UNL     1     -14.414   8.163  73.725  1.00  0.00     0.000 HD 
HETATM   15  H2  UNL     1     -14.831   9.053  72.405  1.00  0.00     0.000 HD 
ENDBRANCH   3   4
ENDBRANCH   1   3
BRANCH   1  16
HETATM   16  O   UNL     1     -11.145  10.830  66.984  1.00  0.00    -0.265 OA 
BRANCH  16  17
HETATM   17  C   UNL     1     -10.908  11.389  65.668  1.00  0.00    -0.218 C  
HETATM   18  O   UNL     1     -12.946  12.482  65.046  1.00  0.00    -0.779 OA 
HETATM   19  O   UNL     1     -11.575  13.360  67.098  1.00  0.00    -0.321 OA 
HETATM   20  P   UNL     1     -11.600  13.071  65.476  1.00  0.00    -0.391 P  
HETATM   21  O   UNL     1     -12.254  14.663  65.293  1.00  0.00    -0.336 OA 
BRANCH  19  22
HETATM   22  C   UNL     1     -10.466  14.012  67.678  1.00  0.00    -0.245 C  
BRANCH  22  23
HETATM   23  O   UNL     1     -10.678  14.294  69.067  1.00  0.00    -0.246 OA 
BRANCH  23  24
HETATM   24  C   UNL     1     -11.679  15.179  69.305  1.00  0.00    -0.329 C  
HETATM   25  O   UNL     1     -11.667  16.366  69.010  1.00  0.00    -0.240 OA 
BRANCH  24  26
HETATM   26  O   UNL     1     -12.695  14.541  69.945  1.00  0.00    -0.255 OA 
BRANCH  26  27
HETATM   27  C   UNL     1     -12.720  14.707  71.380  1.00  0.00    -0.333 C  
HETATM   28  C   UNL     1     -11.818  15.876  71.760  1.00  0.00    -0.579 C  
HETATM   29  C   UNL     1     -14.152  14.973  71.831  1.00  0.00    -0.627 C  
ENDBRANCH  26  27
ENDBRANCH  24  26
ENDBRANCH  23  24
ENDBRANCH  22  23
ENDBRANCH  19  22
BRANCH  21  30
HETATM   30  C   UNL     1     -11.707  15.354  64.191  1.00  0.00    -0.100 C  
BRANCH  30  31
HETATM   31  O   UNL     1     -11.586  16.749  64.451  1.00  0.00    -0.902 OA 
BRANCH  31  32
HETATM   32  C   UNL     1     -10.550  17.071  65.260  1.00  0.00    -0.080 C  
HETATM   33  O   UNL     1      -9.621  16.333  65.560  1.00  0.00    -0.474 OA 
BRANCH  32  34
HETATM   34  O   UNL     1     -10.691  18.369  65.628  1.00  0.00    -0.548 OA 
BRANCH  34  35
HETATM   35  C   UNL     1      -9.879  18.813  66.732  1.00  0.00    -0.343 C  
HETATM   36  C   UNL     1     -10.814  19.419  67.775  1.00  0.00    -0.402 C  
HETATM   37  C   UNL     1      -8.871  19.859  66.267  1.00  0.00    -0.402 C  
ENDBRANCH  34  35
ENDBRANCH  32  34
ENDBRANCH  31  32
ENDBRANCH  30  31
ENDBRANCH  21  30
ENDBRANCH  16  17
ENDBRANCH   1  16
TORSDOF 14
ENDMDL
MODEL        4
REMARK 921   NORMALIZED FREE ENERGY PREDICTED BY IDOCK:   -6.77 KCAL/MOL
REMARK 922        TOTAL FREE ENERGY PREDICTED BY IDOCK:  -14.16 KCAL/MOL
REMARK 923 INTER-LIGAND FREE ENERGY PREDICTED BY IDOCK:  -12.63 KCAL/MOL
REMARK 924 INTRA-LIGAND FREE ENERGY PREDICTED BY IDOCK:   -1.53 KCAL/MOL
REMARK 927      BINDING AFFINITY PREDICTED BY RF-SCORE:    0.00 PKD
ROOT
HETATM    1  C   UNL     1     -10.933  10.560  68.471  1.00  0.00    -0.252 C  
HETATM    2  C   UNL     1     -10.795   9.069  68.169  1.00  0.00    -0.085 C  
ENDROOT
BRANCH   1   3
HETATM    3  C   UNL     1     -11.292  10.862  69.920  1.00  0.00    -0.305 C  
BRANCH   3   4
HETATM    4  N   UNL     1     -11.554   9.723  70.758  1.00  0.00    -0.314 NA 
HETATM    5  C   UNL     1     -10.571   9.064  71.429  1.00  0.00    -0.323 A  
HETATM    6  N   UNL     1      -9.092   7.484  72.971  1.00  0.00    -0.156 NA 
HETATM    7  C   UNL     1     -12.755   9.211  71.165  1.00  0.00    -0.213 A  
HETATM    8  N   UNL     1     -10.963   6.341  73.843  1.00  0.00    -0.371 NA 
HETATM    9  N   UNL     1      -9.248   9.279  71.356  1.00  0.00    -0.296 NA 
HETATM   10  C   UNL     1     -10.434   7.326  73.017  1.00  0.00    -0.310 A  
HETATM   11  N   UNL     1     -12.600   8.229  72.022  1.00  0.00    -0.336 NA 
HETATM   12  C   UNL     1      -8.583   8.444  72.168  1.00  0.00    -0.192 A  
HETATM   13  C   UNL     1     -11.237   8.143  72.213  1.00  0.00    -0.359 A  
HETATM   14  H1  UNL     1     -10.378   5.747  74.429  1.00  0.00     0.000 HD 
HETATM   15  H2  UNL     1     -11.541   5.732  73.265  1.00  0.00     0.000 HD 
ENDBRANCH   3   4
ENDBRANCH   1   3
BRANCH   1  16
HETATM   16  O   UNL     1     -11.843  11.139  67.512  1.00  0.00    -0.591 OA 
BRANCH  16  17
HETATM   17  C   UNL     1     -11.259  11.581  66.262  1.00  0.00    -0.222 C  
HETATM   18  O   UNL     1     -13.035  12.629  65.045  1.00  0.00    -0.812 OA 
HETATM   19  O   UNL     1     -12.219  13.671  67.305  1.00  0.00    -0.366 OA 
HETATM   20  P   UNL     1     -11.831  13.245  65.761  1.00  0.00    -0.436 P  
HETATM   21  O   UNL     1     -12.371  14.819  65.286  1.00  0.00    -0.253 OA 
BRANCH  19  22
HETATM   22  C   UNL     1     -11.280  14.364  68.098  1.00  0.00    -0.281 C  
BRANCH  22  23
HETATM   23  O   UNL     1     -11.897  15.392  68.882  1.00  0.00    -0.349 OA 
BRANCH  23  24
HETATM   24  C   UNL     1     -11.299  15.608  70.081  1.00  0.00    -0.344 C  
HETATM   25  O   UNL     1     -10.104  15.487  70.314  1.00  0.00    -0.270 OA 
BRANCH  24  26
HETATM   26  O   UNL     1     -12.244  15.961  70.993  1.00  0.00    -0.404 OA 
BRANCH  26  27
HETATM   27  C   UNL     1     -12.558  14.952  71.978  1.00  0.00    -0.326 C  
HETATM   28  C   UNL     1     -11.925  15.343  73.309  1.00  0.00    -0.566 C  
HETATM   29  C   UNL     1     -14.072  14.843  72.123  1.00  0.00    -0.616 C  
ENDBRANCH  26  27
ENDBRANCH  24  26
ENDBRANCH  23  24
ENDBRANCH  22  23
ENDBRANCH  19  22
BRANCH  21  30
HETATM   30  C   UNL     1     -11.539  15.410  64.311  1.00  0.00    -0.191 C  
BRANCH  30  31
HETATM   31  O   UNL     1     -11.113  16.712  64.702  1.00  0.00    -0.763 OA 
BRANCH  31  32
HETATM   32  C   UNL     1     -10.217  16.718  65.717  1.00  0.00    -0.291 C  
HETATM   33  O   UNL     1      -9.143  16.132  65.725  1.00  0.00    -0.398 OA 
BRANCH  32  34
HETATM   34  O   UNL     1     -10.690  17.534  66.691  1.00  0.00    -0.237 OA 
BRANCH  34  35
HETATM   35  C   UNL     1      -9.878  18.679  67.017  1.00  0.00    -0.327 C  
HETATM   36  C   UNL     1      -9.972  18.893  68.525  1.00  0.00    -0.463 C  
HETATM   37  C   UNL     1     -10.382  19.917  66.283  1.00  0.00    -0.608 C  
ENDBRANCH  34  35
ENDBRANCH  32  34
ENDBRANCH  31  32
ENDBRANCH  30  31
ENDBRANCH  21  30
ENDBRANCH  16  17
ENDBRANCH   1  16
TORSDOF 14
ENDMDL
MODEL        5
REMARK 921   NORMALIZED FREE ENERGY PREDICTED BY IDOCK:   -6.77 KCAL/MOL
REMARK 922        TOTAL FREE ENERGY PREDICTED BY IDOCK:  -14.15 KCAL/MOL
REMARK 923 INTER-LIGAND FREE ENERGY PREDICTED BY IDOCK:  -12.24 KCAL/MOL
REMARK 924 INTRA-LIGAND FREE ENERGY PREDICTED BY IDOCK:   -1.91 KCAL/MOL
REMARK 927      BINDING AFFINITY PREDICTED BY RF-SCORE:    0.00 PKD
ROOT
HETATM    1  C   UNL     1     -10.129  12.853  68.561  1.00  0.00    -0.189 C  
HETATM    2  C   UNL     1      -8.657  13.040  68.198  1.00  0.00    -0.188 C  
ENDROOT
BRANCH   1   3
HETATM    3  C   UNL     1     -10.527  11.400  68.783  1.00  0.00    -0.204 C  
BRANCH   3   4
HETATM    4  N   UNL     1     -11.499  11.160  69.815  1.00  0.00    -0.289 NA 
HETATM    5  C   UNL     1     -11.711   9.927  70.351  1.00  0.00    -0.258 A  
HETATM    6  N   UNL     1     -12.474   7.807  71.759  1.00  0.00    -0.311 NA 
HETATM    7  C   UNL     1     -12.228  12.062  70.537  1.00  0.00    -0.325 A  
HETATM    8  N   UNL     1     -13.887   9.068  73.165  1.00  0.00    -1.177 NA 
HETATM    9  N   UNL     1     -11.158   8.765  69.969  1.00  0.00    -0.208 NA 
HETATM   10  C   UNL     1     -12.983   9.008  72.111  1.00  0.00    -0.424 A  
HETATM   11  N   UNL     1     -12.935  11.477  71.477  1.00  0.00    -0.430 NA 
HETATM   12  C   UNL     1     -11.595   7.754  70.734  1.00  0.00    -0.255 A  
HETATM   13  C   UNL     1     -12.601  10.141  71.384  1.00  0.00    -0.422 A  
HETATM   14  H1  UNL     1     -14.165   8.243  73.695  1.00  0.00     0.000 HD 
HETATM   15  H2  UNL     1     -14.736   9.513  72.818  1.00  0.00     0.000 HD 
ENDBRANCH   3   4
ENDBRANCH   1   3
BRANCH   1  16
HETATM   16  O   UNL     1     -10.934  13.535  67.576  1.00  0.00    -0.260 OA 
BRANCH  16  17
HETATM   17  C   UNL     1     -11.344  14.884  67.908  1.00  0.00    -0.327 C  
HETATM   18  O   UNL     1      -9.411  16.256  67.569  1.00  0.00    -0.215 OA 
HETATM   19  O   UNL     1     -10.506  15.029  65.531  1.00  0.00    -0.311 OA 
HETATM   20  P   UNL     1     -10.692  16.132  66.741  1.00  0.00    -0.096 P  
HETATM   21  O   UNL     1     -10.076  17.313  65.637  1.00  0.00    -0.566 OA 
BRANCH  19  22
HETATM   22  C   UNL     1     -11.533  14.850  64.580  1.00  0.00    -0.379 C  
BRANCH  22  23
HETATM   23  O   UNL     1     -11.298  13.710  63.745  1.00  0.00    -0.208 OA 
BRANCH  23  24
HETATM   24  C   UNL     1     -12.062  12.632  64.054  1.00  0.00    -0.462 C  
HETATM   25  O   UNL     1     -13.072  12.647  64.744  1.00  0.00    -0.852 OA 
BRANCH  24  26
HETATM   26  O   UNL     1     -11.516  11.522  63.489  1.00  0.00    -0.404 OA 
BRANCH  26  27
HETATM   27  C   UNL     1     -10.103  11.340  63.730  1.00  0.00    -0.361 C  
HETATM   28  C   UNL     1      -9.903  10.836  65.155  1.00  0.00    -0.333 C  
HETATM   29  C   UNL     1      -9.547  10.332  62.729  1.00  0.00    -0.277 C  
ENDBRANCH  26  27
ENDBRANCH  24  26
ENDBRANCH  23  24
ENDBRANCH  22  23
ENDBRANCH  19  22
BRANCH  21  30
HETATM   30  C   UNL     1     -10.766  18.543  65.712  1.00  0.00    -0.156 C  
BRANCH  30  31
HETATM   31  O   UNL     1      -9.877  19.631  65.945  1.00  0.00    -0.380 OA 
BRANCH  31  32
HETATM   32  C   UNL     1      -9.775  19.993  67.245  1.00  0.00    -0.412 C  
HETATM   33  O   UNL     1     -10.605  19.767  68.116  1.00  0.00    -0.413 OA 
BRANCH  32  34
HETATM   34  O   UNL     1      -8.572  20.591  67.422  1.00  0.00    -0.341 OA 
BRANCH  34  35
HETATM   35  C   UNL     1      -7.459  20.016  66.709  1.00  0.00    -0.256 C  
HETATM   36  C   UNL     1      -6.907  18.878  67.562  1.00  0.00    -0.211 C  
HETATM   37  C   UNL     1      -6.376  21.064  66.475  1.00  0.00    -0.338 C  
ENDBRANCH  34  35
ENDBRANCH  32  34
ENDBRANCH  31  32
ENDBRANCH  30  31
ENDBRANCH  21  30
ENDBRANCH  16  17
ENDBRANCH   1  16
TORSDOF 14
ENDMDL
MODEL        6
REMARK 921   NORMALIZED FREE ENERGY PREDICTED BY IDOCK:   -6.67 KCAL/MOL
REMARK 922        TOTAL FREE ENERGY PREDICTED BY IDOCK:  -13.97 KCAL/MOL
REMARK 923 INTER-LIGAND FREE ENERGY PREDICTED BY IDOCK:  -12.21 KCAL/MOL
REMARK 924 INTRA-LIGAND FREE ENERGY PREDICTED BY IDOCK:   -1.76 KCAL/MOL
REMARK 927      BINDING AFFINITY PREDICTED BY RF-SCORE:    0.00 PKD
ROOT
HETATM    1  C   UNL     1      -8.866   9.389  67.108  1.00  0.00    -0.127 C  
HETATM    2  C   UNL     1      -9.933   8.605  66.347  1.00  0.00    -0.331 C  
ENDROOT
BRANCH   1   3
HETATM    3  C   UNL     1      -8.165   8.580  68.192  1.00  0.00    -0.120 C  
BRANCH   3   4
HETATM    4  N   UNL     1      -8.743   8.650  69.507  1.00  0.00    -0.137 NA 
HETATM    5  C   UNL     1      -9.738   7.817  69.916  1.00  0.00    -0.176 A  
HETATM    6  N   UNL     1     -11.598   6.446  71.228  1.00  0.00    -0.315 NA 
HETATM    7  C   UNL     1      -8.336   9.381  70.588  1.00  0.00    -0.175 A  
HETATM    8  N   UNL     1     -11.191   7.565  73.265  1.00  0.00    -0.585 NA 
HETATM    9  N   UNL     1     -10.392   6.903  69.182  1.00  0.00    -0.187 NA 
HETATM   10  C   UNL     1     -10.894   7.368  71.922  1.00  0.00    -0.229 A  
HETATM   11  N   UNL     1      -9.044   9.102  71.659  1.00  0.00    -0.334 NA 
HETATM   12  C   UNL     1     -11.304   6.259  69.923  1.00  0.00    -0.434 A  
HETATM   13  C   UNL     1      -9.910   8.107  71.255  1.00  0.00    -0.164 A  
HETATM   14  H1  UNL     1     -11.908   7.026  73.751  1.00  0.00     0.000 HD 
HETATM   15  H2  UNL     1     -11.409   8.553  73.392  1.00  0.00     0.000 HD 
ENDBRANCH   3   4
ENDBRANCH   1   3
BRANCH   1  16
HETATM   16  O   UNL     1      -9.455  10.618  67.585  1.00  0.00    -0.152 OA 
BRANCH  16  17
HETATM   17  C   UNL     1      -9.321  11.770  66.717  1.00  0.00    -0.194 C  
HETATM   18  O   UNL     1     -10.886  11.430  64.936  1.00  0.00    -0.297 OA 
HETATM   19  O   UNL     1     -11.756  11.742  67.386  1.00  0.00    -0.532 OA 
HETATM   20  P   UNL     1     -10.932  12.399  66.120  1.00  0.00    -0.315 P  
HETATM   21  O   UNL     1     -12.455  12.995  65.554  1.00  0.00    -0.469 OA 
BRANCH  19  22
HETATM   22  C   UNL     1     -12.013  12.519  68.535  1.00  0.00    -0.219 C  
BRANCH  22  23
HETATM   23  O   UNL     1     -11.217  13.710  68.565  1.00  0.00    -0.251 OA 
BRANCH  23  24
HETATM   24  C   UNL     1     -11.416  14.481  69.664  1.00  0.00    -0.288 C  
HETATM   25  O   UNL     1     -10.608  15.267  70.140  1.00  0.00    -0.287 OA 
BRANCH  24  26
HETATM   26  O   UNL     1     -12.652  14.227  70.170  1.00  0.00    -0.350 OA 
BRANCH  26  27
HETATM   27  C   UNL     1     -12.769  14.354  71.604  1.00  0.00    -0.344 C  
HETATM   28  C   UNL     1     -13.688  15.528  71.925  1.00  0.00    -0.593 C  
HETATM   29  C   UNL     1     -13.340  13.062  72.180  1.00  0.00    -0.622 C  
ENDBRANCH  26  27
ENDBRANCH  24  26
ENDBRANCH  23  24
ENDBRANCH  22  23
ENDBRANCH  19  22
BRANCH  21  30
HETATM   30  C   UNL     1     -12.372  14.310  65.047  1.00  0.00    -0.428 C  
BRANCH  30  31
HETATM   31  O   UNL     1     -11.210  14.984  65.521  1.00  0.00    -0.344 OA 
BRANCH  31  32
HETATM   32  C   UNL     1     -10.956  16.155  64.891  1.00  0.00    -0.349 C  
HETATM   33  O   UNL     1     -11.561  16.590  63.920  1.00  0.00    -1.175 OA 
BRANCH  32  34
HETATM   34  O   UNL     1      -9.958  16.785  65.559  1.00  0.00    -0.567 OA 
BRANCH  34  35
HETATM   35  C   UNL     1     -10.358  17.654  66.637  1.00  0.00    -0.333 C  
HETATM   36  C   UNL     1     -10.382  19.079  66.091  1.00  0.00    -0.537 C  
HETATM   37  C   UNL     1      -9.372  17.557  67.796  1.00  0.00    -0.257 C  
ENDBRANCH  34  35
ENDBRANCH  32  34
ENDBRANCH  31  32
ENDBRANCH  30  31
ENDBRANCH  21  30
ENDBRANCH  16  17
ENDBRANCH   1  16
TORSDOF 14
ENDMDL
MODEL        7
REMARK 921   NORMALIZED FREE ENERGY PREDICTED BY IDOCK:   -6.46 KCAL/MOL
REMARK 922        TOTAL FREE ENERGY PREDICTED BY IDOCK:  -13.59 KCAL/MOL
REMARK 923 INTER-LIGAND FREE ENERGY PREDICTED BY IDOCK:  -11.87 KCAL/MOL
REMARK 924 INTRA-LIGAND FREE ENERGY PREDICTED BY IDOCK:   -1.73 KCAL/MOL
REMARK 927      BINDING AFFINITY PREDICTED BY RF-SCORE:    0.00 PKD
ROOT
HETATM    1  C   UNL     1     -11.639  10.634  69.121  1.00  0.00    -0.271 C  
HETATM    2  C   UNL     1     -11.806  11.531  70.346  1.00  0.00    -0.413 C  
ENDROOT
BRANCH   1   3
HETATM    3  C   UNL     1     -10.207  10.169  68.891  1.00  0.00    -0.199 C  
BRANCH   3   4
HETATM    4  N   UNL     1      -9.898   8.833  69.324  1.00  0.00    -0.176 NA 
HETATM    5  C   UNL     1     -10.147   7.737  68.556  1.00  0.00    -0.199 A  
HETATM    6  N   UNL     1     -10.351   5.317  67.479  1.00  0.00    -0.184 NA 
HETATM    7  C   UNL     1      -9.194   8.425  70.422  1.00  0.00    -0.153 A  
HETATM    8  N   UNL     1      -9.212   4.270  69.260  1.00  0.00    -0.130 NA 
HETATM    9  N   UNL     1     -10.778   7.696  67.372  1.00  0.00    -0.274 NA 
HETATM   10  C   UNL     1      -9.708   5.422  68.663  1.00  0.00    -0.138 A  
HETATM   11  N   UNL     1      -9.016   7.124  70.431  1.00  0.00    -0.154 NA 
HETATM   12  C   UNL     1     -10.830   6.442  66.903  1.00  0.00    -0.357 A  
HETATM   13  C   UNL     1      -9.588   6.685  69.255  1.00  0.00    -0.143 A  
HETATM   14  H1  UNL     1      -9.299   3.350  68.828  1.00  0.00     0.000 HD 
HETATM   15  H2  UNL     1      -9.612   4.210  70.196  1.00  0.00     0.000 HD 
ENDBRANCH   3   4
ENDBRANCH   1   3
BRANCH   1  16
HETATM   16  O   UNL     1     -12.226  11.301  67.983  1.00  0.00    -0.621 OA 
BRANCH  16  17
HETATM   17  C   UNL     1     -11.330  11.603  66.886  1.00  0.00    -0.295 C  
HETATM   18  O   UNL     1     -12.709  12.489  65.141  1.00  0.00    -0.659 OA 
HETATM   19  O   UNL     1     -12.481  13.789  67.402  1.00  0.00    -0.208 OA 
HETATM   20  P   UNL     1     -11.717  13.193  66.069  1.00  0.00    -0.421 P  
HETATM   21  O   UNL     1     -12.083  14.698  65.297  1.00  0.00    -0.347 OA 
BRANCH  19  22
HETATM   22  C   UNL     1     -11.764  14.577  68.329  1.00  0.00    -0.335 C  
BRANCH  22  23
HETATM   23  O   UNL     1     -12.589  15.002  69.421  1.00  0.00    -0.093 OA 
BRANCH  23  24
HETATM   24  C   UNL     1     -11.899  15.548  70.454  1.00  0.00    -0.351 C  
HETATM   25  O   UNL     1     -10.702  15.802  70.458  1.00  0.00    -0.312 OA 
BRANCH  24  26
HETATM   26  O   UNL     1     -12.747  15.752  71.497  1.00  0.00    -0.434 OA 
BRANCH  26  27
HETATM   27  C   UNL     1     -12.666  14.774  72.557  1.00  0.00    -0.368 C  
HETATM   28  C   UNL     1     -12.570  15.499  73.895  1.00  0.00    -0.767 C  
HETATM   29  C   UNL     1     -13.907  13.888  72.522  1.00  0.00    -0.620 C  
ENDBRANCH  26  27
ENDBRANCH  24  26
ENDBRANCH  23  24
ENDBRANCH  22  23
ENDBRANCH  19  22
BRANCH  21  30
HETATM   30  C   UNL     1     -11.015  15.181  64.511  1.00  0.00    -0.189 C  
BRANCH  30  31
HETATM   31  O   UNL     1     -10.671  16.519  64.856  1.00  0.00    -0.702 OA 
BRANCH  31  32
HETATM   32  C   UNL     1      -9.914  16.625  65.973  1.00  0.00    -0.324 C  
HETATM   33  O   UNL     1      -8.860  16.039  66.179  1.00  0.00    -0.320 OA 
BRANCH  32  34
HETATM   34  O   UNL     1     -10.496  17.537  66.791  1.00  0.00    -0.320 OA 
BRANCH  34  35
HETATM   35  C   UNL     1      -9.861  18.828  66.865  1.00  0.00    -0.334 C  
HETATM   36  C   UNL     1      -9.942  19.297  68.315  1.00  0.00    -0.497 C  
HETATM   37  C   UNL     1     -10.571  19.825  65.954  1.00  0.00    -0.557 C  
ENDBRANCH  34  35
ENDBRANCH  32  34
ENDBRANCH  31  32
ENDBRANCH  30  31
ENDBRANCH  21  30
ENDBRANCH  16  17
ENDBRANCH   1  16
TORSDOF 14
ENDMDL
MODEL        8
REMARK 921   NORMALIZED FREE ENERGY PREDICTED BY IDOCK:   -6.35 KCAL/MOL
REMARK 922        TOTAL FREE ENERGY PREDICTED BY IDOCK:  -13.40 KCAL/MOL
REMARK 923 INTER-LIGAND FREE ENERGY PREDICTED BY IDOCK:  -11.38 KCAL/MOL
REMARK 924 INTRA-LIGAND FREE ENERGY PREDICTED BY IDOCK:   -2.01 KCAL/MOL
REMARK 927      BINDING AFFINITY PREDICTED BY RF-SCORE:    0.00 PKD
ROOT
HETATM    1  C   UNL     1      -9.335  11.333  67.542  1.00  0.00    -0.162 C  
HETATM    2  C   UNL     1      -8.612  10.554  66.446  1.00  0.00    -0.147 C  
ENDROOT
BRANCH   1   3
HETATM    3  C   UNL     1     -10.805  10.964  67.691  1.00  0.00    -0.266 C  
BRANCH   3   4
HETATM    4  N   UNL     1     -11.383  11.179  68.991  1.00  0.00    -0.248 NA 
HETATM    5  C   UNL     1     -11.833  12.396  69.401  1.00  0.00    -0.304 A  
HETATM    6  N   UNL     1     -12.897  14.476  70.665  1.00  0.00    -0.353 NA 
HETATM    7  C   UNL     1     -11.735  10.260  69.939  1.00  0.00    -0.225 A  
HETATM    8  N   UNL     1     -13.601  13.181  72.508  1.00  0.00    -0.625 NA 
HETATM    9  N   UNL     1     -11.733  13.565  68.751  1.00  0.00    -0.316 NA 
HETATM   10  C   UNL     1     -12.985  13.268  71.265  1.00  0.00    -0.270 A  
HETATM   11  N   UNL     1     -12.343  10.820  70.959  1.00  0.00    -0.378 NA 
HETATM   12  C   UNL     1     -12.299  14.554  69.457  1.00  0.00    -0.208 A  
HETATM   13  C   UNL     1     -12.430  12.155  70.623  1.00  0.00    -0.242 A  
HETATM   14  H1  UNL     1     -14.006  13.992  72.975  1.00  0.00     0.000 HD 
HETATM   15  H2  UNL     1     -12.936  12.754  73.152  1.00  0.00     0.000 HD 
ENDBRANCH   3   4
ENDBRANCH   1   3
BRANCH   1  16
HETATM   16  O   UNL     1      -9.106  12.743  67.329  1.00  0.00    -0.184 OA 
BRANCH  16  17
HETATM   17  C   UNL     1      -8.303  13.418  68.328  1.00  0.00    -0.160 C  
HETATM   18  O   UNL     1      -6.278  14.051  67.218  1.00  0.00    -0.304 OA 
HETATM   19  O   UNL     1      -8.556  15.095  66.457  1.00  0.00    -0.270 OA 
HETATM   20  P   UNL     1      -7.462  14.906  67.675  1.00  0.00    -0.206 P  
HETATM   21  O   UNL     1      -6.666  16.314  67.059  1.00  0.00    -0.191 OA 
BRANCH  19  22
HETATM   22  C   UNL     1      -9.666  15.948  66.637  1.00  0.00    -0.253 C  
BRANCH  22  23
HETATM   23  O   UNL     1     -10.039  16.604  65.419  1.00  0.00    -0.578 OA 
BRANCH  23  24
HETATM   24  C   UNL     1     -11.108  16.048  64.797  1.00  0.00    -0.365 C  
HETATM   25  O   UNL     1     -11.781  16.579  63.923  1.00  0.00    -1.148 OA 
BRANCH  24  26
HETATM   26  O   UNL     1     -11.329  14.809  65.311  1.00  0.00    -0.341 OA 
BRANCH  26  27
HETATM   27  C   UNL     1     -11.719  13.803  64.350  1.00  0.00    -0.408 C  
HETATM   28  C   UNL     1     -10.492  12.986  63.960  1.00  0.00    -0.337 C  
HETATM   29  C   UNL     1     -12.783  12.901  64.968  1.00  0.00    -0.474 C  
ENDBRANCH  26  27
ENDBRANCH  24  26
ENDBRANCH  23  24
ENDBRANCH  22  23
ENDBRANCH  19  22
BRANCH  21  30
HETATM   30  C   UNL     1      -6.215  17.176  68.081  1.00  0.00    -0.135 C  
BRANCH  30  31
HETATM   31  O   UNL     1      -7.292  17.880  68.691  1.00  0.00    -0.254 OA 
BRANCH  31  32
HETATM   32  C   UNL     1      -6.981  19.137  69.081  1.00  0.00    -0.326 C  
HETATM   33  O   UNL     1      -6.115  19.440  69.891  1.00  0.00    -0.263 OA 
BRANCH  32  34
HETATM   34  O   UNL     1      -7.752  20.001  68.375  1.00  0.00    -0.275 OA 
BRANCH  34  35
HETATM   35  C   UNL     1      -9.065  19.534  68.008  1.00  0.00    -0.326 C  
HETATM   36  C   UNL     1      -9.370  20.073  66.614  1.00  0.00    -0.505 C  
HETATM   37  C   UNL     1     -10.107  20.039  69.001  1.00  0.00    -0.333 C  
ENDBRANCH  34  35
ENDBRANCH  32  34
ENDBRANCH  31  32
ENDBRANCH  30  31
ENDBRANCH  21  30
ENDBRANCH  16  17
ENDBRANCH   1  16
TORSDOF 14
ENDMDL
MODEL        9
REMARK 921   NORMALIZED FREE ENERGY PREDICTED BY IDOCK:   -6.34 KCAL/MOL
REMARK 922        TOTAL FREE ENERGY PREDICTED BY IDOCK:  -13.38 KCAL/MOL
REMARK 923 INTER-LIGAND FREE ENERGY PREDICTED BY IDOCK:  -11.99 KCAL/MOL
REMARK 924 INTRA-LIGAND FREE ENERGY PREDICTED BY IDOCK:   -1.39 KCAL/MOL
REMARK 927      BINDING AFFINITY PREDICTED BY RF-SCORE:    0.00 PKD
ROOT
HETATM    1  C   UNL     1     -12.177  14.494  64.658  1.00  0.00    -0.460 C  
HETATM    2  C   UNL     1     -11.842  13.314  63.748  1.00  0.00    -0.522 C  
ENDROOT
BRANCH   1   3
HETATM    3  C   UNL     1     -11.368  15.749  64.360  1.00  0.00    -0.265 C  
BRANCH   3   4
HETATM    4  N   UNL     1     -10.295  16.041  65.271  1.00  0.00    -0.533 NA 
HETATM    5  C   UNL     1     -10.100  17.279  65.802  1.00  0.00    -0.141 A  
HETATM    6  N   UNL     1      -9.310  19.428  67.150  1.00  0.00    -0.311 NA 
HETATM    7  C   UNL     1      -9.425  15.181  65.881  1.00  0.00    -0.299 A  
HETATM    8  N   UNL     1      -7.657  18.247  68.349  1.00  0.00    -0.281 NA 
HETATM    9  N   UNL     1     -10.769  18.406  65.514  1.00  0.00    -0.501 NA 
HETATM   10  C   UNL     1      -8.684  18.260  67.414  1.00  0.00    -0.256 A  
HETATM   11  N   UNL     1      -8.649  15.801  66.740  1.00  0.00    -0.244 NA 
HETATM   12  C   UNL     1     -10.309  19.434  66.241  1.00  0.00    -0.493 A  
HETATM   13  C   UNL     1      -9.078  17.112  66.716  1.00  0.00    -0.247 A  
HETATM   14  H1  UNL     1      -7.370  19.083  68.858  1.00  0.00     0.000 HD 
HETATM   15  H2  UNL     1      -6.829  17.865  67.893  1.00  0.00     0.000 HD 
ENDBRANCH   3   4
ENDBRANCH   1   3
BRANCH   1  16
HETATM   16  O   UNL     1     -12.088  14.053  66.030  1.00  0.00    -0.395 OA 
BRANCH  16  17
HETATM   17  C   UNL     1     -12.256  12.633  66.257  1.00  0.00    -0.155 C  
HETATM   18  O   UNL     1     -10.072  11.788  66.755  1.00  0.00    -0.205 OA 
HETATM   19  O   UNL     1     -11.199  13.507  68.377  1.00  0.00    -0.249 OA 
HETATM   20  P   UNL     1     -11.274  12.019  67.673  1.00  0.00    -0.325 P  
HETATM   21  O   UNL     1     -10.346  11.437  69.012  1.00  0.00    -0.201 OA 
BRANCH  19  22
HETATM   22  C   UNL     1     -12.154  13.871  69.350  1.00  0.00    -0.337 C  
BRANCH  22  23
HETATM   23  O   UNL     1     -11.543  14.173  70.611  1.00  0.00    -0.232 OA 
BRANCH  23  24
HETATM   24  C   UNL     1     -11.406  15.500  70.856  1.00  0.00    -0.369 C  
HETATM   25  O   UNL     1     -11.331  16.378  70.007  1.00  0.00    -0.312 OA 
BRANCH  24  26
HETATM   26  O   UNL     1     -11.343  15.702  72.199  1.00  0.00    -0.390 OA 
BRANCH  26  27
HETATM   27  C   UNL     1     -12.491  15.243  72.946  1.00  0.00    -0.406 C  
HETATM   28  C   UNL     1     -12.333  15.659  74.405  1.00  0.00    -0.802 C  
HETATM   29  C   UNL     1     -13.755  15.858  72.354  1.00  0.00    -0.409 C  
ENDBRANCH  26  27
ENDBRANCH  24  26
ENDBRANCH  23  24
ENDBRANCH  22  23
ENDBRANCH  19  22
BRANCH  21  30
HETATM   30  C   UNL     1     -10.788  10.181  69.478  1.00  0.00    -0.255 C  
BRANCH  30  31
HETATM   31  O   UNL     1     -10.971  10.177  70.891  1.00  0.00    -0.318 OA 
BRANCH  31  32
HETATM   32  C   UNL     1     -12.266  10.149  71.281  1.00  0.00    -0.398 C  
HETATM   33  O   UNL     1     -13.135  10.938  70.932  1.00  0.00    -0.298 OA 
BRANCH  32  34
HETATM   34  O   UNL     1     -12.444   9.062  72.072  1.00  0.00    -0.347 OA 
BRANCH  34  35
HETATM   35  C   UNL     1     -11.565   7.946  71.834  1.00  0.00    -0.292 C  
HETATM   36  C   UNL     1     -12.331   6.931  70.990  1.00  0.00    -0.401 C  
HETATM   37  C   UNL     1     -11.139   7.311  73.153  1.00  0.00    -0.336 C  
ENDBRANCH  34  35
ENDBRANCH  32  34
ENDBRANCH  31  32
ENDBRANCH  30  31
ENDBRANCH  21  30
ENDBRANCH  16  17
ENDBRANCH   1  16
TORSDOF 14
ENDMDL
MODEL       10
REMARK 921   NORMALIZED FREE ENERGY PREDICTED BY IDOCK:   -6.33 KCAL/MOL
REMARK 922        TOTAL FREE ENERGY PREDICTED BY IDOCK:  -13.35 KCAL/MOL
REMARK 923 INTER-LIGAND FREE ENERGY PREDICTED BY IDOCK:  -12.13 KCAL/MOL
REMARK 924 INTRA-LIGAND FREE ENERGY PREDICTED BY IDOCK:   -1.22 KCAL/MOL
REMARK 927      BINDING AFFINITY PREDICTED BY RF-SCORE:    0.00 PKD
ROOT
HETATM    1  C   UNL     1     -10.628  10.654  67.130  1.00  0.00    -0.260 C  
HETATM    2  C   UNL     1      -9.523  11.143  66.197  1.00  0.00    -0.229 C  
ENDROOT
BRANCH   1   3
HETATM    3  C   UNL     1     -11.730  11.678  67.367  1.00  0.00    -0.201 C  
BRANCH   3   4
HETATM    4  N   UNL     1     -11.940  12.637  66.316  1.00  0.00    -0.531 NA 
HETATM    5  C   UNL     1     -11.409  13.889  66.349  1.00  0.00    -0.328 A  
HETATM    6  N   UNL     1     -10.590  16.373  65.878  1.00  0.00    -0.315 NA 
HETATM    7  C   UNL     1     -12.515  12.457  65.089  1.00  0.00    -0.253 A  
HETATM    8  N   UNL     1     -11.524  16.425  63.713  1.00  0.00    -1.470 NA 
HETATM    9  N   UNL     1     -10.722  14.458  67.352  1.00  0.00    -0.277 NA 
HETATM   10  C   UNL     1     -11.271  15.742  64.896  1.00  0.00    -0.350 A  
HETATM   11  N   UNL     1     -12.429  13.538  64.348  1.00  0.00    -0.627 NA 
HETATM   12  C   UNL     1     -10.345  15.703  67.026  1.00  0.00    -0.289 A  
HETATM   13  C   UNL     1     -11.718  14.434  65.118  1.00  0.00    -0.372 A  
HETATM   14  H1  UNL     1     -11.199  17.377  63.551  1.00  0.00     0.000 HD 
HETATM   15  H2  UNL     1     -12.532  16.413  63.560  1.00  0.00     0.000 HD 
ENDBRANCH   3   4
ENDBRANCH   1   3
BRANCH   1  16
HETATM   16  O   UNL     1     -10.018  10.162  68.342  1.00  0.00    -0.150 OA 
BRANCH  16  17
HETATM   17  C   UNL     1     -10.457   8.857  68.795  1.00  0.00    -0.200 C  
HETATM   18  O   UNL     1      -9.327   8.473  70.871  1.00  0.00    -0.153 OA 
HETATM   19  O   UNL     1     -11.054  10.431  70.677  1.00  0.00    -0.313 OA 
HETATM   20  P   UNL     1     -10.794   8.806  70.593  1.00  0.00    -0.253 P  
HETATM   21  O   UNL     1     -11.113   8.757  72.292  1.00  0.00    -0.359 OA 
BRANCH  19  22
HETATM   22  C   UNL     1     -12.367  10.938  70.566  1.00  0.00    -0.374 C  
BRANCH  22  23
HETATM   23  O   UNL     1     -12.924  11.263  71.845  1.00  0.00    -0.456 OA 
BRANCH  23  24
HETATM   24  C   UNL     1     -13.300  12.561  71.972  1.00  0.00    -0.426 C  
HETATM   25  O   UNL     1     -14.276  12.964  72.591  1.00  0.00    -0.523 OA 
BRANCH  24  26
HETATM   26  O   UNL     1     -12.431  13.346  71.282  1.00  0.00    -0.345 OA 
BRANCH  26  27
HETATM   27  C   UNL     1     -12.619  14.769  71.450  1.00  0.00    -0.326 C  
HETATM   28  C   UNL     1     -11.776  15.246  72.627  1.00  0.00    -0.518 C  
HETATM   29  C   UNL     1     -12.198  15.487  70.171  1.00  0.00    -0.404 C  
ENDBRANCH  26  27
ENDBRANCH  24  26
ENDBRANCH  23  24
ENDBRANCH  22  23
ENDBRANCH  19  22
BRANCH  21  30
HETATM   30  C   UNL     1     -11.894   7.643  72.668  1.00  0.00    -0.218 C  
BRANCH  30  31
HETATM   31  O   UNL     1     -11.673   6.530  71.807  1.00  0.00    -0.296 OA 
BRANCH  31  32
HETATM   32  C   UNL     1     -11.044   5.489  72.400  1.00  0.00    -0.256 C  
HETATM   33  O   UNL     1     -11.477   4.833  73.338  1.00  0.00    -0.338 OA 
BRANCH  32  34
HETATM   34  O   UNL     1      -9.884   5.264  71.734  1.00  0.00    -0.160 OA 
BRANCH  34  35
HETATM   35  C   UNL     1      -9.973   4.442  70.554  1.00  0.00    -0.185 C  
HETATM   36  C   UNL     1      -9.181   3.165  70.823  1.00  0.00    -0.205 C  
HETATM   37  C   UNL     1      -9.389   5.172  69.349  1.00  0.00    -0.176 C  
ENDBRANCH  34  35
ENDBRANCH  32  34
ENDBRANCH  31  32
ENDBRANCH  30  31
ENDBRANCH  21  30
ENDBRANCH  16  17
ENDBRANCH   1  16
TORSDOF 14
ENDMDL
MODEL       11
REMARK 921   NORMALIZED FREE ENERGY PREDICTED BY IDOCK:   -6.31 KCAL/MOL
REMARK 922        TOTAL FREE ENERGY PREDICTED BY IDOCK:  -13.31 KCAL/MOL
REMARK 923 INTER-LIGAND FREE ENERGY PREDICTED BY IDOCK:  -11.88 KCAL/MOL
REMARK 924 INTRA-LIGAND FREE ENERGY PREDICTED BY IDOCK:   -1.44 KCAL/MOL
REMARK 927      BINDING AFFINITY PREDICTED BY RF-SCORE:    0.00 PKD
ROOT
HETATM    1  C   UNL     1     -11.601  13.904  66.006  1.00  0.00    -0.349 C  
HETATM    2  C   UNL     1     -11.937  13.129  64.734  1.00  0.00    -0.435 C  
ENDROOT
BRANCH   1   3
HETATM    3  C   UNL     1     -10.494  14.934  65.823  1.00  0.00    -0.330 C  
BRANCH   3   4
HETATM    4  N   UNL     1     -10.342  15.895  66.882  1.00  0.00    -0.286 NA 
HETATM    5  C   UNL     1     -10.447  17.236  66.676  1.00  0.00    -0.257 A  
HETATM    6  N   UNL     1     -10.607  19.883  66.850  1.00  0.00    -0.449 NA 
HETATM    7  C   UNL     1     -10.245  15.684  68.229  1.00  0.00    -0.223 A  
HETATM    8  N   UNL     1     -10.401  19.885  69.200  1.00  0.00    -0.600 NA 
HETATM    9  N   UNL     1     -10.600  17.872  65.504  1.00  0.00    -0.611 NA 
HETATM   10  C   UNL     1     -10.471  19.187  68.001  1.00  0.00    -0.370 A  
HETATM   11  N   UNL     1     -10.232  16.814  68.899  1.00  0.00    -0.285 NA 
HETATM   12  C   UNL     1     -10.676  19.198  65.687  1.00  0.00    -0.220 A  
HETATM   13  C   UNL     1     -10.381  17.792  67.938  1.00  0.00    -0.386 A  
HETATM   14  H1  UNL     1     -10.467  20.902  69.246  1.00  0.00     0.000 HD 
HETATM   15  H2  UNL     1      -9.537  19.611  69.666  1.00  0.00     0.000 HD 
ENDBRANCH   3   4
ENDBRANCH   1   3
BRANCH   1  16
HETATM   16  O   UNL     1     -11.347  12.956  67.065  1.00  0.00    -0.279 OA 
BRANCH  16  17
HETATM   17  C   UNL     1     -11.305  11.561  66.678  1.00  0.00    -0.214 C  
HETATM   18  O   UNL     1      -9.249  10.703  67.554  1.00  0.00    -0.142 OA 
HETATM   19  O   UNL     1     -11.109  11.541  69.195  1.00  0.00    -0.233 OA 
HETATM   20  P   UNL     1     -10.690  10.472  68.013  1.00  0.00    -0.287 P  
HETATM   21  O   UNL     1     -10.108   9.441  69.275  1.00  0.00    -0.182 OA 
BRANCH  19  22
HETATM   22  C   UNL     1     -12.360  11.422  69.838  1.00  0.00    -0.214 C  
BRANCH  22  23
HETATM   23  O   UNL     1     -12.511  12.375  70.896  1.00  0.00    -0.371 OA 
BRANCH  23  24
HETATM   24  C   UNL     1     -13.244  11.925  71.946  1.00  0.00    -0.362 C  
HETATM   25  O   UNL     1     -13.316  10.762  72.319  1.00  0.00    -0.385 OA 
BRANCH  24  26
HETATM   26  O   UNL     1     -13.906  12.971  72.509  1.00  0.00    -0.625 OA 
BRANCH  26  27
HETATM   27  C   UNL     1     -13.340  14.273  72.243  1.00  0.00    -0.440 C  
HETATM   28  C   UNL     1     -14.409  15.159  71.611  1.00  0.00    -0.685 C  
HETATM   29  C   UNL     1     -12.850  14.886  73.551  1.00  0.00    -0.594 C  
ENDBRANCH  26  27
ENDBRANCH  24  26
ENDBRANCH  23  24
ENDBRANCH  22  23
ENDBRANCH  19  22
BRANCH  21  30
HETATM   30  C   UNL     1     -10.424   8.083  69.059  1.00  0.00    -0.199 C  
BRANCH  30  31
HETATM   31  O   UNL     1     -10.465   7.351  70.280  1.00  0.00    -0.212 OA 
BRANCH  31  32
HETATM   32  C   UNL     1     -11.283   7.884  71.217  1.00  0.00    -0.255 C  
HETATM   33  O   UNL     1     -12.507   7.871  71.188  1.00  0.00    -0.288 OA 
BRANCH  32  34
HETATM   34  O   UNL     1     -10.512   8.378  72.218  1.00  0.00    -0.292 OA 
BRANCH  34  35
HETATM   35  C   UNL     1      -9.526   7.482  72.767  1.00  0.00    -0.172 C  
HETATM   36  C   UNL     1     -10.172   6.755  73.944  1.00  0.00    -0.396 C  
HETATM   37  C   UNL     1      -8.305   8.261  73.244  1.00  0.00    -0.251 C  
ENDBRANCH  34  35
ENDBRANCH  32  34
ENDBRANCH  31  32
ENDBRANCH  30  31
ENDBRANCH  21  30
ENDBRANCH  16  17
ENDBRANCH   1  16
TORSDOF 14
ENDMDL
MODEL       12
REMARK 921   NORMALIZED FREE ENERGY PREDICTED BY IDOCK:   -6.28 KCAL/MOL
REMARK 922        TOTAL FREE ENERGY PREDICTED BY IDOCK:  -13.26 KCAL/MOL
REMARK 923 INTER-LIGAND FREE ENERGY PREDICTED BY IDOCK:  -11.35 KCAL/MOL
REMARK 924 INTRA-LIGAND FREE ENERGY PREDICTED BY IDOCK:   -1.91 KCAL/MOL
REMARK 927      BINDING AFFINITY PREDICTED BY RF-SCORE:    0.00 PKD
ROOT
HETATM    1  C   UNL     1     -11.320  14.430  65.321  1.00  0.00    -0.346 C  
HETATM    2  C   UNL     1     -12.358  14.329  64.206  1.00  0.00    -0.407 C  
ENDROOT
BRANCH   1   3
HETATM    3  C   UNL     1     -10.112  15.284  64.960  1.00  0.00    -0.215 C  
BRANCH   3   4
HETATM    4  N   UNL     1      -9.889  16.444  65.781  1.00  0.00    -0.492 NA 
HETATM    5  C   UNL     1      -8.873  16.521  66.682  1.00  0.00    -0.256 A  
HETATM    6  N   UNL     1      -7.067  17.218  68.502  1.00  0.00    -0.209 NA 
HETATM    7  C   UNL     1     -10.484  17.672  65.714  1.00  0.00    -0.205 A  
HETATM    8  N   UNL     1      -7.887  19.423  68.681  1.00  0.00    -0.357 NA 
HETATM    9  N   UNL     1      -8.009  15.552  67.023  1.00  0.00    -0.220 NA 
HETATM   10  C   UNL     1      -7.952  18.160  68.106  1.00  0.00    -0.283 A  
HETATM   11  N   UNL     1      -9.942  18.523  66.556  1.00  0.00    -0.359 NA 
HETATM   12  C   UNL     1      -7.135  15.992  67.939  1.00  0.00    -0.136 A  
HETATM   13  C   UNL     1      -8.916  17.819  67.151  1.00  0.00    -0.246 A  
HETATM   14  H1  UNL     1      -7.184  19.672  69.377  1.00  0.00     0.000 HD 
HETATM   15  H2  UNL     1      -8.802  19.628  69.081  1.00  0.00     0.000 HD 
ENDBRANCH   3   4
ENDBRANCH   1   3
BRANCH   1  16
HETATM   16  O   UNL     1     -10.984  13.095  65.755  1.00  0.00    -0.276 OA 
BRANCH  16  17
HETATM   17  C   UNL     1     -12.022  12.370  66.458  1.00  0.00    -0.252 C  
HETATM   18  O   UNL     1     -10.980  10.382  67.293  1.00  0.00    -0.288 OA 
HETATM   19  O   UNL     1     -10.204  12.723  68.173  1.00  0.00    -0.227 OA 
HETATM   20  P   UNL     1     -11.439  11.642  68.031  1.00  0.00    -0.299 P  
HETATM   21  O   UNL     1     -10.888  10.953  69.520  1.00  0.00    -0.239 OA 
BRANCH  19  22
HETATM   22  C   UNL     1     -10.387  13.903  68.926  1.00  0.00    -0.155 C  
BRANCH  22  23
HETATM   23  O   UNL     1     -11.724  14.015  69.429  1.00  0.00    -0.272 OA 
BRANCH  23  24
HETATM   24  C   UNL     1     -12.172  15.291  69.532  1.00  0.00    -0.239 C  
HETATM   25  O   UNL     1     -11.886  16.210  68.776  1.00  0.00    -0.339 OA 
BRANCH  24  26
HETATM   26  O   UNL     1     -12.976  15.395  70.623  1.00  0.00    -0.435 OA 
BRANCH  26  27
HETATM   27  C   UNL     1     -12.524  14.678  71.793  1.00  0.00    -0.345 C  
HETATM   28  C   UNL     1     -12.089  15.683  72.854  1.00  0.00    -0.583 C  
HETATM   29  C   UNL     1     -13.661  13.808  72.321  1.00  0.00    -0.656 C  
ENDBRANCH  26  27
ENDBRANCH  24  26
ENDBRANCH  23  24
ENDBRANCH  22  23
ENDBRANCH  19  22
BRANCH  21  30
HETATM   30  C   UNL     1     -11.948  10.594  70.380  1.00  0.00    -0.346 C  
BRANCH  30  31
HETATM   31  O   UNL     1     -11.483   9.872  71.516  1.00  0.00    -0.365 OA 
BRANCH  31  32
HETATM   32  C   UNL     1     -12.374   8.981  72.008  1.00  0.00    -0.384 C  
HETATM   33  O   UNL     1     -13.592   9.104  71.990  1.00  0.00    -0.400 OA 
BRANCH  32  34
HETATM   34  O   UNL     1     -11.686   7.905  72.465  1.00  0.00    -0.358 OA 
BRANCH  34  35
HETATM   35  C   UNL     1     -12.036   6.630  71.890  1.00  0.00    -0.341 C  
HETATM   36  C   UNL     1     -11.293   5.554  72.677  1.00  0.00    -0.346 C  
HETATM   37  C   UNL     1     -11.627   6.577  70.422  1.00  0.00    -0.470 C  
ENDBRANCH  34  35
ENDBRANCH  32  34
ENDBRANCH  31  32
ENDBRANCH  30  31
ENDBRANCH  21  30
ENDBRANCH  16  17
ENDBRANCH   1  16
TORSDOF 14
ENDMDL
MODEL       13
REMARK 921   NORMALIZED FREE ENERGY PREDICTED BY IDOCK:   -6.28 KCAL/MOL
REMARK 922        TOTAL FREE ENERGY PREDICTED BY IDOCK:  -13.26 KCAL/MOL
REMARK 923 INTER-LIGAND FREE ENERGY PREDICTED BY IDOCK:  -10.91 KCAL/MOL
REMARK 924 INTRA-LIGAND FREE ENERGY PREDICTED BY IDOCK:   -2.35 KCAL/MOL
REMARK 927      BINDING AFFINITY PREDICTED BY RF-SCORE:    0.00 PKD
ROOT
HETATM    1  C   UNL     1     -11.986  12.505  65.286  1.00  0.00    -0.438 C  
HETATM    2  C   UNL     1     -11.698  12.283  63.803  1.00  0.00    -0.566 C  
ENDROOT
BRANCH   1   3
HETATM    3  C   UNL     1     -12.555  13.882  65.602  1.00  0.00    -0.517 C  
BRANCH   3   4
HETATM    4  N   UNL     1     -11.593  14.922  65.853  1.00  0.00    -0.284 NA 
HETATM    5  C   UNL     1     -11.277  15.340  67.109  1.00  0.00    -0.291 A  
HETATM    6  N   UNL     1     -10.259  16.473  69.286  1.00  0.00    -0.286 NA 
HETATM    7  C   UNL     1     -10.740  15.535  64.979  1.00  0.00    -0.441 A  
HETATM    8  N   UNL     1      -8.681  17.736  68.068  1.00  0.00    -0.245 NA 
HETATM    9  N   UNL     1     -11.841  14.955  68.264  1.00  0.00    -0.310 NA 
HETATM   10  C   UNL     1      -9.717  16.809  68.094  1.00  0.00    -0.247 A  
HETATM   11  N   UNL     1      -9.924  16.361  65.594  1.00  0.00    -0.529 NA 
HETATM   12  C   UNL     1     -11.264  15.571  69.306  1.00  0.00    -0.310 A  
HETATM   13  C   UNL     1     -10.235  16.229  66.931  1.00  0.00    -0.288 A  
HETATM   14  H1  UNL     1      -8.303  18.158  68.915  1.00  0.00     0.000 HD 
HETATM   15  H2  UNL     1      -8.961  18.493  67.445  1.00  0.00     0.000 HD 
ENDBRANCH   3   4
ENDBRANCH   1   3
BRANCH   1  16
HETATM   16  O   UNL     1     -10.797  12.178  66.037  1.00  0.00    -0.263 OA 
BRANCH  16  17
HETATM   17  C   UNL     1     -10.508  10.767  66.193  1.00  0.00    -0.214 C  
HETATM   18  O   UNL     1      -8.486  10.654  67.471  1.00  0.00    -0.121 OA 
HETATM   19  O   UNL     1     -10.648  11.664  68.549  1.00  0.00    -0.200 OA 
HETATM   20  P   UNL     1      -9.929  10.343  67.876  1.00  0.00    -0.181 P  
HETATM   21  O   UNL     1      -9.382   9.941  69.467  1.00  0.00    -0.193 OA 
BRANCH  19  22
HETATM   22  C   UNL     1     -11.945  11.555  69.096  1.00  0.00    -0.320 C  
BRANCH  22  23
HETATM   23  O   UNL     1     -12.022  12.127  70.407  1.00  0.00    -0.343 OA 
BRANCH  23  24
HETATM   24  C   UNL     1     -12.802  11.430  71.270  1.00  0.00    -0.379 C  
HETATM   25  O   UNL     1     -13.485  11.912  72.164  1.00  0.00    -0.458 OA 
BRANCH  24  26
HETATM   26  O   UNL     1     -12.692  10.102  70.999  1.00  0.00    -0.339 OA 
BRANCH  26  27
HETATM   27  C   UNL     1     -13.094   9.219  72.069  1.00  0.00    -0.436 C  
HETATM   28  C   UNL     1     -14.282   8.384  71.603  1.00  0.00    -0.516 C  
HETATM   29  C   UNL     1     -11.924   8.314  72.442  1.00  0.00    -0.447 C  
ENDBRANCH  26  27
ENDBRANCH  24  26
ENDBRANCH  23  24
ENDBRANCH  22  23
ENDBRANCH  19  22
BRANCH  21  30
HETATM   30  C   UNL     1      -9.472   8.560  69.742  1.00  0.00    -0.166 C  
BRANCH  30  31
HETATM   31  O   UNL     1     -10.655   7.989  69.190  1.00  0.00    -0.219 OA 
BRANCH  31  32
HETATM   32  C   UNL     1     -10.685   6.637  69.228  1.00  0.00    -0.265 C  
HETATM   33  O   UNL     1     -11.441   5.958  69.911  1.00  0.00    -0.309 OA 
BRANCH  32  34
HETATM   34  O   UNL     1      -9.778   6.169  68.335  1.00  0.00    -0.120 OA 
BRANCH  34  35
HETATM   35  C   UNL     1     -10.125   6.298  66.943  1.00  0.00    -0.183 C  
HETATM   36  C   UNL     1     -10.364   4.893  66.398  1.00  0.00    -0.328 C  
HETATM   37  C   UNL     1      -8.995   6.971  66.170  1.00  0.00    -0.162 C  
ENDBRANCH  34  35
ENDBRANCH  32  34
ENDBRANCH  31  32
ENDBRANCH  30  31
ENDBRANCH  21  30
ENDBRANCH  16  17
ENDBRANCH   1  16
TORSDOF 14
ENDMDL
MODEL       14
REMARK 921   NORMALIZED FREE ENERGY PREDICTED BY IDOCK:   -6.28 KCAL/MOL
REMARK 922        TOTAL FREE ENERGY PREDICTED BY IDOCK:  -13.25 KCAL/MOL
REMARK 923 INTER-LIGAND FREE ENERGY PREDICTED BY IDOCK:  -11.90 KCAL/MOL
REMARK 924 INTRA-LIGAND FREE ENERGY PREDICTED BY IDOCK:   -1.36 KCAL/MOL
REMARK 927      BINDING AFFINITY PREDICTED BY RF-SCORE:    0.00 PKD
ROOT
HETATM    1  C   UNL     1      -9.244   9.242  67.473  1.00  0.00    -0.124 C  
HETATM    2  C   UNL     1     -10.260   8.460  66.643  1.00  0.00    -0.335 C  
ENDROOT
BRANCH   1   3
HETATM    3  C   UNL     1      -8.752   8.493  68.705  1.00  0.00    -0.139 C  
BRANCH   3   4
HETATM    4  N   UNL     1      -9.736   7.715  69.408  1.00  0.00    -0.163 NA 
HETATM    5  C   UNL     1     -10.635   8.270  70.265  1.00  0.00    -0.227 A  
HETATM    6  N   UNL     1     -12.612   8.819  71.954  1.00  0.00    -0.346 NA 
HETATM    7  C   UNL     1     -10.065   6.398  69.250  1.00  0.00    -0.172 A  
HETATM    8  N   UNL     1     -13.418   6.602  71.958  1.00  0.00    -0.454 NA 
HETATM    9  N   UNL     1     -10.700   9.550  70.664  1.00  0.00    -0.284 NA 
HETATM   10  C   UNL     1     -12.509   7.549  71.503  1.00  0.00    -0.346 A  
HETATM   11  N   UNL     1     -11.095   6.061  69.992  1.00  0.00    -0.377 NA 
HETATM   12  C   UNL     1     -11.725   9.736  71.507  1.00  0.00    -0.375 A  
HETATM   13  C   UNL     1     -11.475   7.231  70.615  1.00  0.00    -0.293 A  
HETATM   14  H1  UNL     1     -14.172   6.834  72.604  1.00  0.00     0.000 HD 
HETATM   15  H2  UNL     1     -12.886   5.835  72.367  1.00  0.00     0.000 HD 
ENDBRANCH   3   4
ENDBRANCH   1   3
BRANCH   1  16
HETATM   16  O   UNL     1      -9.796  10.544  67.763  1.00  0.00    -0.161 OA 
BRANCH  16  17
HETATM   17  C   UNL     1      -9.441  11.607  66.846  1.00  0.00    -0.185 C  
HETATM   18  O   UNL     1     -10.911  11.371  64.971  1.00  0.00    -0.291 OA 
HETATM   19  O   UNL     1     -11.895  11.959  67.325  1.00  0.00    -0.576 OA 
HETATM   20  P   UNL     1     -10.900  12.412  66.092  1.00  0.00    -0.298 P  
HETATM   21  O   UNL     1     -12.280  13.174  65.378  1.00  0.00    -0.408 OA 
BRANCH  19  22
HETATM   22  C   UNL     1     -12.118  12.838  68.406  1.00  0.00    -0.101 C  
BRANCH  22  23
HETATM   23  O   UNL     1     -11.153  13.896  68.443  1.00  0.00    -0.236 OA 
BRANCH  23  24
HETATM   24  C   UNL     1     -11.153  14.605  69.600  1.00  0.00    -0.253 C  
HETATM   25  O   UNL     1     -10.330  15.453  69.918  1.00  0.00    -0.281 OA 
BRANCH  24  26
HETATM   26  O   UNL     1     -12.205  14.209  70.366  1.00  0.00    -0.312 OA 
BRANCH  26  27
HETATM   27  C   UNL     1     -12.750  15.225  71.236  1.00  0.00    -0.401 C  
HETATM   28  C   UNL     1     -14.254  15.009  71.370  1.00  0.00    -0.587 C  
HETATM   29  C   UNL     1     -12.078  15.132  72.602  1.00  0.00    -0.487 C  
ENDBRANCH  26  27
ENDBRANCH  24  26
ENDBRANCH  23  24
ENDBRANCH  22  23
ENDBRANCH  19  22
BRANCH  21  30
HETATM   30  C   UNL     1     -11.976  14.429  64.807  1.00  0.00    -0.447 C  
BRANCH  30  31
HETATM   31  O   UNL     1     -11.115  15.194  65.645  1.00  0.00    -0.336 OA 
BRANCH  31  32
HETATM   32  C   UNL     1     -10.692  16.354  65.091  1.00  0.00    -0.291 C  
HETATM   33  O   UNL     1     -11.277  16.984  64.219  1.00  0.00    -1.186 OA 
BRANCH  32  34
HETATM   34  O   UNL     1      -9.544  16.724  65.712  1.00  0.00    -0.506 OA 
BRANCH  34  35
HETATM   35  C   UNL     1      -9.555  18.010  66.362  1.00  0.00    -0.295 C  
HETATM   36  C   UNL     1      -8.193  18.200  67.024  1.00  0.00    -0.246 C  
HETATM   37  C   UNL     1     -10.658  18.067  67.414  1.00  0.00    -0.378 C  
ENDBRANCH  34  35
ENDBRANCH  32  34
ENDBRANCH  31  32
ENDBRANCH  30  31
ENDBRANCH  21  30
ENDBRANCH  16  17
ENDBRANCH   1  16
TORSDOF 14
ENDMDL
MODEL       15
REMARK 921   NORMALIZED FREE ENERGY PREDICTED BY IDOCK:   -6.23 KCAL/MOL
REMARK 922        TOTAL FREE ENERGY PREDICTED BY IDOCK:  -13.18 KCAL/MOL
REMARK 923 INTER-LIGAND FREE ENERGY PREDICTED BY IDOCK:  -11.63 KCAL/MOL
REMARK 924 INTRA-LIGAND FREE ENERGY PREDICTED BY IDOCK:   -1.55 KCAL/MOL
REMARK 927      BINDING AFFINITY PREDICTED BY RF-SCORE:    0.00 PKD
ROOT
HETATM    1  C   UNL     1     -11.764  12.305  65.645  1.00  0.00    -0.382 C  
HETATM    2  C   UNL     1     -11.206  12.246  64.225  1.00  0.00    -0.409 C  
ENDROOT
BRANCH   1   3
HETATM    3  C   UNL     1     -12.524  13.588  65.954  1.00  0.00    -0.429 C  
BRANCH   3   4
HETATM    4  N   UNL     1     -11.834  14.817  65.668  1.00  0.00    -0.270 NA 
HETATM    5  C   UNL     1     -11.081  15.467  66.596  1.00  0.00    -0.193 A  
HETATM    6  N   UNL     1      -9.471  17.081  67.962  1.00  0.00    -0.250 NA 
HETATM    7  C   UNL     1     -11.657  15.446  64.468  1.00  0.00    -0.296 A  
HETATM    8  N   UNL     1      -8.990  18.427  66.085  1.00  0.00    -0.494 NA 
HETATM    9  N   UNL     1     -10.935  15.156  67.893  1.00  0.00    -0.292 NA 
HETATM   10  C   UNL     1      -9.641  17.335  66.645  1.00  0.00    -0.276 A  
HETATM   11  N   UNL     1     -10.872  16.493  64.577  1.00  0.00    -0.794 NA 
HETATM   12  C   UNL     1     -10.105  16.017  68.500  1.00  0.00    -0.233 A  
HETATM   13  C   UNL     1     -10.486  16.502  65.902  1.00  0.00    -0.323 A  
HETATM   14  H1  UNL     1      -8.374  19.034  66.626  1.00  0.00     0.000 HD 
HETATM   15  H2  UNL     1      -9.698  19.018  65.648  1.00  0.00     0.000 HD 
ENDBRANCH   3   4
ENDBRANCH   1   3
BRANCH   1  16
HETATM   16  O   UNL     1     -10.692  12.024  66.570  1.00  0.00    -0.240 OA 
BRANCH  16  17
HETATM   17  C   UNL     1     -10.338  10.629  66.735  1.00  0.00    -0.245 C  
HETATM   18  O   UNL     1      -8.349  10.614  68.068  1.00  0.00    -0.114 OA 
HETATM   19  O   UNL     1     -10.586  11.518  69.086  1.00  0.00    -0.206 OA 
HETATM   20  P   UNL     1      -9.786  10.233  68.434  1.00  0.00    -0.168 P  
HETATM   21  O   UNL     1      -9.263   9.858  70.040  1.00  0.00    -0.226 OA 
BRANCH  19  22
HETATM   22  C   UNL     1     -11.890  11.345  69.598  1.00  0.00    -0.362 C  
BRANCH  22  23
HETATM   23  O   UNL     1     -12.170  12.258  70.666  1.00  0.00    -0.371 OA 
BRANCH  23  24
HETATM   24  C   UNL     1     -12.930  11.731  71.659  1.00  0.00    -0.362 C  
HETATM   25  O   UNL     1     -12.992  10.546  71.958  1.00  0.00    -0.458 OA 
BRANCH  24  26
HETATM   26  O   UNL     1     -13.632  12.728  72.260  1.00  0.00    -0.556 OA 
BRANCH  26  27
HETATM   27  C   UNL     1     -13.135  14.063  72.022  1.00  0.00    -0.401 C  
HETATM   28  C   UNL     1     -14.266  14.923  71.469  1.00  0.00    -0.617 C  
HETATM   29  C   UNL     1     -12.615  14.648  73.331  1.00  0.00    -0.497 C  
ENDBRANCH  26  27
ENDBRANCH  24  26
ENDBRANCH  23  24
ENDBRANCH  22  23
ENDBRANCH  19  22
BRANCH  21  30
HETATM   30  C   UNL     1      -9.293   8.473  70.314  1.00  0.00    -0.162 C  
BRANCH  30  31
HETATM   31  O   UNL     1      -9.904   7.741  69.256  1.00  0.00    -0.168 OA 
BRANCH  31  32
HETATM   32  C   UNL     1     -10.918   6.938  69.655  1.00  0.00    -0.259 C  
HETATM   33  O   UNL     1     -11.035   5.749  69.387  1.00  0.00    -0.342 OA 
BRANCH  32  34
HETATM   34  O   UNL     1     -11.744   7.664  70.448  1.00  0.00    -0.194 OA 
BRANCH  34  35
HETATM   35  C   UNL     1     -12.298   6.980  71.590  1.00  0.00    -0.368 C  
HETATM   36  C   UNL     1     -13.777   7.350  71.672  1.00  0.00    -0.468 C  
HETATM   37  C   UNL     1     -11.583   7.408  72.867  1.00  0.00    -0.200 C  
ENDBRANCH  34  35
ENDBRANCH  32  34
ENDBRANCH  31  32
ENDBRANCH  30  31
ENDBRANCH  21  30
ENDBRANCH  16  17
ENDBRANCH   1  16
TORSDOF 14
ENDMDL
MODEL       16
REMARK 921   NORMALIZED FREE ENERGY PREDICTED BY IDOCK:   -6.20 KCAL/MOL
REMARK 922        TOTAL FREE ENERGY PREDICTED BY IDOCK:  -13.11 KCAL/MOL
REMARK 923 INTER-LIGAND FREE ENERGY PREDICTED BY IDOCK:  -10.59 KCAL/MOL
REMARK 924 INTRA-LIGAND FREE ENERGY PREDICTED BY IDOCK:   -2.53 KCAL/MOL
REMARK 927      BINDING AFFINITY PREDICTED BY RF-SCORE:    0.00 PKD
ROOT
HETATM    1  C   UNL     1      -8.540   9.447  64.974  1.00  0.00    -0.172 C  
HETATM    2  C   UNL     1      -7.720   9.366  63.688  1.00  0.00    -0.123 C  
ENDROOT
BRANCH   1   3
HETATM    3  C   UNL     1      -8.602   8.137  65.747  1.00  0.00    -0.154 C  
BRANCH   3   4
HETATM    4  N   UNL     1      -9.260   8.186  67.025  1.00  0.00    -0.146 NA 
HETATM    5  C   UNL     1      -8.681   8.737  68.126  1.00  0.00    -0.134 A  
HETATM    6  N   UNL     1      -8.069   9.718  70.519  1.00  0.00    -0.249 NA 
HETATM    7  C   UNL     1     -10.554   7.879  67.340  1.00  0.00    -0.272 A  
HETATM    8  N   UNL     1     -10.206   9.267  71.411  1.00  0.00    -0.324 NA 
HETATM    9  N   UNL     1      -7.432   9.214  68.240  1.00  0.00    -0.082 NA 
HETATM   10  C   UNL     1      -9.321   9.241  70.340  1.00  0.00    -0.250 A  
HETATM   11  N   UNL     1     -10.829   8.155  68.594  1.00  0.00    -0.005 NA 
HETATM   12  C   UNL     1      -7.213   9.691  69.474  1.00  0.00    -0.080 A  
HETATM   13  C   UNL     1      -9.670   8.715  69.090  1.00  0.00    -0.173 A  
HETATM   14  H1  UNL     1      -9.953   9.650  72.321  1.00  0.00     0.000 HD 
HETATM   15  H2  UNL     1     -10.539   8.314  71.559  1.00  0.00     0.000 HD 
ENDBRANCH   3   4
ENDBRANCH   1   3
BRANCH   1  16
HETATM   16  O   UNL     1      -9.835  10.000  64.656  1.00  0.00    -0.318 OA 
BRANCH  16  17
HETATM   17  C   UNL     1      -9.850  11.375  64.200  1.00  0.00    -0.268 C  
HETATM   18  O   UNL     1     -12.080  11.784  63.431  1.00  0.00    -0.491 OA 
HETATM   19  O   UNL     1     -11.656  11.257  65.960  1.00  0.00    -0.170 OA 
HETATM   20  P   UNL     1     -11.367  12.271  64.694  1.00  0.00    -0.341 P  
HETATM   21  O   UNL     1     -12.801  13.118  65.161  1.00  0.00    -0.669 OA 
BRANCH  19  22
HETATM   22  C   UNL     1     -11.184  11.590  67.248  1.00  0.00    -0.301 C  
BRANCH  22  23
HETATM   23  O   UNL     1     -12.091  11.173  68.275  1.00  0.00    -0.620 OA 
BRANCH  23  24
HETATM   24  C   UNL     1     -12.042  11.932  69.399  1.00  0.00    -0.216 C  
HETATM   25  O   UNL     1     -12.013  11.507  70.546  1.00  0.00    -0.359 OA 
BRANCH  24  26
HETATM   26  O   UNL     1     -12.049  13.246  69.051  1.00  0.00    -0.307 OA 
BRANCH  26  27
HETATM   27  C   UNL     1     -11.574  14.156  70.067  1.00  0.00    -0.248 C  
HETATM   28  C   UNL     1     -10.532  15.085  69.455  1.00  0.00    -0.254 C  
HETATM   29  C   UNL     1     -12.749  14.962  70.611  1.00  0.00    -0.422 C  
ENDBRANCH  26  27
ENDBRANCH  24  26
ENDBRANCH  23  24
ENDBRANCH  22  23
ENDBRANCH  19  22
BRANCH  21  30
HETATM   30  C   UNL     1     -12.659  14.520  65.071  1.00  0.00    -0.242 C  
BRANCH  30  31
HETATM   31  O   UNL     1     -11.332  14.936  65.378  1.00  0.00    -0.343 OA 
BRANCH  31  32
HETATM   32  C   UNL     1     -10.985  16.124  64.831  1.00  0.00    -0.349 C  
HETATM   33  O   UNL     1     -11.523  16.650  63.866  1.00  0.00    -1.186 OA 
BRANCH  32  34
HETATM   34  O   UNL     1      -9.980  16.652  65.573  1.00  0.00    -0.552 OA 
BRANCH  34  35
HETATM   35  C   UNL     1     -10.178  17.997  66.051  1.00  0.00    -0.303 C  
HETATM   36  C   UNL     1      -8.800  18.633  66.214  1.00  0.00    -0.227 C  
HETATM   37  C   UNL     1     -10.907  17.986  67.391  1.00  0.00    -0.236 C  
ENDBRANCH  34  35
ENDBRANCH  32  34
ENDBRANCH  31  32
ENDBRANCH  30  31
ENDBRANCH  21  30
ENDBRANCH  16  17
ENDBRANCH   1  16
TORSDOF 14
ENDMDL
MODEL       17
REMARK 921   NORMALIZED FREE ENERGY PREDICTED BY IDOCK:   -6.18 KCAL/MOL
REMARK 922        TOTAL FREE ENERGY PREDICTED BY IDOCK:  -13.08 KCAL/MOL
REMARK 923 INTER-LIGAND FREE ENERGY PREDICTED BY IDOCK:  -11.51 KCAL/MOL
REMARK 924 INTRA-LIGAND FREE ENERGY PREDICTED BY IDOCK:   -1.57 KCAL/MOL
REMARK 927      BINDING AFFINITY PREDICTED BY RF-SCORE:    0.00 PKD
ROOT
HETATM    1  C   UNL     1      -9.742   9.667  65.931  1.00  0.00    -0.275 C  
HETATM    2  C   UNL     1      -8.842   9.144  64.813  1.00  0.00    -0.200 C  
ENDROOT
BRANCH   1   3
HETATM    3  C   UNL     1     -10.078   8.624  66.988  1.00  0.00    -0.272 C  
BRANCH   3   4
HETATM    4  N   UNL     1      -9.349   8.717  68.224  1.00  0.00    -0.137 NA 
HETATM    5  C   UNL     1      -9.964   8.858  69.430  1.00  0.00    -0.192 A  
HETATM    6  N   UNL     1     -10.628   9.072  71.994  1.00  0.00    -0.325 NA 
HETATM    7  C   UNL     1      -8.015   8.526  68.453  1.00  0.00    -0.118 A  
HETATM    8  N   UNL     1      -8.403   8.829  72.740  1.00  0.00    -0.390 NA 
HETATM    9  N   UNL     1     -11.275   9.027  69.663  1.00  0.00    -0.063 NA 
HETATM   10  C   UNL     1      -9.323   8.881  71.700  1.00  0.00    -0.258 A  
HETATM   11  N   UNL     1      -7.727   8.583  69.734  1.00  0.00    -0.090 NA 
HETATM   12  C   UNL     1     -11.518   9.120  70.978  1.00  0.00    -0.306 A  
HETATM   13  C   UNL     1      -8.944   8.768  70.357  1.00  0.00    -0.169 A  
HETATM   14  H1  UNL     1      -8.679   8.911  73.718  1.00  0.00     0.000 HD 
HETATM   15  H2  UNL     1      -7.693   9.538  72.560  1.00  0.00     0.000 HD 
ENDBRANCH   3   4
ENDBRANCH   1   3
BRANCH   1  16
HETATM   16  O   UNL     1     -10.901  10.287  65.333  1.00  0.00     0.074 OA 
BRANCH  16  17
HETATM   17  C   UNL     1     -10.647  11.434  64.486  1.00  0.00    -0.328 C  
HETATM   18  O   UNL     1     -12.800  12.286  63.878  1.00  0.00    -0.720 OA 
HETATM   19  O   UNL     1     -12.048  12.329  66.386  1.00  0.00    -0.623 OA 
HETATM   20  P   UNL     1     -11.756  12.843  64.847  1.00  0.00    -0.400 P  
HETATM   21  O   UNL     1     -12.805  14.176  65.189  1.00  0.00    -0.686 OA 
BRANCH  19  22
HETATM   22  C   UNL     1     -11.267  12.825  67.451  1.00  0.00    -0.294 C  
BRANCH  22  23
HETATM   23  O   UNL     1     -11.990  13.771  68.249  1.00  0.00    -0.357 OA 
BRANCH  23  24
HETATM   24  C   UNL     1     -12.102  13.421  69.555  1.00  0.00    -0.278 C  
HETATM   25  O   UNL     1     -11.702  12.376  70.051  1.00  0.00    -0.301 OA 
BRANCH  24  26
HETATM   26  O   UNL     1     -12.751  14.409  70.228  1.00  0.00    -0.348 OA 
BRANCH  26  27
HETATM   27  C   UNL     1     -12.296  14.635  71.580  1.00  0.00    -0.351 C  
HETATM   28  C   UNL     1     -11.869  16.092  71.723  1.00  0.00    -0.599 C  
HETATM   29  C   UNL     1     -13.427  14.316  72.552  1.00  0.00    -0.613 C  
ENDBRANCH  26  27
ENDBRANCH  24  26
ENDBRANCH  23  24
ENDBRANCH  22  23
ENDBRANCH  19  22
BRANCH  21  30
HETATM   30  C   UNL     1     -12.326  15.395  64.662  1.00  0.00     0.024 C  
BRANCH  30  31
HETATM   31  O   UNL     1     -10.917  15.363  64.457  1.00  0.00    -0.348 OA 
BRANCH  31  32
HETATM   32  C   UNL     1     -10.211  16.089  65.355  1.00  0.00    -0.302 C  
HETATM   33  O   UNL     1      -9.204  15.715  65.942  1.00  0.00    -0.340 OA 
BRANCH  32  34
HETATM   34  O   UNL     1     -10.777  17.318  65.442  1.00  0.00    -0.583 OA 
BRANCH  34  35
HETATM   35  C   UNL     1     -10.075  18.291  66.241  1.00  0.00    -0.380 C  
HETATM   36  C   UNL     1     -10.470  18.059  67.697  1.00  0.00    -0.422 C  
HETATM   37  C   UNL     1     -10.458  19.705  65.817  1.00  0.00    -0.540 C  
ENDBRANCH  34  35
ENDBRANCH  32  34
ENDBRANCH  31  32
ENDBRANCH  30  31
ENDBRANCH  21  30
ENDBRANCH  16  17
ENDBRANCH   1  16
TORSDOF 14
ENDMDL
MODEL       18
REMARK 921   NORMALIZED FREE ENERGY PREDICTED BY IDOCK:   -6.16 KCAL/MOL
REMARK 922        TOTAL FREE ENERGY PREDICTED BY IDOCK:  -13.04 KCAL/MOL
REMARK 923 INTER-LIGAND FREE ENERGY PREDICTED BY IDOCK:  -11.67 KCAL/MOL
REMARK 924 INTRA-LIGAND FREE ENERGY PREDICTED BY IDOCK:   -1.37 KCAL/MOL
REMARK 927      BINDING AFFINITY PREDICTED BY RF-SCORE:    0.00 PKD
ROOT
HETATM    1  C   UNL     1     -10.857  10.008  69.062  1.00  0.00    -0.222 C  
HETATM    2  C   UNL     1      -9.479  10.665  69.084  1.00  0.00    -0.185 C  
ENDROOT
BRANCH   1   3
HETATM    3  C   UNL     1     -10.820   8.497  69.252  1.00  0.00    -0.056 C  
BRANCH   3   4
HETATM    4  N   UNL     1     -10.978   8.025  70.602  1.00  0.00    -0.242 NA 
HETATM    5  C   UNL     1     -10.730   6.736  70.961  1.00  0.00    -0.231 A  
HETATM    6  N   UNL     1     -10.340   4.417  72.199  1.00  0.00    -0.174 NA 
HETATM    7  C   UNL     1     -11.217   8.740  71.741  1.00  0.00    -0.340 A  
HETATM    8  N   UNL     1     -10.759   5.323  74.337  1.00  0.00    -0.396 NA 
HETATM    9  N   UNL     1     -10.412   5.710  70.156  1.00  0.00    -0.271 NA 
HETATM   10  C   UNL     1     -10.645   5.491  72.962  1.00  0.00    -0.239 A  
HETATM   11  N   UNL     1     -11.185   7.977  72.811  1.00  0.00    -0.400 NA 
HETATM   12  C   UNL     1     -10.229   4.587  70.863  1.00  0.00    -0.099 A  
HETATM   13  C   UNL     1     -10.858   6.724  72.336  1.00  0.00    -0.238 A  
HETATM   14  H1  UNL     1     -10.603   4.425  74.793  1.00  0.00     0.000 HD 
HETATM   15  H2  UNL     1     -11.684   5.652  74.612  1.00  0.00     0.000 HD 
ENDBRANCH   3   4
ENDBRANCH   1   3
BRANCH   1  16
HETATM   16  O   UNL     1     -11.545  10.429  67.865  1.00  0.00    -0.406 OA 
BRANCH  16  17
HETATM   17  C   UNL     1     -10.716  10.975  66.810  1.00  0.00    -0.266 C  
HETATM   18  O   UNL     1     -12.231  11.925  65.216  1.00  0.00    -0.357 OA 
HETATM   19  O   UNL     1     -12.089  12.928  67.631  1.00  0.00    -0.325 OA 
HETATM   20  P   UNL     1     -11.299  12.606  66.221  1.00  0.00    -0.368 P  
HETATM   21  O   UNL     1     -11.850  14.149  65.665  1.00  0.00    -0.351 OA 
BRANCH  19  22
HETATM   22  C   UNL     1     -11.440  13.660  68.648  1.00  0.00    -0.307 C  
BRANCH  22  23
HETATM   23  O   UNL     1     -12.120  14.887  68.942  1.00  0.00    -0.273 OA 
BRANCH  23  24
HETATM   24  C   UNL     1     -11.625  15.550  70.017  1.00  0.00    -0.341 C  
HETATM   25  O   UNL     1     -10.446  15.813  70.212  1.00  0.00    -0.308 OA 
BRANCH  24  26
HETATM   26  O   UNL     1     -12.647  15.861  70.858  1.00  0.00    -0.427 OA 
BRANCH  26  27
HETATM   27  C   UNL     1     -12.633  15.169  72.126  1.00  0.00    -0.332 C  
HETATM   28  C   UNL     1     -13.541  15.906  73.104  1.00  0.00    -0.580 C  
HETATM   29  C   UNL     1     -13.121  13.738  71.925  1.00  0.00    -0.474 C  
ENDBRANCH  26  27
ENDBRANCH  24  26
ENDBRANCH  23  24
ENDBRANCH  22  23
ENDBRANCH  19  22
BRANCH  21  30
HETATM   30  C   UNL     1     -10.863  14.851  64.940  1.00  0.00    -0.413 C  
BRANCH  30  31
HETATM   31  O   UNL     1     -10.296  15.908  65.710  1.00  0.00    -0.331 OA 
BRANCH  31  32
HETATM   32  C   UNL     1     -10.543  17.144  65.218  1.00  0.00    -0.043 C  
HETATM   33  O   UNL     1     -11.389  17.422  64.377  1.00  0.00    -0.949 OA 
BRANCH  32  34
HETATM   34  O   UNL     1      -9.736  18.023  65.862  1.00  0.00    -0.530 OA 
BRANCH  34  35
HETATM   35  C   UNL     1     -10.372  19.199  66.401  1.00  0.00    -0.455 C  
HETATM   36  C   UNL     1      -9.340  20.323  66.389  1.00  0.00    -0.391 C  
HETATM   37  C   UNL     1     -10.847  18.942  67.827  1.00  0.00    -0.349 C  
ENDBRANCH  34  35
ENDBRANCH  32  34
ENDBRANCH  31  32
ENDBRANCH  30  31
ENDBRANCH  21  30
ENDBRANCH  16  17
ENDBRANCH   1  16
TORSDOF 14
ENDMDL
MODEL       19
REMARK 921   NORMALIZED FREE ENERGY PREDICTED BY IDOCK:   -6.14 KCAL/MOL
REMARK 922        TOTAL FREE ENERGY PREDICTED BY IDOCK:  -13.01 KCAL/MOL
REMARK 923 INTER-LIGAND FREE ENERGY PREDICTED BY IDOCK:  -11.45 KCAL/MOL
REMARK 924 INTRA-LIGAND FREE ENERGY PREDICTED BY IDOCK:   -1.56 KCAL/MOL
REMARK 927      BINDING AFFINITY PREDICTED BY RF-SCORE:    0.00 PKD
ROOT
HETATM    1  C   UNL     1     -10.925  13.048  66.676  1.00  0.00    -0.279 C  
HETATM    2  C   UNL     1     -11.895  12.369  65.710  1.00  0.00    -0.467 C  
ENDROOT
BRANCH   1   3
HETATM    3  C   UNL     1      -9.919  13.964  65.992  1.00  0.00    -0.310 C  
BRANCH   3   4
HETATM    4  N   UNL     1     -10.387  15.284  65.663  1.00  0.00    -0.336 NA 
HETATM    5  C   UNL     1      -9.995  16.393  66.347  1.00  0.00    -0.303 A  
HETATM    6  N   UNL     1      -9.528  18.839  67.274  1.00  0.00    -0.297 NA 
HETATM    7  C   UNL     1     -11.118  15.693  64.583  1.00  0.00    -0.373 A  
HETATM    8  N   UNL     1     -10.779  19.881  65.566  1.00  0.00    -0.362 NA 
HETATM    9  N   UNL     1      -9.230  16.445  67.449  1.00  0.00    -0.207 NA 
HETATM   10  C   UNL     1     -10.278  18.726  66.155  1.00  0.00    -0.421 A  
HETATM   11  N   UNL     1     -11.261  16.999  64.558  1.00  0.00    -1.059 NA 
HETATM   12  C   UNL     1      -9.043  17.713  67.841  1.00  0.00    -0.260 A  
HETATM   13  C   UNL     1     -10.543  17.449  65.646  1.00  0.00    -0.153 A  
HETATM   14  H1  UNL     1     -10.586  20.812  65.936  1.00  0.00     0.000 HD 
HETATM   15  H2  UNL     1     -11.791  19.780  65.499  1.00  0.00     0.000 HD 
ENDBRANCH   3   4
ENDBRANCH   1   3
BRANCH   1  16
HETATM   16  O   UNL     1     -10.321  12.033  67.506  1.00  0.00    -0.198 OA 
BRANCH  16  17
HETATM   17  C   UNL     1     -10.618  10.659  67.155  1.00  0.00    -0.260 C  
HETATM   18  O   UNL     1      -8.902   9.339  68.177  1.00  0.00    -0.128 OA 
HETATM   19  O   UNL     1     -10.569  10.687  69.679  1.00  0.00    -0.241 OA 
HETATM   20  P   UNL     1     -10.376   9.502  68.551  1.00  0.00    -0.211 P  
HETATM   21  O   UNL     1     -10.148   8.407  69.871  1.00  0.00    -0.188 OA 
BRANCH  19  22
HETATM   22  C   UNL     1     -11.841  10.917  70.246  1.00  0.00    -0.361 C  
BRANCH  22  23
HETATM   23  O   UNL     1     -12.138  12.315  70.348  1.00  0.00    -0.355 OA 
BRANCH  23  24
HETATM   24  C   UNL     1     -12.981  12.628  71.364  1.00  0.00    -0.258 C  
HETATM   25  O   UNL     1     -13.389  11.853  72.218  1.00  0.00    -0.471 OA 
BRANCH  24  26
HETATM   26  O   UNL     1     -13.320  13.942  71.272  1.00  0.00    -0.312 OA 
BRANCH  26  27
HETATM   27  C   UNL     1     -12.471  14.850  72.008  1.00  0.00    -0.334 C  
HETATM   28  C   UNL     1     -11.860  15.855  71.037  1.00  0.00    -0.468 C  
HETATM   29  C   UNL     1     -13.301  15.572  73.065  1.00  0.00    -0.650 C  
ENDBRANCH  26  27
ENDBRANCH  24  26
ENDBRANCH  23  24
ENDBRANCH  22  23
ENDBRANCH  19  22
BRANCH  21  30
HETATM   30  C   UNL     1     -10.791   7.166  69.668  1.00  0.00    -0.234 C  
BRANCH  30  31
HETATM   31  O   UNL     1     -12.034   7.098  70.360  1.00  0.00    -0.244 OA 
BRANCH  31  32
HETATM   32  C   UNL     1     -11.923   7.191  71.705  1.00  0.00    -0.313 C  
HETATM   33  O   UNL     1     -12.105   8.203  72.369  1.00  0.00    -0.351 OA 
BRANCH  32  34
HETATM   34  O   UNL     1     -11.637   5.957  72.191  1.00  0.00    -0.296 OA 
BRANCH  34  35
HETATM   35  C   UNL     1     -10.715   5.903  73.297  1.00  0.00    -0.265 C  
HETATM   36  C   UNL     1      -9.316   6.150  72.739  1.00  0.00    -0.148 C  
HETATM   37  C   UNL     1     -10.772   4.537  73.973  1.00  0.00    -0.340 C  
ENDBRANCH  34  35
ENDBRANCH  32  34
ENDBRANCH  31  32
ENDBRANCH  30  31
ENDBRANCH  21  30
ENDBRANCH  16  17
ENDBRANCH   1  16
TORSDOF 14
ENDMDL
MODEL       20
REMARK 921   NORMALIZED FREE ENERGY PREDICTED BY IDOCK:   -6.13 KCAL/MOL
REMARK 922        TOTAL FREE ENERGY PREDICTED BY IDOCK:  -12.98 KCAL/MOL
REMARK 923 INTER-LIGAND FREE ENERGY PREDICTED BY IDOCK:  -11.44 KCAL/MOL
REMARK 924 INTRA-LIGAND FREE ENERGY PREDICTED BY IDOCK:   -1.55 KCAL/MOL
REMARK 927      BINDING AFFINITY PREDICTED BY RF-SCORE:    0.00 PKD
ROOT
HETATM    1  C   UNL     1      -8.562  10.541  68.351  1.00  0.00    -0.132 C  
HETATM    2  C   UNL     1      -7.361  10.302  67.438  1.00  0.00    -0.093 C  
ENDROOT
BRANCH   1   3
HETATM    3  C   UNL     1      -9.697   9.548  68.146  1.00  0.00    -0.147 C  
BRANCH   3   4
HETATM    4  N   UNL     1     -10.214   8.923  69.334  1.00  0.00    -0.203 NA 
HETATM    5  C   UNL     1     -11.190   9.489  70.095  1.00  0.00    -0.234 A  
HETATM    6  N   UNL     1     -13.075  10.092  71.868  1.00  0.00    -0.442 NA 
HETATM    7  C   UNL     1      -9.985   7.664  69.813  1.00  0.00    -0.184 A  
HETATM    8  N   UNL     1     -12.896   8.018  72.979  1.00  0.00    -0.307 NA 
HETATM    9  N   UNL     1     -11.743  10.703  69.943  1.00  0.00    -0.290 NA 
HETATM   10  C   UNL     1     -12.496   8.874  71.960  1.00  0.00    -0.392 A  
HETATM   11  N   UNL     1     -10.722   7.403  70.869  1.00  0.00    -0.232 NA 
HETATM   12  C   UNL     1     -12.683  10.919  70.874  1.00  0.00    -0.370 A  
HETATM   13  C   UNL     1     -11.498   8.531  71.040  1.00  0.00    -0.273 A  
HETATM   14  H1  UNL     1     -13.624   8.267  73.648  1.00  0.00     0.000 HD 
HETATM   15  H2  UNL     1     -12.065   7.759  73.509  1.00  0.00     0.000 HD 
ENDBRANCH   3   4
ENDBRANCH   1   3
BRANCH   1  16
HETATM   16  O   UNL     1      -8.964  11.922  68.225  1.00  0.00    -0.173 OA 
BRANCH  16  17
HETATM   17  C   UNL     1      -8.975  12.465  66.882  1.00  0.00    -0.212 C  
HETATM   18  O   UNL     1     -10.781  11.370  65.752  1.00  0.00    -0.267 OA 
HETATM   19  O   UNL     1     -11.283  12.935  67.790  1.00  0.00    -0.253 OA 
HETATM   20  P   UNL     1     -10.665  12.806  66.268  1.00  0.00    -0.282 P  
HETATM   21  O   UNL     1     -12.262  13.130  65.687  1.00  0.00    -0.422 OA 
BRANCH  19  22
HETATM   22  C   UNL     1     -11.379  14.203  68.403  1.00  0.00    -0.287 C  
BRANCH  22  23
HETATM   23  O   UNL     1     -11.491  14.101  69.828  1.00  0.00    -0.262 OA 
BRANCH  23  24
HETATM   24  C   UNL     1     -12.129  15.149  70.408  1.00  0.00    -0.328 C  
HETATM   25  O   UNL     1     -12.866  15.941  69.837  1.00  0.00    -0.150 OA 
BRANCH  24  26
HETATM   26  O   UNL     1     -11.804  15.193  71.728  1.00  0.00    -0.350 OA 
BRANCH  26  27
HETATM   27  C   UNL     1     -12.925  15.275  72.636  1.00  0.00    -0.408 C  
HETATM   28  C   UNL     1     -13.681  13.951  72.612  1.00  0.00    -0.582 C  
HETATM   29  C   UNL     1     -12.413  15.568  74.043  1.00  0.00    -0.789 C  
ENDBRANCH  26  27
ENDBRANCH  24  26
ENDBRANCH  23  24
ENDBRANCH  22  23
ENDBRANCH  19  22
BRANCH  21  30
HETATM   30  C   UNL     1     -12.272  13.997  64.574  1.00  0.00    -0.434 C  
BRANCH  30  31
HETATM   31  O   UNL     1     -11.008  14.625  64.384  1.00  0.00    -0.270 OA 
BRANCH  31  32
HETATM   32  C   UNL     1     -11.038  15.973  64.492  1.00  0.00    -0.253 C  
HETATM   33  O   UNL     1     -11.906  16.707  64.037  1.00  0.00    -1.034 OA 
BRANCH  32  34
HETATM   34  O   UNL     1      -9.977  16.360  65.242  1.00  0.00    -0.519 OA 
BRANCH  34  35
HETATM   35  C   UNL     1     -10.275  16.884  66.551  1.00  0.00    -0.318 C  
HETATM   36  C   UNL     1     -10.580  18.371  66.392  1.00  0.00    -0.342 C  
HETATM   37  C   UNL     1      -9.085  16.693  67.486  1.00  0.00    -0.204 C  
ENDBRANCH  34  35
ENDBRANCH  32  34
ENDBRANCH  31  32
ENDBRANCH  30  31
ENDBRANCH  21  30
ENDBRANCH  16  17
ENDBRANCH   1  16
TORSDOF 14
ENDMDL
MODEL       21
REMARK 921   NORMALIZED FREE ENERGY PREDICTED BY IDOCK:   -6.11 KCAL/MOL
REMARK 922        TOTAL FREE ENERGY PREDICTED BY IDOCK:  -12.94 KCAL/MOL
REMARK 923 INTER-LIGAND FREE ENERGY PREDICTED BY IDOCK:  -10.96 KCAL/MOL
REMARK 924 INTRA-LIGAND FREE ENERGY PREDICTED BY IDOCK:   -1.98 KCAL/MOL
REMARK 927      BINDING AFFINITY PREDICTED BY RF-SCORE:    0.00 PKD
ROOT
HETATM    1  C   UNL     1      -9.949  10.047  67.441  1.00  0.00    -0.197 C  
HETATM    2  C   UNL     1     -10.093   8.633  66.881  1.00  0.00    -0.355 C  
ENDROOT
BRANCH   1   3
HETATM    3  C   UNL     1     -10.719  10.276  68.734  1.00  0.00    -0.219 C  
BRANCH   3   4
HETATM    4  N   UNL     1     -10.142   9.710  69.924  1.00  0.00    -0.229 NA 
HETATM    5  C   UNL     1     -10.895   9.149  70.909  1.00  0.00    -0.278 A  
HETATM    6  N   UNL     1     -11.851   7.909  73.056  1.00  0.00    -0.184 NA 
HETATM    7  C   UNL     1      -8.828   9.475  70.215  1.00  0.00    -0.243 A  
HETATM    8  N   UNL     1      -9.705   7.384  73.885  1.00  0.00    -0.356 NA 
HETATM    9  N   UNL     1     -12.234   9.115  70.994  1.00  0.00    -0.276 NA 
HETATM   10  C   UNL     1     -10.508   7.958  72.907  1.00  0.00    -0.355 A  
HETATM   11  N   UNL     1      -8.687   8.838  71.355  1.00  0.00    -0.202 NA 
HETATM   12  C   UNL     1     -12.626   8.469  72.101  1.00  0.00    -0.377 A  
HETATM   13  C   UNL     1      -9.977   8.608  71.787  1.00  0.00    -0.301 A  
HETATM   14  H1  UNL     1     -10.092   6.910  74.701  1.00  0.00     0.000 HD 
HETATM   15  H2  UNL     1      -9.065   8.103  74.221  1.00  0.00     0.000 HD 
ENDBRANCH   3   4
ENDBRANCH   1   3
BRANCH   1  16
HETATM   16  O   UNL     1     -10.272  10.988  66.394  1.00  0.00    -0.221 OA 
BRANCH  16  17
HETATM   17  C   UNL     1      -9.416  12.153  66.297  1.00  0.00    -0.232 C  
HETATM   18  O   UNL     1     -10.019  13.236  64.248  1.00  0.00    -0.270 OA 
HETATM   19  O   UNL     1     -11.769  13.065  66.189  1.00  0.00    -0.354 OA 
HETATM   20  P   UNL     1     -10.303  13.637  65.697  1.00  0.00    -0.301 P  
HETATM   21  O   UNL     1     -11.142  15.040  65.130  1.00  0.00    -0.359 OA 
BRANCH  19  22
HETATM   22  C   UNL     1     -12.272  13.424  67.457  1.00  0.00    -0.185 C  
BRANCH  22  23
HETATM   23  O   UNL     1     -11.300  14.130  68.239  1.00  0.00    -0.263 OA 
BRANCH  23  24
HETATM   24  C   UNL     1     -11.822  15.114  69.014  1.00  0.00    -0.304 C  
HETATM   25  O   UNL     1     -11.878  16.300  68.719  1.00  0.00    -0.278 OA 
BRANCH  24  26
HETATM   26  O   UNL     1     -12.258  14.576  70.184  1.00  0.00    -0.305 OA 
BRANCH  26  27
HETATM   27  C   UNL     1     -12.612  15.532  71.208  1.00  0.00    -0.447 C  
HETATM   28  C   UNL     1     -14.097  15.393  71.524  1.00  0.00    -0.596 C  
HETATM   29  C   UNL     1     -11.777  15.267  72.456  1.00  0.00    -0.535 C  
ENDBRANCH  26  27
ENDBRANCH  24  26
ENDBRANCH  23  24
ENDBRANCH  22  23
ENDBRANCH  19  22
BRANCH  21  30
HETATM   30  C   UNL     1     -10.444  16.238  65.397  1.00  0.00    -0.343 C  
BRANCH  30  31
HETATM   31  O   UNL     1      -9.395  16.036  66.340  1.00  0.00    -0.248 OA 
BRANCH  31  32
HETATM   32  C   UNL     1      -8.535  17.076  66.440  1.00  0.00    -0.283 C  
HETATM   33  O   UNL     1      -7.482  17.194  65.827  1.00  0.00    -0.338 OA 
BRANCH  32  34
HETATM   34  O   UNL     1      -9.073  17.988  67.288  1.00  0.00    -0.250 OA 
BRANCH  34  35
HETATM   35  C   UNL     1      -9.197  19.333  66.786  1.00  0.00    -0.323 C  
HETATM   36  C   UNL     1      -8.228  20.208  67.575  1.00  0.00    -0.373 C  
HETATM   37  C   UNL     1     -10.624  19.841  66.969  1.00  0.00    -0.586 C  
ENDBRANCH  34  35
ENDBRANCH  32  34
ENDBRANCH  31  32
ENDBRANCH  30  31
ENDBRANCH  21  30
ENDBRANCH  16  17
ENDBRANCH   1  16
TORSDOF 14
ENDMDL
MODEL       22
REMARK 921   NORMALIZED FREE ENERGY PREDICTED BY IDOCK:   -6.11 KCAL/MOL
REMARK 922        TOTAL FREE ENERGY PREDICTED BY IDOCK:  -12.94 KCAL/MOL
REMARK 923 INTER-LIGAND FREE ENERGY PREDICTED BY IDOCK:  -11.16 KCAL/MOL
REMARK 924 INTRA-LIGAND FREE ENERGY PREDICTED BY IDOCK:   -1.78 KCAL/MOL
REMARK 927      BINDING AFFINITY PREDICTED BY RF-SCORE:    0.00 PKD
ROOT
HETATM    1  C   UNL     1     -11.949  14.349  65.407  1.00  0.00    -0.369 C  
HETATM    2  C   UNL     1     -12.326  13.931  63.987  1.00  0.00    -0.355 C  
ENDROOT
BRANCH   1   3
HETATM    3  C   UNL     1     -10.584  15.019  65.508  1.00  0.00    -0.363 C  
BRANCH   3   4
HETATM    4  N   UNL     1     -10.378  15.865  66.653  1.00  0.00    -0.294 NA 
HETATM    5  C   UNL     1     -10.403  17.223  66.575  1.00  0.00    -0.308 A  
HETATM    6  N   UNL     1     -10.407  19.846  66.999  1.00  0.00    -0.451 NA 
HETATM    7  C   UNL     1     -10.295  15.522  67.973  1.00  0.00    -0.247 A  
HETATM    8  N   UNL     1     -10.204  19.614  69.338  1.00  0.00    -0.607 NA 
HETATM    9  N   UNL     1     -10.517  17.975  65.469  1.00  0.00    -0.608 NA 
HETATM   10  C   UNL     1     -10.314  19.038  68.078  1.00  0.00    -0.394 A  
HETATM   11  N   UNL     1     -10.216  16.580  68.747  1.00  0.00    -0.250 NA 
HETATM   12  C   UNL     1     -10.515  19.280  65.777  1.00  0.00    -0.359 A  
HETATM   13  C   UNL     1     -10.306  17.651  67.884  1.00  0.00    -0.371 A  
HETATM   14  H1  UNL     1     -10.210  20.623  69.480  1.00  0.00     0.000 HD 
HETATM   15  H2  UNL     1      -9.358  19.247  69.773  1.00  0.00     0.000 HD 
ENDBRANCH   3   4
ENDBRANCH   1   3
BRANCH   1  16
HETATM   16  O   UNL     1     -12.105  13.207  66.277  1.00  0.00    -0.403 OA 
BRANCH  16  17
HETATM   17  C   UNL     1     -11.361  12.019  65.912  1.00  0.00    -0.337 C  
HETATM   18  O   UNL     1      -9.140  12.359  66.740  1.00  0.00    -0.205 OA 
HETATM   19  O   UNL     1     -11.138  12.177  68.422  1.00  0.00    -0.213 OA 
HETATM   20  P   UNL     1     -10.251  11.438  67.245  1.00  0.00    -0.212 P  
HETATM   21  O   UNL     1      -9.203  10.887  68.507  1.00  0.00    -0.166 OA 
BRANCH  19  22
HETATM   22  C   UNL     1     -12.141  11.454  69.103  1.00  0.00    -0.264 C  
BRANCH  22  23
HETATM   23  O   UNL     1     -11.837  11.301  70.495  1.00  0.00    -0.338 OA 
BRANCH  23  24
HETATM   24  C   UNL     1     -12.907  10.970  71.261  1.00  0.00    -0.425 C  
HETATM   25  O   UNL     1     -13.397  11.666  72.140  1.00  0.00    -0.491 OA 
BRANCH  24  26
HETATM   26  O   UNL     1     -13.340   9.730  70.912  1.00  0.00    -0.318 OA 
BRANCH  26  27
HETATM   27  C   UNL     1     -13.230   8.725  71.944  1.00  0.00    -0.381 C  
HETATM   28  C   UNL     1     -13.988   7.477  71.505  1.00  0.00    -0.522 C  
HETATM   29  C   UNL     1     -11.758   8.398  72.174  1.00  0.00    -0.442 C  
ENDBRANCH  26  27
ENDBRANCH  24  26
ENDBRANCH  23  24
ENDBRANCH  22  23
ENDBRANCH  19  22
BRANCH  21  30
HETATM   30  C   UNL     1      -8.782   9.552  68.322  1.00  0.00    -0.120 C  
BRANCH  30  31
HETATM   31  O   UNL     1      -9.785   8.624  68.725  1.00  0.00    -0.160 OA 
BRANCH  31  32
HETATM   32  C   UNL     1      -9.885   7.537  67.926  1.00  0.00    -0.154 C  
HETATM   33  O   UNL     1     -10.373   7.519  66.803  1.00  0.00    -0.288 OA 
BRANCH  32  34
HETATM   34  O   UNL     1      -9.296   6.492  68.559  1.00  0.00    -0.126 OA 
BRANCH  34  35
HETATM   35  C   UNL     1      -9.443   6.448  69.992  1.00  0.00    -0.156 C  
HETATM   36  C   UNL     1      -8.065   6.165  70.585  1.00  0.00    -0.116 C  
HETATM   37  C   UNL     1     -10.419   5.347  70.395  1.00  0.00    -0.345 C  
ENDBRANCH  34  35
ENDBRANCH  32  34
ENDBRANCH  31  32
ENDBRANCH  30  31
ENDBRANCH  21  30
ENDBRANCH  16  17
ENDBRANCH   1  16
TORSDOF 14
ENDMDL
MODEL       23
REMARK 921   NORMALIZED FREE ENERGY PREDICTED BY IDOCK:   -6.08 KCAL/MOL
REMARK 922        TOTAL FREE ENERGY PREDICTED BY IDOCK:  -12.89 KCAL/MOL
REMARK 923 INTER-LIGAND FREE ENERGY PREDICTED BY IDOCK:  -11.05 KCAL/MOL
REMARK 924 INTRA-LIGAND FREE ENERGY PREDICTED BY IDOCK:   -1.84 KCAL/MOL
REMARK 927      BINDING AFFINITY PREDICTED BY RF-SCORE:    0.00 PKD
ROOT
HETATM    1  C   UNL     1      -9.970   9.477  67.547  1.00  0.00    -0.186 C  
HETATM    2  C   UNL     1     -10.353   8.087  67.043  1.00  0.00    -0.414 C  
ENDROOT
BRANCH   1   3
HETATM    3  C   UNL     1      -9.736   9.542  69.051  1.00  0.00    -0.170 C  
BRANCH   3   4
HETATM    4  N   UNL     1     -10.906   9.735  69.865  1.00  0.00    -0.255 NA 
HETATM    5  C   UNL     1     -11.544   8.706  70.486  1.00  0.00    -0.139 A  
HETATM    6  N   UNL     1     -13.106   7.120  71.937  1.00  0.00    -0.279 NA 
HETATM    7  C   UNL     1     -11.473  10.901  70.296  1.00  0.00    -0.302 A  
HETATM    8  N   UNL     1     -14.342   8.918  72.836  1.00  0.00    -1.124 NA 
HETATM    9  N   UNL     1     -11.278   7.395  70.378  1.00  0.00    -0.269 NA 
HETATM   10  C   UNL     1     -13.317   8.452  72.021  1.00  0.00    -0.343 A  
HETATM   11  N   UNL     1     -12.471  10.682  71.121  1.00  0.00    -0.383 NA 
HETATM   12  C   UNL     1     -12.108   6.674  71.144  1.00  0.00    -0.335 A  
HETATM   13  C   UNL     1     -12.510   9.311  71.265  1.00  0.00    -0.316 A  
HETATM   14  H1  UNL     1     -14.929   8.292  73.387  1.00  0.00     0.000 HD 
HETATM   15  H2  UNL     1     -14.958   9.491  72.260  1.00  0.00     0.000 HD 
ENDBRANCH   3   4
ENDBRANCH   1   3
BRANCH   1  16
HETATM   16  O   UNL     1     -10.948  10.423  67.067  1.00  0.00    -0.244 OA 
BRANCH  16  17
HETATM   17  C   UNL     1     -10.614  11.123  65.843  1.00  0.00    -0.234 C  
HETATM   18  O   UNL     1     -12.442  12.610  65.421  1.00  0.00    -0.601 OA 
HETATM   19  O   UNL     1     -10.962  12.945  67.555  1.00  0.00    -0.244 OA 
HETATM   20  P   UNL     1     -11.022  12.905  65.909  1.00  0.00    -0.291 P  
HETATM   21  O   UNL     1     -11.408  14.590  65.971  1.00  0.00    -0.333 OA 
BRANCH  19  22
HETATM   22  C   UNL     1      -9.766  13.317  68.205  1.00  0.00    -0.225 C  
BRANCH  22  23
HETATM   23  O   UNL     1      -8.740  13.678  67.272  1.00  0.00    -0.199 OA 
BRANCH  23  24
HETATM   24  C   UNL     1      -7.487  13.347  67.673  1.00  0.00    -0.178 C  
HETATM   25  O   UNL     1      -7.105  12.222  67.964  1.00  0.00    -0.082 OA 
BRANCH  24  26
HETATM   26  O   UNL     1      -6.722  14.471  67.720  1.00  0.00    -0.149 OA 
BRANCH  26  27
HETATM   27  C   UNL     1      -6.686  15.139  69.000  1.00  0.00    -0.120 C  
HETATM   28  C   UNL     1      -5.250  15.153  69.512  1.00  0.00    -0.089 C  
HETATM   29  C   UNL     1      -7.207  16.563  68.840  1.00  0.00    -0.208 C  
ENDBRANCH  26  27
ENDBRANCH  24  26
ENDBRANCH  23  24
ENDBRANCH  22  23
ENDBRANCH  19  22
BRANCH  21  30
HETATM   30  C   UNL     1     -10.748  15.338  64.972  1.00  0.00    -0.439 C  
BRANCH  30  31
HETATM   31  O   UNL     1      -9.918  16.350  65.533  1.00  0.00    -0.518 OA 
BRANCH  31  32
HETATM   32  C   UNL     1     -10.547  17.531  65.735  1.00  0.00    -0.174 C  
HETATM   33  O   UNL     1     -11.239  18.121  64.916  1.00  0.00    -0.554 OA 
BRANCH  32  34
HETATM   34  O   UNL     1     -10.327  17.912  67.018  1.00  0.00    -0.344 OA 
BRANCH  34  35
HETATM   35  C   UNL     1     -10.090  19.317  67.236  1.00  0.00    -0.384 C  
HETATM   36  C   UNL     1      -8.698  19.636  66.698  1.00  0.00    -0.392 C  
HETATM   37  C   UNL     1     -10.160  19.645  68.724  1.00  0.00    -0.532 C  
ENDBRANCH  34  35
ENDBRANCH  32  34
ENDBRANCH  31  32
ENDBRANCH  30  31
ENDBRANCH  21  30
ENDBRANCH  16  17
ENDBRANCH   1  16
TORSDOF 14
ENDMDL
MODEL       24
REMARK 921   NORMALIZED FREE ENERGY PREDICTED BY IDOCK:   -6.08 KCAL/MOL
REMARK 922        TOTAL FREE ENERGY PREDICTED BY IDOCK:  -12.89 KCAL/MOL
REMARK 923 INTER-LIGAND FREE ENERGY PREDICTED BY IDOCK:  -11.05 KCAL/MOL
REMARK 924 INTRA-LIGAND FREE ENERGY PREDICTED BY IDOCK:   -1.84 KCAL/MOL
REMARK 927      BINDING AFFINITY PREDICTED BY RF-SCORE:    0.00 PKD
ROOT
HETATM    1  C   UNL     1     -10.198   8.308  67.210  1.00  0.00    -0.274 C  
HETATM    2  C   UNL     1      -9.195   8.486  66.072  1.00  0.00    -0.262 C  
ENDROOT
BRANCH   1   3
HETATM    3  C   UNL     1     -11.048   7.050  67.089  1.00  0.00    -0.228 C  
BRANCH   3   4
HETATM    4  N   UNL     1     -10.382   5.807  67.375  1.00  0.00    -0.199 NA 
HETATM    5  C   UNL     1     -10.270   5.308  68.636  1.00  0.00    -0.153 A  
HETATM    6  N   UNL     1      -9.825   3.874  70.828  1.00  0.00    -0.184 NA 
HETATM    7  C   UNL     1      -9.917   4.860  66.506  1.00  0.00    -0.232 A  
HETATM    8  N   UNL     1      -8.904   2.062  69.631  1.00  0.00    -0.068 NA 
HETATM    9  N   UNL     1     -10.646   5.895  69.783  1.00  0.00    -0.272 NA 
HETATM   10  C   UNL     1      -9.484   3.325  69.641  1.00  0.00    -0.139 A  
HETATM   11  N   UNL     1      -9.467   3.800  67.137  1.00  0.00    -0.197 NA 
HETATM   12  C   UNL     1     -10.390   5.102  70.832  1.00  0.00    -0.212 A  
HETATM   13  C   UNL     1      -9.704   4.060  68.470  1.00  0.00    -0.064 A  
HETATM   14  H1  UNL     1      -8.744   1.527  70.483  1.00  0.00     0.000 HD 
HETATM   15  H2  UNL     1      -8.012   2.136  69.141  1.00  0.00     0.000 HD 
ENDBRANCH   3   4
ENDBRANCH   1   3
BRANCH   1  16
HETATM   16  O   UNL     1     -10.969   9.523  67.334  1.00  0.00    -0.232 OA 
BRANCH  16  17
HETATM   17  C   UNL     1     -10.268  10.757  67.043  1.00  0.00    -0.217 C  
HETATM   18  O   UNL     1     -11.853  12.159  65.923  1.00  0.00    -0.504 OA 
HETATM   19  O   UNL     1     -12.271  11.457  68.411  1.00  0.00    -0.571 OA 
HETATM   20  P   UNL     1     -11.291  12.243  67.344  1.00  0.00    -0.356 P  
HETATM   21  O   UNL     1     -12.259  13.649  67.629  1.00  0.00    -0.326 OA 
BRANCH  19  22
HETATM   22  C   UNL     1     -11.993  11.515  69.793  1.00  0.00    -0.346 C  
BRANCH  22  23
HETATM   23  O   UNL     1     -12.469  10.354  70.484  1.00  0.00    -0.311 OA 
BRANCH  23  24
HETATM   24  C   UNL     1     -13.020  10.618  71.696  1.00  0.00    -0.477 C  
HETATM   25  O   UNL     1     -13.254  11.732  72.145  1.00  0.00    -0.498 OA 
BRANCH  24  26
HETATM   26  O   UNL     1     -13.253   9.446  72.345  1.00  0.00    -0.434 OA 
BRANCH  26  27
HETATM   27  C   UNL     1     -12.542   8.301  71.826  1.00  0.00    -0.333 C  
HETATM   28  C   UNL     1     -11.465   7.891  72.825  1.00  0.00    -0.428 C  
HETATM   29  C   UNL     1     -13.524   7.156  71.604  1.00  0.00    -0.397 C  
ENDBRANCH  26  27
ENDBRANCH  24  26
ENDBRANCH  23  24
ENDBRANCH  22  23
ENDBRANCH  19  22
BRANCH  21  30
HETATM   30  C   UNL     1     -11.490  14.829  67.727  1.00  0.00    -0.345 C  
BRANCH  30  31
HETATM   31  O   UNL     1     -10.586  14.778  68.827  1.00  0.00    -0.236 OA 
BRANCH  31  32
HETATM   32  C   UNL     1     -10.807  15.725  69.768  1.00  0.00    -0.314 C  
HETATM   33  O   UNL     1     -10.693  16.933  69.606  1.00  0.00    -0.318 OA 
BRANCH  32  34
HETATM   34  O   UNL     1     -11.234  15.106  70.896  1.00  0.00    -0.303 OA 
BRANCH  34  35
HETATM   35  C   UNL     1     -12.267  15.778  71.643  1.00  0.00    -0.456 C  
HETATM   36  C   UNL     1     -11.995  15.532  73.125  1.00  0.00    -0.577 C  
HETATM   37  C   UNL     1     -13.639  15.229  71.268  1.00  0.00    -0.584 C  
ENDBRANCH  34  35
ENDBRANCH  32  34
ENDBRANCH  31  32
ENDBRANCH  30  31
ENDBRANCH  21  30
ENDBRANCH  16  17
ENDBRANCH   1  16
TORSDOF 14
ENDMDL
MODEL       25
REMARK 921   NORMALIZED FREE ENERGY PREDICTED BY IDOCK:   -6.08 KCAL/MOL
REMARK 922        TOTAL FREE ENERGY PREDICTED BY IDOCK:  -12.89 KCAL/MOL
REMARK 923 INTER-LIGAND FREE ENERGY PREDICTED BY IDOCK:  -10.94 KCAL/MOL
REMARK 924 INTRA-LIGAND FREE ENERGY PREDICTED BY IDOCK:   -1.95 KCAL/MOL
REMARK 927      BINDING AFFINITY PREDICTED BY RF-SCORE:    0.00 PKD
ROOT
HETATM    1  C   UNL     1      -8.712   9.883  69.271  1.00  0.00    -0.169 C  
HETATM    2  C   UNL     1      -7.566   8.897  69.487  1.00  0.00    -0.080 C  
ENDROOT
BRANCH   1   3
HETATM    3  C   UNL     1     -10.015   9.226  68.834  1.00  0.00    -0.181 C  
BRANCH   3   4
HETATM    4  N   UNL     1     -10.894   8.802  69.890  1.00  0.00    -0.226 NA 
HETATM    5  C   UNL     1     -11.700   9.666  70.564  1.00  0.00    -0.242 A  
HETATM    6  N   UNL     1     -13.481  10.871  72.126  1.00  0.00    -0.269 NA 
HETATM    7  C   UNL     1     -11.212   7.534  70.289  1.00  0.00    -0.236 A  
HETATM    8  N   UNL     1     -14.235   8.847  73.074  1.00  0.00    -1.158 NA 
HETATM    9  N   UNL     1     -11.746  11.003  70.445  1.00  0.00    -0.335 NA 
HETATM   10  C   UNL     1     -13.404   9.523  72.190  1.00  0.00    -0.461 A  
HETATM   11  N   UNL     1     -12.143   7.533  71.216  1.00  0.00    -0.314 NA 
HETATM   12  C   UNL     1     -12.671  11.524  71.263  1.00  0.00    -0.364 A  
HETATM   13  C   UNL     1     -12.472   8.863  71.380  1.00  0.00    -0.304 A  
HETATM   14  H1  UNL     1     -14.914   9.328  73.664  1.00  0.00     0.000 HD 
HETATM   15  H2  UNL     1     -13.643   8.282  73.683  1.00  0.00     0.000 HD 
ENDBRANCH   3   4
ENDBRANCH   1   3
BRANCH   1  16
HETATM   16  O   UNL     1      -8.256  10.924  68.380  1.00  0.00    -0.119 OA 
BRANCH  16  17
HETATM   17  C   UNL     1      -7.340  11.894  68.946  1.00  0.00    -0.080 C  
HETATM   18  O   UNL     1      -6.180  12.858  67.086  1.00  0.00    -0.281 OA 
HETATM   19  O   UNL     1      -8.763  13.213  67.331  1.00  0.00    -0.185 OA 
HETATM   20  P   UNL     1      -7.269  13.449  67.985  1.00  0.00    -0.165 P  
HETATM   21  O   UNL     1      -7.201  14.920  67.076  1.00  0.00    -0.148 OA 
BRANCH  19  22
HETATM   22  C   UNL     1      -9.897  13.786  67.946  1.00  0.00    -0.232 C  
BRANCH  22  23
HETATM   23  O   UNL     1     -11.051  12.944  67.831  1.00  0.00    -0.233 OA 
BRANCH  23  24
HETATM   24  C   UNL     1     -11.865  13.261  66.793  1.00  0.00    -0.394 C  
HETATM   25  O   UNL     1     -12.370  14.358  66.592  1.00  0.00    -0.409 OA 
BRANCH  24  26
HETATM   26  O   UNL     1     -12.051  12.160  66.019  1.00  0.00    -0.612 OA 
BRANCH  26  27
HETATM   27  C   UNL     1     -11.230  12.095  64.832  1.00  0.00    -0.323 C  
HETATM   28  C   UNL     1     -10.394  10.820  64.876  1.00  0.00    -0.369 C  
HETATM   29  C   UNL     1     -12.126  12.099  63.598  1.00  0.00    -0.648 C  
ENDBRANCH  26  27
ENDBRANCH  24  26
ENDBRANCH  23  24
ENDBRANCH  22  23
ENDBRANCH  19  22
BRANCH  21  30
HETATM   30  C   UNL     1      -6.635  15.986  67.807  1.00  0.00    -0.154 C  
BRANCH  30  31
HETATM   31  O   UNL     1      -7.549  16.513  68.764  1.00  0.00    -0.194 OA 
BRANCH  31  32
HETATM   32  C   UNL     1      -7.948  17.781  68.508  1.00  0.00    -0.294 C  
HETATM   33  O   UNL     1      -7.220  18.764  68.468  1.00  0.00    -0.271 OA 
BRANCH  32  34
HETATM   34  O   UNL     1      -9.278  17.759  68.244  1.00  0.00    -0.265 OA 
BRANCH  34  35
HETATM   35  C   UNL     1      -9.689  18.325  66.984  1.00  0.00    -0.303 C  
HETATM   36  C   UNL     1     -10.692  19.435  67.287  1.00  0.00    -0.603 C  
HETATM   37  C   UNL     1     -10.341  17.260  66.109  1.00  0.00    -0.320 C  
ENDBRANCH  34  35
ENDBRANCH  32  34
ENDBRANCH  31  32
ENDBRANCH  30  31
ENDBRANCH  21  30
ENDBRANCH  16  17
ENDBRANCH   1  16
TORSDOF 14
ENDMDL
MODEL       26
REMARK 921   NORMALIZED FREE ENERGY PREDICTED BY IDOCK:   -6.06 KCAL/MOL
REMARK 922        TOTAL FREE ENERGY PREDICTED BY IDOCK:  -12.86 KCAL/MOL
REMARK 923 INTER-LIGAND FREE ENERGY PREDICTED BY IDOCK:  -11.11 KCAL/MOL
REMARK 924 INTRA-LIGAND FREE ENERGY PREDICTED BY IDOCK:   -1.75 KCAL/MOL
REMARK 927      BINDING AFFINITY PREDICTED BY RF-SCORE:    0.00 PKD
ROOT
HETATM    1  C   UNL     1     -10.001   8.397  67.506  1.00  0.00    -0.200 C  
HETATM    2  C   UNL     1      -9.257   8.257  66.179  1.00  0.00    -0.250 C  
ENDROOT
BRANCH   1   3
HETATM    3  C   UNL     1     -10.940   7.237  67.810  1.00  0.00    -0.070 C  
BRANCH   3   4
HETATM    4  N   UNL     1     -10.750   6.585  69.078  1.00  0.00    -0.250 NA 
HETATM    5  C   UNL     1     -11.098   7.164  70.259  1.00  0.00    -0.274 A  
HETATM    6  N   UNL     1     -11.634   7.779  72.788  1.00  0.00    -0.350 NA 
HETATM    7  C   UNL     1     -10.378   5.295  69.336  1.00  0.00    -0.243 A  
HETATM    8  N   UNL     1     -11.009   5.649  73.589  1.00  0.00    -0.424 NA 
HETATM    9  N   UNL     1     -11.558   8.409  70.454  1.00  0.00    -0.141 NA 
HETATM   10  C   UNL     1     -11.186   6.530  72.529  1.00  0.00    -0.262 A  
HETATM   11  N   UNL     1     -10.421   5.024  70.620  1.00  0.00    -0.205 NA 
HETATM   12  C   UNL     1     -11.806   8.630  71.752  1.00  0.00    -0.337 A  
HETATM   13  C   UNL     1     -10.892   6.180  71.206  1.00  0.00    -0.266 A  
HETATM   14  H1  UNL     1     -11.223   5.904  74.553  1.00  0.00     0.000 HD 
HETATM   15  H2  UNL     1     -10.042   5.326  73.564  1.00  0.00     0.000 HD 
ENDBRANCH   3   4
ENDBRANCH   1   3
BRANCH   1  16
HETATM   16  O   UNL     1     -10.643   9.690  67.536  1.00  0.00    -0.253 OA 
BRANCH  16  17
HETATM   17  C   UNL     1      -9.964  10.757  66.830  1.00  0.00    -0.206 C  
HETATM   18  O   UNL     1     -11.521  11.549  65.191  1.00  0.00    -0.165 OA 
HETATM   19  O   UNL     1     -12.068  11.817  67.738  1.00  0.00    -0.595 OA 
HETATM   20  P   UNL     1     -11.050  12.192  66.498  1.00  0.00    -0.338 P  
HETATM   21  O   UNL     1     -12.076  13.549  66.184  1.00  0.00    -0.396 OA 
BRANCH  19  22
HETATM   22  C   UNL     1     -11.876  12.408  69.006  1.00  0.00    -0.300 C  
BRANCH  22  23
HETATM   23  O   UNL     1     -12.391  11.587  70.061  1.00  0.00    -0.269 OA 
BRANCH  23  24
HETATM   24  C   UNL     1     -12.811  12.282  71.148  1.00  0.00    -0.207 C  
HETATM   25  O   UNL     1     -13.375  11.807  72.125  1.00  0.00    -0.497 OA 
BRANCH  24  26
HETATM   26  O   UNL     1     -12.526  13.600  70.972  1.00  0.00    -0.354 OA 
BRANCH  26  27
HETATM   27  C   UNL     1     -12.949  14.470  72.045  1.00  0.00    -0.341 C  
HETATM   28  C   UNL     1     -11.820  15.442  72.370  1.00  0.00    -0.558 C  
HETATM   29  C   UNL     1     -14.198  15.233  71.613  1.00  0.00    -0.654 C  
ENDBRANCH  26  27
ENDBRANCH  24  26
ENDBRANCH  23  24
ENDBRANCH  22  23
ENDBRANCH  19  22
BRANCH  21  30
HETATM   30  C   UNL     1     -11.352  14.717  65.860  1.00  0.00    -0.331 C  
BRANCH  30  31
HETATM   31  O   UNL     1     -10.337  14.990  66.822  1.00  0.00    -0.262 OA 
BRANCH  31  32
HETATM   32  C   UNL     1     -10.692  15.904  67.755  1.00  0.00    -0.320 C  
HETATM   33  O   UNL     1     -11.658  15.824  68.503  1.00  0.00    -0.368 OA 
BRANCH  32  34
HETATM   34  O   UNL     1      -9.759  16.888  67.757  1.00  0.00    -0.242 OA 
BRANCH  34  35
HETATM   35  C   UNL     1      -9.928  17.932  66.778  1.00  0.00    -0.339 C  
HETATM   36  C   UNL     1      -8.536  18.399  66.361  1.00  0.00    -0.264 C  
HETATM   37  C   UNL     1     -10.712  19.098  67.371  1.00  0.00    -0.578 C  
ENDBRANCH  34  35
ENDBRANCH  32  34
ENDBRANCH  31  32
ENDBRANCH  30  31
ENDBRANCH  21  30
ENDBRANCH  16  17
ENDBRANCH   1  16
TORSDOF 14
ENDMDL
MODEL       27
REMARK 921   NORMALIZED FREE ENERGY PREDICTED BY IDOCK:   -6.06 KCAL/MOL
REMARK 922        TOTAL FREE ENERGY PREDICTED BY IDOCK:  -12.86 KCAL/MOL
REMARK 923 INTER-LIGAND FREE ENERGY PREDICTED BY IDOCK:  -10.35 KCAL/MOL
REMARK 924 INTRA-LIGAND FREE ENERGY PREDICTED BY IDOCK:   -2.50 KCAL/MOL
REMARK 927      BINDING AFFINITY PREDICTED BY RF-SCORE:    0.00 PKD
ROOT
HETATM    1  C   UNL     1      -8.684   8.202  68.852  1.00  0.00    -0.137 C  
HETATM    2  C   UNL     1      -8.558   6.970  67.959  1.00  0.00    -0.124 C  
ENDROOT
BRANCH   1   3
HETATM    3  C   UNL     1     -10.069   8.833  68.837  1.00  0.00    -0.198 C  
BRANCH   3   4
HETATM    4  N   UNL     1     -10.927   8.505  69.944  1.00  0.00    -0.210 NA 
HETATM    5  C   UNL     1     -11.685   9.435  70.585  1.00  0.00    -0.240 A  
HETATM    6  N   UNL     1     -13.378  10.791  72.119  1.00  0.00    -0.356 NA 
HETATM    7  C   UNL     1     -11.269   7.275  70.432  1.00  0.00    -0.276 A  
HETATM    8  N   UNL     1     -14.161   8.855  73.218  1.00  0.00    -1.248 NA 
HETATM    9  N   UNL     1     -11.695  10.762  70.382  1.00  0.00    -0.328 NA 
HETATM   10  C   UNL     1     -13.339   9.448  72.267  1.00  0.00    -0.461 A  
HETATM   11  N   UNL     1     -12.169   7.362  71.385  1.00  0.00    -0.326 NA 
HETATM   12  C   UNL     1     -12.578  11.362  71.193  1.00  0.00    -0.386 A  
HETATM   13  C   UNL     1     -12.454   8.709  71.473  1.00  0.00    -0.323 A  
HETATM   14  H1  UNL     1     -14.806   9.394  73.795  1.00  0.00     0.000 HD 
HETATM   15  H2  UNL     1     -13.566   8.312  73.843  1.00  0.00     0.000 HD 
ENDBRANCH   3   4
ENDBRANCH   1   3
BRANCH   1  16
HETATM   16  O   UNL     1      -7.620   9.120  68.518  1.00  0.00    -0.084 OA 
BRANCH  16  17
HETATM   17  C   UNL     1      -7.648  10.403  69.189  1.00  0.00    -0.117 C  
HETATM   18  O   UNL     1      -5.662  11.547  68.495  1.00  0.00    -0.043 OA 
HETATM   19  O   UNL     1      -7.508  10.962  66.731  1.00  0.00    -0.120 OA 
HETATM   20  P   UNL     1      -7.124  11.782  68.108  1.00  0.00    -0.096 P  
HETATM   21  O   UNL     1      -6.629  13.087  67.086  1.00  0.00    -0.184 OA 
BRANCH  19  22
HETATM   22  C   UNL     1      -8.777  11.138  66.140  1.00  0.00    -0.186 C  
BRANCH  22  23
HETATM   23  O   UNL     1      -9.662  11.885  66.984  1.00  0.00    -0.190 OA 
BRANCH  23  24
HETATM   24  C   UNL     1     -10.944  11.926  66.543  1.00  0.00    -0.292 C  
HETATM   25  O   UNL     1     -11.937  11.675  67.212  1.00  0.00    -0.627 OA 
BRANCH  24  26
HETATM   26  O   UNL     1     -10.953  12.271  65.228  1.00  0.00    -0.289 OA 
BRANCH  26  27
HETATM   27  C   UNL     1     -12.214  12.769  64.730  1.00  0.00    -0.459 C  
HETATM   28  C   UNL     1     -12.088  14.266  64.466  1.00  0.00    -0.499 C  
HETATM   29  C   UNL     1     -12.573  12.033  63.443  1.00  0.00    -0.592 C  
ENDBRANCH  26  27
ENDBRANCH  24  26
ENDBRANCH  23  24
ENDBRANCH  22  23
ENDBRANCH  19  22
BRANCH  21  30
HETATM   30  C   UNL     1      -7.016  14.349  67.586  1.00  0.00    -0.184 C  
BRANCH  30  31
HETATM   31  O   UNL     1      -7.958  14.228  68.647  1.00  0.00    -0.136 OA 
BRANCH  31  32
HETATM   32  C   UNL     1      -8.367  15.412  69.160  1.00  0.00    -0.242 C  
HETATM   33  O   UNL     1      -7.735  16.460  69.131  1.00  0.00    -0.234 OA 
BRANCH  32  34
HETATM   34  O   UNL     1      -9.620  15.247  69.653  1.00  0.00    -0.242 OA 
BRANCH  34  35
HETATM   35  C   UNL     1     -10.606  14.735  68.735  1.00  0.00    -0.251 C  
HETATM   36  C   UNL     1     -10.792  15.775  67.634  1.00  0.00    -0.310 C  
HETATM   37  C   UNL     1     -11.930  14.496  69.454  1.00  0.00    -0.362 C  
ENDBRANCH  34  35
ENDBRANCH  32  34
ENDBRANCH  31  32
ENDBRANCH  30  31
ENDBRANCH  21  30
ENDBRANCH  16  17
ENDBRANCH   1  16
TORSDOF 14
ENDMDL
MODEL       28
REMARK 921   NORMALIZED FREE ENERGY PREDICTED BY IDOCK:   -6.06 KCAL/MOL
REMARK 922        TOTAL FREE ENERGY PREDICTED BY IDOCK:  -12.85 KCAL/MOL
REMARK 923 INTER-LIGAND FREE ENERGY PREDICTED BY IDOCK:  -11.68 KCAL/MOL
REMARK 924 INTRA-LIGAND FREE ENERGY PREDICTED BY IDOCK:   -1.18 KCAL/MOL
REMARK 927      BINDING AFFINITY PREDICTED BY RF-SCORE:    0.00 PKD
ROOT
HETATM    1  C   UNL     1     -10.496  12.298  65.104  1.00  0.00    -0.288 C  
HETATM    2  C   UNL     1     -10.302  11.979  63.623  1.00  0.00    -0.482 C  
ENDROOT
BRANCH   1   3
HETATM    3  C   UNL     1     -11.178  11.185  65.887  1.00  0.00     0.055 C  
BRANCH   3   4
HETATM    4  N   UNL     1     -10.426  10.626  66.979  1.00  0.00    -0.231 NA 
HETATM    5  C   UNL     1     -10.905  10.580  68.252  1.00  0.00    -0.248 A  
HETATM    6  N   UNL     1     -11.358  10.186  70.840  1.00  0.00    -0.348 NA 
HETATM    7  C   UNL     1      -9.253   9.927  66.946  1.00  0.00    -0.147 A  
HETATM    8  N   UNL     1      -9.359   8.971  71.153  1.00  0.00    -0.257 NA 
HETATM    9  N   UNL     1     -12.051  11.106  68.713  1.00  0.00    -0.552 NA 
HETATM   10  C   UNL     1     -10.227   9.662  70.316  1.00  0.00    -0.277 A  
HETATM   11  N   UNL     1      -8.922   9.473  68.134  1.00  0.00    -0.124 NA 
HETATM   12  C   UNL     1     -12.199  10.855  70.021  1.00  0.00    -0.347 A  
HETATM   13  C   UNL     1      -9.962   9.857  68.955  1.00  0.00    -0.187 A  
HETATM   14  H1  UNL     1      -9.553   8.829  72.144  1.00  0.00     0.000 HD 
HETATM   15  H2  UNL     1      -8.443   9.412  71.078  1.00  0.00     0.000 HD 
ENDBRANCH   3   4
ENDBRANCH   1   3
BRANCH   1  16
HETATM   16  O   UNL     1     -11.155  13.578  65.214  1.00  0.00    -0.289 OA 
BRANCH  16  17
HETATM   17  C   UNL     1     -11.778  13.869  66.489  1.00  0.00    -0.393 C  
HETATM   18  O   UNL     1     -10.019  13.774  68.111  1.00  0.00    -0.228 OA 
HETATM   19  O   UNL     1      -9.964  15.608  66.242  1.00  0.00    -0.260 OA 
HETATM   20  P   UNL     1     -10.768  14.978  67.536  1.00  0.00    -0.297 P  
HETATM   21  O   UNL     1      -9.814  16.028  68.526  1.00  0.00    -0.207 OA 
BRANCH  19  22
HETATM   22  C   UNL     1     -10.428  16.796  65.638  1.00  0.00    -0.269 C  
BRANCH  22  23
HETATM   23  O   UNL     1      -9.432  17.827  65.651  1.00  0.00    -0.440 OA 
BRANCH  23  24
HETATM   24  C   UNL     1      -9.768  18.911  66.395  1.00  0.00    -0.363 C  
HETATM   25  O   UNL     1     -10.772  19.018  67.087  1.00  0.00    -0.447 OA 
BRANCH  24  26
HETATM   26  O   UNL     1      -8.820  19.872  66.235  1.00  0.00    -0.360 OA 
BRANCH  26  27
HETATM   27  C   UNL     1      -7.497  19.515  66.692  1.00  0.00    -0.250 C  
HETATM   28  C   UNL     1      -6.602  19.274  65.482  1.00  0.00    -0.303 C  
HETATM   29  C   UNL     1      -6.938  20.647  67.549  1.00  0.00    -0.395 C  
ENDBRANCH  26  27
ENDBRANCH  24  26
ENDBRANCH  23  24
ENDBRANCH  22  23
ENDBRANCH  19  22
BRANCH  21  30
HETATM   30  C   UNL     1     -10.558  16.619  69.570  1.00  0.00    -0.308 C  
BRANCH  30  31
HETATM   31  O   UNL     1     -10.996  15.651  70.518  1.00  0.00    -0.312 OA 
BRANCH  31  32
HETATM   32  C   UNL     1     -12.253  15.856  70.977  1.00  0.00    -0.375 C  
HETATM   33  O   UNL     1     -13.284  15.662  70.346  1.00  0.00    -0.361 OA 
BRANCH  32  34
HETATM   34  O   UNL     1     -12.170  16.253  72.271  1.00  0.00    -0.482 OA 
BRANCH  34  35
HETATM   35  C   UNL     1     -13.076  15.619  73.194  1.00  0.00    -0.558 C  
HETATM   36  C   UNL     1     -12.383  15.563  74.552  1.00  0.00    -0.756 C  
HETATM   37  C   UNL     1     -13.415  14.208  72.724  1.00  0.00    -0.592 C  
ENDBRANCH  34  35
ENDBRANCH  32  34
ENDBRANCH  31  32
ENDBRANCH  30  31
ENDBRANCH  21  30
ENDBRANCH  16  17
ENDBRANCH   1  16
TORSDOF 14
ENDMDL
MODEL       29
REMARK 921   NORMALIZED FREE ENERGY PREDICTED BY IDOCK:   -6.04 KCAL/MOL
REMARK 922        TOTAL FREE ENERGY PREDICTED BY IDOCK:  -12.83 KCAL/MOL
REMARK 923 INTER-LIGAND FREE ENERGY PREDICTED BY IDOCK:  -11.17 KCAL/MOL
REMARK 924 INTRA-LIGAND FREE ENERGY PREDICTED BY IDOCK:   -1.66 KCAL/MOL
REMARK 927      BINDING AFFINITY PREDICTED BY RF-SCORE:    0.00 PKD
ROOT
HETATM    1  C   UNL     1     -11.364  15.499  70.063  1.00  0.00    -0.321 C  
HETATM    2  C   UNL     1     -11.855  16.119  71.369  1.00  0.00    -0.490 C  
ENDROOT
BRANCH   1   3
HETATM    3  C   UNL     1     -11.224  16.499  68.923  1.00  0.00    -0.257 C  
BRANCH   3   4
HETATM    4  N   UNL     1      -9.899  17.006  68.684  1.00  0.00    -0.277 NA 
HETATM    5  C   UNL     1      -9.668  18.260  68.211  1.00  0.00    -0.335 A  
HETATM    6  N   UNL     1      -8.661  20.575  67.381  1.00  0.00    -0.323 NA 
HETATM    7  C   UNL     1      -8.694  16.453  69.016  1.00  0.00    -0.233 A  
HETATM    8  N   UNL     1      -6.431  19.915  67.785  1.00  0.00    -0.222 NA 
HETATM    9  N   UNL     1     -10.577  19.162  67.809  1.00  0.00    -0.420 NA 
HETATM   10  C   UNL     1      -7.792  19.635  67.816  1.00  0.00    -0.290 A  
HETATM   11  N   UNL     1      -7.695  17.260  68.739  1.00  0.00    -0.267 NA 
HETATM   12  C   UNL     1      -9.982  20.296  67.414  1.00  0.00    -0.427 A  
HETATM   13  C   UNL     1      -8.295  18.405  68.256  1.00  0.00    -0.303 A  
HETATM   14  H1  UNL     1      -6.065  20.811  67.465  1.00  0.00     0.000 HD 
HETATM   15  H2  UNL     1      -5.977  19.184  67.239  1.00  0.00     0.000 HD 
ENDBRANCH   3   4
ENDBRANCH   1   3
BRANCH   1  16
HETATM   16  O   UNL     1     -12.206  14.369  69.748  1.00  0.00    -0.315 OA 
BRANCH  16  17
HETATM   17  C   UNL     1     -12.076  13.829  68.410  1.00  0.00    -0.289 C  
HETATM   18  O   UNL     1      -9.824  13.034  68.242  1.00  0.00    -0.223 OA 
HETATM   19  O   UNL     1     -11.471  11.916  69.943  1.00  0.00    -0.265 OA 
HETATM   20  P   UNL     1     -11.137  12.259  68.366  1.00  0.00    -0.287 P  
HETATM   21  O   UNL     1     -10.250  10.775  68.323  1.00  0.00    -0.157 OA 
BRANCH  19  22
HETATM   22  C   UNL     1     -12.580  11.104  70.264  1.00  0.00    -0.210 C  
BRANCH  22  23
HETATM   23  O   UNL     1     -12.600  10.751  71.653  1.00  0.00    -0.385 OA 
BRANCH  23  24
HETATM   24  C   UNL     1     -12.873   9.443  71.887  1.00  0.00    -0.412 C  
HETATM   25  O   UNL     1     -13.919   9.004  72.347  1.00  0.00    -0.465 OA 
BRANCH  24  26
HETATM   26  O   UNL     1     -11.791   8.693  71.547  1.00  0.00    -0.275 OA 
BRANCH  26  27
HETATM   27  C   UNL     1     -11.722   7.393  72.172  1.00  0.00    -0.290 C  
HETATM   28  C   UNL     1     -11.329   6.358  71.123  1.00  0.00    -0.376 C  
HETATM   29  C   UNL     1     -10.690   7.427  73.295  1.00  0.00    -0.441 C  
ENDBRANCH  26  27
ENDBRANCH  24  26
ENDBRANCH  23  24
ENDBRANCH  22  23
ENDBRANCH  19  22
BRANCH  21  30
HETATM   30  C   UNL     1     -10.448  10.055  67.125  1.00  0.00    -0.244 C  
BRANCH  30  31
HETATM   31  O   UNL     1      -9.356  10.220  66.225  1.00  0.00    -0.158 OA 
BRANCH  31  32
HETATM   32  C   UNL     1      -9.724  10.366  64.931  1.00  0.00    -0.309 C  
HETATM   33  O   UNL     1      -9.109   9.941  63.962  1.00  0.00    -0.232 OA 
BRANCH  32  34
HETATM   34  O   UNL     1     -10.917  11.010  64.903  1.00  0.00    -0.203 OA 
BRANCH  34  35
HETATM   35  C   UNL     1     -11.068  12.033  63.899  1.00  0.00    -0.405 C  
HETATM   36  C   UNL     1     -10.781  13.375  64.568  1.00  0.00    -0.434 C  
HETATM   37  C   UNL     1     -12.485  12.024  63.336  1.00  0.00    -0.625 C  
ENDBRANCH  34  35
ENDBRANCH  32  34
ENDBRANCH  31  32
ENDBRANCH  30  31
ENDBRANCH  21  30
ENDBRANCH  16  17
ENDBRANCH   1  16
TORSDOF 14
ENDMDL
MODEL       30
REMARK 921   NORMALIZED FREE ENERGY PREDICTED BY IDOCK:   -6.03 KCAL/MOL
REMARK 922        TOTAL FREE ENERGY PREDICTED BY IDOCK:  -12.80 KCAL/MOL
REMARK 923 INTER-LIGAND FREE ENERGY PREDICTED BY IDOCK:  -11.57 KCAL/MOL
REMARK 924 INTRA-LIGAND FREE ENERGY PREDICTED BY IDOCK:   -1.23 KCAL/MOL
REMARK 927      BINDING AFFINITY PREDICTED BY RF-SCORE:    0.00 PKD
ROOT
HETATM    1  C   UNL     1     -12.120  14.042  65.851  1.00  0.00    -0.428 C  
HETATM    2  C   UNL     1     -12.405  13.273  64.563  1.00  0.00    -0.428 C  
ENDROOT
BRANCH   1   3
HETATM    3  C   UNL     1     -10.914  14.967  65.760  1.00  0.00    -0.345 C  
BRANCH   3   4
HETATM    4  N   UNL     1     -10.715  15.858  66.871  1.00  0.00    -0.315 NA 
HETATM    5  C   UNL     1     -10.630  17.208  66.722  1.00  0.00    -0.192 A  
HETATM    6  N   UNL     1     -10.458  19.844  67.010  1.00  0.00    -0.451 NA 
HETATM    7  C   UNL     1     -10.742  15.585  68.210  1.00  0.00    -0.271 A  
HETATM    8  N   UNL     1     -10.421  19.730  69.366  1.00  0.00    -0.505 NA 
HETATM    9  N   UNL     1     -10.615  17.904  65.574  1.00  0.00    -0.611 NA 
HETATM   10  C   UNL     1     -10.496  19.093  68.133  1.00  0.00    -0.338 A  
HETATM   11  N   UNL     1     -10.631  16.676  68.932  1.00  0.00    -0.315 NA 
HETATM   12  C   UNL     1     -10.532  19.220  65.814  1.00  0.00    -0.359 A  
HETATM   13  C   UNL     1     -10.583  17.702  68.011  1.00  0.00    -0.376 A  
HETATM   14  H1  UNL     1     -10.358  20.744  69.455  1.00  0.00     0.000 HD 
HETATM   15  H2  UNL     1      -9.635  19.326  69.875  1.00  0.00     0.000 HD 
ENDBRANCH   3   4
ENDBRANCH   1   3
BRANCH   1  16
HETATM   16  O   UNL     1     -12.052  13.098  66.941  1.00  0.00    -0.379 OA 
BRANCH  16  17
HETATM   17  C   UNL     1     -11.572  11.772  66.609  1.00  0.00    -0.197 C  
HETATM   18  O   UNL     1      -9.222  11.794  67.067  1.00  0.00    -0.178 OA 
HETATM   19  O   UNL     1     -10.929  12.106  69.028  1.00  0.00    -0.230 OA 
HETATM   20  P   UNL     1     -10.370  11.126  67.827  1.00  0.00    -0.207 P  
HETATM   21  O   UNL     1      -9.233  10.514  68.979  1.00  0.00    -0.174 OA 
BRANCH  19  22
HETATM   22  C   UNL     1     -11.911  11.630  69.923  1.00  0.00    -0.358 C  
BRANCH  22  23
HETATM   23  O   UNL     1     -12.659  12.698  70.516  1.00  0.00    -0.216 OA 
BRANCH  23  24
HETATM   24  C   UNL     1     -13.190  12.396  71.727  1.00  0.00    -0.334 C  
HETATM   25  O   UNL     1     -13.235  11.281  72.228  1.00  0.00    -0.402 OA 
BRANCH  24  26
HETATM   26  O   UNL     1     -13.686  13.529  72.292  1.00  0.00    -0.516 OA 
BRANCH  26  27
HETATM   27  C   UNL     1     -12.805  14.673  72.254  1.00  0.00    -0.340 C  
HETATM   28  C   UNL     1     -13.221  15.582  71.103  1.00  0.00    -0.576 C  
HETATM   29  C   UNL     1     -12.894  15.422  73.580  1.00  0.00    -0.685 C  
ENDBRANCH  26  27
ENDBRANCH  24  26
ENDBRANCH  23  24
ENDBRANCH  22  23
ENDBRANCH  19  22
BRANCH  21  30
HETATM   30  C   UNL     1      -9.063   9.116  68.888  1.00  0.00    -0.139 C  
BRANCH  30  31
HETATM   31  O   UNL     1     -10.152   8.413  69.480  1.00  0.00    -0.190 OA 
BRANCH  31  32
HETATM   32  C   UNL     1     -10.531   7.307  68.799  1.00  0.00    -0.200 C  
HETATM   33  O   UNL     1     -10.355   7.108  67.604  1.00  0.00    -0.180 OA 
BRANCH  32  34
HETATM   34  O   UNL     1     -11.081   6.437  69.682  1.00  0.00    -0.327 OA 
BRANCH  34  35
HETATM   35  C   UNL     1     -10.195   5.889  70.677  1.00  0.00    -0.209 C  
HETATM   36  C   UNL     1      -9.823   4.478  70.233  1.00  0.00    -0.299 C  
HETATM   37  C   UNL     1     -10.884   5.842  72.037  1.00  0.00    -0.303 C  
ENDBRANCH  34  35
ENDBRANCH  32  34
ENDBRANCH  31  32
ENDBRANCH  30  31
ENDBRANCH  21  30
ENDBRANCH  16  17
ENDBRANCH   1  16
TORSDOF 14
ENDMDL
MODEL       31
REMARK 921   NORMALIZED FREE ENERGY PREDICTED BY IDOCK:   -6.02 KCAL/MOL
REMARK 922        TOTAL FREE ENERGY PREDICTED BY IDOCK:  -12.79 KCAL/MOL
REMARK 923 INTER-LIGAND FREE ENERGY PREDICTED BY IDOCK:  -10.93 KCAL/MOL
REMARK 924 INTRA-LIGAND FREE ENERGY PREDICTED BY IDOCK:   -1.86 KCAL/MOL
REMARK 927      BINDING AFFINITY PREDICTED BY RF-SCORE:    0.00 PKD
ROOT
HETATM    1  C   UNL     1      -9.135  11.047  68.381  1.00  0.00    -0.161 C  
HETATM    2  C   UNL     1      -8.306   9.816  68.020  1.00  0.00    -0.110 C  
ENDROOT
BRANCH   1   3
HETATM    3  C   UNL     1     -10.613  10.914  68.042  1.00  0.00    -0.202 C  
BRANCH   3   4
HETATM    4  N   UNL     1     -11.136  11.871  67.104  1.00  0.00    -0.275 NA 
HETATM    5  C   UNL     1     -10.969  11.746  65.759  1.00  0.00    -0.301 A  
HETATM    6  N   UNL     1     -10.996  11.961  63.111  1.00  0.00    -0.280 NA 
HETATM    7  C   UNL     1     -11.984  12.919  67.326  1.00  0.00    -0.309 A  
HETATM    8  N   UNL     1     -12.420  13.842  63.133  1.00  0.00    -1.074 NA 
HETATM    9  N   UNL     1     -10.247  10.821  65.108  1.00  0.00    -0.296 NA 
HETATM   10  C   UNL     1     -11.723  12.854  63.818  1.00  0.00    -0.492 A  
HETATM   11  N   UNL     1     -12.335  13.507  66.205  1.00  0.00    -0.408 NA 
HETATM   12  C   UNL     1     -10.321  11.002  63.782  1.00  0.00    -0.364 A  
HETATM   13  C   UNL     1     -11.724  12.766  65.215  1.00  0.00    -0.368 A  
HETATM   14  H1  UNL     1     -12.420  13.906  62.116  1.00  0.00     0.000 HD 
HETATM   15  H2  UNL     1     -12.117  14.744  63.499  1.00  0.00     0.000 HD 
ENDBRANCH   3   4
ENDBRANCH   1   3
BRANCH   1  16
HETATM   16  O   UNL     1      -8.505  12.209  67.800  1.00  0.00    -0.142 OA 
BRANCH  16  17
HETATM   17  C   UNL     1      -7.621  12.959  68.669  1.00  0.00    -0.085 C  
HETATM   18  O   UNL     1      -6.088  14.093  67.220  1.00  0.00    -0.304 OA 
HETATM   19  O   UNL     1      -8.637  14.686  67.133  1.00  0.00    -0.200 OA 
HETATM   20  P   UNL     1      -7.261  14.638  68.038  1.00  0.00    -0.178 P  
HETATM   21  O   UNL     1      -6.921  16.226  67.442  1.00  0.00    -0.140 OA 
BRANCH  19  22
HETATM   22  C   UNL     1      -9.808  15.267  67.666  1.00  0.00    -0.217 C  
BRANCH  22  23
HETATM   23  O   UNL     1      -9.828  15.213  69.098  1.00  0.00    -0.219 OA 
BRANCH  23  24
HETATM   24  C   UNL     1     -10.760  16.017  69.669  1.00  0.00    -0.316 C  
HETATM   25  O   UNL     1     -10.675  17.232  69.792  1.00  0.00    -0.102 OA 
BRANCH  24  26
HETATM   26  O   UNL     1     -11.799  15.257  70.104  1.00  0.00    -0.276 OA 
BRANCH  26  27
HETATM   27  C   UNL     1     -12.494  15.768  71.262  1.00  0.00    -0.448 C  
HETATM   28  C   UNL     1     -13.901  15.181  71.297  1.00  0.00    -0.553 C  
HETATM   29  C   UNL     1     -11.727  15.379  72.522  1.00  0.00    -0.564 C  
ENDBRANCH  26  27
ENDBRANCH  24  26
ENDBRANCH  23  24
ENDBRANCH  22  23
ENDBRANCH  19  22
BRANCH  21  30
HETATM   30  C   UNL     1      -6.400  17.082  68.437  1.00  0.00    -0.150 C  
BRANCH  30  31
HETATM   31  O   UNL     1      -7.432  17.800  69.106  1.00  0.00    -0.206 OA 
BRANCH  31  32
HETATM   32  C   UNL     1      -7.413  19.134  68.879  1.00  0.00    -0.343 C  
HETATM   33  O   UNL     1      -6.421  19.851  68.915  1.00  0.00    -0.284 OA 
BRANCH  32  34
HETATM   34  O   UNL     1      -8.668  19.523  68.546  1.00  0.00    -0.354 OA 
BRANCH  34  35
HETATM   35  C   UNL     1      -9.197  18.993  67.315  1.00  0.00    -0.286 C  
HETATM   36  C   UNL     1      -8.379  19.587  66.172  1.00  0.00    -0.333 C  
HETATM   37  C   UNL     1     -10.666  19.373  67.157  1.00  0.00    -0.593 C  
ENDBRANCH  34  35
ENDBRANCH  32  34
ENDBRANCH  31  32
ENDBRANCH  30  31
ENDBRANCH  21  30
ENDBRANCH  16  17
ENDBRANCH   1  16
TORSDOF 14
ENDMDL
MODEL       32
REMARK 921   NORMALIZED FREE ENERGY PREDICTED BY IDOCK:   -6.01 KCAL/MOL
REMARK 922        TOTAL FREE ENERGY PREDICTED BY IDOCK:  -12.76 KCAL/MOL
REMARK 923 INTER-LIGAND FREE ENERGY PREDICTED BY IDOCK:  -11.20 KCAL/MOL
REMARK 924 INTRA-LIGAND FREE ENERGY PREDICTED BY IDOCK:   -1.56 KCAL/MOL
REMARK 927      BINDING AFFINITY PREDICTED BY RF-SCORE:    0.00 PKD
ROOT
HETATM    1  C   UNL     1     -10.447  10.674  66.767  1.00  0.00    -0.247 C  
HETATM    2  C   UNL     1      -9.875  10.891  65.367  1.00  0.00    -0.308 C  
ENDROOT
BRANCH   1   3
HETATM    3  C   UNL     1     -11.642  11.562  67.086  1.00  0.00    -0.167 C  
BRANCH   3   4
HETATM    4  N   UNL     1     -11.943  12.589  66.125  1.00  0.00    -0.569 NA 
HETATM    5  C   UNL     1     -11.393  13.833  66.185  1.00  0.00    -0.314 A  
HETATM    6  N   UNL     1     -10.587  16.334  65.793  1.00  0.00    -0.343 NA 
HETATM    7  C   UNL     1     -12.642  12.495  64.955  1.00  0.00    -0.390 A  
HETATM    8  N   UNL     1     -11.735  16.536  63.741  1.00  0.00    -1.356 NA 
HETATM    9  N   UNL     1     -10.599  14.329  67.146  1.00  0.00    -0.277 NA 
HETATM   10  C   UNL     1     -11.374  15.775  64.847  1.00  0.00    -0.280 A  
HETATM   11  N   UNL     1     -12.614  13.621  64.279  1.00  0.00    -0.664 NA 
HETATM   12  C   UNL     1     -10.239  15.589  66.865  1.00  0.00    -0.279 A  
HETATM   13  C   UNL     1     -11.816  14.459  65.029  1.00  0.00    -0.400 A  
HETATM   14  H1  UNL     1     -11.413  17.494  63.608  1.00  0.00     0.000 HD 
HETATM   15  H2  UNL     1     -12.754  16.543  63.691  1.00  0.00     0.000 HD 
ENDBRANCH   3   4
ENDBRANCH   1   3
BRANCH   1  16
HETATM   16  O   UNL     1      -9.370  10.779  67.722  1.00  0.00    -0.149 OA 
BRANCH  16  17
HETATM   17  C   UNL     1      -8.711   9.540  68.081  1.00  0.00    -0.120 C  
HETATM   18  O   UNL     1      -7.252  10.081  69.902  1.00  0.00    -0.108 OA 
HETATM   19  O   UNL     1      -9.844  10.310  70.202  1.00  0.00    -0.148 OA 
HETATM   20  P   UNL     1      -8.573   9.308  69.891  1.00  0.00    -0.208 P  
HETATM   21  O   UNL     1      -8.443   9.087  71.602  1.00  0.00    -0.339 OA 
BRANCH  19  22
HETATM   22  C   UNL     1     -11.140   9.773  70.352  1.00  0.00    -0.307 C  
BRANCH  22  23
HETATM   23  O   UNL     1     -11.628   9.918  71.692  1.00  0.00    -0.360 OA 
BRANCH  23  24
HETATM   24  C   UNL     1     -12.964  10.138  71.773  1.00  0.00    -0.462 C  
HETATM   25  O   UNL     1     -13.766   9.443  72.382  1.00  0.00    -0.454 OA 
BRANCH  24  26
HETATM   26  O   UNL     1     -13.279  11.247  71.051  1.00  0.00    -0.167 OA 
BRANCH  26  27
HETATM   27  C   UNL     1     -12.829  12.498  71.617  1.00  0.00    -0.263 C  
HETATM   28  C   UNL     1     -12.287  13.382  70.499  1.00  0.00    -0.401 C  
HETATM   29  C   UNL     1     -13.999  13.185  72.315  1.00  0.00    -0.490 C  
ENDBRANCH  26  27
ENDBRANCH  24  26
ENDBRANCH  23  24
ENDBRANCH  22  23
ENDBRANCH  19  22
BRANCH  21  30
HETATM   30  C   UNL     1      -8.170   7.749  71.960  1.00  0.00    -0.111 C  
BRANCH  30  31
HETATM   31  O   UNL     1      -9.358   7.043  72.302  1.00  0.00    -0.138 OA 
BRANCH  31  32
HETATM   32  C   UNL     1      -9.370   5.752  71.896  1.00  0.00    -0.151 C  
HETATM   33  O   UNL     1      -9.568   4.780  72.613  1.00  0.00    -0.133 OA 
BRANCH  32  34
HETATM   34  O   UNL     1      -9.186   5.731  70.553  1.00  0.00    -0.144 OA 
BRANCH  34  35
HETATM   35  C   UNL     1     -10.292   5.249  69.763  1.00  0.00    -0.299 C  
HETATM   36  C   UNL     1      -9.710   4.582  68.520  1.00  0.00    -0.198 C  
HETATM   37  C   UNL     1     -11.200   6.405  69.357  1.00  0.00    -0.459 C  
ENDBRANCH  34  35
ENDBRANCH  32  34
ENDBRANCH  31  32
ENDBRANCH  30  31
ENDBRANCH  21  30
ENDBRANCH  16  17
ENDBRANCH   1  16
TORSDOF 14
ENDMDL
MODEL       33
REMARK 921   NORMALIZED FREE ENERGY PREDICTED BY IDOCK:   -6.00 KCAL/MOL
REMARK 922        TOTAL FREE ENERGY PREDICTED BY IDOCK:  -12.74 KCAL/MOL
REMARK 923 INTER-LIGAND FREE ENERGY PREDICTED BY IDOCK:  -11.55 KCAL/MOL
REMARK 924 INTRA-LIGAND FREE ENERGY PREDICTED BY IDOCK:   -1.19 KCAL/MOL
REMARK 927      BINDING AFFINITY PREDICTED BY RF-SCORE:    0.00 PKD
ROOT
HETATM    1  C   UNL     1      -9.171  11.950  68.667  1.00  0.00    -0.061 C  
HETATM    2  C   UNL     1      -7.876  11.206  68.345  1.00  0.00    -0.133 C  
ENDROOT
BRANCH   1   3
HETATM    3  C   UNL     1     -10.431  11.160  68.341  1.00  0.00    -0.188 C  
BRANCH   3   4
HETATM    4  N   UNL     1     -11.334  10.928  69.437  1.00  0.00    -0.254 NA 
HETATM    5  C   UNL     1     -11.406   9.735  70.088  1.00  0.00    -0.251 A  
HETATM    6  N   UNL     1     -11.908   7.692  71.711  1.00  0.00    -0.279 NA 
HETATM    7  C   UNL     1     -12.115  11.823  70.112  1.00  0.00    -0.317 A  
HETATM    8  N   UNL     1     -13.376   8.944  73.069  1.00  0.00    -0.911 NA 
HETATM    9  N   UNL     1     -10.763   8.598  69.782  1.00  0.00    -0.228 NA 
HETATM   10  C   UNL     1     -12.514   8.870  71.981  1.00  0.00    -0.392 A  
HETATM   11  N   UNL     1     -12.725  11.264  71.133  1.00  0.00    -0.401 NA 
HETATM   12  C   UNL     1     -11.070   7.626  70.653  1.00  0.00    -0.257 A  
HETATM   13  C   UNL     1     -12.270   9.962  71.141  1.00  0.00    -0.373 A  
HETATM   14  H1  UNL     1     -13.553   8.149  73.682  1.00  0.00     0.000 HD 
HETATM   15  H2  UNL     1     -14.277   9.276  72.727  1.00  0.00     0.000 HD 
ENDBRANCH   3   4
ENDBRANCH   1   3
BRANCH   1  16
HETATM   16  O   UNL     1      -9.119  13.250  68.042  1.00  0.00    -0.188 OA 
BRANCH  16  17
HETATM   17  C   UNL     1      -8.240  14.222  68.660  1.00  0.00    -0.139 C  
HETATM   18  O   UNL     1      -6.428  14.531  67.125  1.00  0.00    -0.221 OA 
HETATM   19  O   UNL     1      -8.854  15.230  66.428  1.00  0.00    -0.290 OA 
HETATM   20  P   UNL     1      -7.598  15.455  67.471  1.00  0.00    -0.213 P  
HETATM   21  O   UNL     1      -6.990  16.622  66.347  1.00  0.00    -0.200 OA 
BRANCH  19  22
HETATM   22  C   UNL     1      -9.986  16.068  66.502  1.00  0.00    -0.279 C  
BRANCH  22  23
HETATM   23  O   UNL     1     -11.158  15.434  65.975  1.00  0.00    -0.313 OA 
BRANCH  23  24
HETATM   24  C   UNL     1     -11.370  15.672  64.656  1.00  0.00    -0.349 C  
HETATM   25  O   UNL     1     -11.291  16.763  64.107  1.00  0.00    -1.194 OA 
BRANCH  24  26
HETATM   26  O   UNL     1     -11.707  14.508  64.041  1.00  0.00    -0.249 OA 
BRANCH  26  27
HETATM   27  C   UNL     1     -11.607  13.324  64.864  1.00  0.00    -0.325 C  
HETATM   28  C   UNL     1     -12.856  12.473  64.662  1.00  0.00    -0.325 C  
HETATM   29  C   UNL     1     -10.361  12.539  64.469  1.00  0.00    -0.362 C  
ENDBRANCH  26  27
ENDBRANCH  24  26
ENDBRANCH  23  24
ENDBRANCH  22  23
ENDBRANCH  19  22
BRANCH  21  30
HETATM   30  C   UNL     1      -6.468  17.770  66.982  1.00  0.00    -0.159 C  
BRANCH  30  31
HETATM   31  O   UNL     1      -7.191  18.944  66.623  1.00  0.00    -0.206 OA 
BRANCH  31  32
HETATM   32  C   UNL     1      -7.575  19.699  67.678  1.00  0.00    -0.276 C  
HETATM   33  O   UNL     1      -7.211  19.546  68.837  1.00  0.00    -0.340 OA 
BRANCH  32  34
HETATM   34  O   UNL     1      -8.381  20.688  67.217  1.00  0.00    -0.336 OA 
BRANCH  34  35
HETATM   35  C   UNL     1      -9.798  20.427  67.253  1.00  0.00    -0.456 C  
HETATM   36  C   UNL     1     -10.051  19.425  68.376  1.00  0.00    -0.538 C  
HETATM   37  C   UNL     1     -10.267  19.847  65.923  1.00  0.00    -0.552 C  
ENDBRANCH  34  35
ENDBRANCH  32  34
ENDBRANCH  31  32
ENDBRANCH  30  31
ENDBRANCH  21  30
ENDBRANCH  16  17
ENDBRANCH   1  16
TORSDOF 14
ENDMDL
MODEL       34
REMARK 921   NORMALIZED FREE ENERGY PREDICTED BY IDOCK:   -5.97 KCAL/MOL
REMARK 922        TOTAL FREE ENERGY PREDICTED BY IDOCK:  -12.69 KCAL/MOL
REMARK 923 INTER-LIGAND FREE ENERGY PREDICTED BY IDOCK:  -11.71 KCAL/MOL
REMARK 924 INTRA-LIGAND FREE ENERGY PREDICTED BY IDOCK:   -0.97 KCAL/MOL
REMARK 927      BINDING AFFINITY PREDICTED BY RF-SCORE:    0.00 PKD
ROOT
HETATM    1  C   UNL     1      -8.310  13.406  68.017  1.00  0.00    -0.165 C  
HETATM    2  C   UNL     1      -6.925  12.824  67.745  1.00  0.00    -0.131 C  
ENDROOT
BRANCH   1   3
HETATM    3  C   UNL     1      -9.409  12.357  68.122  1.00  0.00    -0.209 C  
BRANCH   3   4
HETATM    4  N   UNL     1      -9.934  11.864  66.877  1.00  0.00    -0.199 NA 
HETATM    5  C   UNL     1     -10.996  12.438  66.251  1.00  0.00    -0.286 A  
HETATM    6  N   UNL     1     -12.946  13.183  64.606  1.00  0.00    -0.713 NA 
HETATM    7  C   UNL     1      -9.419  10.911  66.042  1.00  0.00    -0.203 A  
HETATM    8  N   UNL     1     -12.360  11.597  62.960  1.00  0.00    -0.956 NA 
HETATM    9  N   UNL     1     -11.764  13.443  66.701  1.00  0.00    -0.364 NA 
HETATM   10  C   UNL     1     -12.128  12.188  64.197  1.00  0.00    -0.409 A  
HETATM   11  N   UNL     1     -10.118  10.805  64.935  1.00  0.00    -0.301 NA 
HETATM   12  C   UNL     1     -12.714  13.755  65.808  1.00  0.00    -0.446 A  
HETATM   13  C   UNL     1     -11.095  11.773  65.045  1.00  0.00    -0.284 A  
HETATM   14  H1  UNL     1     -13.113  11.899  62.343  1.00  0.00     0.000 HD 
HETATM   15  H2  UNL     1     -12.471  10.595  63.113  1.00  0.00     0.000 HD 
ENDBRANCH   3   4
ENDBRANCH   1   3
BRANCH   1  16
HETATM   16  O   UNL     1      -8.575  14.433  67.038  1.00  0.00    -0.214 OA 
BRANCH  16  17
HETATM   17  C   UNL     1      -7.737  15.613  67.105  1.00  0.00    -0.223 C  
HETATM   18  O   UNL     1      -8.856  17.284  65.806  1.00  0.00    -0.530 OA 
HETATM   19  O   UNL     1      -9.982  16.362  67.983  1.00  0.00    -0.234 OA 
HETATM   20  P   UNL     1      -8.697  17.155  67.322  1.00  0.00    -0.210 P  
HETATM   21  O   UNL     1      -9.605  18.613  67.528  1.00  0.00    -0.287 OA 
BRANCH  19  22
HETATM   22  C   UNL     1     -10.087  16.241  69.385  1.00  0.00    -0.253 C  
BRANCH  22  23
HETATM   23  O   UNL     1     -11.162  15.375  69.769  1.00  0.00    -0.246 OA 
BRANCH  23  24
HETATM   24  C   UNL     1     -11.961  15.883  70.741  1.00  0.00    -0.378 C  
HETATM   25  O   UNL     1     -11.585  16.544  71.700  1.00  0.00    -0.399 OA 
BRANCH  24  26
HETATM   26  O   UNL     1     -13.248  15.522  70.494  1.00  0.00    -0.381 OA 
BRANCH  26  27
HETATM   27  C   UNL     1     -13.915  14.839  71.578  1.00  0.00    -0.467 C  
HETATM   28  C   UNL     1     -13.091  13.621  71.980  1.00  0.00    -0.484 C  
HETATM   29  C   UNL     1     -14.063  15.793  72.760  1.00  0.00    -0.425 C  
ENDBRANCH  26  27
ENDBRANCH  24  26
ENDBRANCH  23  24
ENDBRANCH  22  23
ENDBRANCH  19  22
BRANCH  21  30
HETATM   30  C   UNL     1      -8.812  19.690  67.978  1.00  0.00    -0.318 C  
BRANCH  30  31
HETATM   31  O   UNL     1      -7.977  20.198  66.942  1.00  0.00    -0.298 OA 
BRANCH  31  32
HETATM   32  C   UNL     1      -6.757  20.605  67.365  1.00  0.00    -0.311 C  
HETATM   33  O   UNL     1      -6.465  20.913  68.513  1.00  0.00    -0.275 OA 
BRANCH  32  34
HETATM   34  O   UNL     1      -5.906  20.552  66.310  1.00  0.00    -0.175 OA 
BRANCH  34  35
HETATM   35  C   UNL     1      -6.456  20.071  65.068  1.00  0.00    -0.289 C  
HETATM   36  C   UNL     1      -5.815  18.717  64.777  1.00  0.00    -0.290 C  
HETATM   37  C   UNL     1      -6.151  21.046  63.936  1.00  0.00    -0.358 C  
ENDBRANCH  34  35
ENDBRANCH  32  34
ENDBRANCH  31  32
ENDBRANCH  30  31
ENDBRANCH  21  30
ENDBRANCH  16  17
ENDBRANCH   1  16
TORSDOF 14
ENDMDL
MODEL       35
REMARK 921   NORMALIZED FREE ENERGY PREDICTED BY IDOCK:   -5.95 KCAL/MOL
REMARK 922        TOTAL FREE ENERGY PREDICTED BY IDOCK:  -12.65 KCAL/MOL
REMARK 923 INTER-LIGAND FREE ENERGY PREDICTED BY IDOCK:  -10.70 KCAL/MOL
REMARK 924 INTRA-LIGAND FREE ENERGY PREDICTED BY IDOCK:   -1.96 KCAL/MOL
REMARK 927      BINDING AFFINITY PREDICTED BY RF-SCORE:    0.00 PKD
ROOT
HETATM    1  C   UNL     1     -11.685  12.903  65.583  1.00  0.00    -0.387 C  
HETATM    2  C   UNL     1     -11.336  12.038  64.374  1.00  0.00    -0.411 C  
ENDROOT
BRANCH   1   3
HETATM    3  C   UNL     1     -10.574  13.860  65.995  1.00  0.00    -0.293 C  
BRANCH   3   4
HETATM    4  N   UNL     1     -10.794  15.250  65.698  1.00  0.00    -0.348 NA 
HETATM    5  C   UNL     1     -10.371  16.251  66.517  1.00  0.00    -0.307 A  
HETATM    6  N   UNL     1      -9.729  18.548  67.688  1.00  0.00    -0.289 NA 
HETATM    7  C   UNL     1     -11.272  15.820  64.552  1.00  0.00    -0.322 A  
HETATM    8  N   UNL     1     -10.523  19.853  65.890  1.00  0.00    -0.505 NA 
HETATM    9  N   UNL     1      -9.798  16.130  67.725  1.00  0.00    -0.230 NA 
HETATM   10  C   UNL     1     -10.292  18.607  66.461  1.00  0.00    -0.421 A  
HETATM   11  N   UNL     1     -11.227  17.132  64.604  1.00  0.00    -0.959 NA 
HETATM   12  C   UNL     1      -9.505  17.334  68.237  1.00  0.00    -0.283 A  
HETATM   13  C   UNL     1     -10.643  17.413  65.822  1.00  0.00    -0.182 A  
HETATM   14  H1  UNL     1     -10.267  20.724  66.356  1.00  0.00     0.000 HD 
HETATM   15  H2  UNL     1     -11.515  19.908  65.660  1.00  0.00     0.000 HD 
ENDBRANCH   3   4
ENDBRANCH   1   3
BRANCH   1  16
HETATM   16  O   UNL     1     -12.136  12.040  66.648  1.00  0.00    -0.615 OA 
BRANCH  16  17
HETATM   17  C   UNL     1     -11.533  12.258  67.947  1.00  0.00    -0.330 C  
HETATM   18  O   UNL     1     -12.661  10.771  69.448  1.00  0.00    -0.314 OA 
HETATM   19  O   UNL     1     -11.219   9.794  67.493  1.00  0.00    -0.155 OA 
HETATM   20  P   UNL     1     -11.247  10.703  68.868  1.00  0.00    -0.280 P  
HETATM   21  O   UNL     1     -10.975   9.233  69.738  1.00  0.00    -0.234 OA 
BRANCH  19  22
HETATM   22  C   UNL     1      -9.987   9.510  66.865  1.00  0.00    -0.216 C  
BRANCH  22  23
HETATM   23  O   UNL     1      -9.999   8.231  66.219  1.00  0.00    -0.224 OA 
BRANCH  23  24
HETATM   24  C   UNL     1     -10.248   7.191  67.055  1.00  0.00    -0.269 C  
HETATM   25  O   UNL     1     -11.248   6.486  67.038  1.00  0.00    -0.397 OA 
BRANCH  24  26
HETATM   26  O   UNL     1      -9.216   7.067  67.931  1.00  0.00    -0.127 OA 
BRANCH  26  27
HETATM   27  C   UNL     1      -8.063   6.355  67.429  1.00  0.00    -0.116 C  
HETATM   28  C   UNL     1      -6.853   7.282  67.465  1.00  0.00    -0.074 C  
HETATM   29  C   UNL     1      -7.814   5.125  68.295  1.00  0.00    -0.087 C  
ENDBRANCH  26  27
ENDBRANCH  24  26
ENDBRANCH  23  24
ENDBRANCH  22  23
ENDBRANCH  19  22
BRANCH  21  30
HETATM   30  C   UNL     1     -10.058   9.389  70.800  1.00  0.00    -0.298 C  
BRANCH  30  31
HETATM   31  O   UNL     1     -10.707   9.349  72.067  1.00  0.00    -0.198 OA 
BRANCH  31  32
HETATM   32  C   UNL     1     -11.485   8.257  72.255  1.00  0.00    -0.384 C  
HETATM   33  O   UNL     1     -12.706   8.228  72.174  1.00  0.00    -0.332 OA 
BRANCH  32  34
HETATM   34  O   UNL     1     -10.673   7.196  72.487  1.00  0.00    -0.223 OA 
BRANCH  34  35
HETATM   35  C   UNL     1     -11.148   5.915  72.028  1.00  0.00    -0.274 C  
HETATM   36  C   UNL     1     -10.544   4.850  72.938  1.00  0.00    -0.276 C  
HETATM   37  C   UNL     1     -10.717   5.672  70.585  1.00  0.00    -0.333 C  
ENDBRANCH  34  35
ENDBRANCH  32  34
ENDBRANCH  31  32
ENDBRANCH  30  31
ENDBRANCH  21  30
ENDBRANCH  16  17
ENDBRANCH   1  16
TORSDOF 14
ENDMDL
MODEL       36
REMARK 921   NORMALIZED FREE ENERGY PREDICTED BY IDOCK:   -5.91 KCAL/MOL
REMARK 922        TOTAL FREE ENERGY PREDICTED BY IDOCK:  -12.58 KCAL/MOL
REMARK 923 INTER-LIGAND FREE ENERGY PREDICTED BY IDOCK:  -10.86 KCAL/MOL
REMARK 924 INTRA-LIGAND FREE ENERGY PREDICTED BY IDOCK:   -1.72 KCAL/MOL
REMARK 927      BINDING AFFINITY PREDICTED BY RF-SCORE:    0.00 PKD
ROOT
HETATM    1  C   UNL     1      -8.994  10.039  67.052  1.00  0.00    -0.138 C  
HETATM    2  C   UNL     1      -8.450   9.398  65.777  1.00  0.00    -0.142 C  
ENDROOT
BRANCH   1   3
HETATM    3  C   UNL     1     -10.392   9.568  67.429  1.00  0.00    -0.258 C  
BRANCH   3   4
HETATM    4  N   UNL     1     -10.522   8.938  68.715  1.00  0.00    -0.216 NA 
HETATM    5  C   UNL     1     -11.260   9.476  69.724  1.00  0.00    -0.144 A  
HETATM    6  N   UNL     1     -12.579  10.029  71.963  1.00  0.00    -0.347 NA 
HETATM    7  C   UNL     1     -10.117   7.693  69.109  1.00  0.00    -0.194 A  
HETATM    8  N   UNL     1     -12.010   7.975  72.976  1.00  0.00    -0.633 NA 
HETATM    9  N   UNL     1     -11.879  10.667  69.737  1.00  0.00    -0.297 NA 
HETATM   10  C   UNL     1     -11.952   8.834  71.885  1.00  0.00    -0.365 A  
HETATM   11  N   UNL     1     -10.510   7.417  70.331  1.00  0.00    -0.217 NA 
HETATM   12  C   UNL     1     -12.520  10.859  70.899  1.00  0.00    -0.408 A  
HETATM   13  C   UNL     1     -11.247   8.518  70.718  1.00  0.00    -0.257 A  
HETATM   14  H1  UNL     1     -12.524   8.205  73.826  1.00  0.00     0.000 HD 
HETATM   15  H2  UNL     1     -11.052   7.753  73.246  1.00  0.00     0.000 HD 
ENDBRANCH   3   4
ENDBRANCH   1   3
BRANCH   1  16
HETATM   16  O   UNL     1      -8.874  11.473  66.930  1.00  0.00    -0.169 OA 
BRANCH  16  17
HETATM   17  C   UNL     1      -8.556  12.194  68.145  1.00  0.00    -0.177 C  
HETATM   18  O   UNL     1      -7.967  14.410  67.454  1.00  0.00    -0.182 OA 
HETATM   19  O   UNL     1     -10.403  13.532  67.063  1.00  0.00    -0.249 OA 
HETATM   20  P   UNL     1      -9.226  13.897  68.157  1.00  0.00    -0.202 P  
HETATM   21  O   UNL     1      -9.859  15.507  68.169  1.00  0.00    -0.214 OA 
BRANCH  19  22
HETATM   22  C   UNL     1     -11.686  13.153  67.513  1.00  0.00    -0.366 C  
BRANCH  22  23
HETATM   23  O   UNL     1     -12.374  12.345  66.550  1.00  0.00    -0.511 OA 
BRANCH  23  24
HETATM   24  C   UNL     1     -12.898  13.047  65.514  1.00  0.00    -0.046 C  
HETATM   25  O   UNL     1     -13.283  14.207  65.560  1.00  0.00    -0.688 OA 
BRANCH  24  26
HETATM   26  O   UNL     1     -12.948  12.249  64.414  1.00  0.00    -0.719 OA 
BRANCH  26  27
HETATM   27  C   UNL     1     -11.777  12.292  63.568  1.00  0.00    -0.499 C  
HETATM   28  C   UNL     1     -11.000  13.570  63.861  1.00  0.00    -0.019 C  
HETATM   29  C   UNL     1     -10.910  11.068  63.845  1.00  0.00    -0.221 C  
ENDBRANCH  26  27
ENDBRANCH  24  26
ENDBRANCH  23  24
ENDBRANCH  22  23
ENDBRANCH  19  22
BRANCH  21  30
HETATM   30  C   UNL     1      -9.897  16.068  69.464  1.00  0.00    -0.235 C  
BRANCH  30  31
HETATM   31  O   UNL     1     -10.735  15.318  70.338  1.00  0.00    -0.288 OA 
BRANCH  31  32
HETATM   32  C   UNL     1     -12.013  15.759  70.391  1.00  0.00    -0.359 C  
HETATM   33  O   UNL     1     -12.782  15.836  69.441  1.00  0.00     0.068 OA 
BRANCH  32  34
HETATM   34  O   UNL     1     -12.309  16.040  71.684  1.00  0.00    -0.455 OA 
BRANCH  34  35
HETATM   35  C   UNL     1     -12.318  14.924  72.596  1.00  0.00    -0.327 C  
HETATM   36  C   UNL     1     -13.629  14.171  72.386  1.00  0.00    -0.632 C  
HETATM   37  C   UNL     1     -12.223  15.412  74.037  1.00  0.00    -0.757 C  
ENDBRANCH  34  35
ENDBRANCH  32  34
ENDBRANCH  31  32
ENDBRANCH  30  31
ENDBRANCH  21  30
ENDBRANCH  16  17
ENDBRANCH   1  16
TORSDOF 14
ENDMDL
MODEL       37
REMARK 921   NORMALIZED FREE ENERGY PREDICTED BY IDOCK:   -5.90 KCAL/MOL
REMARK 922        TOTAL FREE ENERGY PREDICTED BY IDOCK:  -12.56 KCAL/MOL
REMARK 923 INTER-LIGAND FREE ENERGY PREDICTED BY IDOCK:  -10.61 KCAL/MOL
REMARK 924 INTRA-LIGAND FREE ENERGY PREDICTED BY IDOCK:   -1.96 KCAL/MOL
REMARK 927      BINDING AFFINITY PREDICTED BY RF-SCORE:    0.00 PKD
ROOT
HETATM    1  C   UNL     1      -8.988   9.473  66.362  1.00  0.00    -0.154 C  
HETATM    2  C   UNL     1      -7.758  10.353  66.151  1.00  0.00    -0.129 C  
ENDROOT
BRANCH   1   3
HETATM    3  C   UNL     1      -8.677   7.982  66.405  1.00  0.00    -0.151 C  
BRANCH   3   4
HETATM    4  N   UNL     1      -9.402   7.212  67.380  1.00  0.00    -0.125 NA 
HETATM    5  C   UNL     1      -8.875   6.877  68.589  1.00  0.00    -0.124 A  
HETATM    6  N   UNL     1      -8.378   6.016  71.053  1.00  0.00    -0.122 NA 
HETATM    7  C   UNL     1     -10.716   6.836  67.376  1.00  0.00    -0.335 A  
HETATM    8  N   UNL     1     -10.567   5.193  71.363  1.00  0.00    -0.180 NA 
HETATM    9  N   UNL     1      -7.626   7.102  69.026  1.00  0.00    -0.098 NA 
HETATM   10  C   UNL     1      -9.626   5.834  70.566  1.00  0.00    -0.173 A  
HETATM   11  N   UNL     1     -11.054   6.234  68.493  1.00  0.00    -0.347 NA 
HETATM   12  C   UNL     1      -7.467   6.641  70.275  1.00  0.00    -0.094 A  
HETATM   13  C   UNL     1      -9.915   6.275  69.270  1.00  0.00    -0.155 A  
HETATM   14  H1  UNL     1     -10.357   4.872  72.307  1.00  0.00     0.000 HD 
HETATM   15  H2  UNL     1     -10.923   4.394  70.838  1.00  0.00     0.000 HD 
ENDBRANCH   3   4
ENDBRANCH   1   3
BRANCH   1  16
HETATM   16  O   UNL     1      -9.983   9.833  65.380  1.00  0.00    -0.320 OA 
BRANCH  16  17
HETATM   17  C   UNL     1      -9.765  11.082  64.679  1.00  0.00    -0.266 C  
HETATM   18  O   UNL     1     -11.768  11.486  63.430  1.00  0.00    -0.355 OA 
HETATM   19  O   UNL     1     -11.853  11.463  66.047  1.00  0.00    -0.176 OA 
HETATM   20  P   UNL     1     -11.236  12.169  64.691  1.00  0.00    -0.334 P  
HETATM   21  O   UNL     1     -12.627  13.198  64.703  1.00  0.00    -0.587 OA 
BRANCH  19  22
HETATM   22  C   UNL     1     -11.579  12.019  67.314  1.00  0.00    -0.313 C  
BRANCH  22  23
HETATM   23  O   UNL     1     -12.252  11.315  68.365  1.00  0.00    -0.604 OA 
BRANCH  23  24
HETATM   24  C   UNL     1     -11.422  10.799  69.306  1.00  0.00    -0.298 C  
HETATM   25  O   UNL     1     -10.616   9.896  69.129  1.00  0.00    -0.201 OA 
BRANCH  24  26
HETATM   26  O   UNL     1     -11.642  11.432  70.489  1.00  0.00    -0.278 OA 
BRANCH  26  27
HETATM   27  C   UNL     1     -12.930  11.182  71.092  1.00  0.00    -0.296 C  
HETATM   28  C   UNL     1     -12.898   9.826  71.788  1.00  0.00    -0.530 C  
HETATM   29  C   UNL     1     -13.239  12.287  72.098  1.00  0.00    -0.466 C  
ENDBRANCH  26  27
ENDBRANCH  24  26
ENDBRANCH  23  24
ENDBRANCH  22  23
ENDBRANCH  19  22
BRANCH  21  30
HETATM   30  C   UNL     1     -12.318  14.537  64.379  1.00  0.00    -0.413 C  
BRANCH  30  31
HETATM   31  O   UNL     1     -10.942  14.829  64.603  1.00  0.00    -0.374 OA 
BRANCH  31  32
HETATM   32  C   UNL     1     -10.690  16.130  64.876  1.00  0.00    -0.274 C  
HETATM   33  O   UNL     1     -11.161  17.089  64.279  1.00  0.00    -1.186 OA 
BRANCH  32  34
HETATM   34  O   UNL     1      -9.878  16.184  65.961  1.00  0.00    -0.304 OA 
BRANCH  34  35
HETATM   35  C   UNL     1     -10.520  16.076  67.247  1.00  0.00    -0.308 C  
HETATM   36  C   UNL     1     -10.756  17.493  67.761  1.00  0.00    -0.333 C  
HETATM   37  C   UNL     1      -9.635  15.309  68.223  1.00  0.00    -0.206 C  
ENDBRANCH  34  35
ENDBRANCH  32  34
ENDBRANCH  31  32
ENDBRANCH  30  31
ENDBRANCH  21  30
ENDBRANCH  16  17
ENDBRANCH   1  16
TORSDOF 14
ENDMDL
MODEL       38
REMARK 921   NORMALIZED FREE ENERGY PREDICTED BY IDOCK:   -5.89 KCAL/MOL
REMARK 922        TOTAL FREE ENERGY PREDICTED BY IDOCK:  -12.56 KCAL/MOL
REMARK 923 INTER-LIGAND FREE ENERGY PREDICTED BY IDOCK:  -11.00 KCAL/MOL
REMARK 924 INTRA-LIGAND FREE ENERGY PREDICTED BY IDOCK:   -1.56 KCAL/MOL
REMARK 927      BINDING AFFINITY PREDICTED BY RF-SCORE:    0.00 PKD
ROOT
HETATM    1  C   UNL     1     -11.485  14.786  66.632  1.00  0.00    -0.335 C  
HETATM    2  C   UNL     1     -11.029  14.573  65.190  1.00  0.00    -0.387 C  
ENDROOT
BRANCH   1   3
HETATM    3  C   UNL     1     -10.401  15.349  67.542  1.00  0.00    -0.264 C  
BRANCH   3   4
HETATM    4  N   UNL     1      -9.517  16.316  66.950  1.00  0.00    -0.224 NA 
HETATM    5  C   UNL     1      -9.777  17.651  66.960  1.00  0.00    -0.292 A  
HETATM    6  N   UNL     1      -9.756  20.300  66.751  1.00  0.00    -0.430 NA 
HETATM    7  C   UNL     1      -8.256  16.138  66.452  1.00  0.00    -0.301 A  
HETATM    8  N   UNL     1      -7.596  20.353  65.805  1.00  0.00    -0.535 NA 
HETATM    9  N   UNL     1     -10.886  18.263  67.406  1.00  0.00    -0.339 NA 
HETATM   10  C   UNL     1      -8.658  19.631  66.335  1.00  0.00    -0.361 A  
HETATM   11  N   UNL     1      -7.708  17.277  66.095  1.00  0.00    -0.424 NA 
HETATM   12  C   UNL     1     -10.785  19.593  67.267  1.00  0.00    -0.458 A  
HETATM   13  C   UNL     1      -8.643  18.234  66.431  1.00  0.00    -0.242 A  
HETATM   14  H1  UNL     1      -7.606  21.370  65.735  1.00  0.00     0.000 HD 
HETATM   15  H2  UNL     1      -7.405  19.982  64.874  1.00  0.00     0.000 HD 
ENDBRANCH   3   4
ENDBRANCH   1   3
BRANCH   1  16
HETATM   16  O   UNL     1     -12.072  13.558  67.112  1.00  0.00    -0.378 OA 
BRANCH  16  17
HETATM   17  C   UNL     1     -11.716  12.354  66.389  1.00  0.00    -0.391 C  
HETATM   18  O   UNL     1      -9.408  11.952  66.886  1.00  0.00    -0.186 OA 
HETATM   19  O   UNL     1     -11.188  11.839  68.804  1.00  0.00    -0.212 OA 
HETATM   20  P   UNL     1     -10.664  11.222  67.369  1.00  0.00    -0.275 P  
HETATM   21  O   UNL     1      -9.669  10.151  68.294  1.00  0.00    -0.139 OA 
BRANCH  19  22
HETATM   22  C   UNL     1     -12.266  11.228  69.479  1.00  0.00    -0.256 C  
BRANCH  22  23
HETATM   23  O   UNL     1     -11.839  10.552  70.668  1.00  0.00    -0.305 OA 
BRANCH  23  24
HETATM   24  C   UNL     1     -12.711  10.651  71.703  1.00  0.00    -0.426 C  
HETATM   25  O   UNL     1     -13.281  11.673  72.061  1.00  0.00    -0.501 OA 
BRANCH  24  26
HETATM   26  O   UNL     1     -12.837   9.435  72.298  1.00  0.00    -0.392 OA 
BRANCH  26  27
HETATM   27  C   UNL     1     -12.005   8.390  71.747  1.00  0.00    -0.325 C  
HETATM   28  C   UNL     1     -10.986   7.961  72.797  1.00  0.00    -0.456 C  
HETATM   29  C   UNL     1     -12.881   7.208  71.344  1.00  0.00    -0.431 C  
ENDBRANCH  26  27
ENDBRANCH  24  26
ENDBRANCH  23  24
ENDBRANCH  22  23
ENDBRANCH  19  22
BRANCH  21  30
HETATM   30  C   UNL     1      -9.642   8.841  67.769  1.00  0.00    -0.148 C  
BRANCH  30  31
HETATM   31  O   UNL     1     -10.277   7.911  68.642  1.00  0.00    -0.197 OA 
BRANCH  31  32
HETATM   32  C   UNL     1     -10.414   6.670  68.122  1.00  0.00    -0.214 C  
HETATM   33  O   UNL     1     -11.179   6.353  67.220  1.00  0.00    -0.364 OA 
BRANCH  32  34
HETATM   34  O   UNL     1      -9.514   5.857  68.730  1.00  0.00    -0.123 OA 
BRANCH  34  35
HETATM   35  C   UNL     1     -10.056   4.752  69.481  1.00  0.00    -0.190 C  
HETATM   36  C   UNL     1      -9.850   5.060  70.961  1.00  0.00    -0.266 C  
HETATM   37  C   UNL     1      -9.341   3.456  69.114  1.00  0.00    -0.237 C  
ENDBRANCH  34  35
ENDBRANCH  32  34
ENDBRANCH  31  32
ENDBRANCH  30  31
ENDBRANCH  21  30
ENDBRANCH  16  17
ENDBRANCH   1  16
TORSDOF 14
ENDMDL
MODEL       39
REMARK 921   NORMALIZED FREE ENERGY PREDICTED BY IDOCK:   -5.86 KCAL/MOL
REMARK 922        TOTAL FREE ENERGY PREDICTED BY IDOCK:  -12.50 KCAL/MOL
REMARK 923 INTER-LIGAND FREE ENERGY PREDICTED BY IDOCK:  -11.16 KCAL/MOL
REMARK 924 INTRA-LIGAND FREE ENERGY PREDICTED BY IDOCK:   -1.34 KCAL/MOL
REMARK 927      BINDING AFFINITY PREDICTED BY RF-SCORE:    0.00 PKD
ROOT
HETATM    1  C   UNL     1     -10.079   8.393  66.964  1.00  0.00    -0.284 C  
HETATM    2  C   UNL     1      -9.177   8.550  65.742  1.00  0.00    -0.210 C  
ENDROOT
BRANCH   1   3
HETATM    3  C   UNL     1     -10.900   7.111  66.961  1.00  0.00    -0.312 C  
BRANCH   3   4
HETATM    4  N   UNL     1     -10.710   6.234  68.085  1.00  0.00    -0.264 NA 
HETATM    5  C   UNL     1     -10.181   4.986  67.960  1.00  0.00    -0.078 A  
HETATM    6  N   UNL     1      -9.168   2.552  68.295  1.00  0.00    -0.186 NA 
HETATM    7  C   UNL     1     -10.841   6.502  69.418  1.00  0.00    -0.308 A  
HETATM    8  N   UNL     1      -9.312   2.659  70.647  1.00  0.00    -0.136 NA 
HETATM    9  N   UNL     1      -9.855   4.347  66.825  1.00  0.00    -0.216 NA 
HETATM   10  C   UNL     1      -9.497   3.251  69.404  1.00  0.00    -0.133 A  
HETATM   11  N   UNL     1     -10.473   5.482  70.159  1.00  0.00    -0.285 NA 
HETATM   12  C   UNL     1      -9.350   3.134  67.089  1.00  0.00    -0.165 A  
HETATM   13  C   UNL     1     -10.036   4.535  69.257  1.00  0.00    -0.122 A  
HETATM   14  H1  UNL     1      -8.919   1.724  70.755  1.00  0.00     0.000 HD 
HETATM   15  H2  UNL     1     -10.208   2.675  71.133  1.00  0.00     0.000 HD 
ENDBRANCH   3   4
ENDBRANCH   1   3
BRANCH   1  16
HETATM   16  O   UNL     1     -10.870   9.592  67.107  1.00  0.00    -0.232 OA 
BRANCH  16  17
HETATM   17  C   UNL     1     -10.276  10.813  66.601  1.00  0.00    -0.233 C  
HETATM   18  O   UNL     1     -12.017  11.938  65.402  1.00  0.00    -0.362 OA 
HETATM   19  O   UNL     1     -12.245  11.575  67.986  1.00  0.00    -0.582 OA 
HETATM   20  P   UNL     1     -11.385  12.260  66.758  1.00  0.00    -0.352 P  
HETATM   21  O   UNL     1     -12.433  13.629  66.906  1.00  0.00    -0.320 OA 
BRANCH  19  22
HETATM   22  C   UNL     1     -11.896  11.849  69.325  1.00  0.00    -0.318 C  
BRANCH  22  23
HETATM   23  O   UNL     1     -12.331  10.813  70.214  1.00  0.00    -0.308 OA 
BRANCH  23  24
HETATM   24  C   UNL     1     -12.970  11.267  71.322  1.00  0.00    -0.327 C  
HETATM   25  O   UNL     1     -13.125  12.443  71.625  1.00  0.00    -0.404 OA 
BRANCH  24  26
HETATM   26  O   UNL     1     -13.396  10.206  72.057  1.00  0.00    -0.434 OA 
BRANCH  26  27
HETATM   27  C   UNL     1     -13.018   8.909  71.545  1.00  0.00    -0.332 C  
HETATM   28  C   UNL     1     -11.916   8.330  72.425  1.00  0.00    -0.447 C  
HETATM   29  C   UNL     1     -14.237   7.992  71.548  1.00  0.00    -0.513 C  
ENDBRANCH  26  27
ENDBRANCH  24  26
ENDBRANCH  23  24
ENDBRANCH  22  23
ENDBRANCH  19  22
BRANCH  21  30
HETATM   30  C   UNL     1     -11.746  14.857  66.789  1.00  0.00    -0.233 C  
BRANCH  30  31
HETATM   31  O   UNL     1     -10.902  14.880  65.642  1.00  0.00    -0.310 OA 
BRANCH  31  32
HETATM   32  C   UNL     1     -10.633  16.123  65.179  1.00  0.00    -0.343 C  
HETATM   33  O   UNL     1     -11.351  16.780  64.436  1.00  0.00    -1.089 OA 
BRANCH  32  34
HETATM   34  O   UNL     1      -9.464  16.534  65.730  1.00  0.00    -0.484 OA 
BRANCH  34  35
HETATM   35  C   UNL     1      -9.481  17.818  66.383  1.00  0.00    -0.264 C  
HETATM   36  C   UNL     1      -8.065  18.384  66.318  1.00  0.00    -0.249 C  
HETATM   37  C   UNL     1      -9.917  17.672  67.837  1.00  0.00    -0.323 C  
ENDBRANCH  34  35
ENDBRANCH  32  34
ENDBRANCH  31  32
ENDBRANCH  30  31
ENDBRANCH  21  30
ENDBRANCH  16  17
ENDBRANCH   1  16
TORSDOF 14
ENDMDL
MODEL       40
REMARK 921   NORMALIZED FREE ENERGY PREDICTED BY IDOCK:   -5.86 KCAL/MOL
REMARK 922        TOTAL FREE ENERGY PREDICTED BY IDOCK:  -12.49 KCAL/MOL
REMARK 923 INTER-LIGAND FREE ENERGY PREDICTED BY IDOCK:  -10.41 KCAL/MOL
REMARK 924 INTRA-LIGAND FREE ENERGY PREDICTED BY IDOCK:   -2.09 KCAL/MOL
REMARK 927      BINDING AFFINITY PREDICTED BY RF-SCORE:    0.00 PKD
ROOT
HETATM    1  C   UNL     1     -11.432  12.724  65.514  1.00  0.00    -0.337 C  
HETATM    2  C   UNL     1     -11.143  11.888  64.269  1.00  0.00    -0.418 C  
ENDROOT
BRANCH   1   3
HETATM    3  C   UNL     1     -10.364  13.767  65.816  1.00  0.00    -0.307 C  
BRANCH   3   4
HETATM    4  N   UNL     1     -10.704  15.129  65.506  1.00  0.00    -0.340 NA 
HETATM    5  C   UNL     1     -10.305  16.178  66.277  1.00  0.00    -0.328 A  
HETATM    6  N   UNL     1      -9.760  18.544  67.357  1.00  0.00    -0.296 NA 
HETATM    7  C   UNL     1     -11.295  15.635  64.383  1.00  0.00    -0.263 A  
HETATM    8  N   UNL     1     -10.762  19.743  65.590  1.00  0.00    -0.437 NA 
HETATM    9  N   UNL     1      -9.649  16.129  67.447  1.00  0.00    -0.228 NA 
HETATM   10  C   UNL     1     -10.403  18.532  66.168  1.00  0.00    -0.426 A  
HETATM   11  N   UNL     1     -11.344  16.948  64.407  1.00  0.00    -1.090 NA 
HETATM   12  C   UNL     1      -9.413  17.363  67.914  1.00  0.00    -0.265 A  
HETATM   13  C   UNL     1     -10.705  17.299  65.578  1.00  0.00    -0.100 A  
HETATM   14  H1  UNL     1     -10.542  20.641  66.020  1.00  0.00     0.000 HD 
HETATM   15  H2  UNL     1     -11.768  19.720  65.423  1.00  0.00     0.000 HD 
ENDBRANCH   3   4
ENDBRANCH   1   3
BRANCH   1  16
HETATM   16  O   UNL     1     -11.702  11.829  66.614  1.00  0.00    -0.548 OA 
BRANCH  16  17
HETATM   17  C   UNL     1     -10.849  10.661  66.712  1.00  0.00    -0.169 C  
HETATM   18  O   UNL     1      -8.884  11.384  67.873  1.00  0.00    -0.139 OA 
HETATM   19  O   UNL     1     -11.198  11.410  69.098  1.00  0.00    -0.231 OA 
HETATM   20  P   UNL     1     -10.044  10.505  68.347  1.00  0.00    -0.183 P  
HETATM   21  O   UNL     1      -9.282  10.357  69.893  1.00  0.00    -0.087 OA 
BRANCH  19  22
HETATM   22  C   UNL     1     -12.298  10.774  69.712  1.00  0.00    -0.236 C  
BRANCH  22  23
HETATM   23  O   UNL     1     -12.355  11.044  71.118  1.00  0.00    -0.361 OA 
BRANCH  23  24
HETATM   24  C   UNL     1     -12.707   9.973  71.873  1.00  0.00    -0.398 C  
HETATM   25  O   UNL     1     -13.794   9.805  72.411  1.00  0.00    -0.330 OA 
BRANCH  24  26
HETATM   26  O   UNL     1     -11.652   9.120  71.956  1.00  0.00    -0.361 OA 
BRANCH  26  27
HETATM   27  C   UNL     1     -11.971   7.788  72.416  1.00  0.00    -0.289 C  
HETATM   28  C   UNL     1     -12.291   6.910  71.211  1.00  0.00    -0.422 C  
HETATM   29  C   UNL     1     -10.781   7.221  73.184  1.00  0.00    -0.411 C  
ENDBRANCH  26  27
ENDBRANCH  24  26
ENDBRANCH  23  24
ENDBRANCH  22  23
ENDBRANCH  19  22
BRANCH  21  30
HETATM   30  C   UNL     1      -8.779   9.059  70.131  1.00  0.00    -0.173 C  
BRANCH  30  31
HETATM   31  O   UNL     1      -9.500   8.073  69.399  1.00  0.00    -0.159 OA 
BRANCH  31  32
HETATM   32  C   UNL     1      -8.957   6.835  69.457  1.00  0.00    -0.139 C  
HETATM   33  O   UNL     1      -8.726   6.204  70.480  1.00  0.00    -0.139 OA 
BRANCH  32  34
HETATM   34  O   UNL     1      -8.772   6.395  68.188  1.00  0.00    -0.117 OA 
BRANCH  34  35
HETATM   35  C   UNL     1      -9.698   6.888  67.199  1.00  0.00    -0.154 C  
HETATM   36  C   UNL     1     -10.568   5.714  66.761  1.00  0.00    -0.372 C  
HETATM   37  C   UNL     1      -8.946   7.455  66.000  1.00  0.00    -0.156 C  
ENDBRANCH  34  35
ENDBRANCH  32  34
ENDBRANCH  31  32
ENDBRANCH  30  31
ENDBRANCH  21  30
ENDBRANCH  16  17
ENDBRANCH   1  16
TORSDOF 14
ENDMDL
MODEL       41
REMARK 921   NORMALIZED FREE ENERGY PREDICTED BY IDOCK:   -5.85 KCAL/MOL
REMARK 922        TOTAL FREE ENERGY PREDICTED BY IDOCK:  -12.48 KCAL/MOL
REMARK 923 INTER-LIGAND FREE ENERGY PREDICTED BY IDOCK:  -10.58 KCAL/MOL
REMARK 924 INTRA-LIGAND FREE ENERGY PREDICTED BY IDOCK:   -1.90 KCAL/MOL
REMARK 927      BINDING AFFINITY PREDICTED BY RF-SCORE:    0.00 PKD
ROOT
HETATM    1  C   UNL     1      -9.577   9.862  67.915  1.00  0.00    -0.138 C  
HETATM    2  C   UNL     1     -10.963   9.968  67.284  1.00  0.00    -0.225 C  
ENDROOT
BRANCH   1   3
HETATM    3  C   UNL     1      -9.597   9.803  69.437  1.00  0.00    -0.207 C  
BRANCH   3   4
HETATM    4  N   UNL     1     -10.455   8.807  70.021  1.00  0.00    -0.207 NA 
HETATM    5  C   UNL     1     -11.548   9.127  70.767  1.00  0.00    -0.276 A  
HETATM    6  N   UNL     1     -13.776   9.179  72.213  1.00  0.00    -0.472 NA 
HETATM    7  C   UNL     1     -10.462   7.455  69.825  1.00  0.00    -0.229 A  
HETATM    8  N   UNL     1     -14.062   6.839  72.123  1.00  0.00    -0.536 NA 
HETATM    9  N   UNL     1     -11.942  10.349  71.155  1.00  0.00    -0.366 NA 
HETATM   10  C   UNL     1     -13.341   7.976  71.777  1.00  0.00    -0.340 A  
HETATM   11  N   UNL     1     -11.468   6.878  70.442  1.00  0.00    -0.327 NA 
HETATM   12  C   UNL     1     -13.073  10.281  71.872  1.00  0.00    -0.463 A  
HETATM   13  C   UNL     1     -12.168   7.918  71.016  1.00  0.00    -0.198 A  
HETATM   14  H1  UNL     1     -14.917   6.881  72.677  1.00  0.00     0.000 HD 
HETATM   15  H2  UNL     1     -13.421   6.199  72.592  1.00  0.00     0.000 HD 
ENDBRANCH   3   4
ENDBRANCH   1   3
BRANCH   1  16
HETATM   16  O   UNL     1      -8.750  10.918  67.383  1.00  0.00    -0.129 OA 
BRANCH  16  17
HETATM   17  C   UNL     1      -8.036  11.723  68.354  1.00  0.00    -0.150 C  
HETATM   18  O   UNL     1      -6.772  13.311  67.083  1.00  0.00    -0.162 OA 
HETATM   19  O   UNL     1      -9.389  13.378  67.010  1.00  0.00    -0.226 OA 
HETATM   20  P   UNL     1      -8.030  13.503  67.934  1.00  0.00    -0.197 P  
HETATM   21  O   UNL     1      -8.024  15.187  67.537  1.00  0.00    -0.144 OA 
BRANCH  19  22
HETATM   22  C   UNL     1     -10.652  13.640  67.582  1.00  0.00    -0.241 C  
BRANCH  22  23
HETATM   23  O   UNL     1     -10.554  13.953  68.977  1.00  0.00    -0.233 OA 
BRANCH  23  24
HETATM   24  C   UNL     1     -11.387  14.944  69.381  1.00  0.00    -0.290 C  
HETATM   25  O   UNL     1     -11.634  15.968  68.757  1.00  0.00    -0.377 OA 
BRANCH  24  26
HETATM   26  O   UNL     1     -11.892  14.632  70.604  1.00  0.00    -0.277 OA 
BRANCH  26  27
HETATM   27  C   UNL     1     -12.709  15.656  71.214  1.00  0.00    -0.475 C  
HETATM   28  C   UNL     1     -14.080  15.070  71.537  1.00  0.00    -0.613 C  
HETATM   29  C   UNL     1     -12.030  16.150  72.487  1.00  0.00    -0.660 C  
ENDBRANCH  26  27
ENDBRANCH  24  26
ENDBRANCH  23  24
ENDBRANCH  22  23
ENDBRANCH  19  22
BRANCH  21  30
HETATM   30  C   UNL     1      -7.687  16.006  68.637  1.00  0.00    -0.176 C  
BRANCH  30  31
HETATM   31  O   UNL     1      -8.580  17.108  68.766  1.00  0.00    -0.268 OA 
BRANCH  31  32
HETATM   32  C   UNL     1      -7.965  18.310  68.850  1.00  0.00    -0.179 C  
HETATM   33  O   UNL     1      -6.800  18.495  69.180  1.00  0.00    -0.273 OA 
BRANCH  32  34
HETATM   34  O   UNL     1      -8.843  19.262  68.447  1.00  0.00    -0.329 OA 
BRANCH  34  35
HETATM   35  C   UNL     1      -9.488  19.041  67.178  1.00  0.00    -0.307 C  
HETATM   36  C   UNL     1      -8.645  19.730  66.109  1.00  0.00    -0.367 C  
HETATM   37  C   UNL     1     -10.897  19.625  67.186  1.00  0.00    -0.526 C  
ENDBRANCH  34  35
ENDBRANCH  32  34
ENDBRANCH  31  32
ENDBRANCH  30  31
ENDBRANCH  21  30
ENDBRANCH  16  17
ENDBRANCH   1  16
TORSDOF 14
ENDMDL
MODEL       42
REMARK 921   NORMALIZED FREE ENERGY PREDICTED BY IDOCK:   -5.84 KCAL/MOL
REMARK 922        TOTAL FREE ENERGY PREDICTED BY IDOCK:  -12.46 KCAL/MOL
REMARK 923 INTER-LIGAND FREE ENERGY PREDICTED BY IDOCK:  -10.67 KCAL/MOL
REMARK 924 INTRA-LIGAND FREE ENERGY PREDICTED BY IDOCK:   -1.79 KCAL/MOL
REMARK 927      BINDING AFFINITY PREDICTED BY RF-SCORE:    0.00 PKD
ROOT
HETATM    1  C   UNL     1      -9.759  10.164  65.568  1.00  0.00    -0.281 C  
HETATM    2  C   UNL     1      -8.296  10.557  65.380  1.00  0.00    -0.165 C  
ENDROOT
BRANCH   1   3
HETATM    3  C   UNL     1     -10.556  11.149  66.413  1.00  0.00    -0.261 C  
BRANCH   3   4
HETATM    4  N   UNL     1     -11.191  12.225  65.700  1.00  0.00    -0.320 NA 
HETATM    5  C   UNL     1     -10.690  13.490  65.684  1.00  0.00    -0.281 A  
HETATM    6  N   UNL     1     -10.137  16.056  65.270  1.00  0.00    -0.492 NA 
HETATM    7  C   UNL     1     -12.238  12.177  64.824  1.00  0.00    -0.264 A  
HETATM    8  N   UNL     1     -11.910  16.341  63.741  1.00  0.00    -1.413 NA 
HETATM    9  N   UNL     1      -9.635  13.960  66.369  1.00  0.00    -0.286 NA 
HETATM   10  C   UNL     1     -11.178  15.523  64.592  1.00  0.00    -0.371 A  
HETATM   11  N   UNL     1     -12.472  13.350  64.279  1.00  0.00    -0.634 NA 
HETATM   12  C   UNL     1      -9.427  15.256  66.096  1.00  0.00    -0.326 A  
HETATM   13  C   UNL     1     -11.493  14.175  64.794  1.00  0.00    -0.383 A  
HETATM   14  H1  UNL     1     -11.680  17.323  63.594  1.00  0.00     0.000 HD 
HETATM   15  H2  UNL     1     -12.886  16.294  64.031  1.00  0.00     0.000 HD 
ENDBRANCH   3   4
ENDBRANCH   1   3
BRANCH   1  16
HETATM   16  O   UNL     1      -9.809   8.805  66.054  1.00  0.00    -0.258 OA 
BRANCH  16  17
HETATM   17  C   UNL     1     -10.659   8.568  67.203  1.00  0.00    -0.243 C  
HETATM   18  O   UNL     1     -11.236   6.245  67.118  1.00  0.00    -0.334 OA 
HETATM   19  O   UNL     1      -8.739   6.950  67.471  1.00  0.00    -0.120 OA 
HETATM   20  P   UNL     1     -10.281   6.991  68.052  1.00  0.00    -0.209 P  
HETATM   21  O   UNL     1      -9.924   5.501  68.855  1.00  0.00    -0.148 OA 
BRANCH  19  22
HETATM   22  C   UNL     1      -7.684   7.480  68.243  1.00  0.00    -0.120 C  
BRANCH  22  23
HETATM   23  O   UNL     1      -8.158   8.090  69.450  1.00  0.00    -0.114 OA 
BRANCH  23  24
HETATM   24  C   UNL     1      -7.780   9.385  69.601  1.00  0.00    -0.098 C  
HETATM   25  O   UNL     1      -7.611  10.189  68.694  1.00  0.00    -0.081 OA 
BRANCH  24  26
HETATM   26  O   UNL     1      -7.597   9.645  70.923  1.00  0.00    -0.309 OA 
BRANCH  26  27
HETATM   27  C   UNL     1      -6.691   8.752  71.607  1.00  0.00    -0.076 C  
HETATM   28  C   UNL     1      -5.383   9.485  71.881  1.00  0.00    -0.076 C  
HETATM   29  C   UNL     1      -7.327   8.295  72.916  1.00  0.00    -0.146 C  
ENDBRANCH  26  27
ENDBRANCH  24  26
ENDBRANCH  23  24
ENDBRANCH  22  23
ENDBRANCH  19  22
BRANCH  21  30
HETATM   30  C   UNL     1     -10.455   5.445  70.161  1.00  0.00    -0.290 C  
BRANCH  30  31
HETATM   31  O   UNL     1     -11.589   6.294  70.305  1.00  0.00    -0.395 OA 
BRANCH  31  32
HETATM   32  C   UNL     1     -11.928   6.550  71.590  1.00  0.00    -0.335 C  
HETATM   33  O   UNL     1     -11.398   6.063  72.580  1.00  0.00    -0.278 OA 
BRANCH  32  34
HETATM   34  O   UNL     1     -12.913   7.483  71.588  1.00  0.00    -0.341 OA 
BRANCH  34  35
HETATM   35  C   UNL     1     -12.567   8.779  72.115  1.00  0.00    -0.399 C  
HETATM   36  C   UNL     1     -13.649   9.759  71.670  1.00  0.00    -0.371 C  
HETATM   37  C   UNL     1     -11.209   9.226  71.583  1.00  0.00    -0.449 C  
ENDBRANCH  34  35
ENDBRANCH  32  34
ENDBRANCH  31  32
ENDBRANCH  30  31
ENDBRANCH  21  30
ENDBRANCH  16  17
ENDBRANCH   1  16
TORSDOF 14
ENDMDL
MODEL       43
REMARK 921   NORMALIZED FREE ENERGY PREDICTED BY IDOCK:   -5.82 KCAL/MOL
REMARK 922        TOTAL FREE ENERGY PREDICTED BY IDOCK:  -12.43 KCAL/MOL
REMARK 923 INTER-LIGAND FREE ENERGY PREDICTED BY IDOCK:  -11.31 KCAL/MOL
REMARK 924 INTRA-LIGAND FREE ENERGY PREDICTED BY IDOCK:   -1.11 KCAL/MOL
REMARK 927      BINDING AFFINITY PREDICTED BY RF-SCORE:    0.00 PKD
ROOT
HETATM    1  C   UNL     1      -7.194  11.018  66.931  1.00  0.00    -0.133 C  
HETATM    2  C   UNL     1      -6.068  10.956  65.900  1.00  0.00    -0.103 C  
ENDROOT
BRANCH   1   3
HETATM    3  C   UNL     1      -8.441  10.245  66.525  1.00  0.00    -0.125 C  
BRANCH   3   4
HETATM    4  N   UNL     1      -9.143  10.736  65.370  1.00  0.00    -0.189 NA 
HETATM    5  C   UNL     1     -10.321  11.412  65.460  1.00  0.00    -0.266 A  
HETATM    6  N   UNL     1     -12.550  12.803  65.065  1.00  0.00    -0.640 NA 
HETATM    7  C   UNL     1      -8.731  10.782  64.067  1.00  0.00    -0.071 A  
HETATM    8  N   UNL     1     -12.174  13.024  62.747  1.00  0.00    -0.532 NA 
HETATM    9  N   UNL     1     -11.049  11.640  66.564  1.00  0.00    -0.300 NA 
HETATM   10  C   UNL     1     -11.767  12.559  63.991  1.00  0.00    -0.423 A  
HETATM   11  N   UNL     1      -9.599  11.407  63.304  1.00  0.00    -0.344 NA 
HETATM   12  C   UNL     1     -12.148  12.350  66.273  1.00  0.00    -0.180 A  
HETATM   13  C   UNL     1     -10.588  11.825  64.170  1.00  0.00    -0.353 A  
HETATM   14  H1  UNL     1     -13.032  13.558  62.617  1.00  0.00     0.000 HD 
HETATM   15  H2  UNL     1     -12.210  12.224  62.115  1.00  0.00     0.000 HD 
ENDBRANCH   3   4
ENDBRANCH   1   3
BRANCH   1  16
HETATM   16  O   UNL     1      -7.444  12.403  67.251  1.00  0.00    -0.147 OA 
BRANCH  16  17
HETATM   17  C   UNL     1      -8.279  12.651  68.408  1.00  0.00    -0.129 C  
HETATM   18  O   UNL     1      -7.416  14.640  69.423  1.00  0.00    -0.155 OA 
HETATM   19  O   UNL     1      -8.454  14.753  67.022  1.00  0.00    -0.213 OA 
HETATM   20  P   UNL     1      -8.697  14.420  68.617  1.00  0.00    -0.081 P  
HETATM   21  O   UNL     1      -9.094  16.092  68.815  1.00  0.00    -0.206 OA 
BRANCH  19  22
HETATM   22  C   UNL     1      -9.543  14.725  66.125  1.00  0.00    -0.309 C  
BRANCH  22  23
HETATM   23  O   UNL     1     -10.466  15.792  66.370  1.00  0.00    -0.290 OA 
BRANCH  23  24
HETATM   24  C   UNL     1     -10.487  16.740  65.400  1.00  0.00    -0.193 C  
HETATM   25  O   UNL     1     -11.202  16.729  64.406  1.00  0.00    -1.112 OA 
BRANCH  24  26
HETATM   26  O   UNL     1      -9.570  17.700  65.694  1.00  0.00    -0.503 OA 
BRANCH  26  27
HETATM   27  C   UNL     1     -10.038  18.755  66.562  1.00  0.00    -0.397 C  
HETATM   28  C   UNL     1      -8.873  19.254  67.410  1.00  0.00    -0.335 C  
HETATM   29  C   UNL     1     -10.603  19.891  65.715  1.00  0.00    -0.490 C  
ENDBRANCH  26  27
ENDBRANCH  24  26
ENDBRANCH  23  24
ENDBRANCH  22  23
ENDBRANCH  19  22
BRANCH  21  30
HETATM   30  C   UNL     1     -10.193  16.294  69.677  1.00  0.00    -0.216 C  
BRANCH  30  31
HETATM   31  O   UNL     1     -10.683  15.064  70.201  1.00  0.00    -0.227 OA 
BRANCH  31  32
HETATM   32  C   UNL     1     -11.999  14.848  69.967  1.00  0.00    -0.329 C  
HETATM   33  O   UNL     1     -12.469  13.895  69.361  1.00  0.00    -0.273 OA 
BRANCH  32  34
HETATM   34  O   UNL     1     -12.702  15.837  70.572  1.00  0.00    -0.424 OA 
BRANCH  34  35
HETATM   35  C   UNL     1     -13.149  15.575  71.916  1.00  0.00    -0.454 C  
HETATM   36  C   UNL     1     -12.052  16.048  72.865  1.00  0.00    -0.626 C  
HETATM   37  C   UNL     1     -13.400  14.083  72.113  1.00  0.00    -0.545 C  
ENDBRANCH  34  35
ENDBRANCH  32  34
ENDBRANCH  31  32
ENDBRANCH  30  31
ENDBRANCH  21  30
ENDBRANCH  16  17
ENDBRANCH   1  16
TORSDOF 14
ENDMDL
MODEL       44
REMARK 921   NORMALIZED FREE ENERGY PREDICTED BY IDOCK:   -5.81 KCAL/MOL
REMARK 922        TOTAL FREE ENERGY PREDICTED BY IDOCK:  -12.41 KCAL/MOL
REMARK 923 INTER-LIGAND FREE ENERGY PREDICTED BY IDOCK:  -10.98 KCAL/MOL
REMARK 924 INTRA-LIGAND FREE ENERGY PREDICTED BY IDOCK:   -1.43 KCAL/MOL
REMARK 927      BINDING AFFINITY PREDICTED BY RF-SCORE:    0.00 PKD
ROOT
HETATM    1  C   UNL     1      -9.462   9.901  66.274  1.00  0.00    -0.193 C  
HETATM    2  C   UNL     1      -8.985   9.262  64.971  1.00  0.00    -0.245 C  
ENDROOT
BRANCH   1   3
HETATM    3  C   UNL     1     -10.315   8.978  67.134  1.00  0.00    -0.272 C  
BRANCH   3   4
HETATM    4  N   UNL     1      -9.701   8.488  68.339  1.00  0.00    -0.152 NA 
HETATM    5  C   UNL     1     -10.232   8.704  69.573  1.00  0.00    -0.209 A  
HETATM    6  N   UNL     1     -10.842   8.775  72.158  1.00  0.00    -0.360 NA 
HETATM    7  C   UNL     1      -8.646   7.631  68.480  1.00  0.00    -0.129 A  
HETATM    8  N   UNL     1      -9.064   7.347  72.765  1.00  0.00    -0.136 NA 
HETATM    9  N   UNL     1     -11.302   9.452  69.882  1.00  0.00    -0.155 NA 
HETATM   10  C   UNL     1      -9.784   8.021  71.785  1.00  0.00    -0.176 A  
HETATM   11  N   UNL     1      -8.436   7.320  69.738  1.00  0.00    -0.135 NA 
HETATM   12  C   UNL     1     -11.539   9.426  71.201  1.00  0.00    -0.345 A  
HETATM   13  C   UNL     1      -9.438   7.968  70.430  1.00  0.00    -0.166 A  
HETATM   14  H1  UNL     1      -9.317   7.385  73.752  1.00  0.00     0.000 HD 
HETATM   15  H2  UNL     1      -8.090   7.635  72.685  1.00  0.00     0.000 HD 
ENDBRANCH   3   4
ENDBRANCH   1   3
BRANCH   1  16
HETATM   16  O   UNL     1     -10.097  11.159  65.960  1.00  0.00    -0.227 OA 
BRANCH  16  17
HETATM   17  C   UNL     1     -11.067  11.643  66.922  1.00  0.00    -0.308 C  
HETATM   18  O   UNL     1      -9.796  12.691  68.659  1.00  0.00    -0.177 OA 
HETATM   19  O   UNL     1      -9.756  13.689  66.238  1.00  0.00    -0.289 OA 
HETATM   20  P   UNL     1     -10.663  13.309  67.560  1.00  0.00    -0.256 P  
HETATM   21  O   UNL     1     -10.282  14.885  68.164  1.00  0.00    -0.221 OA 
BRANCH  19  22
HETATM   22  C   UNL     1     -10.345  14.377  65.157  1.00  0.00    -0.421 C  
BRANCH  22  23
HETATM   23  O   UNL     1      -9.917  15.743  65.094  1.00  0.00    -0.393 OA 
BRANCH  23  24
HETATM   24  C   UNL     1     -10.925  16.631  64.909  1.00  0.00    -0.150 C  
HETATM   25  O   UNL     1     -11.628  16.715  63.910  1.00  0.00    -1.204 OA 
BRANCH  24  26
HETATM   26  O   UNL     1     -11.021  17.433  66.003  1.00  0.00    -0.052 OA 
BRANCH  26  27
HETATM   27  C   UNL     1      -9.898  18.315  66.220  1.00  0.00    -0.321 C  
HETATM   28  C   UNL     1     -10.263  19.713  65.733  1.00  0.00    -0.446 C  
HETATM   29  C   UNL     1      -9.560  18.343  67.708  1.00  0.00    -0.300 C  
ENDBRANCH  26  27
ENDBRANCH  24  26
ENDBRANCH  23  24
ENDBRANCH  22  23
ENDBRANCH  19  22
BRANCH  21  30
HETATM   30  C   UNL     1     -11.386  15.514  68.780  1.00  0.00    -0.334 C  
BRANCH  30  31
HETATM   31  O   UNL     1     -11.323  15.418  70.199  1.00  0.00    -0.253 OA 
BRANCH  31  32
HETATM   32  C   UNL     1     -12.491  15.694  70.824  1.00  0.00    -0.435 C  
HETATM   33  O   UNL     1     -13.608  15.550  70.346  1.00  0.00    -0.228 OA 
BRANCH  32  34
HETATM   34  O   UNL     1     -12.207  16.096  72.088  1.00  0.00    -0.469 OA 
BRANCH  34  35
HETATM   35  C   UNL     1     -13.055  15.575  73.130  1.00  0.00    -0.545 C  
HETATM   36  C   UNL     1     -12.360  15.841  74.463  1.00  0.00    -0.776 C  
HETATM   37  C   UNL     1     -13.269  14.077  72.945  1.00  0.00    -0.502 C  
ENDBRANCH  34  35
ENDBRANCH  32  34
ENDBRANCH  31  32
ENDBRANCH  30  31
ENDBRANCH  21  30
ENDBRANCH  16  17
ENDBRANCH   1  16
TORSDOF 14
ENDMDL
MODEL       45
REMARK 921   NORMALIZED FREE ENERGY PREDICTED BY IDOCK:   -5.80 KCAL/MOL
REMARK 922        TOTAL FREE ENERGY PREDICTED BY IDOCK:  -12.39 KCAL/MOL
REMARK 923 INTER-LIGAND FREE ENERGY PREDICTED BY IDOCK:  -11.14 KCAL/MOL
REMARK 924 INTRA-LIGAND FREE ENERGY PREDICTED BY IDOCK:   -1.25 KCAL/MOL
REMARK 927      BINDING AFFINITY PREDICTED BY RF-SCORE:    0.00 PKD
ROOT
HETATM    1  C   UNL     1      -9.953  12.806  68.570  1.00  0.00    -0.164 C  
HETATM    2  C   UNL     1      -9.698  11.316  68.354  1.00  0.00    -0.194 C  
ENDROOT
BRANCH   1   3
HETATM    3  C   UNL     1     -11.413  13.208  68.413  1.00  0.00    -0.315 C  
BRANCH   3   4
HETATM    4  N   UNL     1     -11.910  14.171  69.360  1.00  0.00    -0.309 NA 
HETATM    5  C   UNL     1     -12.440  13.812  70.561  1.00  0.00    -0.339 A  
HETATM    6  N   UNL     1     -13.486  13.684  73.000  1.00  0.00    -0.504 NA 
HETATM    7  C   UNL     1     -11.806  15.533  69.337  1.00  0.00    -0.374 A  
HETATM    8  N   UNL     1     -13.505  16.027  73.272  1.00  0.00    -0.689 NA 
HETATM    9  N   UNL     1     -12.675  12.570  71.011  1.00  0.00    -0.291 NA 
HETATM   10  C   UNL     1     -13.210  14.909  72.501  1.00  0.00    -0.408 A  
HETATM   11  N   UNL     1     -12.283  16.077  70.433  1.00  0.00    -0.234 NA 
HETATM   12  C   UNL     1     -13.196  12.601  72.246  1.00  0.00    -0.360 A  
HETATM   13  C   UNL     1     -12.661  15.007  71.217  1.00  0.00    -0.348 A  
HETATM   14  H1  UNL     1     -13.905  15.956  74.207  1.00  0.00     0.000 HD 
HETATM   15  H2  UNL     1     -14.116  16.629  72.721  1.00  0.00     0.000 HD 
ENDBRANCH   3   4
ENDBRANCH   1   3
BRANCH   1  16
HETATM   16  O   UNL     1      -9.048  13.552  67.727  1.00  0.00    -0.187 OA 
BRANCH  16  17
HETATM   17  C   UNL     1      -8.523  14.782  68.283  1.00  0.00    -0.151 C  
HETATM   18  O   UNL     1      -6.818  15.508  66.767  1.00  0.00    -0.165 OA 
HETATM   19  O   UNL     1      -9.309  15.402  65.966  1.00  0.00    -0.310 OA 
HETATM   20  P   UNL     1      -8.223  16.064  67.013  1.00  0.00    -0.272 P  
HETATM   21  O   UNL     1      -7.938  17.277  65.813  1.00  0.00    -0.511 OA 
BRANCH  19  22
HETATM   22  C   UNL     1     -10.641  15.868  65.949  1.00  0.00    -0.337 C  
BRANCH  22  23
HETATM   23  O   UNL     1     -11.567  14.831  65.605  1.00  0.00    -0.341 OA 
BRANCH  23  24
HETATM   24  C   UNL     1     -12.103  14.957  64.365  1.00  0.00    -0.401 C  
HETATM   25  O   UNL     1     -12.020  15.946  63.649  1.00  0.00    -0.652 OA 
BRANCH  24  26
HETATM   26  O   UNL     1     -12.769  13.814  64.048  1.00  0.00    -0.669 OA 
BRANCH  26  27
HETATM   27  C   UNL     1     -12.024  12.592  64.243  1.00  0.00    -0.408 C  
HETATM   28  C   UNL     1     -12.612  11.504  63.352  1.00  0.00    -0.080 C  
HETATM   29  C   UNL     1     -10.560  12.833  63.889  1.00  0.00    -0.427 C  
ENDBRANCH  26  27
ENDBRANCH  24  26
ENDBRANCH  23  24
ENDBRANCH  22  23
ENDBRANCH  19  22
BRANCH  21  30
HETATM   30  C   UNL     1      -7.807  18.570  66.364  1.00  0.00    -0.271 C  
BRANCH  30  31
HETATM   31  O   UNL     1      -7.330  18.524  67.705  1.00  0.00    -0.224 OA 
BRANCH  31  32
HETATM   32  C   UNL     1      -7.473  19.687  68.383  1.00  0.00    -0.324 C  
HETATM   33  O   UNL     1      -7.866  20.745  67.910  1.00  0.00    -0.126 OA 
BRANCH  32  34
HETATM   34  O   UNL     1      -7.164  19.458  69.683  1.00  0.00    -0.230 OA 
BRANCH  34  35
HETATM   35  C   UNL     1      -5.763  19.322  69.994  1.00  0.00    -0.249 C  
HETATM   36  C   UNL     1      -5.651  18.408  71.211  1.00  0.00     0.064 C  
HETATM   37  C   UNL     1      -5.151  20.683  70.307  1.00  0.00    -0.338 C  
ENDBRANCH  34  35
ENDBRANCH  32  34
ENDBRANCH  31  32
ENDBRANCH  30  31
ENDBRANCH  21  30
ENDBRANCH  16  17
ENDBRANCH   1  16
TORSDOF 14
ENDMDL
MODEL       46
REMARK 921   NORMALIZED FREE ENERGY PREDICTED BY IDOCK:   -5.80 KCAL/MOL
REMARK 922        TOTAL FREE ENERGY PREDICTED BY IDOCK:  -12.38 KCAL/MOL
REMARK 923 INTER-LIGAND FREE ENERGY PREDICTED BY IDOCK:  -10.94 KCAL/MOL
REMARK 924 INTRA-LIGAND FREE ENERGY PREDICTED BY IDOCK:   -1.44 KCAL/MOL
REMARK 927      BINDING AFFINITY PREDICTED BY RF-SCORE:    0.00 PKD
ROOT
HETATM    1  C   UNL     1     -12.174  12.406  69.724  1.00  0.00    -0.131 C  
HETATM    2  C   UNL     1     -12.524  13.218  70.969  1.00  0.00    -0.422 C  
ENDROOT
BRANCH   1   3
HETATM    3  C   UNL     1     -11.264  11.217  70.003  1.00  0.00    -0.181 C  
BRANCH   3   4
HETATM    4  N   UNL     1     -11.855  10.125  70.728  1.00  0.00    -0.324 NA 
HETATM    5  C   UNL     1     -11.413   8.843  70.612  1.00  0.00    -0.242 A  
HETATM    6  N   UNL     1     -10.928   6.238  70.812  1.00  0.00    -0.279 NA 
HETATM    7  C   UNL     1     -12.785  10.159  71.729  1.00  0.00    -0.434 A  
HETATM    8  N   UNL     1     -12.513   5.928  72.532  1.00  0.00    -0.461 NA 
HETATM    9  N   UNL     1     -10.471   8.376  69.778  1.00  0.00    -0.218 NA 
HETATM   10  C   UNL     1     -11.854   6.768  71.642  1.00  0.00    -0.326 A  
HETATM   11  N   UNL     1     -13.003   8.965  72.233  1.00  0.00    -0.403 NA 
HETATM   12  C   UNL     1     -10.289   7.060  69.951  1.00  0.00    -0.210 A  
HETATM   13  C   UNL     1     -12.132   8.137  71.557  1.00  0.00    -0.298 A  
HETATM   14  H1  UNL     1     -12.311   4.931  72.595  1.00  0.00     0.000 HD 
HETATM   15  H2  UNL     1     -13.514   6.029  72.368  1.00  0.00     0.000 HD 
ENDBRANCH   3   4
ENDBRANCH   1   3
BRANCH   1  16
HETATM   16  O   UNL     1     -11.664  13.308  68.719  1.00  0.00    -0.287 OA 
BRANCH  16  17
HETATM   17  C   UNL     1     -10.664  12.767  67.822  1.00  0.00    -0.220 C  
HETATM   18  O   UNL     1     -11.728  10.954  66.675  1.00  0.00    -0.093 OA 
HETATM   19  O   UNL     1     -12.598  13.399  66.328  1.00  0.00    -0.333 OA 
HETATM   20  P   UNL     1     -11.339  12.347  66.175  1.00  0.00    -0.384 P  
HETATM   21  O   UNL     1     -11.978  11.950  64.616  1.00  0.00    -0.274 OA 
BRANCH  19  22
HETATM   22  C   UNL     1     -12.484  14.709  65.815  1.00  0.00    -0.083 C  
BRANCH  22  23
HETATM   23  O   UNL     1     -11.125  15.048  65.510  1.00  0.00    -0.336 OA 
BRANCH  23  24
HETATM   24  C   UNL     1     -10.986  16.208  64.820  1.00  0.00    -0.313 C  
HETATM   25  O   UNL     1     -11.645  16.541  63.845  1.00  0.00    -1.175 OA 
BRANCH  24  26
HETATM   26  O   UNL     1      -9.981  16.938  65.373  1.00  0.00    -0.568 OA 
BRANCH  26  27
HETATM   27  C   UNL     1     -10.351  17.722  66.528  1.00  0.00    -0.345 C  
HETATM   28  C   UNL     1      -9.290  17.547  67.608  1.00  0.00    -0.244 C  
HETATM   29  C   UNL     1     -10.462  19.189  66.127  1.00  0.00    -0.558 C  
ENDBRANCH  26  27
ENDBRANCH  24  26
ENDBRANCH  23  24
ENDBRANCH  22  23
ENDBRANCH  19  22
BRANCH  21  30
HETATM   30  C   UNL     1     -10.972  11.798  63.637  1.00  0.00    -0.439 C  
BRANCH  30  31
HETATM   31  O   UNL     1      -9.751  11.333  64.205  1.00  0.00    -0.238 OA 
BRANCH  31  32
HETATM   32  C   UNL     1      -9.215  10.268  63.565  1.00  0.00    -0.289 C  
HETATM   33  O   UNL     1      -9.534   9.867  62.453  1.00  0.00    -0.278 OA 
BRANCH  32  34
HETATM   34  O   UNL     1      -8.224   9.764  64.343  1.00  0.00    -0.141 OA 
BRANCH  34  35
HETATM   35  C   UNL     1      -8.308  10.053  65.752  1.00  0.00    -0.132 C  
HETATM   36  C   UNL     1      -6.900  10.392  66.234  1.00  0.00    -0.117 C  
HETATM   37  C   UNL     1      -8.842   8.844  66.513  1.00  0.00    -0.160 C  
ENDBRANCH  34  35
ENDBRANCH  32  34
ENDBRANCH  31  32
ENDBRANCH  30  31
ENDBRANCH  21  30
ENDBRANCH  16  17
ENDBRANCH   1  16
TORSDOF 14
ENDMDL
MODEL       47
REMARK 921   NORMALIZED FREE ENERGY PREDICTED BY IDOCK:   -5.79 KCAL/MOL
REMARK 922        TOTAL FREE ENERGY PREDICTED BY IDOCK:  -12.37 KCAL/MOL
REMARK 923 INTER-LIGAND FREE ENERGY PREDICTED BY IDOCK:  -10.90 KCAL/MOL
REMARK 924 INTRA-LIGAND FREE ENERGY PREDICTED BY IDOCK:   -1.47 KCAL/MOL
REMARK 927      BINDING AFFINITY PREDICTED BY RF-SCORE:    0.00 PKD
ROOT
HETATM    1  C   UNL     1     -11.737  14.823  67.719  1.00  0.00    -0.343 C  
HETATM    2  C   UNL     1     -11.768  14.543  66.218  1.00  0.00    -0.364 C  
ENDROOT
BRANCH   1   3
HETATM    3  C   UNL     1     -10.374  15.267  68.234  1.00  0.00    -0.234 C  
BRANCH   3   4
HETATM    4  N   UNL     1      -9.637  16.163  67.383  1.00  0.00    -0.228 NA 
HETATM    5  C   UNL     1      -9.889  17.499  67.333  1.00  0.00    -0.297 A  
HETATM    6  N   UNL     1      -9.911  20.120  66.895  1.00  0.00    -0.438 NA 
HETATM    7  C   UNL     1      -8.515  15.919  66.643  1.00  0.00    -0.287 A  
HETATM    8  N   UNL     1      -8.006  20.050  65.504  1.00  0.00    -0.480 NA 
HETATM    9  N   UNL     1     -10.874  18.169  67.952  1.00  0.00    -0.301 NA 
HETATM   10  C   UNL     1      -8.930  19.396  66.312  1.00  0.00    -0.346 A  
HETATM   11  N   UNL     1      -8.056  17.013  66.079  1.00  0.00    -0.492 NA 
HETATM   12  C   UNL     1     -10.805  19.479  67.679  1.00  0.00    -0.316 A  
HETATM   13  C   UNL     1      -8.895  18.013  66.523  1.00  0.00    -0.258 A  
HETATM   14  H1  UNL     1      -8.031  21.057  65.351  1.00  0.00     0.000 HD 
HETATM   15  H2  UNL     1      -8.021  19.598  64.590  1.00  0.00     0.000 HD 
ENDBRANCH   3   4
ENDBRANCH   1   3
BRANCH   1  16
HETATM   16  O   UNL     1     -12.277  13.676  68.410  1.00  0.00    -0.332 OA 
BRANCH  16  17
HETATM   17  C   UNL     1     -11.618  13.306  69.646  1.00  0.00    -0.261 C  
HETATM   18  O   UNL     1     -13.248  12.098  70.918  1.00  0.00     0.043 OA 
HETATM   19  O   UNL     1     -12.391  11.121  68.644  1.00  0.00    -0.549 OA 
HETATM   20  P   UNL     1     -12.008  11.598  70.174  1.00  0.00    -0.268 P  
HETATM   21  O   UNL     1     -12.375   9.983  70.674  1.00  0.00    -0.285 OA 
BRANCH  19  22
HETATM   22  C   UNL     1     -11.409  10.518  67.830  1.00  0.00    -0.222 C  
BRANCH  22  23
HETATM   23  O   UNL     1     -11.348  11.118  66.531  1.00  0.00    -0.275 OA 
BRANCH  23  24
HETATM   24  C   UNL     1     -10.096  11.191  66.013  1.00  0.00    -0.244 C  
HETATM   25  O   UNL     1      -9.199  11.918  66.418  1.00  0.00    -0.210 OA 
BRANCH  24  26
HETATM   26  O   UNL     1     -10.000  10.342  64.956  1.00  0.00    -0.294 OA 
BRANCH  26  27
HETATM   27  C   UNL     1      -9.481  10.927  63.741  1.00  0.00    -0.275 C  
HETATM   28  C   UNL     1      -9.083   9.810  62.783  1.00  0.00    -0.286 C  
HETATM   29  C   UNL     1     -10.552  11.810  63.110  1.00  0.00    -0.341 C  
ENDBRANCH  26  27
ENDBRANCH  24  26
ENDBRANCH  23  24
ENDBRANCH  22  23
ENDBRANCH  19  22
BRANCH  21  30
HETATM   30  C   UNL     1     -11.463   9.487  71.630  1.00  0.00    -0.363 C  
BRANCH  30  31
HETATM   31  O   UNL     1     -12.082   8.563  72.519  1.00  0.00    -0.389 OA 
BRANCH  31  32
HETATM   32  C   UNL     1     -11.359   7.442  72.743  1.00  0.00    -0.308 C  
HETATM   33  O   UNL     1     -10.605   7.255  73.690  1.00  0.00    -0.375 OA 
BRANCH  32  34
HETATM   34  O   UNL     1     -11.662   6.544  71.773  1.00  0.00    -0.296 OA 
BRANCH  34  35
HETATM   35  C   UNL     1     -10.589   6.176  70.884  1.00  0.00    -0.242 C  
HETATM   36  C   UNL     1     -11.151   6.169  69.466  1.00  0.00    -0.490 C  
HETATM   37  C   UNL     1     -10.053   4.793  71.239  1.00  0.00    -0.258 C  
ENDBRANCH  34  35
ENDBRANCH  32  34
ENDBRANCH  31  32
ENDBRANCH  30  31
ENDBRANCH  21  30
ENDBRANCH  16  17
ENDBRANCH   1  16
TORSDOF 14
ENDMDL
MODEL       48
REMARK 921   NORMALIZED FREE ENERGY PREDICTED BY IDOCK:   -5.77 KCAL/MOL
REMARK 922        TOTAL FREE ENERGY PREDICTED BY IDOCK:  -12.33 KCAL/MOL
REMARK 923 INTER-LIGAND FREE ENERGY PREDICTED BY IDOCK:  -10.29 KCAL/MOL
REMARK 924 INTRA-LIGAND FREE ENERGY PREDICTED BY IDOCK:   -2.04 KCAL/MOL
REMARK 927      BINDING AFFINITY PREDICTED BY RF-SCORE:    0.00 PKD
ROOT
HETATM    1  C   UNL     1     -12.034  10.538  70.036  1.00  0.00    -0.288 C  
HETATM    2  C   UNL     1     -12.517  11.308  71.264  1.00  0.00    -0.441 C  
ENDROOT
BRANCH   1   3
HETATM    3  C   UNL     1     -10.629   9.968  70.183  1.00  0.00    -0.296 C  
BRANCH   3   4
HETATM    4  N   UNL     1     -10.525   8.534  70.177  1.00  0.00    -0.215 NA 
HETATM    5  C   UNL     1     -10.567   7.791  71.316  1.00  0.00    -0.218 A  
HETATM    6  N   UNL     1     -10.648   5.892  73.173  1.00  0.00    -0.230 NA 
HETATM    7  C   UNL     1     -10.536   7.674  69.115  1.00  0.00    -0.186 A  
HETATM    8  N   UNL     1     -10.620   4.142  71.591  1.00  0.00     0.136 NA 
HETATM    9  N   UNL     1     -10.609   8.237  72.581  1.00  0.00    -0.337 NA 
HETATM   10  C   UNL     1     -10.623   5.501  71.880  1.00  0.00    -0.234 A  
HETATM   11  N   UNL     1     -10.535   6.419  69.503  1.00  0.00    -0.209 NA 
HETATM   12  C   UNL     1     -10.653   7.215  73.447  1.00  0.00    -0.382 A  
HETATM   13  C   UNL     1     -10.577   6.480  70.880  1.00  0.00    -0.230 A  
HETATM   14  H1  UNL     1     -10.654   3.428  72.319  1.00  0.00     0.000 HD 
HETATM   15  H2  UNL     1      -9.803   3.952  71.011  1.00  0.00     0.000 HD 
ENDBRANCH   3   4
ENDBRANCH   1   3
BRANCH   1  16
HETATM   16  O   UNL     1     -12.205  11.377  68.874  1.00  0.00    -0.458 OA 
BRANCH  16  17
HETATM   17  C   UNL     1     -11.080  11.446  67.964  1.00  0.00    -0.257 C  
HETATM   18  O   UNL     1     -12.020  11.801  65.790  1.00  0.00    -0.376 OA 
HETATM   19  O   UNL     1     -12.307  13.629  67.643  1.00  0.00    -0.257 OA 
HETATM   20  P   UNL     1     -11.263  12.763  66.707  1.00  0.00    -0.330 P  
HETATM   21  O   UNL     1     -11.435  14.009  65.519  1.00  0.00    -0.308 OA 
BRANCH  19  22
HETATM   22  C   UNL     1     -11.816  14.657  68.476  1.00  0.00    -0.311 C  
BRANCH  22  23
HETATM   23  O   UNL     1     -10.391  14.773  68.400  1.00  0.00    -0.224 OA 
BRANCH  23  24
HETATM   24  C   UNL     1      -9.807  15.195  69.549  1.00  0.00    -0.184 C  
HETATM   25  O   UNL     1     -10.397  15.512  70.574  1.00  0.00    -0.260 OA 
BRANCH  24  26
HETATM   26  O   UNL     1      -8.459  15.231  69.379  1.00  0.00    -0.237 OA 
BRANCH  26  27
HETATM   27  C   UNL     1      -7.976  14.628  68.158  1.00  0.00    -0.136 C  
HETATM   28  C   UNL     1      -7.017  15.596  67.472  1.00  0.00    -0.218 C  
HETATM   29  C   UNL     1      -7.263  13.321  68.489  1.00  0.00    -0.110 C  
ENDBRANCH  26  27
ENDBRANCH  24  26
ENDBRANCH  23  24
ENDBRANCH  22  23
ENDBRANCH  19  22
BRANCH  21  30
HETATM   30  C   UNL     1     -10.213  14.339  64.894  1.00  0.00    -0.329 C  
BRANCH  30  31
HETATM   31  O   UNL     1      -9.712  15.593  65.346  1.00  0.00    -0.303 OA 
BRANCH  31  32
HETATM   32  C   UNL     1     -10.582  16.620  65.202  1.00  0.00    -0.161 C  
HETATM   33  O   UNL     1     -11.227  16.873  64.193  1.00  0.00    -1.176 OA 
BRANCH  32  34
HETATM   34  O   UNL     1     -10.657  17.278  66.385  1.00  0.00    -0.281 OA 
BRANCH  34  35
HETATM   35  C   UNL     1      -9.793  18.422  66.537  1.00  0.00    -0.359 C  
HETATM   36  C   UNL     1      -9.308  18.440  67.984  1.00  0.00    -0.304 C  
HETATM   37  C   UNL     1     -10.551  19.708  66.226  1.00  0.00    -0.585 C  
ENDBRANCH  34  35
ENDBRANCH  32  34
ENDBRANCH  31  32
ENDBRANCH  30  31
ENDBRANCH  21  30
ENDBRANCH  16  17
ENDBRANCH   1  16
TORSDOF 14
ENDMDL
MODEL       49
REMARK 921   NORMALIZED FREE ENERGY PREDICTED BY IDOCK:   -5.75 KCAL/MOL
REMARK 922        TOTAL FREE ENERGY PREDICTED BY IDOCK:  -12.30 KCAL/MOL
REMARK 923 INTER-LIGAND FREE ENERGY PREDICTED BY IDOCK:  -11.03 KCAL/MOL
REMARK 924 INTRA-LIGAND FREE ENERGY PREDICTED BY IDOCK:   -1.27 KCAL/MOL
REMARK 927      BINDING AFFINITY PREDICTED BY RF-SCORE:    0.00 PKD
ROOT
HETATM    1  C   UNL     1     -11.157  14.929  66.058  1.00  0.00    -0.334 C  
HETATM    2  C   UNL     1     -11.949  14.303  64.912  1.00  0.00    -0.430 C  
ENDROOT
BRANCH   1   3
HETATM    3  C   UNL     1     -10.483  16.245  65.693  1.00  0.00    -0.368 C  
BRANCH   3   4
HETATM    4  N   UNL     1      -9.959  17.013  66.790  1.00  0.00    -0.283 NA 
HETATM    5  C   UNL     1      -8.732  17.601  66.753  1.00  0.00    -0.258 A  
HETATM    6  N   UNL     1      -6.501  18.978  67.188  1.00  0.00    -0.188 NA 
HETATM    7  C   UNL     1     -10.589  17.429  67.929  1.00  0.00    -0.383 A  
HETATM    8  N   UNL     1      -7.263  19.840  69.248  1.00  0.00    -0.313 NA 
HETATM    9  N   UNL     1      -7.804  17.494  65.789  1.00  0.00    -0.518 NA 
HETATM   10  C   UNL     1      -7.480  19.063  68.116  1.00  0.00    -0.275 A  
HETATM   11  N   UNL     1      -9.822  18.212  68.652  1.00  0.00    -0.365 NA 
HETATM   12  C   UNL     1      -6.719  18.223  66.089  1.00  0.00    -0.253 A  
HETATM   13  C   UNL     1      -8.665  18.345  67.914  1.00  0.00    -0.283 A  
HETATM   14  H1  UNL     1      -6.400  20.363  69.395  1.00  0.00     0.000 HD 
HETATM   15  H2  UNL     1      -7.405  19.243  70.063  1.00  0.00     0.000 HD 
ENDBRANCH   3   4
ENDBRANCH   1   3
BRANCH   1  16
HETATM   16  O   UNL     1     -10.251  13.935  66.583  1.00  0.00    -0.266 OA 
BRANCH  16  17
HETATM   17  C   UNL     1     -10.225  13.790  68.024  1.00  0.00    -0.248 C  
HETATM   18  O   UNL     1     -12.500  13.445  68.686  1.00  0.00    -0.050 OA 
HETATM   19  O   UNL     1     -11.302  11.669  67.180  1.00  0.00    -0.301 OA 
HETATM   20  P   UNL     1     -11.329  12.461  68.625  1.00  0.00    -0.336 P  
HETATM   21  O   UNL     1     -12.373  11.204  69.193  1.00  0.00    -0.438 OA 
BRANCH  19  22
HETATM   22  C   UNL     1     -10.369  10.632  66.966  1.00  0.00    -0.231 C  
BRANCH  22  23
HETATM   23  O   UNL     1     -10.931   9.342  67.233  1.00  0.00    -0.166 OA 
BRANCH  23  24
HETATM   24  C   UNL     1     -10.176   8.306  66.787  1.00  0.00    -0.304 C  
HETATM   25  O   UNL     1      -9.052   8.396  66.310  1.00  0.00    -0.170 OA 
BRANCH  24  26
HETATM   26  O   UNL     1     -10.874   7.149  66.936  1.00  0.00    -0.352 OA 
BRANCH  26  27
HETATM   27  C   UNL     1     -10.070   5.952  67.027  1.00  0.00    -0.183 C  
HETATM   28  C   UNL     1     -10.101   5.442  68.464  1.00  0.00    -0.242 C  
HETATM   29  C   UNL     1     -10.628   4.897  66.078  1.00  0.00    -0.312 C  
ENDBRANCH  26  27
ENDBRANCH  24  26
ENDBRANCH  23  24
ENDBRANCH  22  23
ENDBRANCH  19  22
BRANCH  21  30
HETATM   30  C   UNL     1     -12.072  10.800  70.512  1.00  0.00    -0.366 C  
BRANCH  30  31
HETATM   31  O   UNL     1     -13.252  10.564  71.273  1.00  0.00    -0.365 OA 
BRANCH  31  32
HETATM   32  C   UNL     1     -13.161   9.515  72.123  1.00  0.00    -0.451 C  
HETATM   33  O   UNL     1     -14.081   9.047  72.782  1.00  0.00    -0.524 OA 
BRANCH  32  34
HETATM   34  O   UNL     1     -11.893   9.037  72.069  1.00  0.00    -0.358 OA 
BRANCH  34  35
HETATM   35  C   UNL     1     -11.680   7.722  72.618  1.00  0.00    -0.309 C  
HETATM   36  C   UNL     1     -10.234   7.656  73.101  1.00  0.00    -0.401 C  
HETATM   37  C   UNL     1     -11.925   6.654  71.557  1.00  0.00    -0.402 C  
ENDBRANCH  34  35
ENDBRANCH  32  34
ENDBRANCH  31  32
ENDBRANCH  30  31
ENDBRANCH  21  30
ENDBRANCH  16  17
ENDBRANCH   1  16
TORSDOF 14
ENDMDL
MODEL       50
REMARK 921   NORMALIZED FREE ENERGY PREDICTED BY IDOCK:   -5.75 KCAL/MOL
REMARK 922        TOTAL FREE ENERGY PREDICTED BY IDOCK:  -12.29 KCAL/MOL
REMARK 923 INTER-LIGAND FREE ENERGY PREDICTED BY IDOCK:  -10.56 KCAL/MOL
REMARK 924 INTRA-LIGAND FREE ENERGY PREDICTED BY IDOCK:   -1.73 KCAL/MOL
REMARK 927      BINDING AFFINITY PREDICTED BY RF-SCORE:    0.00 PKD
ROOT
HETATM    1  C   UNL     1     -11.466  11.961  69.575  1.00  0.00    -0.288 C  
HETATM    2  C   UNL     1     -12.563  12.270  70.592  1.00  0.00    -0.241 C  
ENDROOT
BRANCH   1   3
HETATM    3  C   UNL     1     -11.956  11.930  68.133  1.00  0.00    -0.152 C  
BRANCH   3   4
HETATM    4  N   UNL     1     -11.702  13.111  67.353  1.00  0.00    -0.355 NA 
HETATM    5  C   UNL     1     -12.012  13.198  66.031  1.00  0.00    -0.433 A  
HETATM    6  N   UNL     1     -12.457  13.919  63.512  1.00  0.00    -0.812 NA 
HETATM    7  C   UNL     1     -11.294  14.347  67.770  1.00  0.00    -0.312 A  
HETATM    8  N   UNL     1     -11.756  16.143  63.873  1.00  0.00    -1.452 NA 
HETATM    9  N   UNL     1     -12.489  12.225  65.239  1.00  0.00    -0.544 NA 
HETATM   10  C   UNL     1     -11.994  14.863  64.361  1.00  0.00    -0.394 A  
HETATM   11  N   UNL     1     -11.278  15.214  66.782  1.00  0.00    -0.317 NA 
HETATM   12  C   UNL     1     -12.687  12.678  63.993  1.00  0.00    -0.269 A  
HETATM   13  C   UNL     1     -11.748  14.510  65.693  1.00  0.00    -0.335 A  
HETATM   14  H1  UNL     1     -11.935  16.400  62.903  1.00  0.00     0.000 HD 
HETATM   15  H2  UNL     1     -10.785  16.376  64.079  1.00  0.00     0.000 HD 
ENDBRANCH   3   4
ENDBRANCH   1   3
BRANCH   1  16
HETATM   16  O   UNL     1     -10.787  10.756  69.987  1.00  0.00    -0.252 OA 
BRANCH  16  17
HETATM   17  C   UNL     1     -10.693   9.704  68.995  1.00  0.00    -0.211 C  
HETATM   18  O   UNL     1      -8.654  10.108  67.806  1.00  0.00    -0.118 OA 
HETATM   19  O   UNL     1      -8.574   9.504  70.353  1.00  0.00    -0.200 OA 
HETATM   20  P   UNL     1      -9.001   9.029  68.834  1.00  0.00    -0.141 P  
HETATM   21  O   UNL     1      -7.400   8.389  68.682  1.00  0.00    -0.085 OA 
BRANCH  19  22
HETATM   22  C   UNL     1      -8.702   8.604  71.432  1.00  0.00    -0.204 C  
BRANCH  22  23
HETATM   23  O   UNL     1      -9.850   8.895  72.239  1.00  0.00    -0.284 OA 
BRANCH  23  24
HETATM   24  C   UNL     1     -10.269   7.854  73.001  1.00  0.00    -0.327 C  
HETATM   25  O   UNL     1      -9.553   6.977  73.466  1.00  0.00    -0.168 OA 
BRANCH  24  26
HETATM   26  O   UNL     1     -11.618   7.925  73.152  1.00  0.00    -0.292 OA 
BRANCH  26  27
HETATM   27  C   UNL     1     -12.350   8.326  71.973  1.00  0.00    -0.349 C  
HETATM   28  C   UNL     1     -12.832   7.078  71.240  1.00  0.00    -0.376 C  
HETATM   29  C   UNL     1     -13.537   9.190  72.385  1.00  0.00    -0.544 C  
ENDBRANCH  26  27
ENDBRANCH  24  26
ENDBRANCH  23  24
ENDBRANCH  22  23
ENDBRANCH  19  22
BRANCH  21  30
HETATM   30  C   UNL     1      -7.373   7.138  68.029  1.00  0.00    -0.097 C  
BRANCH  30  31
HETATM   31  O   UNL     1      -7.174   6.068  68.948  1.00  0.00    -0.078 OA 
BRANCH  31  32
HETATM   32  C   UNL     1      -8.198   5.186  69.000  1.00  0.00    -0.088 C  
HETATM   33  O   UNL     1      -8.969   5.040  69.939  1.00  0.00    -0.102 OA 
BRANCH  32  34
HETATM   34  O   UNL     1      -8.256   4.537  67.810  1.00  0.00    -0.098 OA 
BRANCH  34  35
HETATM   35  C   UNL     1      -9.511   3.908  67.485  1.00  0.00    -0.190 C  
HETATM   36  C   UNL     1      -9.275   2.400  67.462  1.00  0.00    -0.198 C  
HETATM   37  C   UNL     1     -10.007   4.378  66.122  1.00  0.00    -0.256 C  
ENDBRANCH  34  35
ENDBRANCH  32  34
ENDBRANCH  31  32
ENDBRANCH  30  31
ENDBRANCH  21  30
ENDBRANCH  16  17
ENDBRANCH   1  16
TORSDOF 14
ENDMDL
MODEL       51
REMARK 921   NORMALIZED FREE ENERGY PREDICTED BY IDOCK:   -5.73 KCAL/MOL
REMARK 922        TOTAL FREE ENERGY PREDICTED BY IDOCK:  -12.26 KCAL/MOL
REMARK 923 INTER-LIGAND FREE ENERGY PREDICTED BY IDOCK:  -10.58 KCAL/MOL
REMARK 924 INTRA-LIGAND FREE ENERGY PREDICTED BY IDOCK:   -1.69 KCAL/MOL
REMARK 927      BINDING AFFINITY PREDICTED BY RF-SCORE:    0.00 PKD
ROOT
HETATM    1  C   UNL     1     -11.844  12.870  65.517  1.00  0.00    -0.411 C  
HETATM    2  C   UNL     1     -11.775  12.183  64.154  1.00  0.00    -0.478 C  
ENDROOT
BRANCH   1   3
HETATM    3  C   UNL     1     -10.654  13.774  65.809  1.00  0.00    -0.293 C  
BRANCH   3   4
HETATM    4  N   UNL     1     -10.837  15.172  65.526  1.00  0.00    -0.343 NA 
HETATM    5  C   UNL     1     -10.392  16.153  66.358  1.00  0.00    -0.315 A  
HETATM    6  N   UNL     1      -9.697  18.421  67.556  1.00  0.00    -0.290 NA 
HETATM    7  C   UNL     1     -11.295  15.767  64.384  1.00  0.00    -0.265 A  
HETATM    8  N   UNL     1     -10.450  19.765  65.769  1.00  0.00    -0.503 NA 
HETATM    9  N   UNL     1      -9.828  16.005  67.567  1.00  0.00    -0.233 NA 
HETATM   10  C   UNL     1     -10.253  18.507  66.327  1.00  0.00    -0.418 A  
HETATM   11  N   UNL     1     -11.217  17.076  64.451  1.00  0.00    -1.077 NA 
HETATM   12  C   UNL     1      -9.507  17.196  68.093  1.00  0.00    -0.269 A  
HETATM   13  C   UNL     1     -10.632  17.329  65.674  1.00  0.00    -0.166 A  
HETATM   14  H1  UNL     1     -10.174  20.624  66.245  1.00  0.00     0.000 HD 
HETATM   15  H2  UNL     1     -11.439  19.847  65.535  1.00  0.00     0.000 HD 
ENDBRANCH   3   4
ENDBRANCH   1   3
BRANCH   1  16
HETATM   16  O   UNL     1     -12.074  11.863  66.526  1.00  0.00    -0.568 OA 
BRANCH  16  17
HETATM   17  C   UNL     1     -11.489  12.116  67.826  1.00  0.00    -0.332 C  
HETATM   18  O   UNL     1     -12.568  10.599  69.333  1.00  0.00    -0.279 OA 
HETATM   19  O   UNL     1     -11.075   9.663  67.396  1.00  0.00    -0.183 OA 
HETATM   20  P   UNL     1     -11.148  10.582  68.762  1.00  0.00    -0.263 P  
HETATM   21  O   UNL     1     -10.825   9.131  69.648  1.00  0.00    -0.231 OA 
BRANCH  19  22
HETATM   22  C   UNL     1      -9.829   9.422  66.778  1.00  0.00    -0.218 C  
BRANCH  22  23
HETATM   23  O   UNL     1      -8.942  10.539  66.907  1.00  0.00    -0.139 OA 
BRANCH  23  24
HETATM   24  C   UNL     1      -8.081  10.685  65.869  1.00  0.00    -0.159 C  
HETATM   25  O   UNL     1      -6.862  10.734  65.955  1.00  0.00    -0.131 OA 
BRANCH  24  26
HETATM   26  O   UNL     1      -8.789  10.789  64.713  1.00  0.00    -0.188 OA 
BRANCH  26  27
HETATM   27  C   UNL     1      -8.057  10.467  63.510  1.00  0.00    -0.062 C  
HETATM   28  C   UNL     1      -8.231   8.983  63.205  1.00  0.00    -0.181 C  
HETATM   29  C   UNL     1      -8.587  11.312  62.356  1.00  0.00    -0.227 C  
ENDBRANCH  26  27
ENDBRANCH  24  26
ENDBRANCH  23  24
ENDBRANCH  22  23
ENDBRANCH  19  22
BRANCH  21  30
HETATM   30  C   UNL     1      -9.922   9.332  70.714  1.00  0.00    -0.290 C  
BRANCH  30  31
HETATM   31  O   UNL     1     -10.584   9.315  71.975  1.00  0.00    -0.269 OA 
BRANCH  31  32
HETATM   32  C   UNL     1     -11.397   8.249  72.157  1.00  0.00    -0.352 C  
HETATM   33  O   UNL     1     -12.621   8.272  72.132  1.00  0.00    -0.328 OA 
BRANCH  32  34
HETATM   34  O   UNL     1     -10.621   7.148  72.310  1.00  0.00    -0.205 OA 
BRANCH  34  35
HETATM   35  C   UNL     1     -10.785   6.415  73.540  1.00  0.00    -0.244 C  
HETATM   36  C   UNL     1      -9.461   6.485  74.295  1.00  0.00    -0.253 C  
HETATM   37  C   UNL     1     -11.144   4.961  73.251  1.00  0.00    -0.410 C  
ENDBRANCH  34  35
ENDBRANCH  32  34
ENDBRANCH  31  32
ENDBRANCH  30  31
ENDBRANCH  21  30
ENDBRANCH  16  17
ENDBRANCH   1  16
TORSDOF 14
ENDMDL
MODEL       52
REMARK 921   NORMALIZED FREE ENERGY PREDICTED BY IDOCK:   -5.72 KCAL/MOL
REMARK 922        TOTAL FREE ENERGY PREDICTED BY IDOCK:  -12.23 KCAL/MOL
REMARK 923 INTER-LIGAND FREE ENERGY PREDICTED BY IDOCK:  -11.19 KCAL/MOL
REMARK 924 INTRA-LIGAND FREE ENERGY PREDICTED BY IDOCK:   -1.05 KCAL/MOL
REMARK 927      BINDING AFFINITY PREDICTED BY RF-SCORE:    0.00 PKD
ROOT
HETATM    1  C   UNL     1     -11.922  12.839  65.586  1.00  0.00    -0.452 C  
HETATM    2  C   UNL     1     -12.198  12.101  64.278  1.00  0.00    -0.469 C  
ENDROOT
BRANCH   1   3
HETATM    3  C   UNL     1     -10.672  13.707  65.550  1.00  0.00    -0.296 C  
BRANCH   3   4
HETATM    4  N   UNL     1     -10.883  15.113  65.340  1.00  0.00    -0.357 NA 
HETATM    5  C   UNL     1     -10.414  16.062  66.196  1.00  0.00    -0.326 A  
HETATM    6  N   UNL     1      -9.694  18.282  67.465  1.00  0.00    -0.293 NA 
HETATM    7  C   UNL     1     -11.399  15.752  64.247  1.00  0.00    -0.179 A  
HETATM    8  N   UNL     1     -10.540  19.695  65.776  1.00  0.00    -0.507 NA 
HETATM    9  N   UNL     1      -9.796  15.867  67.371  1.00  0.00    -0.232 NA 
HETATM   10  C   UNL     1     -10.304  18.417  66.267  1.00  0.00    -0.415 A  
HETATM   11  N   UNL     1     -11.333  17.059  64.370  1.00  0.00    -1.052 NA 
HETATM   12  C   UNL     1      -9.466  17.037  67.936  1.00  0.00    -0.245 A  
HETATM   13  C   UNL     1     -10.697  17.264  65.577  1.00  0.00    -0.100 A  
HETATM   14  H1  UNL     1     -10.254  20.535  66.278  1.00  0.00     0.000 HD 
HETATM   15  H2  UNL     1     -11.539  19.774  65.589  1.00  0.00     0.000 HD 
ENDBRANCH   3   4
ENDBRANCH   1   3
BRANCH   1  16
HETATM   16  O   UNL     1     -11.936  11.878  66.664  1.00  0.00    -0.601 OA 
BRANCH  16  17
HETATM   17  C   UNL     1     -10.971  10.802  66.573  1.00  0.00    -0.075 C  
HETATM   18  O   UNL     1      -8.876  11.744  67.249  1.00  0.00    -0.157 OA 
HETATM   19  O   UNL     1     -10.844  11.585  68.970  1.00  0.00    -0.207 OA 
HETATM   20  P   UNL     1      -9.805  10.773  67.982  1.00  0.00    -0.175 P  
HETATM   21  O   UNL     1      -8.701  10.745  69.314  1.00  0.00    -0.131 OA 
BRANCH  19  22
HETATM   22  C   UNL     1     -11.707  10.865  69.824  1.00  0.00    -0.338 C  
BRANCH  22  23
HETATM   23  O   UNL     1     -12.202  11.679  70.894  1.00  0.00    -0.364 OA 
BRANCH  23  24
HETATM   24  C   UNL     1     -12.441  12.968  70.544  1.00  0.00    -0.231 C  
HETATM   25  O   UNL     1     -12.448  13.408  69.402  1.00  0.00    -0.153 OA 
BRANCH  24  26
HETATM   26  O   UNL     1     -12.652  13.704  71.667  1.00  0.00    -0.321 OA 
BRANCH  26  27
HETATM   27  C   UNL     1     -12.848  15.119  71.450  1.00  0.00    -0.385 C  
HETATM   28  C   UNL     1     -14.143  15.551  72.129  1.00  0.00    -0.621 C  
HETATM   29  C   UNL     1     -11.664  15.887  72.028  1.00  0.00    -0.588 C  
ENDBRANCH  26  27
ENDBRANCH  24  26
ENDBRANCH  23  24
ENDBRANCH  22  23
ENDBRANCH  19  22
BRANCH  21  30
HETATM   30  C   UNL     1      -8.030   9.509  69.441  1.00  0.00    -0.099 C  
BRANCH  30  31
HETATM   31  O   UNL     1      -8.924   8.458  69.794  1.00  0.00    -0.143 OA 
BRANCH  31  32
HETATM   32  C   UNL     1      -9.180   8.372  71.120  1.00  0.00    -0.174 C  
HETATM   33  O   UNL     1      -8.427   8.729  72.017  1.00  0.00    -0.322 OA 
BRANCH  32  34
HETATM   34  O   UNL     1     -10.434   7.880  71.276  1.00  0.00    -0.202 OA 
BRANCH  34  35
HETATM   35  C   UNL     1     -11.017   8.020  72.587  1.00  0.00    -0.382 C  
HETATM   36  C   UNL     1     -11.014   6.641  73.240  1.00  0.00    -0.237 C  
HETATM   37  C   UNL     1     -12.445   8.544  72.481  1.00  0.00    -0.358 C  
ENDBRANCH  34  35
ENDBRANCH  32  34
ENDBRANCH  31  32
ENDBRANCH  30  31
ENDBRANCH  21  30
ENDBRANCH  16  17
ENDBRANCH   1  16
TORSDOF 14
ENDMDL
MODEL       53
REMARK 921   NORMALIZED FREE ENERGY PREDICTED BY IDOCK:   -5.70 KCAL/MOL
REMARK 922        TOTAL FREE ENERGY PREDICTED BY IDOCK:  -12.21 KCAL/MOL
REMARK 923 INTER-LIGAND FREE ENERGY PREDICTED BY IDOCK:  -11.10 KCAL/MOL
REMARK 924 INTRA-LIGAND FREE ENERGY PREDICTED BY IDOCK:   -1.12 KCAL/MOL
REMARK 927      BINDING AFFINITY PREDICTED BY RF-SCORE:    0.00 PKD
ROOT
HETATM    1  C   UNL     1     -12.863  12.358  70.511  1.00  0.00     0.162 C  
HETATM    2  C   UNL     1     -13.023  12.388  72.029  1.00  0.00    -0.376 C  
ENDROOT
BRANCH   1   3
HETATM    3  C   UNL     1     -12.741  10.955  69.933  1.00  0.00    -0.045 C  
BRANCH   3   4
HETATM    4  N   UNL     1     -12.649   9.883  70.887  1.00  0.00    -0.316 NA 
HETATM    5  C   UNL     1     -11.460   9.348  71.278  1.00  0.00    -0.363 A  
HETATM    6  N   UNL     1      -9.466   8.008  72.413  1.00  0.00    -0.191 NA 
HETATM    7  C   UNL     1     -13.630   9.339  71.668  1.00  0.00    -0.381 A  
HETATM    8  N   UNL     1     -10.897   6.838  73.881  1.00  0.00    -0.474 NA 
HETATM    9  N   UNL     1     -10.239   9.635  70.799  1.00  0.00    -0.290 NA 
HETATM   10  C   UNL     1     -10.717   7.774  72.869  1.00  0.00    -0.385 A  
HETATM   11  N   UNL     1     -13.148   8.449  72.506  1.00  0.00    -0.230 NA 
HETATM   12  C   UNL     1      -9.298   8.919  71.430  1.00  0.00    -0.268 A  
HETATM   13  C   UNL     1     -11.787   8.464  72.286  1.00  0.00    -0.389 A  
HETATM   14  H1  UNL     1     -10.118   6.336  74.305  1.00  0.00     0.000 HD 
HETATM   15  H2  UNL     1     -11.564   6.145  73.545  1.00  0.00     0.000 HD 
ENDBRANCH   3   4
ENDBRANCH   1   3
BRANCH   1  16
HETATM   16  O   UNL     1     -11.774  13.235  70.149  1.00  0.00    -0.272 OA 
BRANCH  16  17
HETATM   17  C   UNL     1     -12.027  14.656  70.281  1.00  0.00    -0.308 C  
HETATM   18  O   UNL     1      -9.905  15.726  69.987  1.00  0.00    -0.237 OA 
HETATM   19  O   UNL     1     -10.974  14.395  68.002  1.00  0.00    -0.248 OA 
HETATM   20  P   UNL     1     -11.114  15.657  69.052  1.00  0.00    -0.331 P  
HETATM   21  O   UNL     1     -10.251  16.604  67.889  1.00  0.00    -0.264 OA 
BRANCH  19  22
HETATM   22  C   UNL     1     -11.929  14.225  66.977  1.00  0.00    -0.433 C  
BRANCH  22  23
HETATM   23  O   UNL     1     -12.456  12.893  66.952  1.00  0.00    -0.308 OA 
BRANCH  23  24
HETATM   24  C   UNL     1     -11.604  11.970  66.439  1.00  0.00    -0.313 C  
HETATM   25  O   UNL     1     -11.416  10.846  66.886  1.00  0.00    -0.342 OA 
BRANCH  24  26
HETATM   26  O   UNL     1     -10.972  12.498  65.358  1.00  0.00    -0.280 OA 
BRANCH  26  27
HETATM   27  C   UNL     1     -11.337  11.918  64.086  1.00  0.00    -0.380 C  
HETATM   28  C   UNL     1     -12.359  12.822  63.404  1.00  0.00    -0.531 C  
HETATM   29  C   UNL     1     -10.090  11.778  63.219  1.00  0.00    -0.448 C  
ENDBRANCH  26  27
ENDBRANCH  24  26
ENDBRANCH  23  24
ENDBRANCH  22  23
ENDBRANCH  19  22
BRANCH  21  30
HETATM   30  C   UNL     1     -10.774  17.908  67.752  1.00  0.00    -0.326 C  
BRANCH  30  31
HETATM   31  O   UNL     1      -9.742  18.872  67.567  1.00  0.00    -0.301 OA 
BRANCH  31  32
HETATM   32  C   UNL     1      -9.552  19.238  66.279  1.00  0.00    -0.362 C  
HETATM   33  O   UNL     1     -10.373  19.805  65.568  1.00  0.00    -0.403 OA 
BRANCH  32  34
HETATM   34  O   UNL     1      -8.279  18.923  65.934  1.00  0.00    -0.477 OA 
BRANCH  34  35
HETATM   35  C   UNL     1      -7.378  20.030  65.732  1.00  0.00    -0.304 C  
HETATM   36  C   UNL     1      -6.179  19.507  64.947  1.00  0.00    -0.319 C  
HETATM   37  C   UNL     1      -6.918  20.595  67.072  1.00  0.00    -0.365 C  
ENDBRANCH  34  35
ENDBRANCH  32  34
ENDBRANCH  31  32
ENDBRANCH  30  31
ENDBRANCH  21  30
ENDBRANCH  16  17
ENDBRANCH   1  16
TORSDOF 14
ENDMDL
MODEL       54
REMARK 921   NORMALIZED FREE ENERGY PREDICTED BY IDOCK:   -5.70 KCAL/MOL
REMARK 922        TOTAL FREE ENERGY PREDICTED BY IDOCK:  -12.21 KCAL/MOL
REMARK 923 INTER-LIGAND FREE ENERGY PREDICTED BY IDOCK:  -10.67 KCAL/MOL
REMARK 924 INTRA-LIGAND FREE ENERGY PREDICTED BY IDOCK:   -1.53 KCAL/MOL
REMARK 927      BINDING AFFINITY PREDICTED BY RF-SCORE:    0.00 PKD
ROOT
HETATM    1  C   UNL     1     -10.977  15.460  65.706  1.00  0.00    -0.309 C  
HETATM    2  C   UNL     1     -11.703  14.867  64.500  1.00  0.00    -0.388 C  
ENDROOT
BRANCH   1   3
HETATM    3  C   UNL     1     -10.641  16.938  65.554  1.00  0.00    -0.202 C  
BRANCH   3   4
HETATM    4  N   UNL     1     -10.036  17.570  66.695  1.00  0.00    -0.315 NA 
HETATM    5  C   UNL     1      -8.714  17.885  66.744  1.00  0.00    -0.254 A  
HETATM    6  N   UNL     1      -6.275  18.756  67.339  1.00  0.00    -0.185 NA 
HETATM    7  C   UNL     1     -10.635  18.101  67.803  1.00  0.00    -0.389 A  
HETATM    8  N   UNL     1      -6.965  19.744  69.368  1.00  0.00    -0.338 NA 
HETATM    9  N   UNL     1      -7.770  17.592  65.836  1.00  0.00    -0.534 NA 
HETATM   10  C   UNL     1      -7.270  19.039  68.209  1.00  0.00    -0.276 A  
HETATM   11  N   UNL     1      -9.768  18.699  68.587  1.00  0.00    -0.364 NA 
HETATM   12  C   UNL     1      -6.577  18.072  66.214  1.00  0.00    -0.241 A  
HETATM   13  C   UNL     1      -8.564  18.590  67.922  1.00  0.00    -0.287 A  
HETATM   14  H1  UNL     1      -6.022  20.071  69.577  1.00  0.00     0.000 HD 
HETATM   15  H2  UNL     1      -7.280  19.185  70.160  1.00  0.00     0.000 HD 
ENDBRANCH   3   4
ENDBRANCH   1   3
BRANCH   1  16
HETATM   16  O   UNL     1      -9.835  14.630  66.006  1.00  0.00    -0.291 OA 
BRANCH  16  17
HETATM   17  C   UNL     1     -10.042  13.199  65.908  1.00  0.00    -0.290 C  
HETATM   18  O   UNL     1      -8.110  12.192  66.903  1.00  0.00    -0.168 OA 
HETATM   19  O   UNL     1      -9.721  13.641  68.373  1.00  0.00    -0.224 OA 
HETATM   20  P   UNL     1      -9.544  12.305  67.425  1.00  0.00    -0.188 P  
HETATM   21  O   UNL     1      -9.075  11.458  68.859  1.00  0.00    -0.127 OA 
BRANCH  19  22
HETATM   22  C   UNL     1     -10.940  13.865  69.049  1.00  0.00    -0.250 C  
BRANCH  22  23
HETATM   23  O   UNL     1     -10.796  14.818  70.110  1.00  0.00    -0.183 OA 
BRANCH  23  24
HETATM   24  C   UNL     1     -11.875  15.622  70.281  1.00  0.00    -0.365 C  
HETATM   25  O   UNL     1     -12.656  15.965  69.403  1.00  0.00    -0.001 OA 
BRANCH  24  26
HETATM   26  O   UNL     1     -11.944  16.005  71.584  1.00  0.00    -0.441 OA 
BRANCH  26  27
HETATM   27  C   UNL     1     -12.725  15.143  72.440  1.00  0.00    -0.348 C  
HETATM   28  C   UNL     1     -12.396  15.457  73.895  1.00  0.00    -0.764 C  
HETATM   29  C   UNL     1     -14.209  15.375  72.169  1.00  0.00    -0.660 C  
ENDBRANCH  26  27
ENDBRANCH  24  26
ENDBRANCH  23  24
ENDBRANCH  22  23
ENDBRANCH  19  22
BRANCH  21  30
HETATM   30  C   UNL     1      -9.619  10.158  68.927  1.00  0.00    -0.184 C  
BRANCH  30  31
HETATM   31  O   UNL     1      -9.536   9.621  70.244  1.00  0.00    -0.242 OA 
BRANCH  31  32
HETATM   32  C   UNL     1     -10.182   8.443  70.402  1.00  0.00    -0.197 C  
HETATM   33  O   UNL     1      -9.650   7.356  70.592  1.00  0.00    -0.171 OA 
BRANCH  32  34
HETATM   34  O   UNL     1     -11.516   8.686  70.374  1.00  0.00    -0.239 OA 
BRANCH  34  35
HETATM   35  C   UNL     1     -12.030   9.550  71.407  1.00  0.00    -0.386 C  
HETATM   36  C   UNL     1     -12.897   8.697  72.329  1.00  0.00    -0.438 C  
HETATM   37  C   UNL     1     -12.865  10.671  70.798  1.00  0.00    -0.439 C  
ENDBRANCH  34  35
ENDBRANCH  32  34
ENDBRANCH  31  32
ENDBRANCH  30  31
ENDBRANCH  21  30
ENDBRANCH  16  17
ENDBRANCH   1  16
TORSDOF 14
ENDMDL
MODEL       55
REMARK 921   NORMALIZED FREE ENERGY PREDICTED BY IDOCK:   -5.67 KCAL/MOL
REMARK 922        TOTAL FREE ENERGY PREDICTED BY IDOCK:  -12.15 KCAL/MOL
REMARK 923 INTER-LIGAND FREE ENERGY PREDICTED BY IDOCK:  -10.37 KCAL/MOL
REMARK 924 INTRA-LIGAND FREE ENERGY PREDICTED BY IDOCK:   -1.78 KCAL/MOL
REMARK 927      BINDING AFFINITY PREDICTED BY RF-SCORE:    0.00 PKD
ROOT
HETATM    1  C   UNL     1     -11.872  12.823  65.248  1.00  0.00    -0.403 C  
HETATM    2  C   UNL     1     -12.129  12.185  63.884  1.00  0.00    -0.584 C  
ENDROOT
BRANCH   1   3
HETATM    3  C   UNL     1     -10.624  13.694  65.294  1.00  0.00    -0.346 C  
BRANCH   3   4
HETATM    4  N   UNL     1     -10.839  15.114  65.222  1.00  0.00    -0.373 NA 
HETATM    5  C   UNL     1     -10.333  15.980  66.142  1.00  0.00    -0.328 A  
HETATM    6  N   UNL     1      -9.555  18.074  67.580  1.00  0.00    -0.266 NA 
HETATM    7  C   UNL     1     -11.397  15.851  64.215  1.00  0.00    -0.171 A  
HETATM    8  N   UNL     1     -10.466  19.636  66.065  1.00  0.00    -0.520 NA 
HETATM    9  N   UNL     1      -9.668  15.678  67.268  1.00  0.00    -0.218 NA 
HETATM   10  C   UNL     1     -10.214  18.318  66.425  1.00  0.00    -0.403 A  
HETATM   11  N   UNL     1     -11.323  17.140  64.456  1.00  0.00    -0.926 NA 
HETATM   12  C   UNL     1      -9.312  16.791  67.925  1.00  0.00    -0.229 A  
HETATM   13  C   UNL     1     -10.638  17.233  65.649  1.00  0.00    -0.166 A  
HETATM   14  H1  UNL     1     -10.157  20.427  66.630  1.00  0.00     0.000 HD 
HETATM   15  H2  UNL     1     -11.472  19.731  65.927  1.00  0.00     0.000 HD 
ENDBRANCH   3   4
ENDBRANCH   1   3
BRANCH   1  16
HETATM   16  O   UNL     1     -11.897  11.785  66.251  1.00  0.00    -0.501 OA 
BRANCH  16  17
HETATM   17  C   UNL     1     -11.302  12.117  67.530  1.00  0.00    -0.326 C  
HETATM   18  O   UNL     1     -12.526  10.863  69.162  1.00  0.00    -0.409 OA 
HETATM   19  O   UNL     1     -11.107   9.605  67.357  1.00  0.00    -0.183 OA 
HETATM   20  P   UNL     1     -11.109  10.662  68.622  1.00  0.00    -0.283 P  
HETATM   21  O   UNL     1     -10.925   9.286  69.655  1.00  0.00    -0.234 OA 
BRANCH  19  22
HETATM   22  C   UNL     1      -9.883   9.192  66.789  1.00  0.00    -0.226 C  
BRANCH  22  23
HETATM   23  O   UNL     1      -9.872   9.351  65.365  1.00  0.00    -0.270 OA 
BRANCH  23  24
HETATM   24  C   UNL     1      -8.736   9.910  64.879  1.00  0.00    -0.176 C  
HETATM   25  O   UNL     1      -8.645  10.558  63.845  1.00  0.00    -0.171 OA 
BRANCH  24  26
HETATM   26  O   UNL     1      -7.703   9.619  65.714  1.00  0.00    -0.102 OA 
BRANCH  26  27
HETATM   27  C   UNL     1      -6.633  10.589  65.732  1.00  0.00    -0.123 C  
HETATM   28  C   UNL     1      -6.969  11.681  66.742  1.00  0.00    -0.080 C  
HETATM   29  C   UNL     1      -5.330   9.895  66.116  1.00  0.00    -0.044 C  
ENDBRANCH  26  27
ENDBRANCH  24  26
ENDBRANCH  23  24
ENDBRANCH  22  23
ENDBRANCH  19  22
BRANCH  21  30
HETATM   30  C   UNL     1     -10.017   9.515  70.711  1.00  0.00    -0.264 C  
BRANCH  30  31
HETATM   31  O   UNL     1     -10.595   9.213  71.977  1.00  0.00    -0.333 OA 
BRANCH  31  32
HETATM   32  C   UNL     1      -9.953   8.237  72.660  1.00  0.00    -0.287 C  
HETATM   33  O   UNL     1      -8.797   8.288  73.060  1.00  0.00    -0.226 OA 
BRANCH  32  34
HETATM   34  O   UNL     1     -10.829   7.225  72.874  1.00  0.00    -0.278 OA 
BRANCH  34  35
HETATM   35  C   UNL     1     -10.345   5.893  72.614  1.00  0.00    -0.197 C  
HETATM   36  C   UNL     1     -10.430   5.661  71.108  1.00  0.00    -0.306 C  
HETATM   37  C   UNL     1     -11.196   4.863  73.349  1.00  0.00    -0.415 C  
ENDBRANCH  34  35
ENDBRANCH  32  34
ENDBRANCH  31  32
ENDBRANCH  30  31
ENDBRANCH  21  30
ENDBRANCH  16  17
ENDBRANCH   1  16
TORSDOF 14
ENDMDL
MODEL       56
REMARK 921   NORMALIZED FREE ENERGY PREDICTED BY IDOCK:   -5.67 KCAL/MOL
REMARK 922        TOTAL FREE ENERGY PREDICTED BY IDOCK:  -12.15 KCAL/MOL
REMARK 923 INTER-LIGAND FREE ENERGY PREDICTED BY IDOCK:  -10.46 KCAL/MOL
REMARK 924 INTRA-LIGAND FREE ENERGY PREDICTED BY IDOCK:   -1.69 KCAL/MOL
REMARK 927      BINDING AFFINITY PREDICTED BY RF-SCORE:    0.00 PKD
ROOT
HETATM    1  C   UNL     1      -8.392   9.402  64.968  1.00  0.00    -0.150 C  
HETATM    2  C   UNL     1      -7.573   9.847  63.758  1.00  0.00    -0.136 C  
ENDROOT
BRANCH   1   3
HETATM    3  C   UNL     1      -8.445   7.891  65.151  1.00  0.00    -0.079 C  
BRANCH   3   4
HETATM    4  N   UNL     1      -8.177   7.404  66.478  1.00  0.00    -0.116 NA 
HETATM    5  C   UNL     1      -9.156   6.932  67.297  1.00  0.00    -0.124 A  
HETATM    6  N   UNL     1     -10.623   5.872  69.243  1.00  0.00    -0.275 NA 
HETATM    7  C   UNL     1      -6.974   7.169  67.082  1.00  0.00    -0.078 A  
HETATM    8  N   UNL     1      -8.746   5.372  70.582  1.00  0.00    -0.126 NA 
HETATM    9  N   UNL     1     -10.479   6.928  67.071  1.00  0.00    -0.277 NA 
HETATM   10  C   UNL     1      -9.281   5.886  69.407  1.00  0.00    -0.130 A  
HETATM   11  N   UNL     1      -7.123   6.615  68.264  1.00  0.00    -0.080 NA 
HETATM   12  C   UNL     1     -11.137   6.373  68.098  1.00  0.00    -0.263 A  
HETATM   13  C   UNL     1      -8.484   6.442  68.399  1.00  0.00    -0.116 A  
HETATM   14  H1  UNL     1      -9.326   4.967  71.316  1.00  0.00     0.000 HD 
HETATM   15  H2  UNL     1      -8.176   6.103  71.007  1.00  0.00     0.000 HD 
ENDBRANCH   3   4
ENDBRANCH   1   3
BRANCH   1  16
HETATM   16  O   UNL     1      -9.691  10.027  64.896  1.00  0.00    -0.296 OA 
BRANCH  16  17
HETATM   17  C   UNL     1      -9.712  11.408  64.457  1.00  0.00    -0.233 C  
HETATM   18  O   UNL     1     -11.898  11.771  63.549  1.00  0.00    -0.465 OA 
HETATM   19  O   UNL     1     -11.625  11.219  66.094  1.00  0.00    -0.213 OA 
HETATM   20  P   UNL     1     -11.281  12.258  64.862  1.00  0.00    -0.335 P  
HETATM   21  O   UNL     1     -12.764  13.062  65.245  1.00  0.00    -0.541 OA 
BRANCH  19  22
HETATM   22  C   UNL     1     -11.246  11.545  67.414  1.00  0.00    -0.304 C  
BRANCH  22  23
HETATM   23  O   UNL     1     -12.297  11.284  68.353  1.00  0.00    -0.545 OA 
BRANCH  23  24
HETATM   24  C   UNL     1     -11.886  11.242  69.645  1.00  0.00    -0.360 C  
HETATM   25  O   UNL     1     -11.723  12.212  70.374  1.00  0.00    -0.255 OA 
BRANCH  24  26
HETATM   26  O   UNL     1     -11.663   9.949  70.001  1.00  0.00    -0.215 OA 
BRANCH  26  27
HETATM   27  C   UNL     1     -11.173   9.755  71.346  1.00  0.00    -0.298 C  
HETATM   28  C   UNL     1     -12.153   8.871  72.109  1.00  0.00    -0.430 C  
HETATM   29  C   UNL     1      -9.798   9.098  71.291  1.00  0.00    -0.363 C  
ENDBRANCH  26  27
ENDBRANCH  24  26
ENDBRANCH  23  24
ENDBRANCH  22  23
ENDBRANCH  19  22
BRANCH  21  30
HETATM   30  C   UNL     1     -12.654  14.468  65.183  1.00  0.00    -0.238 C  
BRANCH  30  31
HETATM   31  O   UNL     1     -11.321  14.903  65.433  1.00  0.00    -0.343 OA 
BRANCH  31  32
HETATM   32  C   UNL     1     -10.991  16.057  64.808  1.00  0.00    -0.356 C  
HETATM   33  O   UNL     1     -11.564  16.533  63.837  1.00  0.00    -1.175 OA 
BRANCH  32  34
HETATM   34  O   UNL     1      -9.956  16.620  65.481  1.00  0.00    -0.552 OA 
BRANCH  34  35
HETATM   35  C   UNL     1     -10.297  17.632  66.448  1.00  0.00    -0.345 C  
HETATM   36  C   UNL     1      -9.238  18.727  66.358  1.00  0.00    -0.312 C  
HETATM   37  C   UNL     1     -10.319  17.042  67.854  1.00  0.00    -0.338 C  
ENDBRANCH  34  35
ENDBRANCH  32  34
ENDBRANCH  31  32
ENDBRANCH  30  31
ENDBRANCH  21  30
ENDBRANCH  16  17
ENDBRANCH   1  16
TORSDOF 14
ENDMDL
MODEL       57
REMARK 921   NORMALIZED FREE ENERGY PREDICTED BY IDOCK:   -5.66 KCAL/MOL
REMARK 922        TOTAL FREE ENERGY PREDICTED BY IDOCK:  -12.13 KCAL/MOL
REMARK 923 INTER-LIGAND FREE ENERGY PREDICTED BY IDOCK:  -10.64 KCAL/MOL
REMARK 924 INTRA-LIGAND FREE ENERGY PREDICTED BY IDOCK:   -1.50 KCAL/MOL
REMARK 927      BINDING AFFINITY PREDICTED BY RF-SCORE:    0.00 PKD
ROOT
HETATM    1  C   UNL     1     -11.701  13.873  66.226  1.00  0.00    -0.383 C  
HETATM    2  C   UNL     1     -12.486  13.568  64.952  1.00  0.00    -0.429 C  
ENDROOT
BRANCH   1   3
HETATM    3  C   UNL     1     -10.550  14.849  66.020  1.00  0.00    -0.315 C  
BRANCH   3   4
HETATM    4  N   UNL     1     -10.373  15.844  67.043  1.00  0.00    -0.292 NA 
HETATM    5  C   UNL     1     -10.421  17.179  66.782  1.00  0.00    -0.263 A  
HETATM    6  N   UNL     1     -10.476  19.835  66.850  1.00  0.00    -0.457 NA 
HETATM    7  C   UNL     1     -10.302  15.683  68.398  1.00  0.00    -0.231 A  
HETATM    8  N   UNL     1     -10.301  19.923  69.201  1.00  0.00    -0.600 NA 
HETATM    9  N   UNL     1     -10.532  17.774  65.584  1.00  0.00    -0.628 NA 
HETATM   10  C   UNL     1     -10.383  19.181  68.029  1.00  0.00    -0.393 A  
HETATM   11  N   UNL     1     -10.253  16.837  69.024  1.00  0.00    -0.292 NA 
HETATM   12  C   UNL     1     -10.557  19.108  65.714  1.00  0.00    -0.341 A  
HETATM   13  C   UNL     1     -10.349  17.781  68.023  1.00  0.00    -0.393 A  
HETATM   14  H1  UNL     1     -10.326  20.942  69.206  1.00  0.00     0.000 HD 
HETATM   15  H2  UNL     1      -9.454  19.633  69.691  1.00  0.00     0.000 HD 
ENDBRANCH   3   4
ENDBRANCH   1   3
BRANCH   1  16
HETATM   16  O   UNL     1     -11.305  12.622  66.829  1.00  0.00    -0.285 OA 
BRANCH  16  17
HETATM   17  C   UNL     1     -11.242  12.603  68.277  1.00  0.00    -0.272 C  
HETATM   18  O   UNL     1     -12.529  10.703  68.960  1.00  0.00    -0.311 OA 
HETATM   19  O   UNL     1     -10.345  10.355  67.558  1.00  0.00    -0.197 OA 
HETATM   20  P   UNL     1     -11.014  10.919  68.954  1.00  0.00    -0.274 P  
HETATM   21  O   UNL     1     -10.798   9.327  69.596  1.00  0.00    -0.232 OA 
BRANCH  19  22
HETATM   22  C   UNL     1      -8.942  10.353  67.403  1.00  0.00    -0.135 C  
BRANCH  22  23
HETATM   23  O   UNL     1      -8.494   9.257  66.596  1.00  0.00    -0.124 OA 
BRANCH  23  24
HETATM   24  C   UNL     1      -8.475   8.065  67.244  1.00  0.00    -0.125 C  
HETATM   25  O   UNL     1      -8.156   7.893  68.413  1.00  0.00    -0.120 OA 
BRANCH  24  26
HETATM   26  O   UNL     1      -8.847   7.082  66.382  1.00  0.00    -0.135 OA 
BRANCH  26  27
HETATM   27  C   UNL     1      -9.694   6.056  66.945  1.00  0.00    -0.148 C  
HETATM   28  C   UNL     1     -11.068   6.650  67.236  1.00  0.00    -0.418 C  
HETATM   29  C   UNL     1      -9.814   4.902  65.955  1.00  0.00    -0.208 C  
ENDBRANCH  26  27
ENDBRANCH  24  26
ENDBRANCH  23  24
ENDBRANCH  22  23
ENDBRANCH  19  22
BRANCH  21  30
HETATM   30  C   UNL     1     -10.352   9.334  70.935  1.00  0.00    -0.296 C  
BRANCH  30  31
HETATM   31  O   UNL     1     -11.434   9.480  71.850  1.00  0.00    -0.355 OA 
BRANCH  31  32
HETATM   32  C   UNL     1     -12.184   8.364  72.001  1.00  0.00    -0.362 C  
HETATM   33  O   UNL     1     -13.356   8.240  71.671  1.00  0.00    -0.333 OA 
BRANCH  32  34
HETATM   34  O   UNL     1     -11.394   7.393  72.523  1.00  0.00    -0.284 OA 
BRANCH  34  35
HETATM   35  C   UNL     1     -11.602   6.059  72.020  1.00  0.00    -0.276 C  
HETATM   36  C   UNL     1     -11.288   5.087  73.153  1.00  0.00    -0.397 C  
HETATM   37  C   UNL     1     -10.684   5.788  70.832  1.00  0.00    -0.333 C  
ENDBRANCH  34  35
ENDBRANCH  32  34
ENDBRANCH  31  32
ENDBRANCH  30  31
ENDBRANCH  21  30
ENDBRANCH  16  17
ENDBRANCH   1  16
TORSDOF 14
ENDMDL
MODEL       58
REMARK 921   NORMALIZED FREE ENERGY PREDICTED BY IDOCK:   -5.65 KCAL/MOL
REMARK 922        TOTAL FREE ENERGY PREDICTED BY IDOCK:  -12.11 KCAL/MOL
REMARK 923 INTER-LIGAND FREE ENERGY PREDICTED BY IDOCK:  -10.55 KCAL/MOL
REMARK 924 INTRA-LIGAND FREE ENERGY PREDICTED BY IDOCK:   -1.57 KCAL/MOL
REMARK 927      BINDING AFFINITY PREDICTED BY RF-SCORE:    0.00 PKD
ROOT
HETATM    1  C   UNL     1     -11.276  15.265  69.370  1.00  0.00    -0.285 C  
HETATM    2  C   UNL     1     -11.362  15.834  70.785  1.00  0.00    -0.419 C  
ENDROOT
BRANCH   1   3
HETATM    3  C   UNL     1     -11.597  16.278  68.280  1.00  0.00    -0.118 C  
BRANCH   3   4
HETATM    4  N   UNL     1     -10.519  16.611  67.388  1.00  0.00    -0.315 NA 
HETATM    5  C   UNL     1      -9.971  17.856  67.332  1.00  0.00    -0.325 A  
HETATM    6  N   UNL     1      -8.524  20.034  66.862  1.00  0.00    -0.317 NA 
HETATM    7  C   UNL     1      -9.764  15.785  66.604  1.00  0.00    -0.249 A  
HETATM    8  N   UNL     1      -7.054  18.917  65.394  1.00  0.00    -0.503 NA 
HETATM    9  N   UNL     1     -10.377  18.957  67.983  1.00  0.00    -0.391 NA 
HETATM   10  C   UNL     1      -8.150  18.890  66.247  1.00  0.00    -0.269 A  
HETATM   11  N   UNL     1      -8.790  16.434  66.008  1.00  0.00    -0.442 NA 
HETATM   12  C   UNL     1      -9.590  20.002  67.692  1.00  0.00    -0.389 A  
HETATM   13  C   UNL     1      -8.896  17.728  66.474  1.00  0.00    -0.262 A  
HETATM   14  H1  UNL     1      -6.510  19.763  65.228  1.00  0.00     0.000 HD 
HETATM   15  H2  UNL     1      -7.360  18.566  64.487  1.00  0.00     0.000 HD 
ENDBRANCH   3   4
ENDBRANCH   1   3
BRANCH   1  16
HETATM   16  O   UNL     1     -12.080  14.067  69.309  1.00  0.00    -0.333 OA 
BRANCH  16  17
HETATM   17  C   UNL     1     -11.848  13.199  68.173  1.00  0.00    -0.348 C  
HETATM   18  O   UNL     1      -9.669  12.262  68.502  1.00  0.00    -0.203 OA 
HETATM   19  O   UNL     1     -11.589  11.707  70.193  1.00  0.00    -0.289 OA 
HETATM   20  P   UNL     1     -11.050  11.619  68.639  1.00  0.00    -0.283 P  
HETATM   21  O   UNL     1     -10.297  10.125  69.078  1.00  0.00    -0.188 OA 
BRANCH  19  22
HETATM   22  C   UNL     1     -12.794  11.067  70.556  1.00  0.00    -0.174 C  
BRANCH  22  23
HETATM   23  O   UNL     1     -12.722  10.493  71.866  1.00  0.00    -0.419 OA 
BRANCH  23  24
HETATM   24  C   UNL     1     -13.295   9.267  71.965  1.00  0.00    -0.450 C  
HETATM   25  O   UNL     1     -14.277   8.991  72.640  1.00  0.00    -0.574 OA 
BRANCH  24  26
HETATM   26  O   UNL     1     -12.591   8.383  71.209  1.00  0.00    -0.292 OA 
BRANCH  26  27
HETATM   27  C   UNL     1     -12.033   7.262  71.929  1.00  0.00    -0.306 C  
HETATM   28  C   UNL     1     -11.368   6.315  70.937  1.00  0.00    -0.389 C  
HETATM   29  C   UNL     1     -11.012   7.772  72.942  1.00  0.00    -0.467 C  
ENDBRANCH  26  27
ENDBRANCH  24  26
ENDBRANCH  23  24
ENDBRANCH  22  23
ENDBRANCH  19  22
BRANCH  21  30
HETATM   30  C   UNL     1     -10.420   9.137  68.077  1.00  0.00    -0.224 C  
BRANCH  30  31
HETATM   31  O   UNL     1      -9.540   9.382  66.985  1.00  0.00    -0.145 OA 
BRANCH  31  32
HETATM   32  C   UNL     1      -9.281   8.290  66.228  1.00  0.00    -0.203 C  
HETATM   33  O   UNL     1      -8.454   8.223  65.329  1.00  0.00    -0.166 OA 
BRANCH  32  34
HETATM   34  O   UNL     1     -10.053   7.271  66.682  1.00  0.00    -0.217 OA 
BRANCH  34  35
HETATM   35  C   UNL     1      -9.495   5.947  66.570  1.00  0.00    -0.155 C  
HETATM   36  C   UNL     1     -10.643   4.990  66.262  1.00  0.00    -0.332 C  
HETATM   37  C   UNL     1      -8.816   5.542  67.874  1.00  0.00    -0.105 C  
ENDBRANCH  34  35
ENDBRANCH  32  34
ENDBRANCH  31  32
ENDBRANCH  30  31
ENDBRANCH  21  30
ENDBRANCH  16  17
ENDBRANCH   1  16
TORSDOF 14
ENDMDL
MODEL       59
REMARK 921   NORMALIZED FREE ENERGY PREDICTED BY IDOCK:   -5.64 KCAL/MOL
REMARK 922        TOTAL FREE ENERGY PREDICTED BY IDOCK:  -12.11 KCAL/MOL
REMARK 923 INTER-LIGAND FREE ENERGY PREDICTED BY IDOCK:  -10.12 KCAL/MOL
REMARK 924 INTRA-LIGAND FREE ENERGY PREDICTED BY IDOCK:   -1.99 KCAL/MOL
REMARK 927      BINDING AFFINITY PREDICTED BY RF-SCORE:    0.00 PKD
ROOT
HETATM    1  C   UNL     1      -9.840   7.994  66.829  1.00  0.00    -0.257 C  
HETATM    2  C   UNL     1      -8.743   7.662  65.820  1.00  0.00    -0.151 C  
ENDROOT
BRANCH   1   3
HETATM    3  C   UNL     1     -10.782   6.832  67.117  1.00  0.00    -0.371 C  
BRANCH   3   4
HETATM    4  N   UNL     1     -10.333   5.882  68.099  1.00  0.00    -0.188 NA 
HETATM    5  C   UNL     1     -10.594   6.021  69.428  1.00  0.00    -0.298 A  
HETATM    6  N   UNL     1     -10.863   5.768  72.059  1.00  0.00    -0.243 NA 
HETATM    7  C   UNL     1      -9.753   4.659  67.912  1.00  0.00    -0.143 A  
HETATM    8  N   UNL     1      -9.844   3.641  72.104  1.00  0.00    -0.162 NA 
HETATM    9  N   UNL     1     -11.193   7.056  70.038  1.00  0.00    -0.280 NA 
HETATM   10  C   UNL     1     -10.284   4.748  71.388  1.00  0.00    -0.166 A  
HETATM   11  N   UNL     1      -9.582   4.021  69.048  1.00  0.00    -0.173 NA 
HETATM   12  C   UNL     1     -11.291   6.841  71.357  1.00  0.00    -0.279 A  
HETATM   13  C   UNL     1     -10.127   4.856  70.002  1.00  0.00    -0.266 A  
HETATM   14  H1  UNL     1      -9.958   3.562  73.114  1.00  0.00     0.000 HD 
HETATM   15  H2  UNL     1      -8.854   3.513  71.896  1.00  0.00     0.000 HD 
ENDBRANCH   3   4
ENDBRANCH   1   3
BRANCH   1  16
HETATM   16  O   UNL     1     -10.512   9.196  66.396  1.00  0.00    -0.213 OA 
BRANCH  16  17
HETATM   17  C   UNL     1      -9.675  10.215  65.796  1.00  0.00    -0.245 C  
HETATM   18  O   UNL     1     -10.986  11.188  64.045  1.00  0.00    -0.364 OA 
HETATM   19  O   UNL     1     -11.756  11.438  66.535  1.00  0.00    -0.388 OA 
HETATM   20  P   UNL     1     -10.591  11.751  65.412  1.00  0.00    -0.292 P  
HETATM   21  O   UNL     1     -11.457  13.204  65.048  1.00  0.00    -0.298 OA 
BRANCH  19  22
HETATM   22  C   UNL     1     -11.639  11.975  67.835  1.00  0.00    -0.337 C  
BRANCH  22  23
HETATM   23  O   UNL     1     -12.056  11.042  68.839  1.00  0.00    -0.479 OA 
BRANCH  23  24
HETATM   24  C   UNL     1     -11.065  10.653  69.678  1.00  0.00    -0.284 C  
HETATM   25  O   UNL     1      -9.877  10.578  69.393  1.00  0.00    -0.221 OA 
BRANCH  24  26
HETATM   26  O   UNL     1     -11.601  10.338  70.887  1.00  0.00    -0.337 OA 
BRANCH  26  27
HETATM   27  C   UNL     1     -13.004  10.649  71.039  1.00  0.00    -0.363 C  
HETATM   28  C   UNL     1     -13.700   9.479  71.726  1.00  0.00    -0.385 C  
HETATM   29  C   UNL     1     -13.152  11.917  71.872  1.00  0.00    -0.474 C  
ENDBRANCH  26  27
ENDBRANCH  24  26
ENDBRANCH  23  24
ENDBRANCH  22  23
ENDBRANCH  19  22
BRANCH  21  30
HETATM   30  C   UNL     1     -10.605  14.309  64.837  1.00  0.00    -0.431 C  
BRANCH  30  31
HETATM   31  O   UNL     1     -11.072  15.471  65.514  1.00  0.00    -0.320 OA 
BRANCH  31  32
HETATM   32  C   UNL     1     -10.682  15.552  66.808  1.00  0.00    -0.305 C  
HETATM   33  O   UNL     1     -11.402  15.378  67.783  1.00  0.00    -0.328 OA 
BRANCH  32  34
HETATM   34  O   UNL     1      -9.348  15.795  66.831  1.00  0.00    -0.212 OA 
BRANCH  34  35
HETATM   35  C   UNL     1      -8.948  17.176  66.728  1.00  0.00    -0.241 C  
HETATM   36  C   UNL     1      -7.500  17.198  66.247  1.00  0.00    -0.344 C  
HETATM   37  C   UNL     1      -9.057  17.866  68.083  1.00  0.00    -0.278 C  
ENDBRANCH  34  35
ENDBRANCH  32  34
ENDBRANCH  31  32
ENDBRANCH  30  31
ENDBRANCH  21  30
ENDBRANCH  16  17
ENDBRANCH   1  16
TORSDOF 14
ENDMDL
MODEL       60
REMARK 921   NORMALIZED FREE ENERGY PREDICTED BY IDOCK:   -5.59 KCAL/MOL
REMARK 922        TOTAL FREE ENERGY PREDICTED BY IDOCK:  -12.01 KCAL/MOL
REMARK 923 INTER-LIGAND FREE ENERGY PREDICTED BY IDOCK:  -10.20 KCAL/MOL
REMARK 924 INTRA-LIGAND FREE ENERGY PREDICTED BY IDOCK:   -1.81 KCAL/MOL
REMARK 927      BINDING AFFINITY PREDICTED BY RF-SCORE:    0.00 PKD
ROOT
HETATM    1  C   UNL     1     -11.346  11.636  69.464  1.00  0.00    -0.260 C  
HETATM    2  C   UNL     1     -12.423  11.226  70.467  1.00  0.00    -0.398 C  
ENDROOT
BRANCH   1   3
HETATM    3  C   UNL     1     -11.815  11.613  68.015  1.00  0.00    -0.225 C  
BRANCH   3   4
HETATM    4  N   UNL     1     -11.678  12.845  67.286  1.00  0.00    -0.362 NA 
HETATM    5  C   UNL     1     -11.982  12.953  65.964  1.00  0.00    -0.446 A  
HETATM    6  N   UNL     1     -12.474  13.726  63.470  1.00  0.00    -0.813 NA 
HETATM    7  C   UNL     1     -11.406  14.099  67.758  1.00  0.00    -0.306 A  
HETATM    8  N   UNL     1     -12.013  15.994  63.929  1.00  0.00    -1.309 NA 
HETATM    9  N   UNL     1     -12.346  11.968  65.127  1.00  0.00    -0.374 NA 
HETATM   10  C   UNL     1     -12.121  14.678  64.362  1.00  0.00    -0.462 A  
HETATM   11  N   UNL     1     -11.471  15.002  66.806  1.00  0.00    -0.300 NA 
HETATM   12  C   UNL     1     -12.578  12.449  63.898  1.00  0.00    -0.427 A  
HETATM   13  C   UNL     1     -11.853  14.298  65.683  1.00  0.00    -0.373 A  
HETATM   14  H1  UNL     1     -12.209  16.271  62.968  1.00  0.00     0.000 HD 
HETATM   15  H2  UNL     1     -11.074  16.319  64.159  1.00  0.00     0.000 HD 
ENDBRANCH   3   4
ENDBRANCH   1   3
BRANCH   1  16
HETATM   16  O   UNL     1     -10.168  10.839  69.709  1.00  0.00    -0.144 OA 
BRANCH  16  17
HETATM   17  C   UNL     1      -9.193  10.793  68.638  1.00  0.00    -0.184 C  
HETATM   18  O   UNL     1      -7.216   9.839  69.595  1.00  0.00    -0.073 OA 
HETATM   19  O   UNL     1      -9.400   8.404  69.427  1.00  0.00    -0.153 OA 
HETATM   20  P   UNL     1      -8.230   9.238  68.620  1.00  0.00    -0.115 P  
HETATM   21  O   UNL     1      -7.320   7.767  68.601  1.00  0.00    -0.083 OA 
BRANCH  19  22
HETATM   22  C   UNL     1     -10.367   7.674  68.704  1.00  0.00    -0.200 C  
BRANCH  22  23
HETATM   23  O   UNL     1     -10.296   6.270  68.982  1.00  0.00    -0.172 OA 
BRANCH  23  24
HETATM   24  C   UNL     1     -10.894   5.906  70.145  1.00  0.00    -0.332 C  
HETATM   25  O   UNL     1     -10.445   5.109  70.958  1.00  0.00    -0.221 OA 
BRANCH  24  26
HETATM   26  O   UNL     1     -12.084   6.552  70.257  1.00  0.00    -0.348 OA 
BRANCH  26  27
HETATM   27  C   UNL     1     -12.510   6.830  71.609  1.00  0.00    -0.351 C  
HETATM   28  C   UNL     1     -11.678   7.982  72.164  1.00  0.00    -0.399 C  
HETATM   29  C   UNL     1     -13.990   7.199  71.606  1.00  0.00    -0.438 C  
ENDBRANCH  26  27
ENDBRANCH  24  26
ENDBRANCH  23  24
ENDBRANCH  22  23
ENDBRANCH  19  22
BRANCH  21  30
HETATM   30  C   UNL     1      -6.665   7.546  67.370  1.00  0.00    -0.067 C  
BRANCH  30  31
HETATM   31  O   UNL     1      -6.932   6.244  66.858  1.00  0.00    -0.067 OA 
BRANCH  31  32
HETATM   32  C   UNL     1      -7.869   6.215  65.883  1.00  0.00    -0.107 C  
HETATM   33  O   UNL     1      -8.538   7.169  65.506  1.00  0.00    -0.146 OA 
BRANCH  32  34
HETATM   34  O   UNL     1      -7.893   4.965  65.358  1.00  0.00    -0.088 OA 
BRANCH  34  35
HETATM   35  C   UNL     1      -9.177   4.311  65.320  1.00  0.00    -0.153 C  
HETATM   36  C   UNL     1      -9.029   2.969  66.031  1.00  0.00    -0.147 C  
HETATM   37  C   UNL     1      -9.621   4.090  63.877  1.00  0.00    -0.157 C  
ENDBRANCH  34  35
ENDBRANCH  32  34
ENDBRANCH  31  32
ENDBRANCH  30  31
ENDBRANCH  21  30
ENDBRANCH  16  17
ENDBRANCH   1  16
TORSDOF 14
ENDMDL
MODEL       61
REMARK 921   NORMALIZED FREE ENERGY PREDICTED BY IDOCK:   -5.58 KCAL/MOL
REMARK 922        TOTAL FREE ENERGY PREDICTED BY IDOCK:  -11.99 KCAL/MOL
REMARK 923 INTER-LIGAND FREE ENERGY PREDICTED BY IDOCK:   -9.72 KCAL/MOL
REMARK 924 INTRA-LIGAND FREE ENERGY PREDICTED BY IDOCK:   -2.27 KCAL/MOL
REMARK 927      BINDING AFFINITY PREDICTED BY RF-SCORE:    0.00 PKD
ROOT
HETATM    1  C   UNL     1     -12.114   9.919  70.886  1.00  0.00    -0.341 C  
HETATM    2  C   UNL     1     -13.229  10.327  71.846  1.00  0.00    -0.550 C  
ENDROOT
BRANCH   1   3
HETATM    3  C   UNL     1     -11.160   8.879  71.460  1.00  0.00    -0.326 C  
BRANCH   3   4
HETATM    4  N   UNL     1     -10.047   8.513  70.627  1.00  0.00    -0.188 NA 
HETATM    5  C   UNL     1     -10.124   7.531  69.688  1.00  0.00    -0.189 A  
HETATM    6  N   UNL     1      -9.743   5.791  67.716  1.00  0.00    -0.115 NA 
HETATM    7  C   UNL     1      -8.836   9.132  70.487  1.00  0.00    -0.224 A  
HETATM    8  N   UNL     1      -7.572   6.585  67.242  1.00  0.00    -0.095 NA 
HETATM    9  N   UNL     1     -11.157   6.706  69.453  1.00  0.00    -0.306 NA 
HETATM   10  C   UNL     1      -8.743   6.660  67.986  1.00  0.00    -0.117 A  
HETATM   11  N   UNL     1      -8.110   8.575  69.545  1.00  0.00    -0.109 NA 
HETATM   12  C   UNL     1     -10.879   5.870  68.443  1.00  0.00    -0.240 A  
HETATM   13  C   UNL     1      -8.916   7.585  69.022  1.00  0.00    -0.131 A  
HETATM   14  H1  UNL     1      -7.446   5.911  66.487  1.00  0.00     0.000 HD 
HETATM   15  H2  UNL     1      -6.798   6.464  67.895  1.00  0.00     0.000 HD 
ENDBRANCH   3   4
ENDBRANCH   1   3
BRANCH   1  16
HETATM   16  O   UNL     1     -11.457  11.114  70.413  1.00  0.00    -0.290 OA 
BRANCH  16  17
HETATM   17  C   UNL     1     -12.271  12.023  69.631  1.00  0.00    -0.139 C  
HETATM   18  O   UNL     1     -10.956  14.006  69.359  1.00  0.00    -0.231 OA 
HETATM   19  O   UNL     1     -10.142  11.753  68.301  1.00  0.00    -0.186 OA 
HETATM   20  P   UNL     1     -11.313  12.911  68.351  1.00  0.00    -0.343 P  
HETATM   21  O   UNL     1     -10.407  13.752  67.139  1.00  0.00    -0.258 OA 
BRANCH  19  22
HETATM   22  C   UNL     1     -10.222  10.714  67.350  1.00  0.00    -0.204 C  
BRANCH  22  23
HETATM   23  O   UNL     1      -8.962  10.472  66.713  1.00  0.00    -0.136 OA 
BRANCH  23  24
HETATM   24  C   UNL     1      -9.045   9.710  65.593  1.00  0.00    -0.189 C  
HETATM   25  O   UNL     1      -8.259   8.830  65.270  1.00  0.00    -0.127 OA 
BRANCH  24  26
HETATM   26  O   UNL     1     -10.131  10.094  64.872  1.00  0.00    -0.330 OA 
BRANCH  26  27
HETATM   27  C   UNL     1      -9.867  11.045  63.818  1.00  0.00    -0.330 C  
HETATM   28  C   UNL     1      -9.350  10.298  62.593  1.00  0.00    -0.335 C  
HETATM   29  C   UNL     1     -11.153  11.793  63.479  1.00  0.00    -0.503 C  
ENDBRANCH  26  27
ENDBRANCH  24  26
ENDBRANCH  23  24
ENDBRANCH  22  23
ENDBRANCH  19  22
BRANCH  21  30
HETATM   30  C   UNL     1     -11.228  14.324  66.144  1.00  0.00    -0.331 C  
BRANCH  30  31
HETATM   31  O   UNL     1     -10.474  15.113  65.229  1.00  0.00    -0.353 OA 
BRANCH  31  32
HETATM   32  C   UNL     1     -10.897  16.394  65.124  1.00  0.00    -0.275 C  
HETATM   33  O   UNL     1     -11.492  16.874  64.169  1.00  0.00    -1.174 OA 
BRANCH  32  34
HETATM   34  O   UNL     1     -10.600  17.031  66.284  1.00  0.00    -0.282 OA 
BRANCH  34  35
HETATM   35  C   UNL     1      -9.208  17.319  66.518  1.00  0.00    -0.261 C  
HETATM   36  C   UNL     1      -8.869  16.832  67.924  1.00  0.00    -0.218 C  
HETATM   37  C   UNL     1      -8.947  18.818  66.409  1.00  0.00    -0.296 C  
ENDBRANCH  34  35
ENDBRANCH  32  34
ENDBRANCH  31  32
ENDBRANCH  30  31
ENDBRANCH  21  30
ENDBRANCH  16  17
ENDBRANCH   1  16
TORSDOF 14
ENDMDL
MODEL       62
REMARK 921   NORMALIZED FREE ENERGY PREDICTED BY IDOCK:   -5.58 KCAL/MOL
REMARK 922        TOTAL FREE ENERGY PREDICTED BY IDOCK:  -11.98 KCAL/MOL
REMARK 923 INTER-LIGAND FREE ENERGY PREDICTED BY IDOCK:  -10.27 KCAL/MOL
REMARK 924 INTRA-LIGAND FREE ENERGY PREDICTED BY IDOCK:   -1.71 KCAL/MOL
REMARK 927      BINDING AFFINITY PREDICTED BY RF-SCORE:    0.00 PKD
ROOT
HETATM    1  C   UNL     1     -10.969  12.873  64.997  1.00  0.00    -0.297 C  
HETATM    2  C   UNL     1     -12.131  12.586  64.048  1.00  0.00    -0.557 C  
ENDROOT
BRANCH   1   3
HETATM    3  C   UNL     1     -10.457  14.306  64.924  1.00  0.00    -0.430 C  
BRANCH   3   4
HETATM    4  N   UNL     1     -10.301  14.987  66.181  1.00  0.00    -0.285 NA 
HETATM    5  C   UNL     1     -10.400  16.339  66.300  1.00  0.00    -0.326 A  
HETATM    6  N   UNL     1     -10.549  18.868  67.099  1.00  0.00    -0.444 NA 
HETATM    7  C   UNL     1     -10.204  14.461  67.439  1.00  0.00    -0.247 A  
HETATM    8  N   UNL     1     -10.343  18.311  69.382  1.00  0.00    -0.308 NA 
HETATM    9  N   UNL     1     -10.550  17.236  65.314  1.00  0.00    -0.657 NA 
HETATM   10  C   UNL     1     -10.416  17.918  68.051  1.00  0.00    -0.382 A  
HETATM   11  N   UNL     1     -10.187  15.398  68.359  1.00  0.00    -0.219 NA 
HETATM   12  C   UNL     1     -10.621  18.480  65.807  1.00  0.00    -0.231 A  
HETATM   13  C   UNL     1     -10.332  16.577  67.659  1.00  0.00    -0.291 A  
HETATM   14  H1  UNL     1     -10.405  19.287  69.669  1.00  0.00     0.000 HD 
HETATM   15  H2  UNL     1      -9.480  17.930  69.769  1.00  0.00     0.000 HD 
ENDBRANCH   3   4
ENDBRANCH   1   3
BRANCH   1  16
HETATM   16  O   UNL     1      -9.947  11.876  64.783  1.00  0.00    -0.253 OA 
BRANCH  16  17
HETATM   17  C   UNL     1     -10.374  10.494  64.870  1.00  0.00    -0.237 C  
HETATM   18  O   UNL     1      -8.389   9.181  64.609  1.00  0.00    -0.153 OA 
HETATM   19  O   UNL     1      -8.640  10.753  66.688  1.00  0.00    -0.135 OA 
HETATM   20  P   UNL     1      -9.231   9.459  65.855  1.00  0.00    -0.249 P  
HETATM   21  O   UNL     1      -8.152   8.480  66.787  1.00  0.00    -0.097 OA 
BRANCH  19  22
HETATM   22  C   UNL     1      -9.205  11.104  67.932  1.00  0.00    -0.154 C  
BRANCH  22  23
HETATM   23  O   UNL     1     -10.323  10.272  68.267  1.00  0.00    -0.165 OA 
BRANCH  23  24
HETATM   24  C   UNL     1     -11.421  10.958  68.673  1.00  0.00    -0.311 C  
HETATM   25  O   UNL     1     -12.277  11.433  67.940  1.00  0.00    -0.592 OA 
BRANCH  24  26
HETATM   26  O   UNL     1     -11.411  11.053  70.029  1.00  0.00    -0.285 OA 
BRANCH  26  27
HETATM   27  C   UNL     1     -12.353  10.199  70.714  1.00  0.00    -0.328 C  
HETATM   28  C   UNL     1     -11.596   9.047  71.366  1.00  0.00    -0.396 C  
HETATM   29  C   UNL     1     -13.094  11.011  71.771  1.00  0.00    -0.554 C  
ENDBRANCH  26  27
ENDBRANCH  24  26
ENDBRANCH  23  24
ENDBRANCH  22  23
ENDBRANCH  19  22
BRANCH  21  30
HETATM   30  C   UNL     1      -8.737   7.264  67.201  1.00  0.00    -0.121 C  
BRANCH  30  31
HETATM   31  O   UNL     1      -9.916   6.968  66.457  1.00  0.00    -0.174 OA 
BRANCH  31  32
HETATM   32  C   UNL     1     -10.648   5.949  66.965  1.00  0.00    -0.305 C  
HETATM   33  O   UNL     1     -11.124   5.904  68.092  1.00  0.00    -0.251 OA 
BRANCH  32  34
HETATM   34  O   UNL     1     -10.811   5.021  65.990  1.00  0.00    -0.283 OA 
BRANCH  34  35
HETATM   35  C   UNL     1      -9.637   4.278  65.610  1.00  0.00    -0.189 C  
HETATM   36  C   UNL     1      -9.988   3.471  64.363  1.00  0.00    -0.185 C  
HETATM   37  C   UNL     1      -9.212   3.340  66.735  1.00  0.00    -0.187 C  
ENDBRANCH  34  35
ENDBRANCH  32  34
ENDBRANCH  31  32
ENDBRANCH  30  31
ENDBRANCH  21  30
ENDBRANCH  16  17
ENDBRANCH   1  16
TORSDOF 14
ENDMDL
MODEL       63
REMARK 921   NORMALIZED FREE ENERGY PREDICTED BY IDOCK:   -5.57 KCAL/MOL
REMARK 922        TOTAL FREE ENERGY PREDICTED BY IDOCK:  -11.96 KCAL/MOL
REMARK 923 INTER-LIGAND FREE ENERGY PREDICTED BY IDOCK:  -10.25 KCAL/MOL
REMARK 924 INTRA-LIGAND FREE ENERGY PREDICTED BY IDOCK:   -1.71 KCAL/MOL
REMARK 927      BINDING AFFINITY PREDICTED BY RF-SCORE:    0.00 PKD
ROOT
HETATM    1  C   UNL     1      -9.923   8.835  66.722  1.00  0.00    -0.268 C  
HETATM    2  C   UNL     1     -10.830   7.680  67.142  1.00  0.00    -0.258 C  
ENDROOT
BRANCH   1   3
HETATM    3  C   UNL     1      -8.833   9.160  67.735  1.00  0.00    -0.124 C  
BRANCH   3   4
HETATM    4  N   UNL     1      -9.218   9.100  69.120  1.00  0.00    -0.143 NA 
HETATM    5  C   UNL     1      -8.495   8.423  70.053  1.00  0.00    -0.125 A  
HETATM    6  N   UNL     1      -7.461   7.338  72.247  1.00  0.00    -0.082 NA 
HETATM    7  C   UNL     1     -10.202   9.790  69.770  1.00  0.00    -0.242 A  
HETATM    8  N   UNL     1      -9.058   8.336  73.668  1.00  0.00    -0.196 NA 
HETATM    9  N   UNL     1      -7.416   7.652  69.849  1.00  0.00    -0.081 NA 
HETATM   10  C   UNL     1      -8.539   8.140  72.394  1.00  0.00    -0.185 A  
HETATM   11  N   UNL     1     -10.186   9.560  71.063  1.00  0.00    -0.292 NA 
HETATM   12  C   UNL     1      -6.960   7.153  71.006  1.00  0.00    -0.061 A  
HETATM   13  C   UNL     1      -9.106   8.723  71.255  1.00  0.00    -0.234 A  
HETATM   14  H1  UNL     1      -8.645   7.912  74.498  1.00  0.00     0.000 HD 
HETATM   15  H2  UNL     1     -10.042   8.070  73.644  1.00  0.00     0.000 HD 
ENDBRANCH   3   4
ENDBRANCH   1   3
BRANCH   1  16
HETATM   16  O   UNL     1     -10.752   9.964  66.374  1.00  0.00    -0.099 OA 
BRANCH  16  17
HETATM   17  C   UNL     1     -10.092  11.053  65.683  1.00  0.00    -0.256 C  
HETATM   18  O   UNL     1     -11.790  12.119  64.373  1.00  0.00    -0.363 OA 
HETATM   19  O   UNL     1     -11.958  12.148  66.986  1.00  0.00    -0.593 OA 
HETATM   20  P   UNL     1     -11.093  12.585  65.653  1.00  0.00    -0.330 P  
HETATM   21  O   UNL     1     -12.038  14.033  65.625  1.00  0.00    -0.375 OA 
BRANCH  19  22
HETATM   22  C   UNL     1     -11.546  12.584  68.264  1.00  0.00    -0.328 C  
BRANCH  22  23
HETATM   23  O   UNL     1     -12.530  13.417  68.888  1.00  0.00    -0.080 OA 
BRANCH  23  24
HETATM   24  C   UNL     1     -12.016  14.506  69.514  1.00  0.00    -0.319 C  
HETATM   25  O   UNL     1     -11.545  15.491  68.962  1.00  0.00    -0.322 OA 
BRANCH  24  26
HETATM   26  O   UNL     1     -12.088  14.321  70.859  1.00  0.00    -0.320 OA 
BRANCH  26  27
HETATM   27  C   UNL     1     -13.425  14.221  71.397  1.00  0.00    -0.330 C  
HETATM   28  C   UNL     1     -13.512  12.982  72.282  1.00  0.00    -0.645 C  
HETATM   29  C   UNL     1     -13.738  15.474  72.208  1.00  0.00    -0.633 C  
ENDBRANCH  26  27
ENDBRANCH  24  26
ENDBRANCH  23  24
ENDBRANCH  22  23
ENDBRANCH  19  22
BRANCH  21  30
HETATM   30  C   UNL     1     -11.273  15.178  65.315  1.00  0.00    -0.358 C  
BRANCH  30  31
HETATM   31  O   UNL     1     -10.080  15.240  66.090  1.00  0.00    -0.262 OA 
BRANCH  31  32
HETATM   32  C   UNL     1      -9.475  16.450  66.078  1.00  0.00    -0.310 C  
HETATM   33  O   UNL     1      -8.327  16.672  65.716  1.00  0.00    -0.391 OA 
BRANCH  32  34
HETATM   34  O   UNL     1     -10.380  17.378  66.478  1.00  0.00    -0.325 OA 
BRANCH  34  35
HETATM   35  C   UNL     1      -9.863  18.690  66.773  1.00  0.00    -0.341 C  
HETATM   36  C   UNL     1     -10.287  19.040  68.197  1.00  0.00    -0.446 C  
HETATM   37  C   UNL     1     -10.426  19.717  65.795  1.00  0.00    -0.540 C  
ENDBRANCH  34  35
ENDBRANCH  32  34
ENDBRANCH  31  32
ENDBRANCH  30  31
ENDBRANCH  21  30
ENDBRANCH  16  17
ENDBRANCH   1  16
TORSDOF 14
ENDMDL
MODEL       64
REMARK 921   NORMALIZED FREE ENERGY PREDICTED BY IDOCK:   -5.56 KCAL/MOL
REMARK 922        TOTAL FREE ENERGY PREDICTED BY IDOCK:  -11.95 KCAL/MOL
REMARK 923 INTER-LIGAND FREE ENERGY PREDICTED BY IDOCK:   -9.74 KCAL/MOL
REMARK 924 INTRA-LIGAND FREE ENERGY PREDICTED BY IDOCK:   -2.21 KCAL/MOL
REMARK 927      BINDING AFFINITY PREDICTED BY RF-SCORE:    0.00 PKD
ROOT
HETATM    1  C   UNL     1     -12.149  12.497  64.885  1.00  0.00    -0.440 C  
HETATM    2  C   UNL     1     -12.001  12.497  63.365  1.00  0.00    -0.602 C  
ENDROOT
BRANCH   1   3
HETATM    3  C   UNL     1     -12.616  13.829  65.457  1.00  0.00    -0.512 C  
BRANCH   3   4
HETATM    4  N   UNL     1     -11.582  14.763  65.813  1.00  0.00    -0.327 NA 
HETATM    5  C   UNL     1     -11.333  15.125  67.100  1.00  0.00    -0.290 A  
HETATM    6  N   UNL     1     -10.395  16.112  69.382  1.00  0.00    -0.258 NA 
HETATM    7  C   UNL     1     -10.604  15.305  65.027  1.00  0.00    -0.418 A  
HETATM    8  N   UNL     1      -8.606  17.234  68.329  1.00  0.00    -0.239 NA 
HETATM    9  N   UNL     1     -12.026  14.777  68.196  1.00  0.00    -0.279 NA 
HETATM   10  C   UNL     1      -9.725  16.414  68.248  1.00  0.00    -0.224 A  
HETATM   11  N   UNL     1      -9.765  16.034  65.727  1.00  0.00    -0.382 NA 
HETATM   12  C   UNL     1     -11.481  15.314  69.296  1.00  0.00    -0.320 A  
HETATM   13  C   UNL     1     -10.198  15.910  67.031  1.00  0.00    -0.283 A  
HETATM   14  H1  UNL     1      -8.260  17.601  69.216  1.00  0.00     0.000 HD 
HETATM   15  H2  UNL     1      -8.757  18.026  67.706  1.00  0.00     0.000 HD 
ENDBRANCH   3   4
ENDBRANCH   1   3
BRANCH   1  16
HETATM   16  O   UNL     1     -10.918  12.014  65.464  1.00  0.00    -0.282 OA 
BRANCH  16  17
HETATM   17  C   UNL     1     -10.574  10.636  65.176  1.00  0.00    -0.120 C  
HETATM   18  O   UNL     1      -8.303  10.676  64.417  1.00  0.00    -0.136 OA 
HETATM   19  O   UNL     1      -8.863  11.389  66.873  1.00  0.00    -0.162 OA 
HETATM   20  P   UNL     1      -8.892  10.191  65.743  1.00  0.00    -0.178 P  
HETATM   21  O   UNL     1      -7.303   9.768  66.279  1.00  0.00    -0.096 OA 
BRANCH  19  22
HETATM   22  C   UNL     1      -9.255  11.112  68.201  1.00  0.00    -0.166 C  
BRANCH  22  23
HETATM   23  O   UNL     1     -10.260  12.022  68.663  1.00  0.00    -0.214 OA 
BRANCH  23  24
HETATM   24  C   UNL     1     -11.400  11.419  69.085  1.00  0.00    -0.288 C  
HETATM   25  O   UNL     1     -12.383  11.188  68.393  1.00  0.00    -0.556 OA 
BRANCH  24  26
HETATM   26  O   UNL     1     -11.289  11.128  70.408  1.00  0.00    -0.251 OA 
BRANCH  26  27
HETATM   27  C   UNL     1     -11.944   9.912  70.830  1.00  0.00    -0.323 C  
HETATM   28  C   UNL     1     -10.912   8.986  71.464  1.00  0.00    -0.418 C  
HETATM   29  C   UNL     1     -13.040  10.252  71.835  1.00  0.00    -0.568 C  
ENDBRANCH  26  27
ENDBRANCH  24  26
ENDBRANCH  23  24
ENDBRANCH  22  23
ENDBRANCH  19  22
BRANCH  21  30
HETATM   30  C   UNL     1      -7.107   8.373  66.360  1.00  0.00    -0.071 C  
BRANCH  30  31
HETATM   31  O   UNL     1      -8.134   7.740  67.118  1.00  0.00    -0.114 OA 
BRANCH  31  32
HETATM   32  C   UNL     1      -7.838   6.477  67.503  1.00  0.00    -0.113 C  
HETATM   33  O   UNL     1      -6.782   5.895  67.292  1.00  0.00    -0.057 OA 
BRANCH  32  34
HETATM   34  O   UNL     1      -8.889   5.996  68.213  1.00  0.00    -0.113 OA 
BRANCH  34  35
HETATM   35  C   UNL     1     -10.201   6.334  67.722  1.00  0.00    -0.170 C  
HETATM   36  C   UNL     1     -11.161   6.284  68.907  1.00  0.00    -0.434 C  
HETATM   37  C   UNL     1     -10.643   5.340  66.652  1.00  0.00    -0.334 C  
ENDBRANCH  34  35
ENDBRANCH  32  34
ENDBRANCH  31  32
ENDBRANCH  30  31
ENDBRANCH  21  30
ENDBRANCH  16  17
ENDBRANCH   1  16
TORSDOF 14
ENDMDL
MODEL       65
REMARK 921   NORMALIZED FREE ENERGY PREDICTED BY IDOCK:   -5.54 KCAL/MOL
REMARK 922        TOTAL FREE ENERGY PREDICTED BY IDOCK:  -11.92 KCAL/MOL
REMARK 923 INTER-LIGAND FREE ENERGY PREDICTED BY IDOCK:   -9.82 KCAL/MOL
REMARK 924 INTRA-LIGAND FREE ENERGY PREDICTED BY IDOCK:   -2.10 KCAL/MOL
REMARK 927      BINDING AFFINITY PREDICTED BY RF-SCORE:    0.00 PKD
ROOT
HETATM    1  C   UNL     1     -10.981  12.598  64.640  1.00  0.00    -0.313 C  
HETATM    2  C   UNL     1     -11.357  12.029  63.274  1.00  0.00    -0.396 C  
ENDROOT
BRANCH   1   3
HETATM    3  C   UNL     1     -11.071  14.116  64.720  1.00  0.00    -0.387 C  
BRANCH   3   4
HETATM    4  N   UNL     1     -11.110  14.679  66.042  1.00  0.00    -0.327 NA 
HETATM    5  C   UNL     1     -10.356  15.752  66.405  1.00  0.00    -0.299 A  
HETATM    6  N   UNL     1      -9.186  17.813  67.607  1.00  0.00    -0.248 NA 
HETATM    7  C   UNL     1     -11.963  14.398  67.073  1.00  0.00    -0.395 A  
HETATM    8  N   UNL     1     -10.459  17.572  69.579  1.00  0.00    -0.299 NA 
HETATM    9  N   UNL     1      -9.422  16.379  65.673  1.00  0.00    -0.484 NA 
HETATM   10  C   UNL     1     -10.150  17.155  68.290  1.00  0.00    -0.314 A  
HETATM   11  N   UNL     1     -11.769  15.196  68.098  1.00  0.00    -0.339 NA 
HETATM   12  C   UNL     1      -8.890  17.404  66.354  1.00  0.00    -0.242 A  
HETATM   13  C   UNL     1     -10.781  16.064  67.682  1.00  0.00    -0.320 A  
HETATM   14  H1  UNL     1     -10.000  18.368  70.021  1.00  0.00     0.000 HD 
HETATM   15  H2  UNL     1     -10.349  16.769  70.197  1.00  0.00     0.000 HD 
ENDBRANCH   3   4
ENDBRANCH   1   3
BRANCH   1  16
HETATM   16  O   UNL     1      -9.692  12.068  65.018  1.00  0.00    -0.217 OA 
BRANCH  16  17
HETATM   17  C   UNL     1      -9.676  10.695  65.480  1.00  0.00    -0.237 C  
HETATM   18  O   UNL     1      -7.370  10.156  65.841  1.00  0.00    -0.109 OA 
HETATM   19  O   UNL     1      -8.515  12.006  67.299  1.00  0.00    -0.160 OA 
HETATM   20  P   UNL     1      -8.492  10.421  66.848  1.00  0.00    -0.126 P  
HETATM   21  O   UNL     1      -7.373  10.161  68.142  1.00  0.00    -0.081 OA 
BRANCH  19  22
HETATM   22  C   UNL     1      -9.400  12.435  68.311  1.00  0.00    -0.199 C  
BRANCH  22  23
HETATM   23  O   UNL     1     -10.086  11.336  68.923  1.00  0.00    -0.204 OA 
BRANCH  23  24
HETATM   24  C   UNL     1     -11.422  11.525  69.060  1.00  0.00    -0.291 C  
HETATM   25  O   UNL     1     -12.272  11.244  68.225  1.00  0.00    -0.611 OA 
BRANCH  24  26
HETATM   26  O   UNL     1     -11.671  12.096  70.268  1.00  0.00    -0.279 OA 
BRANCH  26  27
HETATM   27  C   UNL     1     -12.829  11.586  70.965  1.00  0.00    -0.263 C  
HETATM   28  C   UNL     1     -12.450  10.291  71.676  1.00  0.00    -0.491 C  
HETATM   29  C   UNL     1     -13.308  12.625  71.974  1.00  0.00    -0.555 C  
ENDBRANCH  26  27
ENDBRANCH  24  26
ENDBRANCH  23  24
ENDBRANCH  22  23
ENDBRANCH  19  22
BRANCH  21  30
HETATM   30  C   UNL     1      -7.621   8.963  68.845  1.00  0.00    -0.087 C  
BRANCH  30  31
HETATM   31  O   UNL     1      -8.919   8.447  68.565  1.00  0.00    -0.136 OA 
BRANCH  31  32
HETATM   32  C   UNL     1      -9.284   7.411  69.354  1.00  0.00    -0.145 C  
HETATM   33  O   UNL     1      -9.026   6.231  69.149  1.00  0.00    -0.127 OA 
BRANCH  32  34
HETATM   34  O   UNL     1      -9.928   7.912  70.438  1.00  0.00    -0.190 OA 
BRANCH  34  35
HETATM   35  C   UNL     1     -10.474   6.948  71.360  1.00  0.00    -0.209 C  
HETATM   36  C   UNL     1     -11.943   6.749  70.998  1.00  0.00    -0.431 C  
HETATM   37  C   UNL     1     -10.355   7.455  72.793  1.00  0.00    -0.306 C  
ENDBRANCH  34  35
ENDBRANCH  32  34
ENDBRANCH  31  32
ENDBRANCH  30  31
ENDBRANCH  21  30
ENDBRANCH  16  17
ENDBRANCH   1  16
TORSDOF 14
ENDMDL
MODEL       66
REMARK 921   NORMALIZED FREE ENERGY PREDICTED BY IDOCK:   -5.54 KCAL/MOL
REMARK 922        TOTAL FREE ENERGY PREDICTED BY IDOCK:  -11.92 KCAL/MOL
REMARK 923 INTER-LIGAND FREE ENERGY PREDICTED BY IDOCK:   -9.96 KCAL/MOL
REMARK 924 INTRA-LIGAND FREE ENERGY PREDICTED BY IDOCK:   -1.96 KCAL/MOL
REMARK 927      BINDING AFFINITY PREDICTED BY RF-SCORE:    0.00 PKD
ROOT
HETATM    1  C   UNL     1     -11.923  12.165  64.832  1.00  0.00    -0.290 C  
HETATM    2  C   UNL     1     -11.706  12.337  63.330  1.00  0.00    -0.542 C  
ENDROOT
BRANCH   1   3
HETATM    3  C   UNL     1     -12.623  13.345  65.491  1.00  0.00    -0.465 C  
BRANCH   3   4
HETATM    4  N   UNL     1     -11.997  14.629  65.319  1.00  0.00    -0.335 NA 
HETATM    5  C   UNL     1     -11.113  15.141  66.218  1.00  0.00    -0.309 A  
HETATM    6  N   UNL     1      -9.324  16.558  67.578  1.00  0.00    -0.218 NA 
HETATM    7  C   UNL     1     -12.017  15.457  64.232  1.00  0.00    -0.188 A  
HETATM    8  N   UNL     1      -9.156  18.218  65.909  1.00  0.00    -0.467 NA 
HETATM    9  N   UNL     1     -10.762  14.621  67.405  1.00  0.00    -0.276 NA 
HETATM   10  C   UNL     1      -9.701  17.024  66.366  1.00  0.00    -0.293 A  
HETATM   11  N   UNL     1     -11.234  16.498  64.398  1.00  0.00    -0.980 NA 
HETATM   12  C   UNL     1      -9.856  15.396  68.016  1.00  0.00    -0.216 A  
HETATM   13  C   UNL     1     -10.645  16.299  65.629  1.00  0.00    -0.346 A  
HETATM   14  H1  UNL     1      -8.469  18.746  66.446  1.00  0.00     0.000 HD 
HETATM   15  H2  UNL     1      -9.929  18.847  65.694  1.00  0.00     0.000 HD 
ENDBRANCH   3   4
ENDBRANCH   1   3
BRANCH   1  16
HETATM   16  O   UNL     1     -10.659  11.821  65.440  1.00  0.00    -0.260 OA 
BRANCH  16  17
HETATM   17  C   UNL     1     -10.381  10.406  65.580  1.00  0.00    -0.195 C  
HETATM   18  O   UNL     1      -8.050  10.150  65.094  1.00  0.00    -0.138 OA 
HETATM   19  O   UNL     1      -8.795  11.541  67.184  1.00  0.00    -0.158 OA 
HETATM   20  P   UNL     1      -8.794  10.076  66.429  1.00  0.00    -0.148 P  
HETATM   21  O   UNL     1      -7.294   9.762  67.232  1.00  0.00    -0.086 OA 
BRANCH  19  22
HETATM   22  C   UNL     1      -9.329  11.659  68.485  1.00  0.00    -0.167 C  
BRANCH  22  23
HETATM   23  O   UNL     1     -10.114  10.517  68.848  1.00  0.00    -0.183 OA 
BRANCH  23  24
HETATM   24  C   UNL     1     -11.387  10.813  69.212  1.00  0.00    -0.286 C  
HETATM   25  O   UNL     1     -12.287  11.143  68.452  1.00  0.00    -0.556 OA 
BRANCH  24  26
HETATM   26  O   UNL     1     -11.501  10.705  70.562  1.00  0.00    -0.311 OA 
BRANCH  26  27
HETATM   27  C   UNL     1     -12.854  10.637  71.063  1.00  0.00    -0.402 C  
HETATM   28  C   UNL     1     -12.987   9.422  71.973  1.00  0.00    -0.508 C  
HETATM   29  C   UNL     1     -13.171  11.915  71.834  1.00  0.00    -0.467 C  
ENDBRANCH  26  27
ENDBRANCH  24  26
ENDBRANCH  23  24
ENDBRANCH  22  23
ENDBRANCH  19  22
BRANCH  21  30
HETATM   30  C   UNL     1      -7.199   8.439  67.714  1.00  0.00    -0.088 C  
BRANCH  30  31
HETATM   31  O   UNL     1      -8.332   7.660  67.340  1.00  0.00    -0.114 OA 
BRANCH  31  32
HETATM   32  C   UNL     1      -8.386   6.444  67.931  1.00  0.00    -0.118 C  
HETATM   33  O   UNL     1      -7.530   5.573  67.852  1.00  0.00    -0.078 OA 
BRANCH  32  34
HETATM   34  O   UNL     1      -9.521   6.385  68.671  1.00  0.00    -0.124 OA 
BRANCH  34  35
HETATM   35  C   UNL     1      -9.350   6.205  70.091  1.00  0.00    -0.155 C  
HETATM   36  C   UNL     1     -10.171   4.985  70.499  1.00  0.00    -0.316 C  
HETATM   37  C   UNL     1      -9.836   7.437  70.847  1.00  0.00    -0.177 C  
ENDBRANCH  34  35
ENDBRANCH  32  34
ENDBRANCH  31  32
ENDBRANCH  30  31
ENDBRANCH  21  30
ENDBRANCH  16  17
ENDBRANCH   1  16
TORSDOF 14
ENDMDL
MODEL       67
REMARK 921   NORMALIZED FREE ENERGY PREDICTED BY IDOCK:   -5.53 KCAL/MOL
REMARK 922        TOTAL FREE ENERGY PREDICTED BY IDOCK:  -11.90 KCAL/MOL
REMARK 923 INTER-LIGAND FREE ENERGY PREDICTED BY IDOCK:  -10.11 KCAL/MOL
REMARK 924 INTRA-LIGAND FREE ENERGY PREDICTED BY IDOCK:   -1.79 KCAL/MOL
REMARK 927      BINDING AFFINITY PREDICTED BY RF-SCORE:    0.00 PKD
ROOT
HETATM    1  C   UNL     1     -12.060  13.043  66.059  1.00  0.00    -0.432 C  
HETATM    2  C   UNL     1     -12.503  12.429  64.732  1.00  0.00    -0.480 C  
ENDROOT
BRANCH   1   3
HETATM    3  C   UNL     1     -10.765  13.838  65.966  1.00  0.00    -0.284 C  
BRANCH   3   4
HETATM    4  N   UNL     1     -10.902  15.240  65.675  1.00  0.00    -0.348 NA 
HETATM    5  C   UNL     1     -10.481  16.211  66.531  1.00  0.00    -0.297 A  
HETATM    6  N   UNL     1      -9.802  18.462  67.768  1.00  0.00    -0.306 NA 
HETATM    7  C   UNL     1     -11.288  15.845  64.512  1.00  0.00    -0.309 A  
HETATM    8  N   UNL     1     -10.431  19.823  65.946  1.00  0.00    -0.519 NA 
HETATM    9  N   UNL     1      -9.985  16.050  67.768  1.00  0.00    -0.232 NA 
HETATM   10  C   UNL     1     -10.290  18.561  66.512  1.00  0.00    -0.414 A  
HETATM   11  N   UNL     1     -11.185  17.152  64.585  1.00  0.00    -0.959 NA 
HETATM   12  C   UNL     1      -9.666  17.233  68.312  1.00  0.00    -0.294 A  
HETATM   13  C   UNL     1     -10.659  17.391  65.838  1.00  0.00    -0.200 A  
HETATM   14  H1  UNL     1     -10.162  20.675  66.437  1.00  0.00     0.000 HD 
HETATM   15  H2  UNL     1     -11.404  19.926  65.660  1.00  0.00     0.000 HD 
ENDBRANCH   3   4
ENDBRANCH   1   3
BRANCH   1  16
HETATM   16  O   UNL     1     -12.035  12.002  67.059  1.00  0.00    -0.609 OA 
BRANCH  16  17
HETATM   17  C   UNL     1     -11.144  10.889  66.801  1.00  0.00    -0.126 C  
HETATM   18  O   UNL     1      -9.047  11.491  67.788  1.00  0.00    -0.156 OA 
HETATM   19  O   UNL     1     -11.148  11.148  69.313  1.00  0.00    -0.225 OA 
HETATM   20  P   UNL     1     -10.095  10.472  68.241  1.00  0.00    -0.178 P  
HETATM   21  O   UNL     1      -9.103  10.077  69.602  1.00  0.00    -0.206 OA 
BRANCH  19  22
HETATM   22  C   UNL     1     -12.123  10.344  69.941  1.00  0.00    -0.181 C  
BRANCH  22  23
HETATM   23  O   UNL     1     -11.947  10.302  71.362  1.00  0.00    -0.368 OA 
BRANCH  23  24
HETATM   24  C   UNL     1     -12.457   9.191  71.951  1.00  0.00    -0.387 C  
HETATM   25  O   UNL     1     -13.529   9.122  72.537  1.00  0.00    -0.464 OA 
BRANCH  24  26
HETATM   26  O   UNL     1     -11.577   8.165  71.804  1.00  0.00    -0.264 OA 
BRANCH  26  27
HETATM   27  C   UNL     1     -12.159   6.907  71.398  1.00  0.00    -0.364 C  
HETATM   28  C   UNL     1     -11.592   6.513  70.038  1.00  0.00    -0.455 C  
HETATM   29  C   UNL     1     -11.831   5.840  72.438  1.00  0.00    -0.227 C  
ENDBRANCH  26  27
ENDBRANCH  24  26
ENDBRANCH  23  24
ENDBRANCH  22  23
ENDBRANCH  19  22
BRANCH  21  30
HETATM   30  C   UNL     1      -8.531   8.790  69.505  1.00  0.00    -0.128 C  
BRANCH  30  31
HETATM   31  O   UNL     1      -8.465   8.146  70.774  1.00  0.00    -0.117 OA 
BRANCH  31  32
HETATM   32  C   UNL     1      -7.216   7.776  71.141  1.00  0.00    -0.061 C  
HETATM   33  O   UNL     1      -6.244   7.709  70.400  1.00  0.00    -0.033 OA 
BRANCH  32  34
HETATM   34  O   UNL     1      -7.218   7.553  72.479  1.00  0.00    -0.070 OA 
BRANCH  34  35
HETATM   35  C   UNL     1      -8.391   6.914  73.019  1.00  0.00    -0.114 C  
HETATM   36  C   UNL     1      -8.836   7.724  74.234  1.00  0.00    -0.187 C  
HETATM   37  C   UNL     1      -8.074   5.482  73.435  1.00  0.00    -0.114 C  
ENDBRANCH  34  35
ENDBRANCH  32  34
ENDBRANCH  31  32
ENDBRANCH  30  31
ENDBRANCH  21  30
ENDBRANCH  16  17
ENDBRANCH   1  16
TORSDOF 14
ENDMDL
MODEL       68
REMARK 921   NORMALIZED FREE ENERGY PREDICTED BY IDOCK:   -5.53 KCAL/MOL
REMARK 922        TOTAL FREE ENERGY PREDICTED BY IDOCK:  -11.90 KCAL/MOL
REMARK 923 INTER-LIGAND FREE ENERGY PREDICTED BY IDOCK:  -10.41 KCAL/MOL
REMARK 924 INTRA-LIGAND FREE ENERGY PREDICTED BY IDOCK:   -1.49 KCAL/MOL
REMARK 927      BINDING AFFINITY PREDICTED BY RF-SCORE:    0.00 PKD
ROOT
HETATM    1  C   UNL     1     -10.225   8.528  67.627  1.00  0.00    -0.236 C  
HETATM    2  C   UNL     1      -9.030   8.603  66.680  1.00  0.00    -0.174 C  
ENDROOT
BRANCH   1   3
HETATM    3  C   UNL     1     -10.958   7.194  67.587  1.00  0.00    -0.155 C  
BRANCH   3   4
HETATM    4  N   UNL     1     -10.914   6.411  68.793  1.00  0.00    -0.321 NA 
HETATM    5  C   UNL     1     -10.154   5.288  68.910  1.00  0.00    -0.184 A  
HETATM    6  N   UNL     1      -8.841   3.114  69.692  1.00  0.00    -0.076 NA 
HETATM    7  C   UNL     1     -11.437   6.694  70.023  1.00  0.00    -0.375 A  
HETATM    8  N   UNL     1      -9.614   3.271  71.916  1.00  0.00    -0.140 NA 
HETATM    9  N   UNL     1      -9.432   4.687  67.951  1.00  0.00    -0.144 NA 
HETATM   10  C   UNL     1      -9.570   3.772  70.620  1.00  0.00    -0.189 A  
HETATM   11  N   UNL     1     -11.097   5.792  70.916  1.00  0.00    -0.242 NA 
HETATM   12  C   UNL     1      -8.802   3.606  68.435  1.00  0.00    -0.114 A  
HETATM   13  C   UNL     1     -10.275   4.919  70.235  1.00  0.00    -0.229 A  
HETATM   14  H1  UNL     1      -9.100   2.436  72.197  1.00  0.00     0.000 HD 
HETATM   15  H2  UNL     1     -10.593   3.127  72.158  1.00  0.00     0.000 HD 
ENDBRANCH   3   4
ENDBRANCH   1   3
BRANCH   1  16
HETATM   16  O   UNL     1     -11.075   9.669  67.381  1.00  0.00    -0.183 OA 
BRANCH  16  17
HETATM   17  C   UNL     1     -10.437  10.825  66.786  1.00  0.00    -0.251 C  
HETATM   18  O   UNL     1     -12.203  12.115  65.811  1.00  0.00    -0.586 OA 
HETATM   19  O   UNL     1     -12.123  11.778  68.406  1.00  0.00    -0.490 OA 
HETATM   20  P   UNL     1     -11.369  12.374  67.067  1.00  0.00    -0.359 P  
HETATM   21  O   UNL     1     -12.250  13.839  67.333  1.00  0.00    -0.368 OA 
BRANCH  19  22
HETATM   22  C   UNL     1     -11.574  12.017  69.685  1.00  0.00    -0.301 C  
BRANCH  22  23
HETATM   23  O   UNL     1     -12.380  12.918  70.453  1.00  0.00    -0.323 OA 
BRANCH  23  24
HETATM   24  C   UNL     1     -12.810  12.407  71.634  1.00  0.00    -0.270 C  
HETATM   25  O   UNL     1     -12.799  11.223  71.945  1.00  0.00    -0.401 OA 
BRANCH  24  26
HETATM   26  O   UNL     1     -13.277  13.417  72.415  1.00  0.00    -0.474 OA 
BRANCH  26  27
HETATM   27  C   UNL     1     -13.036  14.749  71.908  1.00  0.00    -0.334 C  
HETATM   28  C   UNL     1     -14.371  15.389  71.542  1.00  0.00    -0.572 C  
HETATM   29  C   UNL     1     -12.328  15.575  72.977  1.00  0.00    -0.554 C  
ENDBRANCH  26  27
ENDBRANCH  24  26
ENDBRANCH  23  24
ENDBRANCH  22  23
ENDBRANCH  19  22
BRANCH  21  30
HETATM   30  C   UNL     1     -11.469  14.993  67.110  1.00  0.00    -0.297 C  
BRANCH  30  31
HETATM   31  O   UNL     1     -11.318  15.765  68.297  1.00  0.00    -0.344 OA 
BRANCH  31  32
HETATM   32  C   UNL     1     -10.084  15.697  68.848  1.00  0.00    -0.217 C  
HETATM   33  O   UNL     1      -9.378  14.698  68.897  1.00  0.00    -0.199 OA 
BRANCH  32  34
HETATM   34  O   UNL     1      -9.745  16.937  69.278  1.00  0.00    -0.215 OA 
BRANCH  34  35
HETATM   35  C   UNL     1      -9.297  17.864  68.269  1.00  0.00    -0.286 C  
HETATM   36  C   UNL     1      -7.813  18.125  68.514  1.00  0.00    -0.308 C  
HETATM   37  C   UNL     1     -10.078  19.171  68.361  1.00  0.00    -0.498 C  
ENDBRANCH  34  35
ENDBRANCH  32  34
ENDBRANCH  31  32
ENDBRANCH  30  31
ENDBRANCH  21  30
ENDBRANCH  16  17
ENDBRANCH   1  16
TORSDOF 14
ENDMDL
MODEL       69
REMARK 921   NORMALIZED FREE ENERGY PREDICTED BY IDOCK:   -5.51 KCAL/MOL
REMARK 922        TOTAL FREE ENERGY PREDICTED BY IDOCK:  -11.86 KCAL/MOL
REMARK 923 INTER-LIGAND FREE ENERGY PREDICTED BY IDOCK:  -10.40 KCAL/MOL
REMARK 924 INTRA-LIGAND FREE ENERGY PREDICTED BY IDOCK:   -1.47 KCAL/MOL
REMARK 927      BINDING AFFINITY PREDICTED BY RF-SCORE:    0.00 PKD
ROOT
HETATM    1  C   UNL     1     -10.032  10.086  65.571  1.00  0.00    -0.296 C  
HETATM    2  C   UNL     1      -9.507  10.637  64.247  1.00  0.00    -0.321 C  
ENDROOT
BRANCH   1   3
HETATM    3  C   UNL     1     -10.816  11.101  66.392  1.00  0.00    -0.225 C  
BRANCH   3   4
HETATM    4  N   UNL     1     -11.370  12.211  65.664  1.00  0.00    -0.340 NA 
HETATM    5  C   UNL     1     -10.813  13.453  65.684  1.00  0.00    -0.283 A  
HETATM    6  N   UNL     1     -10.129  15.995  65.325  1.00  0.00    -0.492 NA 
HETATM    7  C   UNL     1     -12.378  12.218  64.741  1.00  0.00    -0.339 A  
HETATM    8  N   UNL     1     -11.818  16.373  63.721  1.00  0.00    -1.377 NA 
HETATM    9  N   UNL     1      -9.770  13.868  66.420  1.00  0.00    -0.291 NA 
HETATM   10  C   UNL     1     -11.161  15.516  64.595  1.00  0.00    -0.371 A  
HETATM   11  N   UNL     1     -12.535  13.405  64.200  1.00  0.00    -0.653 NA 
HETATM   12  C   UNL     1      -9.494  15.156  66.172  1.00  0.00    -0.319 A  
HETATM   13  C   UNL     1     -11.545  14.181  64.767  1.00  0.00    -0.396 A  
HETATM   14  H1  UNL     1     -11.538  17.346  63.596  1.00  0.00     0.000 HD 
HETATM   15  H2  UNL     1     -12.808  16.367  63.968  1.00  0.00     0.000 HD 
ENDBRANCH   3   4
ENDBRANCH   1   3
BRANCH   1  16
HETATM   16  O   UNL     1      -8.930   9.484  66.284  1.00  0.00    -0.146 OA 
BRANCH  16  17
HETATM   17  C   UNL     1      -9.152   8.146  66.791  1.00  0.00    -0.157 C  
HETATM   18  O   UNL     1      -7.006   7.353  67.500  1.00  0.00    -0.074 OA 
HETATM   19  O   UNL     1      -8.099   9.400  68.713  1.00  0.00    -0.100 OA 
HETATM   20  P   UNL     1      -8.214   7.803  68.325  1.00  0.00    -0.125 P  
HETATM   21  O   UNL     1      -7.328   7.478  69.775  1.00  0.00    -0.078 OA 
BRANCH  19  22
HETATM   22  C   UNL     1      -9.055   9.985  69.570  1.00  0.00    -0.220 C  
BRANCH  22  23
HETATM   23  O   UNL     1     -10.037   9.036  70.003  1.00  0.00    -0.181 OA 
BRANCH  23  24
HETATM   24  C   UNL     1     -10.342   9.118  71.322  1.00  0.00    -0.334 C  
HETATM   25  O   UNL     1      -9.570   8.904  72.247  1.00  0.00    -0.295 OA 
BRANCH  24  26
HETATM   26  O   UNL     1     -11.652   9.457  71.458  1.00  0.00    -0.346 OA 
BRANCH  26  27
HETATM   27  C   UNL     1     -12.469   8.493  72.159  1.00  0.00    -0.379 C  
HETATM   28  C   UNL     1     -13.831   9.114  72.448  1.00  0.00    -0.524 C  
HETATM   29  C   UNL     1     -12.627   7.245  71.296  1.00  0.00    -0.402 C  
ENDBRANCH  26  27
ENDBRANCH  24  26
ENDBRANCH  23  24
ENDBRANCH  22  23
ENDBRANCH  19  22
BRANCH  21  30
HETATM   30  C   UNL     1      -7.822   6.357  70.476  1.00  0.00    -0.107 C  
BRANCH  30  31
HETATM   31  O   UNL     1      -7.261   6.264  71.782  1.00  0.00    -0.083 OA 
BRANCH  31  32
HETATM   32  C   UNL     1      -8.171   6.054  72.761  1.00  0.00    -0.118 C  
HETATM   33  O   UNL     1      -8.031   6.344  73.942  1.00  0.00    -0.101 OA 
BRANCH  32  34
HETATM   34  O   UNL     1      -9.284   5.524  72.194  1.00  0.00    -0.143 OA 
BRANCH  34  35
HETATM   35  C   UNL     1      -9.804   4.326  72.805  1.00  0.00    -0.144 C  
HETATM   36  C   UNL     1      -9.869   3.252  71.723  1.00  0.00    -0.229 C  
HETATM   37  C   UNL     1     -11.197   4.578  73.372  1.00  0.00    -0.404 C  
ENDBRANCH  34  35
ENDBRANCH  32  34
ENDBRANCH  31  32
ENDBRANCH  30  31
ENDBRANCH  21  30
ENDBRANCH  16  17
ENDBRANCH   1  16
TORSDOF 14
ENDMDL
MODEL       70
REMARK 921   NORMALIZED FREE ENERGY PREDICTED BY IDOCK:   -5.50 KCAL/MOL
REMARK 922        TOTAL FREE ENERGY PREDICTED BY IDOCK:  -11.85 KCAL/MOL
REMARK 923 INTER-LIGAND FREE ENERGY PREDICTED BY IDOCK:  -10.61 KCAL/MOL
REMARK 924 INTRA-LIGAND FREE ENERGY PREDICTED BY IDOCK:   -1.24 KCAL/MOL
REMARK 927      BINDING AFFINITY PREDICTED BY RF-SCORE:    0.00 PKD
ROOT
HETATM    1  C   UNL     1     -10.782  10.686  67.774  1.00  0.00    -0.257 C  
HETATM    2  C   UNL     1      -9.337  11.177  67.822  1.00  0.00    -0.166 C  
ENDROOT
BRANCH   1   3
HETATM    3  C   UNL     1     -11.811  11.781  68.023  1.00  0.00    -0.234 C  
BRANCH   3   4
HETATM    4  N   UNL     1     -11.645  12.991  67.262  1.00  0.00    -0.335 NA 
HETATM    5  C   UNL     1     -11.979  13.081  65.946  1.00  0.00    -0.435 A  
HETATM    6  N   UNL     1     -12.505  13.817  63.448  1.00  0.00    -0.803 NA 
HETATM    7  C   UNL     1     -11.313  14.243  67.697  1.00  0.00    -0.324 A  
HETATM    8  N   UNL     1     -11.946  16.075  63.843  1.00  0.00    -1.309 NA 
HETATM    9  N   UNL     1     -12.403  12.093  65.142  1.00  0.00    -0.469 NA 
HETATM   10  C   UNL     1     -12.093  14.774  64.309  1.00  0.00    -0.394 A  
HETATM   11  N   UNL     1     -11.367  15.126  66.727  1.00  0.00    -0.296 NA 
HETATM   12  C   UNL     1     -12.648  12.555  63.908  1.00  0.00    -0.387 A  
HETATM   13  C   UNL     1     -11.806  14.414  65.630  1.00  0.00    -0.355 A  
HETATM   14  H1  UNL     1     -12.155  16.338  62.880  1.00  0.00     0.000 HD 
HETATM   15  H2  UNL     1     -10.989  16.367  64.040  1.00  0.00     0.000 HD 
ENDBRANCH   3   4
ENDBRANCH   1   3
BRANCH   1  16
HETATM   16  O   UNL     1     -10.910   9.553  68.660  1.00  0.00    -0.209 OA 
BRANCH  16  17
HETATM   17  C   UNL     1     -10.073   9.569  69.842  1.00  0.00    -0.232 C  
HETATM   18  O   UNL     1     -11.573   9.753  71.700  1.00  0.00    -0.375 OA 
HETATM   19  O   UNL     1     -11.641   7.620  70.183  1.00  0.00    -0.145 OA 
HETATM   20  P   UNL     1     -10.754   8.558  71.207  1.00  0.00    -0.284 P  
HETATM   21  O   UNL     1     -11.397   7.603  72.498  1.00  0.00    -0.307 OA 
BRANCH  19  22
HETATM   22  C   UNL     1     -11.108   6.402  69.708  1.00  0.00    -0.396 C  
BRANCH  22  23
HETATM   23  O   UNL     1     -11.448   6.169  68.336  1.00  0.00    -0.152 OA 
BRANCH  23  24
HETATM   24  C   UNL     1     -10.390   6.219  67.488  1.00  0.00    -0.200 C  
HETATM   25  O   UNL     1      -9.344   6.822  67.687  1.00  0.00    -0.121 OA 
BRANCH  24  26
HETATM   26  O   UNL     1     -10.682   5.507  66.367  1.00  0.00    -0.281 OA 
BRANCH  26  27
HETATM   27  C   UNL     1      -9.859   4.341  66.145  1.00  0.00    -0.221 C  
HETATM   28  C   UNL     1      -8.630   4.747  65.338  1.00  0.00    -0.134 C  
HETATM   29  C   UNL     1      -9.440   3.757  67.490  1.00  0.00    -0.237 C  
ENDBRANCH  26  27
ENDBRANCH  24  26
ENDBRANCH  23  24
ENDBRANCH  22  23
ENDBRANCH  19  22
BRANCH  21  30
HETATM   30  C   UNL     1     -10.433   7.296  73.482  1.00  0.00    -0.374 C  
BRANCH  30  31
HETATM   31  O   UNL     1      -9.283   6.676  72.918  1.00  0.00    -0.136 OA 
BRANCH  31  32
HETATM   32  C   UNL     1      -9.102   5.392  73.305  1.00  0.00    -0.126 C  
HETATM   33  O   UNL     1      -8.232   4.991  74.068  1.00  0.00    -0.104 OA 
BRANCH  32  34
HETATM   34  O   UNL     1     -10.085   4.641  72.749  1.00  0.00    -0.158 OA 
BRANCH  34  35
HETATM   35  C   UNL     1      -9.988   3.216  72.941  1.00  0.00    -0.138 C  
HETATM   36  C   UNL     1      -9.792   2.582  71.567  1.00  0.00    -0.196 C  
HETATM   37  C   UNL     1     -11.261   2.677  73.586  1.00  0.00    -0.315 C  
ENDBRANCH  34  35
ENDBRANCH  32  34
ENDBRANCH  31  32
ENDBRANCH  30  31
ENDBRANCH  21  30
ENDBRANCH  16  17
ENDBRANCH   1  16
TORSDOF 14
ENDMDL
MODEL       71
REMARK 921   NORMALIZED FREE ENERGY PREDICTED BY IDOCK:   -5.49 KCAL/MOL
REMARK 922        TOTAL FREE ENERGY PREDICTED BY IDOCK:  -11.83 KCAL/MOL
REMARK 923 INTER-LIGAND FREE ENERGY PREDICTED BY IDOCK:  -10.44 KCAL/MOL
REMARK 924 INTRA-LIGAND FREE ENERGY PREDICTED BY IDOCK:   -1.39 KCAL/MOL
REMARK 927      BINDING AFFINITY PREDICTED BY RF-SCORE:    0.00 PKD
ROOT
HETATM    1  C   UNL     1     -10.874  15.879  66.736  1.00  0.00    -0.228 C  
HETATM    2  C   UNL     1      -9.583  15.493  66.016  1.00  0.00    -0.380 C  
ENDROOT
BRANCH   1   3
HETATM    3  C   UNL     1     -10.711  17.039  67.709  1.00  0.00    -0.318 C  
BRANCH   3   4
HETATM    4  N   UNL     1     -10.034  18.202  67.200  1.00  0.00    -0.321 NA 
HETATM    5  C   UNL     1      -8.855  18.646  67.713  1.00  0.00    -0.275 A  
HETATM    6  N   UNL     1      -6.573  19.888  68.272  1.00  0.00    -0.267 NA 
HETATM    7  C   UNL     1     -10.311  18.940  66.084  1.00  0.00    -0.460 A  
HETATM    8  N   UNL     1      -6.769  21.376  66.451  1.00  0.00    -0.708 NA 
HETATM    9  N   UNL     1      -8.199  18.172  68.784  1.00  0.00    -0.269 NA 
HETATM   10  C   UNL     1      -7.267  20.311  67.192  1.00  0.00    -0.285 A  
HETATM   11  N   UNL     1      -9.404  19.866  65.875  1.00  0.00    -0.339 NA 
HETATM   12  C   UNL     1      -7.062  18.852  68.987  1.00  0.00    -0.306 A  
HETATM   13  C   UNL     1      -8.474  19.677  66.876  1.00  0.00    -0.307 A  
HETATM   14  H1  UNL     1      -5.889  21.838  66.681  1.00  0.00     0.000 HD 
HETATM   15  H2  UNL     1      -7.493  22.093  66.415  1.00  0.00     0.000 HD 
ENDBRANCH   3   4
ENDBRANCH   1   3
BRANCH   1  16
HETATM   16  O   UNL     1     -11.437  14.691  67.332  1.00  0.00    -0.341 OA 
BRANCH  16  17
HETATM   17  C   UNL     1     -10.798  14.219  68.543  1.00  0.00    -0.253 C  
HETATM   18  O   UNL     1     -12.572  13.488  69.975  1.00  0.00    -0.212 OA 
HETATM   19  O   UNL     1     -12.140  12.250  67.708  1.00  0.00    -0.478 OA 
HETATM   20  P   UNL     1     -11.544  12.676  69.184  1.00  0.00    -0.309 P  
HETATM   21  O   UNL     1     -12.249  11.217  69.791  1.00  0.00    -0.300 OA 
BRANCH  19  22
HETATM   22  C   UNL     1     -11.392  11.397  66.869  1.00  0.00    -0.210 C  
BRANCH  22  23
HETATM   23  O   UNL     1     -11.536  11.746  65.487  1.00  0.00    -0.267 OA 
BRANCH  23  24
HETATM   24  C   UNL     1     -10.367  12.046  64.867  1.00  0.00    -0.278 C  
HETATM   25  O   UNL     1     -10.252  12.692  63.834  1.00  0.00    -0.412 OA 
BRANCH  24  26
HETATM   26  O   UNL     1      -9.338  11.495  65.565  1.00  0.00    -0.223 OA 
BRANCH  26  27
HETATM   27  C   UNL     1      -8.496  10.594  64.813  1.00  0.00    -0.100 C  
HETATM   28  C   UNL     1      -7.132  10.509  65.489  1.00  0.00    -0.099 C  
HETATM   29  C   UNL     1      -9.150   9.217  64.762  1.00  0.00    -0.157 C  
ENDBRANCH  26  27
ENDBRANCH  24  26
ENDBRANCH  23  24
ENDBRANCH  22  23
ENDBRANCH  19  22
BRANCH  21  30
HETATM   30  C   UNL     1     -11.413  10.551  70.714  1.00  0.00    -0.285 C  
BRANCH  30  31
HETATM   31  O   UNL     1     -11.169   9.203  70.324  1.00  0.00    -0.245 OA 
BRANCH  31  32
HETATM   32  C   UNL     1     -11.637   8.282  71.198  1.00  0.00    -0.279 C  
HETATM   33  O   UNL     1     -12.817   8.059  71.437  1.00  0.00    -0.318 OA 
BRANCH  32  34
HETATM   34  O   UNL     1     -10.577   7.611  71.712  1.00  0.00    -0.210 OA 
BRANCH  34  35
HETATM   35  C   UNL     1     -10.697   7.177  73.081  1.00  0.00    -0.346 C  
HETATM   36  C   UNL     1      -9.375   7.486  73.778  1.00  0.00    -0.331 C  
HETATM   37  C   UNL     1     -10.980   5.680  73.143  1.00  0.00    -0.326 C  
ENDBRANCH  34  35
ENDBRANCH  32  34
ENDBRANCH  31  32
ENDBRANCH  30  31
ENDBRANCH  21  30
ENDBRANCH  16  17
ENDBRANCH   1  16
TORSDOF 14
ENDMDL
MODEL       72
REMARK 921   NORMALIZED FREE ENERGY PREDICTED BY IDOCK:   -5.49 KCAL/MOL
REMARK 922        TOTAL FREE ENERGY PREDICTED BY IDOCK:  -11.83 KCAL/MOL
REMARK 923 INTER-LIGAND FREE ENERGY PREDICTED BY IDOCK:  -10.48 KCAL/MOL
REMARK 924 INTRA-LIGAND FREE ENERGY PREDICTED BY IDOCK:   -1.35 KCAL/MOL
REMARK 927      BINDING AFFINITY PREDICTED BY RF-SCORE:    0.00 PKD
ROOT
HETATM    1  C   UNL     1     -12.020  12.106  68.782  1.00  0.00    -0.239 C  
HETATM    2  C   UNL     1     -12.034  12.705  70.187  1.00  0.00    -0.375 C  
ENDROOT
BRANCH   1   3
HETATM    3  C   UNL     1     -11.728  10.611  68.755  1.00  0.00    -0.188 C  
BRANCH   3   4
HETATM    4  N   UNL     1     -10.783  10.133  69.728  1.00  0.00    -0.260 NA 
HETATM    5  C   UNL     1     -11.155   9.397  70.811  1.00  0.00    -0.300 A  
HETATM    6  N   UNL     1     -11.308   7.916  73.011  1.00  0.00    -0.352 NA 
HETATM    7  C   UNL     1      -9.417  10.159  69.687  1.00  0.00    -0.200 A  
HETATM    8  N   UNL     1      -8.966   7.807  73.276  1.00  0.00    -0.203 NA 
HETATM    9  N   UNL     1     -12.402   9.089  71.200  1.00  0.00    -0.282 NA 
HETATM   10  C   UNL     1     -10.076   8.241  72.561  1.00  0.00    -0.306 A  
HETATM   11  N   UNL     1      -8.887   9.524  70.707  1.00  0.00    -0.229 NA 
HETATM   12  C   UNL     1     -12.383   8.339  72.311  1.00  0.00    -0.356 A  
HETATM   13  C   UNL     1      -9.966   9.023  71.405  1.00  0.00    -0.318 A  
HETATM   14  H1  UNL     1      -9.046   7.237  74.117  1.00  0.00     0.000 HD 
HETATM   15  H2  UNL     1      -8.411   8.629  73.512  1.00  0.00     0.000 HD 
ENDBRANCH   3   4
ENDBRANCH   1   3
BRANCH   1  16
HETATM   16  O   UNL     1     -11.129  12.889  67.960  1.00  0.00    -0.232 OA 
BRANCH  16  17
HETATM   17  C   UNL     1     -10.448  13.985  68.619  1.00  0.00    -0.247 C  
HETATM   18  O   UNL     1      -8.124  13.409  68.610  1.00  0.00    -0.126 OA 
HETATM   19  O   UNL     1      -9.367  13.826  66.343  1.00  0.00    -0.262 OA 
HETATM   20  P   UNL     1      -8.886  14.452  67.790  1.00  0.00    -0.211 P  
HETATM   21  O   UNL     1      -7.408  14.895  67.006  1.00  0.00    -0.111 OA 
BRANCH  19  22
HETATM   22  C   UNL     1      -9.984  14.661  65.388  1.00  0.00    -0.330 C  
BRANCH  22  23
HETATM   23  O   UNL     1     -11.356  14.309  65.176  1.00  0.00    -0.318 OA 
BRANCH  23  24
HETATM   24  C   UNL     1     -11.534  13.251  64.345  1.00  0.00    -0.379 C  
HETATM   25  O   UNL     1     -12.613  12.789  63.999  1.00  0.00    -0.620 OA 
BRANCH  24  26
HETATM   26  O   UNL     1     -10.319  12.768  63.971  1.00  0.00    -0.415 OA 
BRANCH  26  27
HETATM   27  C   UNL     1     -10.299  11.374  63.593  1.00  0.00    -0.410 C  
HETATM   28  C   UNL     1      -9.153  11.142  62.614  1.00  0.00    -0.366 C  
HETATM   29  C   UNL     1     -10.112  10.516  64.840  1.00  0.00    -0.403 C  
ENDBRANCH  26  27
ENDBRANCH  24  26
ENDBRANCH  23  24
ENDBRANCH  22  23
ENDBRANCH  19  22
BRANCH  21  30
HETATM   30  C   UNL     1      -6.949  16.173  67.389  1.00  0.00    -0.182 C  
BRANCH  30  31
HETATM   31  O   UNL     1      -8.028  17.048  67.703  1.00  0.00    -0.172 OA 
BRANCH  31  32
HETATM   32  C   UNL     1      -7.694  18.061  68.536  1.00  0.00    -0.302 C  
HETATM   33  O   UNL     1      -6.671  18.128  69.205  1.00  0.00    -0.255 OA 
BRANCH  32  34
HETATM   34  O   UNL     1      -8.658  19.012  68.451  1.00  0.00    -0.322 OA 
BRANCH  34  35
HETATM   35  C   UNL     1      -9.360  19.100  67.195  1.00  0.00    -0.310 C  
HETATM   36  C   UNL     1      -8.542  20.003  66.275  1.00  0.00    -0.337 C  
HETATM   37  C   UNL     1     -10.750  19.692  67.402  1.00  0.00    -0.563 C  
ENDBRANCH  34  35
ENDBRANCH  32  34
ENDBRANCH  31  32
ENDBRANCH  30  31
ENDBRANCH  21  30
ENDBRANCH  16  17
ENDBRANCH   1  16
TORSDOF 14
ENDMDL
MODEL       73
REMARK 921   NORMALIZED FREE ENERGY PREDICTED BY IDOCK:   -5.49 KCAL/MOL
REMARK 922        TOTAL FREE ENERGY PREDICTED BY IDOCK:  -11.82 KCAL/MOL
REMARK 923 INTER-LIGAND FREE ENERGY PREDICTED BY IDOCK:  -10.24 KCAL/MOL
REMARK 924 INTRA-LIGAND FREE ENERGY PREDICTED BY IDOCK:   -1.58 KCAL/MOL
REMARK 927      BINDING AFFINITY PREDICTED BY RF-SCORE:    0.00 PKD
ROOT
HETATM    1  C   UNL     1     -10.792  13.279  65.374  1.00  0.00    -0.291 C  
HETATM    2  C   UNL     1     -11.534  14.560  65.001  1.00  0.00    -0.382 C  
ENDROOT
BRANCH   1   3
HETATM    3  C   UNL     1     -11.254  12.053  64.597  1.00  0.00    -0.326 C  
BRANCH   3   4
HETATM    4  N   UNL     1     -10.215  11.204  64.078  1.00  0.00    -0.330 NA 
HETATM    5  C   UNL     1      -9.742  10.124  64.758  1.00  0.00    -0.322 A  
HETATM    6  N   UNL     1      -8.520   7.920  65.598  1.00  0.00    -0.145 NA 
HETATM    7  C   UNL     1      -9.654  11.194  62.832  1.00  0.00    -0.348 A  
HETATM    8  N   UNL     1      -7.335   7.633  63.577  1.00  0.00    -0.084 NA 
HETATM    9  N   UNL     1     -10.065   9.737  66.001  1.00  0.00    -0.273 NA 
HETATM   10  C   UNL     1      -8.247   8.347  64.345  1.00  0.00    -0.138 A  
HETATM   11  N   UNL     1      -8.811  10.198  62.685  1.00  0.00    -0.206 NA 
HETATM   12  C   UNL     1      -9.408   8.618  66.339  1.00  0.00    -0.211 A  
HETATM   13  C   UNL     1      -8.875   9.508  63.877  1.00  0.00    -0.210 A  
HETATM   14  H1  UNL     1      -6.878   6.787  63.918  1.00  0.00     0.000 HD 
HETATM   15  H2  UNL     1      -6.605   8.280  63.283  1.00  0.00     0.000 HD 
ENDBRANCH   3   4
ENDBRANCH   1   3
BRANCH   1  16
HETATM   16  O   UNL     1     -10.849  13.118  66.807  1.00  0.00    -0.272 OA 
BRANCH  16  17
HETATM   17  C   UNL     1     -11.825  12.170  67.306  1.00  0.00    -0.223 C  
HETATM   18  O   UNL     1     -10.774  11.061  69.150  1.00  0.00    -0.214 OA 
HETATM   19  O   UNL     1     -11.267  13.629  69.289  1.00  0.00    -0.255 OA 
HETATM   20  P   UNL     1     -11.888  12.111  69.133  1.00  0.00    -0.231 P  
HETATM   21  O   UNL     1     -11.948  12.054  70.861  1.00  0.00    -0.226 OA 
BRANCH  19  22
HETATM   22  C   UNL     1     -12.137  14.734  69.414  1.00  0.00    -0.270 C  
BRANCH  22  23
HETATM   23  O   UNL     1     -11.789  15.794  68.516  1.00  0.00    -0.363 OA 
BRANCH  23  24
HETATM   24  C   UNL     1     -10.727  16.535  68.920  1.00  0.00    -0.337 C  
HETATM   25  O   UNL     1     -10.247  16.540  70.045  1.00  0.00    -0.079 OA 
BRANCH  24  26
HETATM   26  O   UNL     1     -10.289  17.292  67.878  1.00  0.00    -0.327 OA 
BRANCH  26  27
HETATM   27  C   UNL     1     -10.027  18.678  68.191  1.00  0.00    -0.358 C  
HETATM   28  C   UNL     1      -8.520  18.887  68.296  1.00  0.00    -0.365 C  
HETATM   29  C   UNL     1     -10.610  19.562  67.093  1.00  0.00    -0.605 C  
ENDBRANCH  26  27
ENDBRANCH  24  26
ENDBRANCH  23  24
ENDBRANCH  22  23
ENDBRANCH  19  22
BRANCH  21  30
HETATM   30  C   UNL     1     -13.127  11.449  71.346  1.00  0.00    -0.276 C  
BRANCH  30  31
HETATM   31  O   UNL     1     -13.239  10.095  70.918  1.00  0.00    -0.395 OA 
BRANCH  31  32
HETATM   32  C   UNL     1     -13.288   9.198  71.929  1.00  0.00    -0.427 C  
HETATM   33  O   UNL     1     -14.307   8.720  72.411  1.00  0.00    -0.509 OA 
BRANCH  32  34
HETATM   34  O   UNL     1     -12.015   8.877  72.270  1.00  0.00    -0.355 OA 
BRANCH  34  35
HETATM   35  C   UNL     1     -11.269   8.109  71.306  1.00  0.00    -0.260 C  
HETATM   36  C   UNL     1     -11.462   6.634  71.646  1.00  0.00    -0.332 C  
HETATM   37  C   UNL     1      -9.788   8.468  71.369  1.00  0.00    -0.296 C  
ENDBRANCH  34  35
ENDBRANCH  32  34
ENDBRANCH  31  32
ENDBRANCH  30  31
ENDBRANCH  21  30
ENDBRANCH  16  17
ENDBRANCH   1  16
TORSDOF 14
ENDMDL
MODEL       74
REMARK 921   NORMALIZED FREE ENERGY PREDICTED BY IDOCK:   -5.47 KCAL/MOL
REMARK 922        TOTAL FREE ENERGY PREDICTED BY IDOCK:  -11.79 KCAL/MOL
REMARK 923 INTER-LIGAND FREE ENERGY PREDICTED BY IDOCK:  -10.21 KCAL/MOL
REMARK 924 INTRA-LIGAND FREE ENERGY PREDICTED BY IDOCK:   -1.57 KCAL/MOL
REMARK 927      BINDING AFFINITY PREDICTED BY RF-SCORE:    0.00 PKD
ROOT
HETATM    1  C   UNL     1     -12.099  11.134  69.912  1.00  0.00    -0.344 C  
HETATM    2  C   UNL     1     -12.756  11.806  71.116  1.00  0.00    -0.405 C  
ENDROOT
BRANCH   1   3
HETATM    3  C   UNL     1     -10.927  10.232  70.276  1.00  0.00    -0.309 C  
BRANCH   3   4
HETATM    4  N   UNL     1     -10.221   9.636  69.174  1.00  0.00    -0.192 NA 
HETATM    5  C   UNL     1      -8.862   9.608  69.102  1.00  0.00    -0.157 A  
HETATM    6  N   UNL     1      -6.304   9.228  68.494  1.00  0.00    -0.052 NA 
HETATM    7  C   UNL     1     -10.711   8.883  68.144  1.00  0.00    -0.092 A  
HETATM    8  N   UNL     1      -6.801   7.921  66.593  1.00  0.00    -0.069 NA 
HETATM    9  N   UNL     1      -7.989  10.185  69.942  1.00  0.00    -0.164 NA 
HETATM   10  C   UNL     1      -7.230   8.654  67.693  1.00  0.00    -0.084 A  
HETATM   11  N   UNL     1      -9.748   8.411  67.384  1.00  0.00    -0.159 NA 
HETATM   12  C   UNL     1      -6.727   9.938  69.563  1.00  0.00    -0.057 A  
HETATM   13  C   UNL     1      -8.585   8.841  67.989  1.00  0.00    -0.134 A  
HETATM   14  H1  UNL     1      -5.813   7.785  66.378  1.00  0.00     0.000 HD 
HETATM   15  H2  UNL     1      -7.244   8.319  65.766  1.00  0.00     0.000 HD 
ENDBRANCH   3   4
ENDBRANCH   1   3
BRANCH   1  16
HETATM   16  O   UNL     1     -11.773  12.151  68.941  1.00  0.00    -0.288 OA 
BRANCH  16  17
HETATM   17  C   UNL     1     -11.828  13.521  69.408  1.00  0.00    -0.335 C  
HETATM   18  O   UNL     1      -9.674  14.457  68.940  1.00  0.00    -0.210 OA 
HETATM   19  O   UNL     1     -11.214  13.694  66.965  1.00  0.00    -0.298 OA 
HETATM   20  P   UNL     1     -11.023  14.696  68.259  1.00  0.00    -0.276 P  
HETATM   21  O   UNL     1     -10.262  15.807  67.173  1.00  0.00    -0.267 OA 
BRANCH  19  22
HETATM   22  C   UNL     1     -12.342  13.835  66.129  1.00  0.00    -0.452 C  
BRANCH  22  23
HETATM   23  O   UNL     1     -12.553  12.676  65.314  1.00  0.00    -0.630 OA 
BRANCH  23  24
HETATM   24  C   UNL     1     -12.190  12.838  64.017  1.00  0.00    -0.441 C  
HETATM   25  O   UNL     1     -12.463  13.803  63.315  1.00  0.00    -0.819 OA 
BRANCH  24  26
HETATM   26  O   UNL     1     -11.489  11.747  63.609  1.00  0.00    -0.420 OA 
BRANCH  26  27
HETATM   27  C   UNL     1     -10.060  11.822  63.810  1.00  0.00    -0.391 C  
HETATM   28  C   UNL     1      -9.717  11.221  65.169  1.00  0.00    -0.285 C  
HETATM   29  C   UNL     1      -9.354  11.053  62.697  1.00  0.00    -0.348 C  
ENDBRANCH  26  27
ENDBRANCH  24  26
ENDBRANCH  23  24
ENDBRANCH  22  23
ENDBRANCH  19  22
BRANCH  21  30
HETATM   30  C   UNL     1     -10.640  17.146  67.410  1.00  0.00    -0.297 C  
BRANCH  30  31
HETATM   31  O   UNL     1      -9.780  17.778  68.352  1.00  0.00    -0.300 OA 
BRANCH  31  32
HETATM   32  C   UNL     1      -9.815  19.130  68.314  1.00  0.00    -0.390 C  
HETATM   33  O   UNL     1     -10.697  19.807  67.801  1.00  0.00    -0.407 OA 
BRANCH  32  34
HETATM   34  O   UNL     1      -8.740  19.600  68.993  1.00  0.00    -0.297 OA 
BRANCH  34  35
HETATM   35  C   UNL     1      -7.450  19.128  68.556  1.00  0.00    -0.325 C  
HETATM   36  C   UNL     1      -6.472  19.334  69.708  1.00  0.00    -0.259 C  
HETATM   37  C   UNL     1      -6.984  19.908  67.331  1.00  0.00    -0.262 C  
ENDBRANCH  34  35
ENDBRANCH  32  34
ENDBRANCH  31  32
ENDBRANCH  30  31
ENDBRANCH  21  30
ENDBRANCH  16  17
ENDBRANCH   1  16
TORSDOF 14
ENDMDL
MODEL       75
REMARK 921   NORMALIZED FREE ENERGY PREDICTED BY IDOCK:   -5.46 KCAL/MOL
REMARK 922        TOTAL FREE ENERGY PREDICTED BY IDOCK:  -11.77 KCAL/MOL
REMARK 923 INTER-LIGAND FREE ENERGY PREDICTED BY IDOCK:  -10.19 KCAL/MOL
REMARK 924 INTRA-LIGAND FREE ENERGY PREDICTED BY IDOCK:   -1.59 KCAL/MOL
REMARK 927      BINDING AFFINITY PREDICTED BY RF-SCORE:    0.00 PKD
ROOT
HETATM    1  C   UNL     1      -8.135  12.389  67.949  1.00  0.00    -0.161 C  
HETATM    2  C   UNL     1      -6.727  12.171  68.500  1.00  0.00    -0.071 C  
ENDROOT
BRANCH   1   3
HETATM    3  C   UNL     1      -8.710  13.765  68.261  1.00  0.00    -0.179 C  
BRANCH   3   4
HETATM    4  N   UNL     1      -9.105  14.557  67.128  1.00  0.00    -0.214 NA 
HETATM    5  C   UNL     1     -10.281  14.362  66.471  1.00  0.00    -0.274 A  
HETATM    6  N   UNL     1     -12.420  14.456  64.897  1.00  0.00    -0.550 NA 
HETATM    7  C   UNL     1      -8.524  15.686  66.621  1.00  0.00    -0.288 A  
HETATM    8  N   UNL     1     -11.680  16.389  63.764  1.00  0.00    -1.498 NA 
HETATM    9  N   UNL     1     -11.183  13.391  66.682  1.00  0.00    -0.302 NA 
HETATM   10  C   UNL     1     -11.486  15.421  64.742  1.00  0.00    -0.336 A  
HETATM   11  N   UNL     1      -9.233  16.202  65.644  1.00  0.00    -0.394 NA 
HETATM   12  C   UNL     1     -12.227  13.519  65.851  1.00  0.00    -0.460 A  
HETATM   13  C   UNL     1     -10.347  15.394  65.556  1.00  0.00    -0.387 A  
HETATM   14  H1  UNL     1     -12.510  16.410  63.172  1.00  0.00     0.000 HD 
HETATM   15  H2  UNL     1     -10.865  16.377  63.152  1.00  0.00     0.000 HD 
ENDBRANCH   3   4
ENDBRANCH   1   3
BRANCH   1  16
HETATM   16  O   UNL     1      -8.970  11.295  68.384  1.00  0.00    -0.156 OA 
BRANCH  16  17
HETATM   17  C   UNL     1      -9.381  10.358  67.358  1.00  0.00    -0.145 C  
HETATM   18  O   UNL     1      -8.323   8.282  67.908  1.00  0.00    -0.126 OA 
HETATM   19  O   UNL     1     -10.109   9.299  69.531  1.00  0.00    -0.183 OA 
HETATM   20  P   UNL     1      -9.789   8.705  68.028  1.00  0.00    -0.186 P  
HETATM   21  O   UNL     1     -10.175   7.142  68.660  1.00  0.00    -0.168 OA 
BRANCH  19  22
HETATM   22  C   UNL     1     -11.433   9.638  69.885  1.00  0.00    -0.100 C  
BRANCH  22  23
HETATM   23  O   UNL     1     -11.503  10.238  71.183  1.00  0.00    -0.341 OA 
BRANCH  23  24
HETATM   24  C   UNL     1     -12.758  10.586  71.565  1.00  0.00    -0.452 C  
HETATM   25  O   UNL     1     -13.446   9.990  72.383  1.00  0.00    -0.364 OA 
BRANCH  24  26
HETATM   26  O   UNL     1     -13.142  11.694  70.878  1.00  0.00    -0.134 OA 
BRANCH  26  27
HETATM   27  C   UNL     1     -12.765  12.953  71.478  1.00  0.00    -0.239 C  
HETATM   28  C   UNL     1     -12.379  13.933  70.375  1.00  0.00    -0.433 C  
HETATM   29  C   UNL     1     -13.938  13.499  72.286  1.00  0.00    -0.638 C  
ENDBRANCH  26  27
ENDBRANCH  24  26
ENDBRANCH  23  24
ENDBRANCH  22  23
ENDBRANCH  19  22
BRANCH  21  30
HETATM   30  C   UNL     1     -10.931   6.361  67.760  1.00  0.00    -0.332 C  
BRANCH  30  31
HETATM   31  O   UNL     1     -10.259   5.153  67.418  1.00  0.00    -0.188 OA 
BRANCH  31  32
HETATM   32  C   UNL     1     -10.070   4.982  66.089  1.00  0.00    -0.236 C  
HETATM   33  O   UNL     1     -10.813   4.367  65.335  1.00  0.00    -0.252 OA 
BRANCH  32  34
HETATM   34  O   UNL     1      -8.951   5.661  65.732  1.00  0.00    -0.155 OA 
BRANCH  34  35
HETATM   35  C   UNL     1      -7.963   4.920  64.990  1.00  0.00    -0.099 C  
HETATM   36  C   UNL     1      -6.663   4.963  65.788  1.00  0.00    -0.056 C  
HETATM   37  C   UNL     1      -7.750   5.545  63.615  1.00  0.00    -0.089 C  
ENDBRANCH  34  35
ENDBRANCH  32  34
ENDBRANCH  31  32
ENDBRANCH  30  31
ENDBRANCH  21  30
ENDBRANCH  16  17
ENDBRANCH   1  16
TORSDOF 14
ENDMDL
MODEL       76
REMARK 921   NORMALIZED FREE ENERGY PREDICTED BY IDOCK:   -5.46 KCAL/MOL
REMARK 922        TOTAL FREE ENERGY PREDICTED BY IDOCK:  -11.77 KCAL/MOL
REMARK 923 INTER-LIGAND FREE ENERGY PREDICTED BY IDOCK:  -10.28 KCAL/MOL
REMARK 924 INTRA-LIGAND FREE ENERGY PREDICTED BY IDOCK:   -1.50 KCAL/MOL
REMARK 927      BINDING AFFINITY PREDICTED BY RF-SCORE:    0.00 PKD
ROOT
HETATM    1  C   UNL     1      -8.838   8.943  68.810  1.00  0.00    -0.137 C  
HETATM    2  C   UNL     1      -8.417  10.091  69.725  1.00  0.00    -0.189 C  
ENDROOT
BRANCH   1   3
HETATM    3  C   UNL     1      -7.671   8.128  68.270  1.00  0.00    -0.114 C  
BRANCH   3   4
HETATM    4  N   UNL     1      -8.009   7.051  67.379  1.00  0.00    -0.111 NA 
HETATM    5  C   UNL     1      -8.553   5.882  67.816  1.00  0.00    -0.105 A  
HETATM    6  N   UNL     1      -9.659   3.483  68.103  1.00  0.00    -0.147 NA 
HETATM    7  C   UNL     1      -8.022   7.035  66.013  1.00  0.00    -0.109 A  
HETATM    8  N   UNL     1      -9.779   3.101  65.777  1.00  0.00    -0.390 NA 
HETATM    9  N   UNL     1      -8.765   5.505  69.086  1.00  0.00    -0.103 NA 
HETATM   10  C   UNL     1      -9.439   3.924  66.844  1.00  0.00    -0.202 A  
HETATM   11  N   UNL     1      -8.497   5.904  65.543  1.00  0.00    -0.151 NA 
HETATM   12  C   UNL     1      -9.328   4.289  69.135  1.00  0.00    -0.161 A  
HETATM   13  C   UNL     1      -8.855   5.183  66.664  1.00  0.00    -0.112 A  
HETATM   14  H1  UNL     1     -10.205   2.184  65.909  1.00  0.00     0.000 HD 
HETATM   15  H2  UNL     1      -8.943   2.973  65.208  1.00  0.00     0.000 HD 
ENDBRANCH   3   4
ENDBRANCH   1   3
BRANCH   1  16
HETATM   16  O   UNL     1      -9.706   9.472  67.784  1.00  0.00    -0.141 OA 
BRANCH  16  17
HETATM   17  C   UNL     1      -9.378  10.793  67.288  1.00  0.00    -0.151 C  
HETATM   18  O   UNL     1     -10.819  11.161  65.411  1.00  0.00    -0.234 OA 
HETATM   19  O   UNL     1     -11.848  10.888  67.803  1.00  0.00    -0.579 OA 
HETATM   20  P   UNL     1     -10.858  11.762  66.818  1.00  0.00    -0.294 P  
HETATM   21  O   UNL     1     -12.256  12.678  66.373  1.00  0.00    -0.550 OA 
BRANCH  19  22
HETATM   22  C   UNL     1     -12.114  11.343  69.113  1.00  0.00    -0.264 C  
BRANCH  22  23
HETATM   23  O   UNL     1     -11.917  10.312  70.088  1.00  0.00    -0.262 OA 
BRANCH  23  24
HETATM   24  C   UNL     1     -12.552  10.536  71.266  1.00  0.00    -0.426 C  
HETATM   25  O   UNL     1     -12.944  11.623  71.669  1.00  0.00    -0.432 OA 
BRANCH  24  26
HETATM   26  O   UNL     1     -12.667   9.362  71.942  1.00  0.00    -0.349 OA 
BRANCH  26  27
HETATM   27  C   UNL     1     -11.754   8.322  71.529  1.00  0.00    -0.292 C  
HETATM   28  C   UNL     1     -10.724   8.099  72.632  1.00  0.00    -0.421 C  
HETATM   29  C   UNL     1     -12.536   7.039  71.268  1.00  0.00    -0.418 C  
ENDBRANCH  26  27
ENDBRANCH  24  26
ENDBRANCH  23  24
ENDBRANCH  22  23
ENDBRANCH  19  22
BRANCH  21  30
HETATM   30  C   UNL     1     -11.990  14.061  66.266  1.00  0.00    -0.432 C  
BRANCH  30  31
HETATM   31  O   UNL     1     -11.161  14.352  65.146  1.00  0.00    -0.325 OA 
BRANCH  31  32
HETATM   32  C   UNL     1     -11.468  15.510  64.517  1.00  0.00    -0.308 C  
HETATM   33  O   UNL     1     -12.533  15.765  63.969  1.00  0.00    -0.698 OA 
BRANCH  32  34
HETATM   34  O   UNL     1     -10.417  16.356  64.654  1.00  0.00    -0.548 OA 
BRANCH  34  35
HETATM   35  C   UNL     1     -10.065  16.726  66.002  1.00  0.00    -0.332 C  
HETATM   36  C   UNL     1     -10.291  18.229  66.139  1.00  0.00    -0.414 C  
HETATM   37  C   UNL     1      -8.604  16.392  66.282  1.00  0.00    -0.375 C  
ENDBRANCH  34  35
ENDBRANCH  32  34
ENDBRANCH  31  32
ENDBRANCH  30  31
ENDBRANCH  21  30
ENDBRANCH  16  17
ENDBRANCH   1  16
TORSDOF 14
ENDMDL
MODEL       77
REMARK 921   NORMALIZED FREE ENERGY PREDICTED BY IDOCK:   -5.46 KCAL/MOL
REMARK 922        TOTAL FREE ENERGY PREDICTED BY IDOCK:  -11.76 KCAL/MOL
REMARK 923 INTER-LIGAND FREE ENERGY PREDICTED BY IDOCK:   -9.76 KCAL/MOL
REMARK 924 INTRA-LIGAND FREE ENERGY PREDICTED BY IDOCK:   -2.00 KCAL/MOL
REMARK 927      BINDING AFFINITY PREDICTED BY RF-SCORE:    0.00 PKD
ROOT
HETATM    1  C   UNL     1     -11.141  14.089  65.787  1.00  0.00    -0.305 C  
HETATM    2  C   UNL     1     -11.450  15.164  64.748  1.00  0.00    -0.383 C  
ENDROOT
BRANCH   1   3
HETATM    3  C   UNL     1     -11.978  14.201  67.055  1.00  0.00    -0.439 C  
BRANCH   3   4
HETATM    4  N   UNL     1     -11.942  13.068  67.939  1.00  0.00    -0.333 NA 
HETATM    5  C   UNL     1     -12.253  13.159  69.261  1.00  0.00    -0.116 A  
HETATM    6  N   UNL     1     -12.804  12.761  71.829  1.00  0.00    -0.280 NA 
HETATM    7  C   UNL     1     -11.776  11.745  67.637  1.00  0.00    -0.250 A  
HETATM    8  N   UNL     1     -12.534  10.422  71.674  1.00  0.00    -0.395 NA 
HETATM    9  N   UNL     1     -12.533  14.271  69.959  1.00  0.00    -0.336 NA 
HETATM   10  C   UNL     1     -12.533  11.674  71.072  1.00  0.00    -0.334 A  
HETATM   11  N   UNL     1     -11.914  10.982  68.698  1.00  0.00    -0.536 NA 
HETATM   12  C   UNL     1     -12.802  13.976  71.239  1.00  0.00    -0.358 A  
HETATM   13  C   UNL     1     -12.236  11.855  69.716  1.00  0.00    -0.174 A  
HETATM   14  H1  UNL     1     -12.751  10.290  72.661  1.00  0.00     0.000 HD 
HETATM   15  H2  UNL     1     -11.626   9.994  71.498  1.00  0.00     0.000 HD 
ENDBRANCH   3   4
ENDBRANCH   1   3
BRANCH   1  16
HETATM   16  O   UNL     1      -9.717  14.079  66.026  1.00  0.00    -0.294 OA 
BRANCH  16  17
HETATM   17  C   UNL     1      -9.093  15.372  66.221  1.00  0.00    -0.320 C  
HETATM   18  O   UNL     1      -9.612  16.014  68.469  1.00  0.00    -0.204 OA 
HETATM   19  O   UNL     1      -8.124  13.904  68.032  1.00  0.00    -0.130 OA 
HETATM   20  P   UNL     1      -8.293  15.534  67.859  1.00  0.00    -0.152 P  
HETATM   21  O   UNL     1      -7.536  15.688  69.407  1.00  0.00    -0.209 OA 
BRANCH  19  22
HETATM   22  C   UNL     1      -6.921  13.278  67.640  1.00  0.00    -0.160 C  
BRANCH  22  23
HETATM   23  O   UNL     1      -6.990  11.854  67.776  1.00  0.00    -0.086 OA 
BRANCH  23  24
HETATM   24  C   UNL     1      -7.275  11.201  66.621  1.00  0.00    -0.144 C  
HETATM   25  O   UNL     1      -6.459  10.847  65.781  1.00  0.00    -0.109 OA 
BRANCH  24  26
HETATM   26  O   UNL     1      -8.620  11.019  66.532  1.00  0.00    -0.153 OA 
BRANCH  26  27
HETATM   27  C   UNL     1      -9.048  10.068  65.532  1.00  0.00    -0.186 C  
HETATM   28  C   UNL     1      -9.722   8.889  66.225  1.00  0.00    -0.345 C  
HETATM   29  C   UNL     1     -10.021  10.747  64.574  1.00  0.00    -0.395 C  
ENDBRANCH  26  27
ENDBRANCH  24  26
ENDBRANCH  23  24
ENDBRANCH  22  23
ENDBRANCH  19  22
BRANCH  21  30
HETATM   30  C   UNL     1      -6.615  16.756  69.460  1.00  0.00    -0.207 C  
BRANCH  30  31
HETATM   31  O   UNL     1      -6.813  17.675  68.390  1.00  0.00    -0.199 OA 
BRANCH  31  32
HETATM   32  C   UNL     1      -7.192  18.912  68.788  1.00  0.00    -0.318 C  
HETATM   33  O   UNL     1      -6.477  19.734  69.346  1.00  0.00    -0.312 OA 
BRANCH  32  34
HETATM   34  O   UNL     1      -8.479  19.102  68.405  1.00  0.00    -0.323 OA 
BRANCH  34  35
HETATM   35  C   UNL     1      -8.706  20.108  67.398  1.00  0.00    -0.344 C  
HETATM   36  C   UNL     1     -10.191  20.081  67.049  1.00  0.00    -0.587 C  
HETATM   37  C   UNL     1      -7.873  19.815  66.154  1.00  0.00    -0.344 C  
ENDBRANCH  34  35
ENDBRANCH  32  34
ENDBRANCH  31  32
ENDBRANCH  30  31
ENDBRANCH  21  30
ENDBRANCH  16  17
ENDBRANCH   1  16
TORSDOF 14
ENDMDL
MODEL       78
REMARK 921   NORMALIZED FREE ENERGY PREDICTED BY IDOCK:   -5.42 KCAL/MOL
REMARK 922        TOTAL FREE ENERGY PREDICTED BY IDOCK:  -11.70 KCAL/MOL
REMARK 923 INTER-LIGAND FREE ENERGY PREDICTED BY IDOCK:   -9.84 KCAL/MOL
REMARK 924 INTRA-LIGAND FREE ENERGY PREDICTED BY IDOCK:   -1.86 KCAL/MOL
REMARK 927      BINDING AFFINITY PREDICTED BY RF-SCORE:    0.00 PKD
ROOT
HETATM    1  C   UNL     1      -9.710  10.246  65.555  1.00  0.00    -0.265 C  
HETATM    2  C   UNL     1      -8.263  10.716  65.692  1.00  0.00    -0.154 C  
ENDROOT
BRANCH   1   3
HETATM    3  C   UNL     1     -10.708  11.096  66.330  1.00  0.00    -0.240 C  
BRANCH   3   4
HETATM    4  N   UNL     1     -11.236  12.241  65.637  1.00  0.00    -0.320 NA 
HETATM    5  C   UNL     1     -10.672  13.476  65.726  1.00  0.00    -0.275 A  
HETATM    6  N   UNL     1      -9.963  16.026  65.495  1.00  0.00    -0.459 NA 
HETATM    7  C   UNL     1     -12.221  12.296  64.691  1.00  0.00    -0.377 A  
HETATM    8  N   UNL     1     -11.608  16.487  63.868  1.00  0.00    -1.578 NA 
HETATM    9  N   UNL     1      -9.646  13.851  66.505  1.00  0.00    -0.283 NA 
HETATM   10  C   UNL     1     -10.979  15.587  64.720  1.00  0.00    -0.399 A  
HETATM   11  N   UNL     1     -12.357  13.506  64.199  1.00  0.00    -0.634 NA 
HETATM   12  C   UNL     1      -9.354  15.147  66.320  1.00  0.00    -0.313 A  
HETATM   13  C   UNL     1     -11.376  14.249  64.823  1.00  0.00    -0.382 A  
HETATM   14  H1  UNL     1     -11.319  17.462  63.792  1.00  0.00     0.000 HD 
HETATM   15  H2  UNL     1     -12.604  16.477  64.089  1.00  0.00     0.000 HD 
ENDBRANCH   3   4
ENDBRANCH   1   3
BRANCH   1  16
HETATM   16  O   UNL     1      -9.767   8.840  65.877  1.00  0.00    -0.237 OA 
BRANCH  16  17
HETATM   17  C   UNL     1     -10.844   8.428  66.754  1.00  0.00     0.206 C  
HETATM   18  O   UNL     1     -10.771   6.035  66.796  1.00  0.00    -0.291 OA 
HETATM   19  O   UNL     1      -8.763   7.412  67.761  1.00  0.00    -0.126 OA 
HETATM   20  P   UNL     1     -10.369   7.054  67.864  1.00  0.00    -0.233 P  
HETATM   21  O   UNL     1      -9.920   5.755  68.915  1.00  0.00    -0.140 OA 
BRANCH  19  22
HETATM   22  C   UNL     1      -8.166   8.244  68.731  1.00  0.00    -0.117 C  
BRANCH  22  23
HETATM   23  O   UNL     1      -9.133   9.055  69.410  1.00  0.00    -0.141 OA 
BRANCH  23  24
HETATM   24  C   UNL     1      -8.842   9.287  70.715  1.00  0.00    -0.225 C  
HETATM   25  O   UNL     1      -7.719   9.332  71.198  1.00  0.00    -0.282 OA 
BRANCH  24  26
HETATM   26  O   UNL     1     -10.001   9.441  71.409  1.00  0.00    -0.286 OA 
BRANCH  26  27
HETATM   27  C   UNL     1     -11.201   9.478  70.606  1.00  0.00    -0.302 C  
HETATM   28  C   UNL     1     -12.193   8.454  71.146  1.00  0.00    -0.248 C  
HETATM   29  C   UNL     1     -11.802  10.879  70.662  1.00  0.00    -0.453 C  
ENDBRANCH  26  27
ENDBRANCH  24  26
ENDBRANCH  23  24
ENDBRANCH  22  23
ENDBRANCH  19  22
BRANCH  21  30
HETATM   30  C   UNL     1     -10.799   5.611  70.011  1.00  0.00    -0.296 C  
BRANCH  30  31
HETATM   31  O   UNL     1     -10.345   4.615  70.922  1.00  0.00    -0.177 OA 
BRANCH  31  32
HETATM   32  C   UNL     1     -10.154   5.067  72.183  1.00  0.00    -0.196 C  
HETATM   33  O   UNL     1     -11.019   5.530  72.915  1.00  0.00    -0.245 OA 
BRANCH  32  34
HETATM   34  O   UNL     1      -8.855   4.860  72.513  1.00  0.00    -0.121 OA 
BRANCH  34  35
HETATM   35  C   UNL     1      -7.955   5.964  72.294  1.00  0.00    -0.107 C  
HETATM   36  C   UNL     1      -7.022   5.575  71.151  1.00  0.00    -0.065 C  
HETATM   37  C   UNL     1      -7.145   6.251  73.553  1.00  0.00    -0.083 C  
ENDBRANCH  34  35
ENDBRANCH  32  34
ENDBRANCH  31  32
ENDBRANCH  30  31
ENDBRANCH  21  30
ENDBRANCH  16  17
ENDBRANCH   1  16
TORSDOF 14
ENDMDL
MODEL       79
REMARK 921   NORMALIZED FREE ENERGY PREDICTED BY IDOCK:   -5.41 KCAL/MOL
REMARK 922        TOTAL FREE ENERGY PREDICTED BY IDOCK:  -11.68 KCAL/MOL
REMARK 923 INTER-LIGAND FREE ENERGY PREDICTED BY IDOCK:   -9.79 KCAL/MOL
REMARK 924 INTRA-LIGAND FREE ENERGY PREDICTED BY IDOCK:   -1.89 KCAL/MOL
REMARK 927      BINDING AFFINITY PREDICTED BY RF-SCORE:    0.00 PKD
ROOT
HETATM    1  C   UNL     1     -10.950  14.113  66.495  1.00  0.00    -0.309 C  
HETATM    2  C   UNL     1     -12.250  13.762  65.775  1.00  0.00    -0.495 C  
ENDROOT
BRANCH   1   3
HETATM    3  C   UNL     1     -10.015  14.998  65.680  1.00  0.00    -0.355 C  
BRANCH   3   4
HETATM    4  N   UNL     1     -10.232  16.415  65.788  1.00  0.00    -0.435 NA 
HETATM    5  C   UNL     1      -9.568  17.193  66.685  1.00  0.00    -0.267 A  
HETATM    6  N   UNL     1      -8.538  19.146  68.164  1.00  0.00    -0.312 NA 
HETATM    7  C   UNL     1     -10.953  17.240  64.971  1.00  0.00     0.208 A  
HETATM    8  N   UNL     1      -9.691  20.838  66.991  1.00  0.00    -0.659 NA 
HETATM    9  N   UNL     1      -8.718  16.790  67.643  1.00  0.00    -0.202 NA 
HETATM   10  C   UNL     1      -9.387  19.494  67.171  1.00  0.00    -0.326 A  
HETATM   11  N   UNL     1     -10.830  18.501  65.320  1.00  0.00    -0.466 NA 
HETATM   12  C   UNL     1      -8.246  17.838  68.333  1.00  0.00    -0.298 A  
HETATM   13  C   UNL     1      -9.947  18.485  66.378  1.00  0.00    -0.379 A  
HETATM   14  H1  UNL     1      -9.283  21.573  67.568  1.00  0.00     0.000 HD 
HETATM   15  H2  UNL     1     -10.705  20.934  67.041  1.00  0.00     0.000 HD 
ENDBRANCH   3   4
ENDBRANCH   1   3
BRANCH   1  16
HETATM   16  O   UNL     1     -10.340  12.890  66.959  1.00  0.00    -0.240 OA 
BRANCH  16  17
HETATM   17  C   UNL     1     -10.176  12.760  68.392  1.00  0.00    -0.236 C  
HETATM   18  O   UNL     1     -12.391  12.653  69.295  1.00  0.00    -0.102 OA 
HETATM   19  O   UNL     1     -11.541  10.748  67.712  1.00  0.00    -0.521 OA 
HETATM   20  P   UNL     1     -11.336  11.556  69.134  1.00  0.00    -0.335 P  
HETATM   21  O   UNL     1     -12.433  10.417  69.836  1.00  0.00    -0.204 OA 
BRANCH  19  22
HETATM   22  C   UNL     1     -10.742   9.621  67.425  1.00  0.00    -0.241 C  
BRANCH  22  23
HETATM   23  O   UNL     1      -9.770   9.378  68.449  1.00  0.00    -0.145 OA 
BRANCH  23  24
HETATM   24  C   UNL     1      -9.457   8.068  68.615  1.00  0.00    -0.147 C  
HETATM   25  O   UNL     1     -10.074   7.122  68.143  1.00  0.00    -0.157 OA 
BRANCH  24  26
HETATM   26  O   UNL     1      -8.358   7.969  69.409  1.00  0.00    -0.127 OA 
BRANCH  26  27
HETATM   27  C   UNL     1      -8.157   9.069  70.323  1.00  0.00    -0.136 C  
HETATM   28  C   UNL     1      -8.339   8.568  71.751  1.00  0.00    -0.221 C  
HETATM   29  C   UNL     1      -6.751   9.631  70.133  1.00  0.00    -0.089 C  
ENDBRANCH  26  27
ENDBRANCH  24  26
ENDBRANCH  23  24
ENDBRANCH  22  23
ENDBRANCH  19  22
BRANCH  21  30
HETATM   30  C   UNL     1     -12.035   9.999  71.124  1.00  0.00    -0.392 C  
BRANCH  30  31
HETATM   31  O   UNL     1     -11.644   8.630  71.137  1.00  0.00    -0.267 OA 
BRANCH  31  32
HETATM   32  C   UNL     1     -12.643   7.773  71.448  1.00  0.00    -0.317 C  
HETATM   33  O   UNL     1     -13.743   8.086  71.885  1.00  0.00    -0.343 OA 
BRANCH  32  34
HETATM   34  O   UNL     1     -12.235   6.518  71.135  1.00  0.00    -0.335 OA 
BRANCH  34  35
HETATM   35  C   UNL     1     -11.014   6.069  71.755  1.00  0.00    -0.269 C  
HETATM   36  C   UNL     1     -10.310   5.145  70.765  1.00  0.00    -0.294 C  
HETATM   37  C   UNL     1     -11.318   5.315  73.046  1.00  0.00    -0.376 C  
ENDBRANCH  34  35
ENDBRANCH  32  34
ENDBRANCH  31  32
ENDBRANCH  30  31
ENDBRANCH  21  30
ENDBRANCH  16  17
ENDBRANCH   1  16
TORSDOF 14
ENDMDL
MODEL       80
REMARK 921   NORMALIZED FREE ENERGY PREDICTED BY IDOCK:   -5.41 KCAL/MOL
REMARK 922        TOTAL FREE ENERGY PREDICTED BY IDOCK:  -11.68 KCAL/MOL
REMARK 923 INTER-LIGAND FREE ENERGY PREDICTED BY IDOCK:  -10.45 KCAL/MOL
REMARK 924 INTRA-LIGAND FREE ENERGY PREDICTED BY IDOCK:   -1.24 KCAL/MOL
REMARK 927      BINDING AFFINITY PREDICTED BY RF-SCORE:    0.00 PKD
ROOT
HETATM    1  C   UNL     1      -9.751   8.273  66.904  1.00  0.00    -0.225 C  
HETATM    2  C   UNL     1      -8.706   7.831  65.882  1.00  0.00    -0.175 C  
ENDROOT
BRANCH   1   3
HETATM    3  C   UNL     1     -10.697   7.160  67.336  1.00  0.00    -0.298 C  
BRANCH   3   4
HETATM    4  N   UNL     1     -10.634   6.778  68.721  1.00  0.00    -0.211 NA 
HETATM    5  C   UNL     1     -10.848   7.659  69.736  1.00  0.00    -0.217 A  
HETATM    6  N   UNL     1     -11.229   8.908  72.050  1.00  0.00    -0.368 NA 
HETATM    7  C   UNL     1     -10.529   5.529  69.266  1.00  0.00    -0.266 A  
HETATM    8  N   UNL     1     -11.041   6.926  73.316  1.00  0.00    -0.515 NA 
HETATM    9  N   UNL     1     -11.045   8.984  69.639  1.00  0.00    -0.135 NA 
HETATM   10  C   UNL     1     -11.044   7.569  72.084  1.00  0.00    -0.256 A  
HETATM   11  N   UNL     1     -10.615   5.560  70.576  1.00  0.00    -0.278 NA 
HETATM   12  C   UNL     1     -11.232   9.528  70.850  1.00  0.00    -0.341 A  
HETATM   13  C   UNL     1     -10.838   6.886  70.880  1.00  0.00    -0.244 A  
HETATM   14  H1  UNL     1     -11.192   7.423  74.193  1.00  0.00     0.000 HD 
HETATM   15  H2  UNL     1     -10.161   6.418  73.397  1.00  0.00     0.000 HD 
ENDBRANCH   3   4
ENDBRANCH   1   3
BRANCH   1  16
HETATM   16  O   UNL     1     -10.423   9.444  66.393  1.00  0.00    -0.204 OA 
BRANCH  16  17
HETATM   17  C   UNL     1      -9.570  10.499  65.883  1.00  0.00    -0.204 C  
HETATM   18  O   UNL     1     -10.803  11.535  64.111  1.00  0.00    -0.331 OA 
HETATM   19  O   UNL     1     -11.703  11.664  66.567  1.00  0.00    -0.498 OA 
HETATM   20  P   UNL     1     -10.486  12.040  65.520  1.00  0.00    -0.291 P  
HETATM   21  O   UNL     1     -11.352  13.498  65.177  1.00  0.00    -0.294 OA 
BRANCH  19  22
HETATM   22  C   UNL     1     -11.660  12.143  67.893  1.00  0.00    -0.347 C  
BRANCH  22  23
HETATM   23  O   UNL     1     -11.700  13.574  67.947  1.00  0.00    -0.316 OA 
BRANCH  23  24
HETATM   24  C   UNL     1     -11.309  14.094  69.138  1.00  0.00    -0.279 C  
HETATM   25  O   UNL     1     -11.641  13.680  70.241  1.00  0.00    -0.216 OA 
BRANCH  24  26
HETATM   26  O   UNL     1     -10.502  15.166  68.914  1.00  0.00    -0.225 OA 
BRANCH  26  27
HETATM   27  C   UNL     1      -9.114  14.977  69.268  1.00  0.00    -0.157 C  
HETATM   28  C   UNL     1      -8.485  13.983  68.298  1.00  0.00    -0.171 C  
HETATM   29  C   UNL     1      -8.390  16.318  69.199  1.00  0.00    -0.211 C  
ENDBRANCH  26  27
ENDBRANCH  24  26
ENDBRANCH  23  24
ENDBRANCH  22  23
ENDBRANCH  19  22
BRANCH  21  30
HETATM   30  C   UNL     1     -10.504  14.621  65.060  1.00  0.00    -0.421 C  
BRANCH  30  31
HETATM   31  O   UNL     1     -11.041  15.758  65.729  1.00  0.00    -0.248 OA 
BRANCH  31  32
HETATM   32  C   UNL     1     -10.120  16.697  66.048  1.00  0.00    -0.340 C  
HETATM   33  O   UNL     1      -8.937  16.671  65.737  1.00  0.00    -0.498 OA 
BRANCH  32  34
HETATM   34  O   UNL     1     -10.750  17.694  66.717  1.00  0.00    -0.262 OA 
BRANCH  34  35
HETATM   35  C   UNL     1     -10.024  18.932  66.851  1.00  0.00    -0.345 C  
HETATM   36  C   UNL     1     -10.227  19.430  68.279  1.00  0.00    -0.535 C  
HETATM   37  C   UNL     1     -10.547  19.967  65.860  1.00  0.00    -0.523 C  
ENDBRANCH  34  35
ENDBRANCH  32  34
ENDBRANCH  31  32
ENDBRANCH  30  31
ENDBRANCH  21  30
ENDBRANCH  16  17
ENDBRANCH   1  16
TORSDOF 14
ENDMDL
MODEL       81
REMARK 921   NORMALIZED FREE ENERGY PREDICTED BY IDOCK:   -5.40 KCAL/MOL
REMARK 922        TOTAL FREE ENERGY PREDICTED BY IDOCK:  -11.66 KCAL/MOL
REMARK 923 INTER-LIGAND FREE ENERGY PREDICTED BY IDOCK:  -10.20 KCAL/MOL
REMARK 924 INTRA-LIGAND FREE ENERGY PREDICTED BY IDOCK:   -1.46 KCAL/MOL
REMARK 927      BINDING AFFINITY PREDICTED BY RF-SCORE:    0.00 PKD
ROOT
HETATM    1  C   UNL     1     -10.527  12.391  63.718  1.00  0.00    -0.443 C  
HETATM    2  C   UNL     1     -11.966  12.864  63.524  1.00  0.00    -0.629 C  
ENDROOT
BRANCH   1   3
HETATM    3  C   UNL     1     -10.311  10.923  63.376  1.00  0.00    -0.235 C  
BRANCH   3   4
HETATM    4  N   UNL     1      -9.103  10.326  63.880  1.00  0.00    -0.231 NA 
HETATM    5  C   UNL     1      -9.066   9.610  65.036  1.00  0.00    -0.233 A  
HETATM    6  N   UNL     1      -8.448   8.103  67.135  1.00  0.00    -0.123 NA 
HETATM    7  C   UNL     1      -7.883  10.211  63.276  1.00  0.00    -0.155 A  
HETATM    8  N   UNL     1      -6.232   7.744  66.408  1.00  0.00    -0.045 NA 
HETATM    9  N   UNL     1     -10.065   9.425  65.914  1.00  0.00    -0.262 NA 
HETATM   10  C   UNL     1      -7.487   8.308  66.207  1.00  0.00    -0.079 A  
HETATM   11  N   UNL     1      -7.046   9.502  63.999  1.00  0.00    -0.104 NA 
HETATM   12  C   UNL     1      -9.666   8.652  66.934  1.00  0.00    -0.214 A  
HETATM   13  C   UNL     1      -7.784   9.100  65.093  1.00  0.00    -0.104 A  
HETATM   14  H1  UNL     1      -6.016   7.167  67.220  1.00  0.00     0.000 HD 
HETATM   15  H2  UNL     1      -5.547   8.498  66.375  1.00  0.00     0.000 HD 
ENDBRANCH   3   4
ENDBRANCH   1   3
BRANCH   1  16
HETATM   16  O   UNL     1     -10.105  12.748  65.052  1.00  0.00    -0.275 OA 
BRANCH  16  17
HETATM   17  C   UNL     1     -11.154  12.869  66.043  1.00  0.00    -0.281 C  
HETATM   18  O   UNL     1     -10.046  13.356  68.110  1.00  0.00    -0.231 OA 
HETATM   19  O   UNL     1      -9.921  15.070  66.134  1.00  0.00    -0.258 OA 
HETATM   20  P   UNL     1     -10.881  14.260  67.200  1.00  0.00    -0.308 P  
HETATM   21  O   UNL     1     -10.624  15.576  68.294  1.00  0.00    -0.243 OA 
BRANCH  19  22
HETATM   22  C   UNL     1     -10.484  16.045  65.282  1.00  0.00    -0.358 C  
BRANCH  22  23
HETATM   23  O   UNL     1     -10.049  17.367  65.621  1.00  0.00    -0.566 OA 
BRANCH  23  24
HETATM   24  C   UNL     1      -8.818  17.415  66.191  1.00  0.00    -0.145 C  
HETATM   25  O   UNL     1      -7.809  16.878  65.756  1.00  0.00    -0.328 OA 
BRANCH  24  26
HETATM   26  O   UNL     1      -8.887  18.141  67.339  1.00  0.00    -0.252 OA 
BRANCH  26  27
HETATM   27  C   UNL     1      -9.351  19.500  67.182  1.00  0.00    -0.326 C  
HETATM   28  C   UNL     1     -10.438  19.776  68.215  1.00  0.00    -0.449 C  
HETATM   29  C   UNL     1      -8.179  20.458  67.376  1.00  0.00    -0.376 C  
ENDBRANCH  26  27
ENDBRANCH  24  26
ENDBRANCH  23  24
ENDBRANCH  22  23
ENDBRANCH  19  22
BRANCH  21  30
HETATM   30  C   UNL     1     -11.795  15.940  68.994  1.00  0.00    -0.318 C  
BRANCH  30  31
HETATM   31  O   UNL     1     -11.558  16.048  70.394  1.00  0.00    -0.349 OA 
BRANCH  31  32
HETATM   32  C   UNL     1     -12.517  15.479  71.162  1.00  0.00    -0.432 C  
HETATM   33  O   UNL     1     -13.030  15.982  72.153  1.00  0.00    -0.447 OA 
BRANCH  32  34
HETATM   34  O   UNL     1     -12.849  14.288  70.606  1.00  0.00    -0.345 OA 
BRANCH  34  35
HETATM   35  C   UNL     1     -12.478  13.110  71.350  1.00  0.00    -0.172 C  
HETATM   36  C   UNL     1     -12.268  11.981  70.345  1.00  0.00    -0.379 C  
HETATM   37  C   UNL     1     -13.580  12.732  72.334  1.00  0.00    -0.507 C  
ENDBRANCH  34  35
ENDBRANCH  32  34
ENDBRANCH  31  32
ENDBRANCH  30  31
ENDBRANCH  21  30
ENDBRANCH  16  17
ENDBRANCH   1  16
TORSDOF 14
ENDMDL
MODEL       82
REMARK 921   NORMALIZED FREE ENERGY PREDICTED BY IDOCK:   -5.39 KCAL/MOL
REMARK 922        TOTAL FREE ENERGY PREDICTED BY IDOCK:  -11.65 KCAL/MOL
REMARK 923 INTER-LIGAND FREE ENERGY PREDICTED BY IDOCK:  -10.12 KCAL/MOL
REMARK 924 INTRA-LIGAND FREE ENERGY PREDICTED BY IDOCK:   -1.53 KCAL/MOL
REMARK 927      BINDING AFFINITY PREDICTED BY RF-SCORE:    0.00 PKD
ROOT
HETATM    1  C   UNL     1     -12.298  10.903  70.571  1.00  0.00    -0.374 C  
HETATM    2  C   UNL     1     -12.934  11.976  71.453  1.00  0.00    -0.362 C  
ENDROOT
BRANCH   1   3
HETATM    3  C   UNL     1     -11.815   9.681  71.341  1.00  0.00    -0.406 C  
BRANCH   3   4
HETATM    4  N   UNL     1     -10.748   8.932  70.735  1.00  0.00    -0.218 NA 
HETATM    5  C   UNL     1      -9.691   8.453  71.446  1.00  0.00    -0.199 A  
HETATM    6  N   UNL     1      -7.488   7.264  72.336  1.00  0.00    -0.082 NA 
HETATM    7  C   UNL     1     -10.658   8.434  69.465  1.00  0.00    -0.213 A  
HETATM    8  N   UNL     1      -6.999   6.286  70.245  1.00  0.00    -0.060 NA 
HETATM    9  N   UNL     1      -9.417   8.665  72.743  1.00  0.00    -0.235 NA 
HETATM   10  C   UNL     1      -7.825   7.070  71.041  1.00  0.00    -0.096 A  
HETATM   11  N   UNL     1      -9.580   7.701  69.304  1.00  0.00    -0.159 NA 
HETATM   12  C   UNL     1      -8.296   8.026  73.105  1.00  0.00    -0.195 A  
HETATM   13  C   UNL     1      -8.979   7.687  70.545  1.00  0.00    -0.151 A  
HETATM   14  H1  UNL     1      -6.158   5.835  70.607  1.00  0.00     0.000 HD 
HETATM   15  H2  UNL     1      -6.725   6.846  69.438  1.00  0.00     0.000 HD 
ENDBRANCH   3   4
ENDBRANCH   1   3
BRANCH   1  16
HETATM   16  O   UNL     1     -11.277  11.524  69.761  1.00  0.00    -0.240 OA 
BRANCH  16  17
HETATM   17  C   UNL     1     -11.722  12.569  68.862  1.00  0.00    -0.322 C  
HETATM   18  O   UNL     1     -10.216  14.401  69.195  1.00  0.00    -0.212 OA 
HETATM   19  O   UNL     1      -9.317  12.142  68.220  1.00  0.00    -0.198 OA 
HETATM   20  P   UNL     1     -10.337  13.422  68.025  1.00  0.00    -0.251 P  
HETATM   21  O   UNL     1      -9.027  14.230  67.233  1.00  0.00    -0.192 OA 
BRANCH  19  22
HETATM   22  C   UNL     1      -9.190  11.183  67.193  1.00  0.00    -0.158 C  
BRANCH  22  23
HETATM   23  O   UNL     1     -10.405  11.032  66.448  1.00  0.00    -0.235 OA 
BRANCH  23  24
HETATM   24  C   UNL     1     -10.234  11.049  65.102  1.00  0.00    -0.291 C  
HETATM   25  O   UNL     1      -9.651  10.196  64.446  1.00  0.00    -0.287 OA 
BRANCH  24  26
HETATM   26  O   UNL     1     -10.797  12.178  64.595  1.00  0.00    -0.282 OA 
BRANCH  26  27
HETATM   27  C   UNL     1     -12.241  12.211  64.619  1.00  0.00    -0.298 C  
HETATM   28  C   UNL     1     -12.699  13.608  65.024  1.00  0.00    -0.384 C  
HETATM   29  C   UNL     1     -12.776  11.858  63.235  1.00  0.00    -0.407 C  
ENDBRANCH  26  27
ENDBRANCH  24  26
ENDBRANCH  23  24
ENDBRANCH  22  23
ENDBRANCH  19  22
BRANCH  21  30
HETATM   30  C   UNL     1      -9.443  14.956  66.096  1.00  0.00    -0.295 C  
BRANCH  30  31
HETATM   31  O   UNL     1     -10.484  15.876  66.410  1.00  0.00    -0.296 OA 
BRANCH  31  32
HETATM   32  C   UNL     1     -10.457  17.013  65.677  1.00  0.00    -0.216 C  
HETATM   33  O   UNL     1     -11.071  17.205  64.635  1.00  0.00    -1.036 OA 
BRANCH  32  34
HETATM   34  O   UNL     1      -9.684  17.916  66.328  1.00  0.00    -0.365 OA 
BRANCH  34  35
HETATM   35  C   UNL     1     -10.364  18.804  67.237  1.00  0.00    -0.416 C  
HETATM   36  C   UNL     1     -10.279  20.211  66.653  1.00  0.00    -0.556 C  
HETATM   37  C   UNL     1      -9.704  18.769  68.611  1.00  0.00    -0.437 C  
ENDBRANCH  34  35
ENDBRANCH  32  34
ENDBRANCH  31  32
ENDBRANCH  30  31
ENDBRANCH  21  30
ENDBRANCH  16  17
ENDBRANCH   1  16
TORSDOF 14
ENDMDL
MODEL       83
REMARK 921   NORMALIZED FREE ENERGY PREDICTED BY IDOCK:   -5.39 KCAL/MOL
REMARK 922        TOTAL FREE ENERGY PREDICTED BY IDOCK:  -11.65 KCAL/MOL
REMARK 923 INTER-LIGAND FREE ENERGY PREDICTED BY IDOCK:  -10.14 KCAL/MOL
REMARK 924 INTRA-LIGAND FREE ENERGY PREDICTED BY IDOCK:   -1.51 KCAL/MOL
REMARK 927      BINDING AFFINITY PREDICTED BY RF-SCORE:    0.00 PKD
ROOT
HETATM    1  C   UNL     1     -10.715  11.092  68.080  1.00  0.00    -0.204 C  
HETATM    2  C   UNL     1      -9.255  11.488  68.286  1.00  0.00    -0.186 C  
ENDROOT
BRANCH   1   3
HETATM    3  C   UNL     1     -11.696  12.240  68.275  1.00  0.00    -0.336 C  
BRANCH   3   4
HETATM    4  N   UNL     1     -11.500  13.391  67.435  1.00  0.00    -0.315 NA 
HETATM    5  C   UNL     1     -11.878  13.417  66.128  1.00  0.00    -0.385 A  
HETATM    6  N   UNL     1     -12.459  14.026  63.608  1.00  0.00    -0.809 NA 
HETATM    7  C   UNL     1     -11.091  14.649  67.779  1.00  0.00    -0.298 A  
HETATM    8  N   UNL     1     -11.776  16.272  63.840  1.00  0.00    -1.518 NA 
HETATM    9  N   UNL     1     -12.378  12.405  65.402  1.00  0.00    -0.614 NA 
HETATM   10  C   UNL     1     -11.969  15.011  64.392  1.00  0.00    -0.353 A  
HETATM   11  N   UNL     1     -11.138  15.473  66.757  1.00  0.00    -0.261 NA 
HETATM   12  C   UNL     1     -12.646  12.803  64.150  1.00  0.00    -0.305 A  
HETATM   13  C   UNL     1     -11.651  14.718  65.723  1.00  0.00    -0.290 A  
HETATM   14  H1  UNL     1     -12.007  16.486  62.871  1.00  0.00     0.000 HD 
HETATM   15  H2  UNL     1     -10.799  16.527  63.987  1.00  0.00     0.000 HD 
ENDBRANCH   3   4
ENDBRANCH   1   3
BRANCH   1  16
HETATM   16  O   UNL     1     -10.996   9.938  68.901  1.00  0.00    -0.220 OA 
BRANCH  16  17
HETATM   17  C   UNL     1     -10.547  10.006  70.276  1.00  0.00    -0.295 C  
HETATM   18  O   UNL     1     -12.386   9.237  71.603  1.00  0.00    -0.326 OA 
HETATM   19  O   UNL     1     -11.214   7.596  69.932  1.00  0.00    -0.204 OA 
HETATM   20  P   UNL     1     -11.059   8.554  71.264  1.00  0.00    -0.303 P  
HETATM   21  O   UNL     1     -11.542   7.180  72.198  1.00  0.00    -0.266 OA 
BRANCH  19  22
HETATM   22  C   UNL     1     -10.134   6.786  69.521  1.00  0.00    -0.178 C  
BRANCH  22  23
HETATM   23  O   UNL     1      -9.482   7.312  68.358  1.00  0.00    -0.142 OA 
BRANCH  23  24
HETATM   24  C   UNL     1      -9.954   6.814  67.187  1.00  0.00    -0.167 C  
HETATM   25  O   UNL     1     -10.950   6.115  67.058  1.00  0.00    -0.340 OA 
BRANCH  24  26
HETATM   26  O   UNL     1      -9.130   7.198  66.176  1.00  0.00    -0.166 OA 
BRANCH  26  27
HETATM   27  C   UNL     1      -8.607   8.540  66.283  1.00  0.00    -0.129 C  
HETATM   28  C   UNL     1      -7.089   8.472  66.418  1.00  0.00    -0.079 C  
HETATM   29  C   UNL     1      -8.993   9.333  65.038  1.00  0.00    -0.245 C  
ENDBRANCH  26  27
ENDBRANCH  24  26
ENDBRANCH  23  24
ENDBRANCH  22  23
ENDBRANCH  19  22
BRANCH  21  30
HETATM   30  C   UNL     1     -10.802   7.045  73.392  1.00  0.00    -0.299 C  
BRANCH  30  31
HETATM   31  O   UNL     1      -9.661   7.898  73.404  1.00  0.00    -0.293 OA 
BRANCH  31  32
HETATM   32  C   UNL     1      -8.541   7.317  73.893  1.00  0.00    -0.180 C  
HETATM   33  O   UNL     1      -8.451   6.163  74.291  1.00  0.00    -0.115 OA 
BRANCH  32  34
HETATM   34  O   UNL     1      -7.529   8.215  73.807  1.00  0.00    -0.146 OA 
BRANCH  34  35
HETATM   35  C   UNL     1      -6.472   7.900  72.879  1.00  0.00    -0.072 C  
HETATM   36  C   UNL     1      -5.681   9.182  72.634  1.00  0.00    -0.030 C  
HETATM   37  C   UNL     1      -7.051   7.386  71.565  1.00  0.00    -0.066 C  
ENDBRANCH  34  35
ENDBRANCH  32  34
ENDBRANCH  31  32
ENDBRANCH  30  31
ENDBRANCH  21  30
ENDBRANCH  16  17
ENDBRANCH   1  16
TORSDOF 14
ENDMDL
MODEL       84
REMARK 921   NORMALIZED FREE ENERGY PREDICTED BY IDOCK:   -5.38 KCAL/MOL
REMARK 922        TOTAL FREE ENERGY PREDICTED BY IDOCK:  -11.63 KCAL/MOL
REMARK 923 INTER-LIGAND FREE ENERGY PREDICTED BY IDOCK:   -9.93 KCAL/MOL
REMARK 924 INTRA-LIGAND FREE ENERGY PREDICTED BY IDOCK:   -1.70 KCAL/MOL
REMARK 927      BINDING AFFINITY PREDICTED BY RF-SCORE:    0.00 PKD
ROOT
HETATM    1  C   UNL     1     -11.278  14.300  66.208  1.00  0.00    -0.337 C  
HETATM    2  C   UNL     1     -12.609  13.821  65.633  1.00  0.00    -0.551 C  
ENDROOT
BRANCH   1   3
HETATM    3  C   UNL     1     -10.464  15.154  65.244  1.00  0.00    -0.409 C  
BRANCH   3   4
HETATM    4  N   UNL     1     -10.182  16.498  65.673  1.00  0.00    -0.535 NA 
HETATM    5  C   UNL     1      -8.999  16.852  66.244  1.00  0.00    -0.270 A  
HETATM    6  N   UNL     1      -6.905  18.080  67.325  1.00  0.00    -0.184 NA 
HETATM    7  C   UNL     1     -10.903  17.639  65.459  1.00  0.00     0.056 A  
HETATM    8  N   UNL     1      -7.890  20.218  67.159  1.00  0.00    -0.320 NA 
HETATM    9  N   UNL     1      -7.981  16.045  66.583  1.00  0.00    -0.260 NA 
HETATM   10  C   UNL     1      -7.953  18.846  66.946  1.00  0.00    -0.256 A  
HETATM   11  N   UNL     1     -10.274  18.703  65.903  1.00  0.00    -0.574 NA 
HETATM   12  C   UNL     1      -6.971  16.748  67.114  1.00  0.00    -0.191 A  
HETATM   13  C   UNL     1      -9.070  18.225  66.376  1.00  0.00    -0.249 A  
HETATM   14  H1  UNL     1      -7.076  20.671  67.573  1.00  0.00     0.000 HD 
HETATM   15  H2  UNL     1      -8.705  20.481  67.713  1.00  0.00     0.000 HD 
ENDBRANCH   3   4
ENDBRANCH   1   3
BRANCH   1  16
HETATM   16  O   UNL     1     -10.563  13.156  66.721  1.00  0.00    -0.261 OA 
BRANCH  16  17
HETATM   17  C   UNL     1     -10.342  13.129  68.152  1.00  0.00    -0.244 C  
HETATM   18  O   UNL     1     -12.519  13.056  69.147  1.00  0.00    -0.003 OA 
HETATM   19  O   UNL     1     -11.700  11.057  67.667  1.00  0.00    -0.576 OA 
HETATM   20  P   UNL     1     -11.454  11.964  69.020  1.00  0.00    -0.344 P  
HETATM   21  O   UNL     1     -12.505  10.862  69.842  1.00  0.00    -0.319 OA 
BRANCH  19  22
HETATM   22  C   UNL     1     -10.895   9.922  67.427  1.00  0.00    -0.227 C  
BRANCH  22  23
HETATM   23  O   UNL     1      -9.900  10.174  66.428  1.00  0.00    -0.200 OA 
BRANCH  23  24
HETATM   24  C   UNL     1      -8.632   9.908  66.831  1.00  0.00    -0.128 C  
HETATM   25  O   UNL     1      -8.215   9.993  67.979  1.00  0.00    -0.114 OA 
BRANCH  24  26
HETATM   26  O   UNL     1      -7.886   9.549  65.752  1.00  0.00    -0.101 OA 
BRANCH  26  27
HETATM   27  C   UNL     1      -8.525   8.628  64.840  1.00  0.00    -0.161 C  
HETATM   28  C   UNL     1      -8.258   9.081  63.409  1.00  0.00    -0.182 C  
HETATM   29  C   UNL     1      -7.967   7.227  65.066  1.00  0.00    -0.129 C  
ENDBRANCH  26  27
ENDBRANCH  24  26
ENDBRANCH  23  24
ENDBRANCH  22  23
ENDBRANCH  19  22
BRANCH  21  30
HETATM   30  C   UNL     1     -12.052  10.541  71.139  1.00  0.00    -0.370 C  
BRANCH  30  31
HETATM   31  O   UNL     1     -11.759   9.153  71.266  1.00  0.00    -0.282 OA 
BRANCH  31  32
HETATM   32  C   UNL     1     -12.810   8.401  71.665  1.00  0.00    -0.334 C  
HETATM   33  O   UNL     1     -13.767   8.799  72.317  1.00  0.00    -0.411 OA 
BRANCH  32  34
HETATM   34  O   UNL     1     -12.648   7.150  71.166  1.00  0.00    -0.364 OA 
BRANCH  34  35
HETATM   35  C   UNL     1     -11.295   6.747  70.878  1.00  0.00    -0.315 C  
HETATM   36  C   UNL     1     -11.285   6.148  69.474  1.00  0.00    -0.482 C  
HETATM   37  C   UNL     1     -10.819   5.710  71.890  1.00  0.00    -0.302 C  
ENDBRANCH  34  35
ENDBRANCH  32  34
ENDBRANCH  31  32
ENDBRANCH  30  31
ENDBRANCH  21  30
ENDBRANCH  16  17
ENDBRANCH   1  16
TORSDOF 14
ENDMDL
MODEL       85
REMARK 921   NORMALIZED FREE ENERGY PREDICTED BY IDOCK:   -5.38 KCAL/MOL
REMARK 922        TOTAL FREE ENERGY PREDICTED BY IDOCK:  -11.62 KCAL/MOL
REMARK 923 INTER-LIGAND FREE ENERGY PREDICTED BY IDOCK:  -10.20 KCAL/MOL
REMARK 924 INTRA-LIGAND FREE ENERGY PREDICTED BY IDOCK:   -1.42 KCAL/MOL
REMARK 927      BINDING AFFINITY PREDICTED BY RF-SCORE:    0.00 PKD
ROOT
HETATM    1  C   UNL     1      -9.899   8.176  66.822  1.00  0.00    -0.259 C  
HETATM    2  C   UNL     1      -8.715   7.942  65.886  1.00  0.00    -0.180 C  
ENDROOT
BRANCH   1   3
HETATM    3  C   UNL     1     -10.802   6.961  66.988  1.00  0.00    -0.366 C  
BRANCH   3   4
HETATM    4  N   UNL     1     -10.594   6.175  68.174  1.00  0.00    -0.234 NA 
HETATM    5  C   UNL     1      -9.966   4.968  68.154  1.00  0.00    -0.128 A  
HETATM    6  N   UNL     1      -8.786   2.649  68.690  1.00  0.00    -0.080 NA 
HETATM    7  C   UNL     1     -10.804   6.517  69.481  1.00  0.00    -0.304 A  
HETATM    8  N   UNL     1      -9.041   2.893  71.023  1.00  0.00    -0.103 NA 
HETATM    9  N   UNL     1      -9.543   4.286  67.078  1.00  0.00    -0.191 NA 
HETATM   10  C   UNL     1      -9.216   3.388  69.736  1.00  0.00    -0.150 A  
HETATM   11  N   UNL     1     -10.392   5.578  70.302  1.00  0.00    -0.256 NA 
HETATM   12  C   UNL     1      -8.958   3.136  67.442  1.00  0.00    -0.158 A  
HETATM   13  C   UNL     1      -9.844   4.613  69.483  1.00  0.00    -0.216 A  
HETATM   14  H1  UNL     1      -8.583   2.001  71.208  1.00  0.00     0.000 HD 
HETATM   15  H2  UNL     1      -9.956   2.868  71.471  1.00  0.00     0.000 HD 
ENDBRANCH   3   4
ENDBRANCH   1   3
BRANCH   1  16
HETATM   16  O   UNL     1     -10.594   9.366  66.391  1.00  0.00    -0.145 OA 
BRANCH  16  17
HETATM   17  C   UNL     1      -9.812  10.328  65.642  1.00  0.00    -0.268 C  
HETATM   18  O   UNL     1     -11.333  11.345  64.097  1.00  0.00    -0.318 OA 
HETATM   19  O   UNL     1     -11.682  11.676  66.671  1.00  0.00    -0.523 OA 
HETATM   20  P   UNL     1     -10.696  11.906  65.370  1.00  0.00    -0.298 P  
HETATM   21  O   UNL     1     -11.532  13.399  65.114  1.00  0.00    -0.290 OA 
BRANCH  19  22
HETATM   22  C   UNL     1     -11.331  12.225  67.923  1.00  0.00    -0.298 C  
BRANCH  22  23
HETATM   23  O   UNL     1     -12.104  13.392  68.230  1.00  0.00    -0.343 OA 
BRANCH  23  24
HETATM   24  C   UNL     1     -12.146  13.695  69.552  1.00  0.00    -0.314 C  
HETATM   25  O   UNL     1     -12.158  12.885  70.470  1.00  0.00    -0.356 OA 
BRANCH  24  26
HETATM   26  O   UNL     1     -12.194  15.045  69.699  1.00  0.00    -0.300 OA 
BRANCH  26  27
HETATM   27  C   UNL     1     -11.159  15.612  70.532  1.00  0.00    -0.355 C  
HETATM   28  C   UNL     1     -10.435  16.704  69.752  1.00  0.00    -0.182 C  
HETATM   29  C   UNL     1     -11.789  16.192  71.795  1.00  0.00    -0.581 C  
ENDBRANCH  26  27
ENDBRANCH  24  26
ENDBRANCH  23  24
ENDBRANCH  22  23
ENDBRANCH  19  22
BRANCH  21  30
HETATM   30  C   UNL     1     -10.667  14.452  64.744  1.00  0.00    -0.403 C  
BRANCH  30  31
HETATM   31  O   UNL     1     -10.928  15.635  65.493  1.00  0.00    -0.335 OA 
BRANCH  31  32
HETATM   32  C   UNL     1      -9.829  16.182  66.061  1.00  0.00    -0.347 C  
HETATM   33  O   UNL     1      -9.003  15.586  66.740  1.00  0.00    -0.224 OA 
BRANCH  32  34
HETATM   34  O   UNL     1      -9.772  17.488  65.697  1.00  0.00    -0.532 OA 
BRANCH  34  35
HETATM   35  C   UNL     1      -9.342  18.417  66.711  1.00  0.00    -0.296 C  
HETATM   36  C   UNL     1     -10.549  19.272  67.088  1.00  0.00    -0.575 C  
HETATM   37  C   UNL     1      -8.220  19.304  66.181  1.00  0.00    -0.291 C  
ENDBRANCH  34  35
ENDBRANCH  32  34
ENDBRANCH  31  32
ENDBRANCH  30  31
ENDBRANCH  21  30
ENDBRANCH  16  17
ENDBRANCH   1  16
TORSDOF 14
ENDMDL
MODEL       86
REMARK 921   NORMALIZED FREE ENERGY PREDICTED BY IDOCK:   -5.37 KCAL/MOL
REMARK 922        TOTAL FREE ENERGY PREDICTED BY IDOCK:  -11.60 KCAL/MOL
REMARK 923 INTER-LIGAND FREE ENERGY PREDICTED BY IDOCK:  -10.43 KCAL/MOL
REMARK 924 INTRA-LIGAND FREE ENERGY PREDICTED BY IDOCK:   -1.17 KCAL/MOL
REMARK 927      BINDING AFFINITY PREDICTED BY RF-SCORE:    0.00 PKD
ROOT
HETATM    1  C   UNL     1     -10.024   9.524  67.522  1.00  0.00    -0.186 C  
HETATM    2  C   UNL     1     -10.521   8.137  67.122  1.00  0.00    -0.396 C  
ENDROOT
BRANCH   1   3
HETATM    3  C   UNL     1      -9.622   9.634  68.987  1.00  0.00    -0.168 C  
BRANCH   3   4
HETATM    4  N   UNL     1     -10.566   9.122  69.943  1.00  0.00    -0.223 NA 
HETATM    5  C   UNL     1     -11.506   9.906  70.537  1.00  0.00    -0.318 A  
HETATM    6  N   UNL     1     -13.531  10.934  71.917  1.00  0.00    -0.293 NA 
HETATM    7  C   UNL     1     -10.816   7.826  70.297  1.00  0.00    -0.249 A  
HETATM    8  N   UNL     1     -14.206   8.839  72.766  1.00  0.00    -1.022 NA 
HETATM    9  N   UNL     1     -11.651  11.235  70.425  1.00  0.00    -0.288 NA 
HETATM   10  C   UNL     1     -13.348   9.596  71.977  1.00  0.00    -0.457 A  
HETATM   11  N   UNL     1     -11.833   7.733  71.123  1.00  0.00    -0.291 NA 
HETATM   12  C   UNL     1     -12.695  11.665  71.147  1.00  0.00    -0.325 A  
HETATM   13  C   UNL     1     -12.287   9.028  71.263  1.00  0.00    -0.302 A  
HETATM   14  H1  UNL     1     -14.979   9.253  73.286  1.00  0.00     0.000 HD 
HETATM   15  H2  UNL     1     -13.634   8.315  73.428  1.00  0.00     0.000 HD 
ENDBRANCH   3   4
ENDBRANCH   1   3
BRANCH   1  16
HETATM   16  O   UNL     1     -11.008  10.498  67.112  1.00  0.00    -0.282 OA 
BRANCH  16  17
HETATM   17  C   UNL     1     -10.712  11.236  65.901  1.00  0.00    -0.232 C  
HETATM   18  O   UNL     1     -12.519  12.782  65.620  1.00  0.00    -0.586 OA 
HETATM   19  O   UNL     1     -10.936  12.998  67.695  1.00  0.00    -0.243 OA 
HETATM   20  P   UNL     1     -11.071  13.023  66.053  1.00  0.00    -0.294 P  
HETATM   21  O   UNL     1     -11.410  14.714  66.195  1.00  0.00    -0.344 OA 
BRANCH  19  22
HETATM   22  C   UNL     1      -9.702  13.317  68.302  1.00  0.00    -0.225 C  
BRANCH  22  23
HETATM   23  O   UNL     1      -8.609  13.208  67.383  1.00  0.00    -0.183 OA 
BRANCH  23  24
HETATM   24  C   UNL     1      -7.428  13.664  67.871  1.00  0.00    -0.158 C  
HETATM   25  O   UNL     1      -7.293  14.392  68.845  1.00  0.00    -0.118 OA 
BRANCH  24  26
HETATM   26  O   UNL     1      -6.414  13.199  67.093  1.00  0.00    -0.227 OA 
BRANCH  26  27
HETATM   27  C   UNL     1      -5.983  11.851  67.384  1.00  0.00    -0.116 C  
HETATM   28  C   UNL     1      -6.316  11.525  68.835  1.00  0.00    -0.059 C  
HETATM   29  C   UNL     1      -6.695  10.881  66.446  1.00  0.00    -0.134 C  
ENDBRANCH  26  27
ENDBRANCH  24  26
ENDBRANCH  23  24
ENDBRANCH  22  23
ENDBRANCH  19  22
BRANCH  21  30
HETATM   30  C   UNL     1     -10.777  15.483  65.195  1.00  0.00    -0.440 C  
BRANCH  30  31
HETATM   31  O   UNL     1      -9.557  16.051  65.661  1.00  0.00    -0.384 OA 
BRANCH  31  32
HETATM   32  C   UNL     1      -9.695  17.278  66.215  1.00  0.00    -0.266 C  
HETATM   33  O   UNL     1     -10.529  17.593  67.055  1.00  0.00    -0.336 OA 
BRANCH  32  34
HETATM   34  O   UNL     1      -8.714  18.075  65.725  1.00  0.00    -0.482 OA 
BRANCH  34  35
HETATM   35  C   UNL     1      -8.036  18.916  66.678  1.00  0.00    -0.280 C  
HETATM   36  C   UNL     1      -7.238  19.951  65.891  1.00  0.00    -0.324 C  
HETATM   37  C   UNL     1      -7.097  18.087  67.548  1.00  0.00    -0.201 C  
ENDBRANCH  34  35
ENDBRANCH  32  34
ENDBRANCH  31  32
ENDBRANCH  30  31
ENDBRANCH  21  30
ENDBRANCH  16  17
ENDBRANCH   1  16
TORSDOF 14
ENDMDL
MODEL       87
REMARK 921   NORMALIZED FREE ENERGY PREDICTED BY IDOCK:   -5.36 KCAL/MOL
REMARK 922        TOTAL FREE ENERGY PREDICTED BY IDOCK:  -11.59 KCAL/MOL
REMARK 923 INTER-LIGAND FREE ENERGY PREDICTED BY IDOCK:   -9.45 KCAL/MOL
REMARK 924 INTRA-LIGAND FREE ENERGY PREDICTED BY IDOCK:   -2.13 KCAL/MOL
REMARK 927      BINDING AFFINITY PREDICTED BY RF-SCORE:    0.00 PKD
ROOT
HETATM    1  C   UNL     1      -8.412   9.514  65.453  1.00  0.00    -0.148 C  
HETATM    2  C   UNL     1      -7.466  10.471  66.176  1.00  0.00    -0.136 C  
ENDROOT
BRANCH   1   3
HETATM    3  C   UNL     1      -9.885   9.858  65.627  1.00  0.00    -0.298 C  
BRANCH   3   4
HETATM    4  N   UNL     1     -10.374  10.962  64.845  1.00  0.00    -0.308 NA 
HETATM    5  C   UNL     1     -11.122  11.965  65.379  1.00  0.00    -0.306 A  
HETATM    6  N   UNL     1     -12.525  14.162  65.897  1.00  0.00    -0.478 NA 
HETATM    7  C   UNL     1     -10.075  11.302  63.555  1.00  0.00    -0.396 A  
HETATM    8  N   UNL     1     -12.250  15.025  63.718  1.00  0.00    -1.008 NA 
HETATM    9  N   UNL     1     -11.596  12.053  66.632  1.00  0.00    -0.513 NA 
HETATM   10  C   UNL     1     -12.007  14.029  64.656  1.00  0.00    -0.430 A  
HETATM   11  N   UNL     1     -10.626  12.444  63.212  1.00  0.00    -0.337 NA 
HETATM   12  C   UNL     1     -12.284  13.190  66.804  1.00  0.00    -0.243 A  
HETATM   13  C   UNL     1     -11.266  12.880  64.354  1.00  0.00    -0.351 A  
HETATM   14  H1  UNL     1     -12.790  15.862  63.938  1.00  0.00     0.000 HD 
HETATM   15  H2  UNL     1     -12.680  14.586  62.905  1.00  0.00     0.000 HD 
ENDBRANCH   3   4
ENDBRANCH   1   3
BRANCH   1  16
HETATM   16  O   UNL     1      -8.079   8.163  65.839  1.00  0.00    -0.103 OA 
BRANCH  16  17
HETATM   17  C   UNL     1      -9.196   7.286  66.123  1.00  0.00    -0.089 C  
HETATM   18  O   UNL     1      -8.231   5.199  66.795  1.00  0.00    -0.108 OA 
HETATM   19  O   UNL     1      -7.852   7.337  68.260  1.00  0.00    -0.117 OA 
HETATM   20  P   UNL     1      -8.939   6.273  67.625  1.00  0.00    -0.113 P  
HETATM   21  O   UNL     1      -8.697   5.316  69.045  1.00  0.00    -0.099 OA 
BRANCH  19  22
HETATM   22  C   UNL     1      -8.290   8.337  69.154  1.00  0.00    -0.123 C  
BRANCH  22  23
HETATM   23  O   UNL     1      -9.716   8.346  69.291  1.00  0.00    -0.172 OA 
BRANCH  23  24
HETATM   24  C   UNL     1     -10.160   8.953  70.420  1.00  0.00    -0.196 C  
HETATM   25  O   UNL     1      -9.490   9.176  71.420  1.00  0.00    -0.267 OA 
BRANCH  24  26
HETATM   26  O   UNL     1     -11.477   9.258  70.275  1.00  0.00    -0.243 OA 
BRANCH  26  27
HETATM   27  C   UNL     1     -11.987  10.241  71.203  1.00  0.00    -0.376 C  
HETATM   28  C   UNL     1     -12.290  11.529  70.445  1.00  0.00    -0.390 C  
HETATM   29  C   UNL     1     -13.254   9.703  71.860  1.00  0.00    -0.538 C  
ENDBRANCH  26  27
ENDBRANCH  24  26
ENDBRANCH  23  24
ENDBRANCH  22  23
ENDBRANCH  19  22
BRANCH  21  30
HETATM   30  C   UNL     1      -9.898   4.764  69.542  1.00  0.00    -0.222 C  
BRANCH  30  31
HETATM   31  O   UNL     1     -10.299   5.387  70.759  1.00  0.00    -0.228 OA 
BRANCH  31  32
HETATM   32  C   UNL     1      -9.402   5.265  71.764  1.00  0.00    -0.146 C  
HETATM   33  O   UNL     1      -8.623   6.133  72.136  1.00  0.00    -0.127 OA 
BRANCH  32  34
HETATM   34  O   UNL     1      -9.561   4.040  72.324  1.00  0.00    -0.131 OA 
BRANCH  34  35
HETATM   35  C   UNL     1     -10.782   3.825  73.059  1.00  0.00    -0.145 C  
HETATM   36  C   UNL     1     -10.655   4.568  74.386  1.00  0.00    -0.289 C  
HETATM   37  C   UNL     1     -10.997   2.337  73.313  1.00  0.00    -0.279 C  
ENDBRANCH  34  35
ENDBRANCH  32  34
ENDBRANCH  31  32
ENDBRANCH  30  31
ENDBRANCH  21  30
ENDBRANCH  16  17
ENDBRANCH   1  16
TORSDOF 14
ENDMDL
MODEL       88
REMARK 921   NORMALIZED FREE ENERGY PREDICTED BY IDOCK:   -5.35 KCAL/MOL
REMARK 922        TOTAL FREE ENERGY PREDICTED BY IDOCK:  -11.57 KCAL/MOL
REMARK 923 INTER-LIGAND FREE ENERGY PREDICTED BY IDOCK:   -9.57 KCAL/MOL
REMARK 924 INTRA-LIGAND FREE ENERGY PREDICTED BY IDOCK:   -2.00 KCAL/MOL
REMARK 927      BINDING AFFINITY PREDICTED BY RF-SCORE:    0.00 PKD
ROOT
HETATM    1  C   UNL     1     -10.045  12.058  65.238  1.00  0.00    -0.260 C  
HETATM    2  C   UNL     1     -10.693  12.718  64.024  1.00  0.00    -0.457 C  
ENDROOT
BRANCH   1   3
HETATM    3  C   UNL     1     -10.024  10.536  65.173  1.00  0.00    -0.309 C  
BRANCH   3   4
HETATM    4  N   UNL     1      -9.144   9.875  66.098  1.00  0.00    -0.152 NA 
HETATM    5  C   UNL     1      -9.496   8.740  66.762  1.00  0.00    -0.191 A  
HETATM    6  N   UNL     1      -9.633   6.536  68.239  1.00  0.00    -0.131 NA 
HETATM    7  C   UNL     1      -7.824  10.118  66.355  1.00  0.00    -0.114 A  
HETATM    8  N   UNL     1      -7.383   6.687  68.933  1.00  0.00    -0.091 NA 
HETATM    9  N   UNL     1     -10.689   8.125  66.753  1.00  0.00    -0.181 NA 
HETATM   10  C   UNL     1      -8.449   7.186  68.195  1.00  0.00    -0.123 A  
HETATM   11  N   UNL     1      -7.317   9.234  67.183  1.00  0.00    -0.090 NA 
HETATM   12  C   UNL     1     -10.665   7.025  67.518  1.00  0.00    -0.281 A  
HETATM   13  C   UNL     1      -8.349   8.352  67.427  1.00  0.00    -0.124 A  
HETATM   14  H1  UNL     1      -7.456   5.838  69.493  1.00  0.00     0.000 HD 
HETATM   15  H2  UNL     1      -7.057   7.433  69.547  1.00  0.00     0.000 HD 
ENDBRANCH   3   4
ENDBRANCH   1   3
BRANCH   1  16
HETATM   16  O   UNL     1     -10.667  12.582  66.431  1.00  0.00    -0.243 OA 
BRANCH  16  17
HETATM   17  C   UNL     1     -11.738  11.788  66.995  1.00  0.00    -0.167 C  
HETATM   18  O   UNL     1     -10.791  10.662  68.885  1.00  0.00    -0.200 OA 
HETATM   19  O   UNL     1     -10.969  13.275  68.886  1.00  0.00    -0.248 OA 
HETATM   20  P   UNL     1     -11.771  11.836  68.824  1.00  0.00    -0.298 P  
HETATM   21  O   UNL     1     -11.802  11.881  70.553  1.00  0.00    -0.320 OA 
BRANCH  19  22
HETATM   22  C   UNL     1     -11.698  14.481  68.960  1.00  0.00    -0.311 C  
BRANCH  22  23
HETATM   23  O   UNL     1     -11.208  15.460  68.036  1.00  0.00    -0.303 OA 
BRANCH  23  24
HETATM   24  C   UNL     1     -10.485  16.453  68.613  1.00  0.00    -0.293 C  
HETATM   25  O   UNL     1      -9.555  16.297  69.393  1.00  0.00    -0.240 OA 
BRANCH  24  26
HETATM   26  O   UNL     1     -10.971  17.655  68.204  1.00  0.00    -0.289 OA 
BRANCH  26  27
HETATM   27  C   UNL     1     -10.070  18.440  67.392  1.00  0.00    -0.353 C  
HETATM   28  C   UNL     1     -10.582  18.456  65.956  1.00  0.00    -0.339 C  
HETATM   29  C   UNL     1      -9.999  19.859  67.947  1.00  0.00    -0.552 C  
ENDBRANCH  26  27
ENDBRANCH  24  26
ENDBRANCH  23  24
ENDBRANCH  22  23
ENDBRANCH  19  22
BRANCH  21  30
HETATM   30  C   UNL     1     -13.036  11.450  71.088  1.00  0.00    -0.253 C  
BRANCH  30  31
HETATM   31  O   UNL     1     -13.240  10.056  70.882  1.00  0.00    -0.370 OA 
BRANCH  31  32
HETATM   32  C   UNL     1     -13.285   9.329  72.022  1.00  0.00    -0.447 C  
HETATM   33  O   UNL     1     -14.289   9.096  72.682  1.00  0.00    -0.561 OA 
BRANCH  32  34
HETATM   34  O   UNL     1     -12.038   8.857  72.270  1.00  0.00    -0.358 OA 
BRANCH  34  35
HETATM   35  C   UNL     1     -11.369   8.210  71.170  1.00  0.00    -0.269 C  
HETATM   36  C   UNL     1     -11.835   6.757  71.140  1.00  0.00    -0.410 C  
HETATM   37  C   UNL     1      -9.856   8.267  71.358  1.00  0.00    -0.240 C  
ENDBRANCH  34  35
ENDBRANCH  32  34
ENDBRANCH  31  32
ENDBRANCH  30  31
ENDBRANCH  21  30
ENDBRANCH  16  17
ENDBRANCH   1  16
TORSDOF 14
ENDMDL
MODEL       89
REMARK 921   NORMALIZED FREE ENERGY PREDICTED BY IDOCK:   -5.35 KCAL/MOL
REMARK 922        TOTAL FREE ENERGY PREDICTED BY IDOCK:  -11.56 KCAL/MOL
REMARK 923 INTER-LIGAND FREE ENERGY PREDICTED BY IDOCK:   -9.18 KCAL/MOL
REMARK 924 INTRA-LIGAND FREE ENERGY PREDICTED BY IDOCK:   -2.38 KCAL/MOL
REMARK 927      BINDING AFFINITY PREDICTED BY RF-SCORE:    0.00 PKD
ROOT
HETATM    1  C   UNL     1     -11.816  14.820  69.681  1.00  0.00    -0.319 C  
HETATM    2  C   UNL     1     -12.439  15.661  70.793  1.00  0.00    -0.484 C  
ENDROOT
BRANCH   1   3
HETATM    3  C   UNL     1     -11.751  15.532  68.336  1.00  0.00    -0.309 C  
BRANCH   3   4
HETATM    4  N   UNL     1     -10.951  14.899  67.322  1.00  0.00    -0.314 NA 
HETATM    5  C   UNL     1     -11.492  14.147  66.325  1.00  0.00    -0.352 A  
HETATM    6  N   UNL     1     -12.004  12.669  64.177  1.00  0.00    -0.392 NA 
HETATM    7  C   UNL     1      -9.618  15.044  67.062  1.00  0.00    -0.225 A  
HETATM    8  N   UNL     1      -9.755  12.668  63.463  1.00  0.00    -0.631 NA 
HETATM    9  N   UNL     1     -12.779  13.798  66.171  1.00  0.00    -0.364 NA 
HETATM   10  C   UNL     1     -10.727  13.067  64.373  1.00  0.00    -0.394 A  
HETATM   11  N   UNL     1      -9.258  14.391  65.981  1.00  0.00    -0.127 NA 
HETATM   12  C   UNL     1     -12.944  13.060  65.064  1.00  0.00    -0.126 A  
HETATM   13  C   UNL     1     -10.428  13.844  65.498  1.00  0.00    -0.323 A  
HETATM   14  H1  UNL     1      -9.972  12.102  62.644  1.00  0.00     0.000 HD 
HETATM   15  H2  UNL     1      -9.023  12.186  63.985  1.00  0.00     0.000 HD 
ENDBRANCH   3   4
ENDBRANCH   1   3
BRANCH   1  16
HETATM   16  O   UNL     1     -12.494  13.547  69.635  1.00  0.00    -0.218 OA 
BRANCH  16  17
HETATM   17  C   UNL     1     -12.289  12.673  70.772  1.00  0.00    -0.283 C  
HETATM   18  O   UNL     1     -13.146  10.536  70.115  1.00  0.00    -0.166 OA 
HETATM   19  O   UNL     1     -11.081  11.546  68.863  1.00  0.00    -0.201 OA 
HETATM   20  P   UNL     1     -11.702  11.008  70.291  1.00  0.00    -0.322 P  
HETATM   21  O   UNL     1     -11.146   9.434  69.837  1.00  0.00    -0.238 OA 
BRANCH  19  22
HETATM   22  C   UNL     1      -9.721  11.917  68.784  1.00  0.00    -0.039 C  
BRANCH  22  23
HETATM   23  O   UNL     1      -9.057  11.288  67.682  1.00  0.00    -0.145 OA 
BRANCH  23  24
HETATM   24  C   UNL     1      -8.220  10.283  68.040  1.00  0.00    -0.113 C  
HETATM   25  O   UNL     1      -7.545  10.246  69.060  1.00  0.00    -0.084 OA 
BRANCH  24  26
HETATM   26  O   UNL     1      -8.233   9.326  67.075  1.00  0.00    -0.114 OA 
BRANCH  26  27
HETATM   27  C   UNL     1      -9.477   9.195  66.353  1.00  0.00    -0.227 C  
HETATM   28  C   UNL     1      -9.188   9.219  64.856  1.00  0.00    -0.206 C  
HETATM   29  C   UNL     1     -10.150   7.882  66.742  1.00  0.00    -0.352 C  
ENDBRANCH  26  27
ENDBRANCH  24  26
ENDBRANCH  23  24
ENDBRANCH  22  23
ENDBRANCH  19  22
BRANCH  21  30
HETATM   30  C   UNL     1     -10.582   8.722  70.918  1.00  0.00    -0.220 C  
BRANCH  30  31
HETATM   31  O   UNL     1     -11.574   8.307  71.851  1.00  0.00    -0.277 OA 
BRANCH  31  32
HETATM   32  C   UNL     1     -12.128   7.105  71.570  1.00  0.00    -0.342 C  
HETATM   33  O   UNL     1     -13.324   6.884  71.433  1.00  0.00    -0.308 OA 
BRANCH  32  34
HETATM   34  O   UNL     1     -11.125   6.206  71.407  1.00  0.00    -0.270 OA 
BRANCH  34  35
HETATM   35  C   UNL     1     -10.512   5.707  72.611  1.00  0.00    -0.209 C  
HETATM   36  C   UNL     1      -9.076   5.320  72.268  1.00  0.00    -0.149 C  
HETATM   37  C   UNL     1     -11.269   4.488  73.130  1.00  0.00    -0.339 C  
ENDBRANCH  34  35
ENDBRANCH  32  34
ENDBRANCH  31  32
ENDBRANCH  30  31
ENDBRANCH  21  30
ENDBRANCH  16  17
ENDBRANCH   1  16
TORSDOF 14
ENDMDL
MODEL       90
REMARK 921   NORMALIZED FREE ENERGY PREDICTED BY IDOCK:   -5.34 KCAL/MOL
REMARK 922        TOTAL FREE ENERGY PREDICTED BY IDOCK:  -11.54 KCAL/MOL
REMARK 923 INTER-LIGAND FREE ENERGY PREDICTED BY IDOCK:  -10.31 KCAL/MOL
REMARK 924 INTRA-LIGAND FREE ENERGY PREDICTED BY IDOCK:   -1.23 KCAL/MOL
REMARK 927      BINDING AFFINITY PREDICTED BY RF-SCORE:    0.00 PKD
ROOT
HETATM    1  C   UNL     1      -9.503   9.865  67.156  1.00  0.00    -0.158 C  
HETATM    2  C   UNL     1     -10.517   8.752  66.900  1.00  0.00    -0.319 C  
ENDROOT
BRANCH   1   3
HETATM    3  C   UNL     1      -8.861   9.806  68.536  1.00  0.00    -0.121 C  
BRANCH   3   4
HETATM    4  N   UNL     1      -9.729   9.440  69.622  1.00  0.00    -0.179 NA 
HETATM    5  C   UNL     1      -9.552   8.305  70.352  1.00  0.00    -0.168 A  
HETATM    6  N   UNL     1      -9.637   6.305  72.098  1.00  0.00    -0.151 NA 
HETATM    7  C   UNL     1     -10.720  10.170  70.216  1.00  0.00    -0.293 A  
HETATM    8  N   UNL     1     -11.404   7.265  73.332  1.00  0.00    -0.560 NA 
HETATM    9  N   UNL     1      -8.654   7.330  70.140  1.00  0.00    -0.138 NA 
HETATM   10  C   UNL     1     -10.506   7.325  72.273  1.00  0.00    -0.214 A  
HETATM   11  N   UNL     1     -11.225   9.550  71.258  1.00  0.00    -0.358 NA 
HETATM   12  C   UNL     1      -8.765   6.369  71.068  1.00  0.00    -0.135 A  
HETATM   13  C   UNL     1     -10.486   8.390  71.366  1.00  0.00    -0.224 A  
HETATM   14  H1  UNL     1     -11.418   6.489  73.993  1.00  0.00     0.000 HD 
HETATM   15  H2  UNL     1     -12.343   7.359  72.946  1.00  0.00     0.000 HD 
ENDBRANCH   3   4
ENDBRANCH   1   3
BRANCH   1  16
HETATM   16  O   UNL     1     -10.128  11.131  66.856  1.00  0.00    -0.203 OA 
BRANCH  16  17
HETATM   17  C   UNL     1      -9.239  12.207  66.466  1.00  0.00    -0.216 C  
HETATM   18  O   UNL     1     -10.336  13.336  64.661  1.00  0.00    -0.381 OA 
HETATM   19  O   UNL     1     -11.418  13.344  67.046  1.00  0.00    -0.307 OA 
HETATM   20  P   UNL     1     -10.126  13.768  66.114  1.00  0.00    -0.309 P  
HETATM   21  O   UNL     1     -10.964  15.245  65.781  1.00  0.00    -0.338 OA 
BRANCH  19  22
HETATM   22  C   UNL     1     -11.475  13.756  68.394  1.00  0.00    -0.316 C  
BRANCH  22  23
HETATM   23  O   UNL     1     -12.387  12.958  69.159  1.00  0.00    -0.114 OA 
BRANCH  23  24
HETATM   24  C   UNL     1     -12.589  13.407  70.423  1.00  0.00    -0.167 C  
HETATM   25  O   UNL     1     -12.705  12.706  71.419  1.00  0.00    -0.349 OA 
BRANCH  24  26
HETATM   26  O   UNL     1     -12.663  14.765  70.408  1.00  0.00    -0.347 OA 
BRANCH  26  27
HETATM   27  C   UNL     1     -11.603  15.447  71.113  1.00  0.00    -0.377 C  
HETATM   28  C   UNL     1     -11.050  16.556  70.225  1.00  0.00    -0.171 C  
HETATM   29  C   UNL     1     -12.155  16.033  72.409  1.00  0.00    -0.629 C  
ENDBRANCH  26  27
ENDBRANCH  24  26
ENDBRANCH  23  24
ENDBRANCH  22  23
ENDBRANCH  19  22
BRANCH  21  30
HETATM   30  C   UNL     1     -10.110  16.369  65.785  1.00  0.00    -0.327 C  
BRANCH  30  31
HETATM   31  O   UNL     1     -10.778  17.539  65.325  1.00  0.00    -0.656 OA 
BRANCH  31  32
HETATM   32  C   UNL     1     -10.443  18.667  65.994  1.00  0.00    -0.414 C  
HETATM   33  O   UNL     1     -10.876  19.789  65.766  1.00  0.00    -0.458 OA 
BRANCH  32  34
HETATM   34  O   UNL     1      -9.594  18.325  66.995  1.00  0.00    -0.275 OA 
BRANCH  34  35
HETATM   35  C   UNL     1      -8.585  19.296  67.337  1.00  0.00    -0.292 C  
HETATM   36  C   UNL     1      -7.409  19.089  66.386  1.00  0.00    -0.263 C  
HETATM   37  C   UNL     1      -8.128  19.105  68.779  1.00  0.00    -0.384 C  
ENDBRANCH  34  35
ENDBRANCH  32  34
ENDBRANCH  31  32
ENDBRANCH  30  31
ENDBRANCH  21  30
ENDBRANCH  16  17
ENDBRANCH   1  16
TORSDOF 14
ENDMDL
MODEL       91
REMARK 921   NORMALIZED FREE ENERGY PREDICTED BY IDOCK:   -5.33 KCAL/MOL
REMARK 922        TOTAL FREE ENERGY PREDICTED BY IDOCK:  -11.53 KCAL/MOL
REMARK 923 INTER-LIGAND FREE ENERGY PREDICTED BY IDOCK:   -9.72 KCAL/MOL
REMARK 924 INTRA-LIGAND FREE ENERGY PREDICTED BY IDOCK:   -1.81 KCAL/MOL
REMARK 927      BINDING AFFINITY PREDICTED BY RF-SCORE:    0.00 PKD
ROOT
HETATM    1  C   UNL     1      -8.270   8.528  70.620  1.00  0.00    -0.123 C  
HETATM    2  C   UNL     1      -6.834   8.935  70.295  1.00  0.00    -0.045 C  
ENDROOT
BRANCH   1   3
HETATM    3  C   UNL     1      -8.528   7.033  70.491  1.00  0.00    -0.133 C  
BRANCH   3   4
HETATM    4  N   UNL     1      -9.434   6.635  69.447  1.00  0.00    -0.146 NA 
HETATM    5  C   UNL     1      -9.012   6.041  68.298  1.00  0.00    -0.113 A  
HETATM    6  N   UNL     1      -8.756   4.825  65.949  1.00  0.00    -0.121 NA 
HETATM    7  C   UNL     1     -10.800   6.608  69.456  1.00  0.00    -0.289 A  
HETATM    8  N   UNL     1     -11.086   4.664  65.615  1.00  0.00    -0.893 NA 
HETATM    9  N   UNL     1      -7.746   5.823  67.908  1.00  0.00    -0.095 NA 
HETATM   10  C   UNL     1     -10.009   5.053  66.402  1.00  0.00    -0.226 A  
HETATM   11  N   UNL     1     -11.285   6.075  68.358  1.00  0.00    -0.191 NA 
HETATM   12  C   UNL     1      -7.713   5.204  66.719  1.00  0.00    -0.092 A  
HETATM   13  C   UNL     1     -10.173   5.695  67.635  1.00  0.00    -0.199 A  
HETATM   14  H1  UNL     1     -10.967   4.196  64.717  1.00  0.00     0.000 HD 
HETATM   15  H2  UNL     1     -11.667   5.488  65.458  1.00  0.00     0.000 HD 
ENDBRANCH   3   4
ENDBRANCH   1   3
BRANCH   1  16
HETATM   16  O   UNL     1      -9.165   9.345  69.836  1.00  0.00    -0.175 OA 
BRANCH  16  17
HETATM   17  C   UNL     1      -8.568  10.071  68.733  1.00  0.00    -0.131 C  
HETATM   18  O   UNL     1      -9.248   8.917  66.748  1.00  0.00    -0.145 OA 
HETATM   19  O   UNL     1     -11.046  10.084  68.251  1.00  0.00    -0.247 OA 
HETATM   20  P   UNL     1      -9.704  10.264  67.312  1.00  0.00    -0.177 P  
HETATM   21  O   UNL     1     -10.778  10.448  65.968  1.00  0.00    -0.115 OA 
BRANCH  19  22
HETATM   22  C   UNL     1     -11.696  11.224  68.772  1.00  0.00    -0.338 C  
BRANCH  22  23
HETATM   23  O   UNL     1     -12.453  10.917  69.949  1.00  0.00    -0.319 OA 
BRANCH  23  24
HETATM   24  C   UNL     1     -12.585  11.958  70.809  1.00  0.00    -0.234 C  
HETATM   25  O   UNL     1     -12.959  11.879  71.972  1.00  0.00    -0.394 OA 
BRANCH  24  26
HETATM   26  O   UNL     1     -12.254  13.110  70.169  1.00  0.00    -0.329 OA 
BRANCH  26  27
HETATM   27  C   UNL     1     -12.167  14.280  71.012  1.00  0.00    -0.356 C  
HETATM   28  C   UNL     1     -11.027  15.164  70.519  1.00  0.00    -0.267 C  
HETATM   29  C   UNL     1     -13.489  15.040  70.957  1.00  0.00    -0.461 C  
ENDBRANCH  26  27
ENDBRANCH  24  26
ENDBRANCH  23  24
ENDBRANCH  22  23
ENDBRANCH  19  22
BRANCH  21  30
HETATM   30  C   UNL     1     -10.365  11.459  65.074  1.00  0.00    -0.287 C  
BRANCH  30  31
HETATM   31  O   UNL     1     -11.243  11.566  63.958  1.00  0.00    -0.369 OA 
BRANCH  31  32
HETATM   32  C   UNL     1     -11.786  12.794  63.797  1.00  0.00    -0.493 C  
HETATM   33  O   UNL     1     -12.835  13.041  63.217  1.00  0.00    -0.596 OA 
BRANCH  32  34
HETATM   34  O   UNL     1     -10.998  13.691  64.441  1.00  0.00    -0.386 OA 
BRANCH  34  35
HETATM   35  C   UNL     1     -11.677  14.693  65.224  1.00  0.00    -0.346 C  
HETATM   36  C   UNL     1     -10.815  15.952  65.203  1.00  0.00    -0.438 C  
HETATM   37  C   UNL     1     -11.863  14.212  66.659  1.00  0.00    -0.447 C  
ENDBRANCH  34  35
ENDBRANCH  32  34
ENDBRANCH  31  32
ENDBRANCH  30  31
ENDBRANCH  21  30
ENDBRANCH  16  17
ENDBRANCH   1  16
TORSDOF 14
ENDMDL
MODEL       92
REMARK 921   NORMALIZED FREE ENERGY PREDICTED BY IDOCK:   -5.32 KCAL/MOL
REMARK 922        TOTAL FREE ENERGY PREDICTED BY IDOCK:  -11.52 KCAL/MOL
REMARK 923 INTER-LIGAND FREE ENERGY PREDICTED BY IDOCK:   -9.81 KCAL/MOL
REMARK 924 INTRA-LIGAND FREE ENERGY PREDICTED BY IDOCK:   -1.71 KCAL/MOL
REMARK 927      BINDING AFFINITY PREDICTED BY RF-SCORE:    0.00 PKD
ROOT
HETATM    1  C   UNL     1     -10.216   8.239  67.015  1.00  0.00    -0.310 C  
HETATM    2  C   UNL     1      -9.122   8.372  65.958  1.00  0.00    -0.235 C  
ENDROOT
BRANCH   1   3
HETATM    3  C   UNL     1     -11.011   6.943  66.916  1.00  0.00    -0.258 C  
BRANCH   3   4
HETATM    4  N   UNL     1     -10.349   5.757  67.387  1.00  0.00    -0.199 NA 
HETATM    5  C   UNL     1     -10.209   5.471  68.710  1.00  0.00    -0.199 A  
HETATM    6  N   UNL     1      -9.721   4.411  71.097  1.00  0.00    -0.175 NA 
HETATM    7  C   UNL     1      -9.912   4.675  66.675  1.00  0.00    -0.236 A  
HETATM    8  N   UNL     1      -8.844   2.416  70.193  1.00  0.00    -0.073 NA 
HETATM    9  N   UNL     1     -10.552   6.243  69.753  1.00  0.00    -0.235 NA 
HETATM   10  C   UNL     1      -9.413   3.670  70.009  1.00  0.00    -0.190 A  
HETATM   11  N   UNL     1      -9.455   3.727  67.461  1.00  0.00    -0.197 NA 
HETATM   12  C   UNL     1     -10.276   5.629  70.912  1.00  0.00    -0.223 A  
HETATM   13  C   UNL     1      -9.657   4.205  68.739  1.00  0.00    -0.140 A  
HETATM   14  H1  UNL     1      -8.667   2.026  71.118  1.00  0.00     0.000 HD 
HETATM   15  H2  UNL     1      -7.964   2.398  69.677  1.00  0.00     0.000 HD 
ENDBRANCH   3   4
ENDBRANCH   1   3
BRANCH   1  16
HETATM   16  O   UNL     1     -11.033   9.429  66.980  1.00  0.00    -0.118 OA 
BRANCH  16  17
HETATM   17  C   UNL     1     -10.392  10.629  66.483  1.00  0.00    -0.241 C  
HETATM   18  O   UNL     1     -12.155  11.995  65.610  1.00  0.00    -0.508 OA 
HETATM   19  O   UNL     1     -12.083  11.448  68.170  1.00  0.00    -0.623 OA 
HETATM   20  P   UNL     1     -11.325  12.151  66.886  1.00  0.00    -0.339 P  
HETATM   21  O   UNL     1     -12.206  13.590  67.267  1.00  0.00    -0.351 OA 
BRANCH  19  22
HETATM   22  C   UNL     1     -11.538  11.582  69.465  1.00  0.00    -0.333 C  
BRANCH  22  23
HETATM   23  O   UNL     1     -12.354  12.407  70.306  1.00  0.00    -0.275 OA 
BRANCH  23  24
HETATM   24  C   UNL     1     -13.024  11.725  71.268  1.00  0.00    -0.254 C  
HETATM   25  O   UNL     1     -13.510  12.212  72.280  1.00  0.00    -0.491 OA 
BRANCH  24  26
HETATM   26  O   UNL     1     -13.055  10.406  70.941  1.00  0.00    -0.384 OA 
BRANCH  26  27
HETATM   27  C   UNL     1     -13.129   9.495  72.059  1.00  0.00    -0.438 C  
HETATM   28  C   UNL     1     -14.298   8.540  71.845  1.00  0.00    -0.536 C  
HETATM   29  C   UNL     1     -11.821   8.718  72.164  1.00  0.00    -0.436 C  
ENDBRANCH  26  27
ENDBRANCH  24  26
ENDBRANCH  23  24
ENDBRANCH  22  23
ENDBRANCH  19  22
BRANCH  21  30
HETATM   30  C   UNL     1     -11.424  14.758  67.141  1.00  0.00    -0.364 C  
BRANCH  30  31
HETATM   31  O   UNL     1     -11.464  15.550  68.324  1.00  0.00    -0.341 OA 
BRANCH  31  32
HETATM   32  C   UNL     1     -10.329  15.504  69.058  1.00  0.00    -0.235 C  
HETATM   33  O   UNL     1     -10.269  15.459  70.280  1.00  0.00    -0.274 OA 
BRANCH  32  34
HETATM   34  O   UNL     1      -9.276  15.456  68.204  1.00  0.00    -0.183 OA 
BRANCH  34  35
HETATM   35  C   UNL     1      -8.044  14.933  68.737  1.00  0.00    -0.162 C  
HETATM   36  C   UNL     1      -6.924  15.880  68.316  1.00  0.00    -0.120 C  
HETATM   37  C   UNL     1      -7.777  13.535  68.189  1.00  0.00    -0.139 C  
ENDBRANCH  34  35
ENDBRANCH  32  34
ENDBRANCH  31  32
ENDBRANCH  30  31
ENDBRANCH  21  30
ENDBRANCH  16  17
ENDBRANCH   1  16
TORSDOF 14
ENDMDL
MODEL       93
REMARK 921   NORMALIZED FREE ENERGY PREDICTED BY IDOCK:   -5.32 KCAL/MOL
REMARK 922        TOTAL FREE ENERGY PREDICTED BY IDOCK:  -11.52 KCAL/MOL
REMARK 923 INTER-LIGAND FREE ENERGY PREDICTED BY IDOCK:   -9.57 KCAL/MOL
REMARK 924 INTRA-LIGAND FREE ENERGY PREDICTED BY IDOCK:   -1.95 KCAL/MOL
REMARK 927      BINDING AFFINITY PREDICTED BY RF-SCORE:    0.00 PKD
ROOT
HETATM    1  C   UNL     1     -11.008  14.174  68.958  1.00  0.00    -0.261 C  
HETATM    2  C   UNL     1     -11.761  15.435  69.376  1.00  0.00    -0.369 C  
ENDROOT
BRANCH   1   3
HETATM    3  C   UNL     1     -10.351  14.277  67.588  1.00  0.00    -0.248 C  
BRANCH   3   4
HETATM    4  N   UNL     1     -11.172  13.917  66.463  1.00  0.00    -0.315 NA 
HETATM    5  C   UNL     1     -10.823  12.941  65.582  1.00  0.00    -0.273 A  
HETATM    6  N   UNL     1     -10.669  11.130  63.644  1.00  0.00    -0.360 NA 
HETATM    7  C   UNL     1     -12.444  14.318  66.163  1.00  0.00    -0.336 A  
HETATM    8  N   UNL     1     -12.826  11.615  62.821  1.00  0.00    -0.694 NA 
HETATM    9  N   UNL     1      -9.674  12.247  65.545  1.00  0.00    -0.206 NA 
HETATM   10  C   UNL     1     -11.811  11.845  63.742  1.00  0.00    -0.458 A  
HETATM   11  N   UNL     1     -12.917  13.690  65.110  1.00  0.00    -0.753 NA 
HETATM   12  C   UNL     1      -9.687  11.357  64.543  1.00  0.00    -0.233 A  
HETATM   13  C   UNL     1     -11.919  12.808  64.752  1.00  0.00    -0.402 A  
HETATM   14  H1  UNL     1     -12.748  10.914  62.086  1.00  0.00     0.000 HD 
HETATM   15  H2  UNL     1     -13.046  12.506  62.376  1.00  0.00     0.000 HD 
ENDBRANCH   3   4
ENDBRANCH   1   3
BRANCH   1  16
HETATM   16  O   UNL     1     -11.895  13.044  69.096  1.00  0.00    -0.297 OA 
BRANCH  16  17
HETATM   17  C   UNL     1     -12.057  12.519  70.437  1.00  0.00    -0.297 C  
HETATM   18  O   UNL     1     -13.450  10.584  70.216  1.00  0.00     0.025 OA 
HETATM   19  O   UNL     1     -11.077  10.610  69.107  1.00  0.00    -0.220 OA 
HETATM   20  P   UNL     1     -11.950  10.694  70.502  1.00  0.00    -0.397 P  
HETATM   21  O   UNL     1     -11.849   8.968  70.565  1.00  0.00    -0.207 OA 
BRANCH  19  22
HETATM   22  C   UNL     1      -9.668  10.574  69.162  1.00  0.00    -0.211 C  
BRANCH  22  23
HETATM   23  O   UNL     1      -9.155   9.260  68.916  1.00  0.00    -0.137 OA 
BRANCH  23  24
HETATM   24  C   UNL     1      -8.801   9.037  67.625  1.00  0.00    -0.124 C  
HETATM   25  O   UNL     1      -9.553   8.672  66.732  1.00  0.00    -0.171 OA 
BRANCH  24  26
HETATM   26  O   UNL     1      -7.468   9.266  67.482  1.00  0.00    -0.087 OA 
BRANCH  26  27
HETATM   27  C   UNL     1      -6.978   9.222  66.124  1.00  0.00    -0.086 C  
HETATM   28  C   UNL     1      -6.167  10.484  65.848  1.00  0.00    -0.128 C  
HETATM   29  C   UNL     1      -6.107   7.983  65.942  1.00  0.00    -0.038 C  
ENDBRANCH  26  27
ENDBRANCH  24  26
ENDBRANCH  23  24
ENDBRANCH  22  23
ENDBRANCH  19  22
BRANCH  21  30
HETATM   30  C   UNL     1     -11.616   8.482  71.870  1.00  0.00    -0.341 C  
BRANCH  30  31
HETATM   31  O   UNL     1     -12.145   7.172  72.046  1.00  0.00    -0.299 OA 
BRANCH  31  32
HETATM   32  C   UNL     1     -11.205   6.219  72.243  1.00  0.00    -0.283 C  
HETATM   33  O   UNL     1     -11.189   5.409  73.161  1.00  0.00    -0.296 OA 
BRANCH  32  34
HETATM   34  O   UNL     1     -10.321   6.279  71.216  1.00  0.00    -0.203 OA 
BRANCH  34  35
HETATM   35  C   UNL     1     -10.522   5.336  70.144  1.00  0.00    -0.268 C  
HETATM   36  C   UNL     1      -9.238   4.523  70.004  1.00  0.00    -0.195 C  
HETATM   37  C   UNL     1     -10.820   6.068  68.839  1.00  0.00    -0.400 C  
ENDBRANCH  34  35
ENDBRANCH  32  34
ENDBRANCH  31  32
ENDBRANCH  30  31
ENDBRANCH  21  30
ENDBRANCH  16  17
ENDBRANCH   1  16
TORSDOF 14
ENDMDL
MODEL       94
REMARK 921   NORMALIZED FREE ENERGY PREDICTED BY IDOCK:   -5.31 KCAL/MOL
REMARK 922        TOTAL FREE ENERGY PREDICTED BY IDOCK:  -11.50 KCAL/MOL
REMARK 923 INTER-LIGAND FREE ENERGY PREDICTED BY IDOCK:   -9.72 KCAL/MOL
REMARK 924 INTRA-LIGAND FREE ENERGY PREDICTED BY IDOCK:   -1.78 KCAL/MOL
REMARK 927      BINDING AFFINITY PREDICTED BY RF-SCORE:    0.00 PKD
ROOT
HETATM    1  C   UNL     1     -11.765  14.065  68.200  1.00  0.00    -0.352 C  
HETATM    2  C   UNL     1     -12.156  13.420  69.528  1.00  0.00    -0.334 C  
ENDROOT
BRANCH   1   3
HETATM    3  C   UNL     1     -12.379  13.385  66.983  1.00  0.00    -0.177 C  
BRANCH   3   4
HETATM    4  N   UNL     1     -11.453  12.831  66.033  1.00  0.00    -0.331 NA 
HETATM    5  C   UNL     1     -10.895  11.599  66.185  1.00  0.00    -0.294 A  
HETATM    6  N   UNL     1      -9.593   9.294  65.954  1.00  0.00    -0.261 NA 
HETATM    7  C   UNL     1     -11.100  13.301  64.799  1.00  0.00    -0.342 A  
HETATM    8  N   UNL     1      -8.754   9.817  63.811  1.00  0.00    -0.206 NA 
HETATM    9  N   UNL     1     -11.021  10.770  67.233  1.00  0.00    -0.303 NA 
HETATM   10  C   UNL     1      -9.518  10.162  64.920  1.00  0.00    -0.289 A  
HETATM   11  N   UNL     1     -10.308  12.465  64.167  1.00  0.00    -0.365 NA 
HETATM   12  C   UNL     1     -10.338   9.635  67.028  1.00  0.00    -0.248 A  
HETATM   13  C   UNL     1     -10.192  11.385  65.016  1.00  0.00    -0.281 A  
HETATM   14  H1  UNL     1      -8.264   8.926  63.741  1.00  0.00     0.000 HD 
HETATM   15  H2  UNL     1      -8.070  10.558  63.666  1.00  0.00     0.000 HD 
ENDBRANCH   3   4
ENDBRANCH   1   3
BRANCH   1  16
HETATM   16  O   UNL     1     -10.325  14.166  68.147  1.00  0.00    -0.229 OA 
BRANCH  16  17
HETATM   17  C   UNL     1      -9.708  15.022  69.140  1.00  0.00    -0.212 C  
HETATM   18  O   UNL     1      -7.505  14.146  69.477  1.00  0.00     0.004 OA 
HETATM   19  O   UNL     1      -8.167  15.132  67.144  1.00  0.00    -0.191 OA 
HETATM   20  P   UNL     1      -7.963  15.414  68.754  1.00  0.00    -0.191 P  
HETATM   21  O   UNL     1      -6.314  15.786  68.390  1.00  0.00    -0.103 OA 
BRANCH  19  22
HETATM   22  C   UNL     1      -8.475  16.202  66.277  1.00  0.00    -0.322 C  
BRANCH  22  23
HETATM   23  O   UNL     1      -9.696  15.978  65.561  1.00  0.00    -0.418 OA 
BRANCH  23  24
HETATM   24  C   UNL     1     -10.347  17.114  65.208  1.00  0.00     0.105 C  
HETATM   25  O   UNL     1     -11.329  17.177  64.481  1.00  0.00    -1.034 OA 
BRANCH  24  26
HETATM   26  O   UNL     1      -9.722  18.181  65.774  1.00  0.00    -0.503 OA 
BRANCH  26  27
HETATM   27  C   UNL     1     -10.575  19.059  66.541  1.00  0.00    -0.410 C  
HETATM   28  C   UNL     1     -10.893  18.400  67.878  1.00  0.00    -0.234 C  
HETATM   29  C   UNL     1      -9.860  20.389  66.762  1.00  0.00    -0.541 C  
ENDBRANCH  26  27
ENDBRANCH  24  26
ENDBRANCH  23  24
ENDBRANCH  22  23
ENDBRANCH  19  22
BRANCH  21  30
HETATM   30  C   UNL     1      -5.833  16.899  69.112  1.00  0.00    -0.164 C  
BRANCH  30  31
HETATM   31  O   UNL     1      -5.157  17.824  68.265  1.00  0.00    -0.145 OA 
BRANCH  31  32
HETATM   32  C   UNL     1      -5.678  19.073  68.285  1.00  0.00    -0.201 C  
HETATM   33  O   UNL     1      -6.342  19.556  69.192  1.00  0.00    -0.270 OA 
BRANCH  32  34
HETATM   34  O   UNL     1      -5.283  19.711  67.155  1.00  0.00    -0.162 OA 
BRANCH  34  35
HETATM   35  C   UNL     1      -6.276  19.850  66.119  1.00  0.00    -0.184 C  
HETATM   36  C   UNL     1      -6.170  18.625  65.216  1.00  0.00    -0.312 C  
HETATM   37  C   UNL     1      -6.026  21.118  65.308  1.00  0.00    -0.215 C  
ENDBRANCH  34  35
ENDBRANCH  32  34
ENDBRANCH  31  32
ENDBRANCH  30  31
ENDBRANCH  21  30
ENDBRANCH  16  17
ENDBRANCH   1  16
TORSDOF 14
ENDMDL
MODEL       95
REMARK 921   NORMALIZED FREE ENERGY PREDICTED BY IDOCK:   -5.31 KCAL/MOL
REMARK 922        TOTAL FREE ENERGY PREDICTED BY IDOCK:  -11.49 KCAL/MOL
REMARK 923 INTER-LIGAND FREE ENERGY PREDICTED BY IDOCK:  -10.51 KCAL/MOL
REMARK 924 INTRA-LIGAND FREE ENERGY PREDICTED BY IDOCK:   -0.98 KCAL/MOL
REMARK 927      BINDING AFFINITY PREDICTED BY RF-SCORE:    0.00 PKD
ROOT
HETATM    1  C   UNL     1      -9.585  16.263  68.505  1.00  0.00    -0.222 C  
HETATM    2  C   UNL     1     -10.911  16.941  68.844  1.00  0.00    -0.274 C  
ENDROOT
BRANCH   1   3
HETATM    3  C   UNL     1      -8.364  17.129  68.785  1.00  0.00    -0.236 C  
BRANCH   3   4
HETATM    4  N   UNL     1      -8.206  18.290  67.950  1.00  0.00    -0.248 NA 
HETATM    5  C   UNL     1      -7.257  18.370  66.978  1.00  0.00    -0.203 A  
HETATM    6  N   UNL     1      -5.668  19.027  64.951  1.00  0.00    -0.232 NA 
HETATM    7  C   UNL     1      -9.011  19.389  67.842  1.00  0.00    -0.319 A  
HETATM    8  N   UNL     1      -6.808  21.048  64.524  1.00  0.00    -0.514 NA 
HETATM    9  N   UNL     1      -6.290  17.480  66.705  1.00  0.00    -0.184 NA 
HETATM   10  C   UNL     1      -6.673  19.877  65.260  1.00  0.00    -0.296 A  
HETATM   11  N   UNL     1      -8.608  20.197  66.888  1.00  0.00    -0.329 NA 
HETATM   12  C   UNL     1      -5.543  17.889  65.670  1.00  0.00    -0.146 A  
HETATM   13  C   UNL     1      -7.523  19.558  66.325  1.00  0.00    -0.280 A  
HETATM   14  H1  UNL     1      -6.189  21.281  63.748  1.00  0.00     0.000 HD 
HETATM   15  H2  UNL     1      -6.786  21.829  65.180  1.00  0.00     0.000 HD 
ENDBRANCH   3   4
ENDBRANCH   1   3
BRANCH   1  16
HETATM   16  O   UNL     1      -9.655  15.773  67.149  1.00  0.00    -0.215 OA 
BRANCH  16  17
HETATM   17  C   UNL     1      -8.787  14.660  66.826  1.00  0.00    -0.241 C  
HETATM   18  O   UNL     1      -8.468  13.464  68.876  1.00  0.00     0.039 OA 
HETATM   19  O   UNL     1     -10.856  13.602  67.812  1.00  0.00    -0.247 OA 
HETATM   20  P   UNL     1      -9.295  13.103  67.641  1.00  0.00    -0.226 P  
HETATM   21  O   UNL     1      -9.775  11.630  68.411  1.00  0.00    -0.191 OA 
BRANCH  19  22
HETATM   22  C   UNL     1     -11.813  13.262  66.832  1.00  0.00    -0.392 C  
BRANCH  22  23
HETATM   23  O   UNL     1     -12.281  14.412  66.119  1.00  0.00    -0.403 OA 
BRANCH  23  24
HETATM   24  C   UNL     1     -12.075  14.355  64.779  1.00  0.00    -0.452 C  
HETATM   25  O   UNL     1     -12.650  15.033  63.938  1.00  0.00    -0.813 OA 
BRANCH  24  26
HETATM   26  O   UNL     1     -11.138  13.406  64.512  1.00  0.00    -0.346 OA 
BRANCH  26  27
HETATM   27  C   UNL     1     -11.418  12.568  63.369  1.00  0.00    -0.452 C  
HETATM   28  C   UNL     1     -10.243  11.621  63.148  1.00  0.00    -0.396 C  
HETATM   29  C   UNL     1     -12.696  11.776  63.624  1.00  0.00    -0.407 C  
ENDBRANCH  26  27
ENDBRANCH  24  26
ENDBRANCH  23  24
ENDBRANCH  22  23
ENDBRANCH  19  22
BRANCH  21  30
HETATM   30  C   UNL     1      -9.196  10.489  67.815  1.00  0.00    -0.145 C  
BRANCH  30  31
HETATM   31  O   UNL     1      -9.706   9.284  68.378  1.00  0.00    -0.149 OA 
BRANCH  31  32
HETATM   32  C   UNL     1      -9.659   9.243  69.730  1.00  0.00    -0.190 C  
HETATM   33  O   UNL     1      -8.678   9.494  70.418  1.00  0.00    -0.217 OA 
BRANCH  32  34
HETATM   34  O   UNL     1     -10.899   8.936  70.186  1.00  0.00    -0.227 OA 
BRANCH  34  35
HETATM   35  C   UNL     1     -11.277   9.515  71.450  1.00  0.00    -0.382 C  
HETATM   36  C   UNL     1     -11.458   8.371  72.443  1.00  0.00    -0.451 C  
HETATM   37  C   UNL     1     -12.580  10.296  71.311  1.00  0.00    -0.522 C  
ENDBRANCH  34  35
ENDBRANCH  32  34
ENDBRANCH  31  32
ENDBRANCH  30  31
ENDBRANCH  21  30
ENDBRANCH  16  17
ENDBRANCH   1  16
TORSDOF 14
ENDMDL
MODEL       96
REMARK 921   NORMALIZED FREE ENERGY PREDICTED BY IDOCK:   -5.30 KCAL/MOL
REMARK 922        TOTAL FREE ENERGY PREDICTED BY IDOCK:  -11.48 KCAL/MOL
REMARK 923 INTER-LIGAND FREE ENERGY PREDICTED BY IDOCK:   -9.46 KCAL/MOL
REMARK 924 INTRA-LIGAND FREE ENERGY PREDICTED BY IDOCK:   -2.02 KCAL/MOL
REMARK 927      BINDING AFFINITY PREDICTED BY RF-SCORE:    0.00 PKD
ROOT
HETATM    1  C   UNL     1     -12.276   9.676  71.517  1.00  0.00    -0.399 C  
HETATM    2  C   UNL     1     -13.041   8.361  71.653  1.00  0.00    -0.355 C  
ENDROOT
BRANCH   1   3
HETATM    3  C   UNL     1     -13.046  10.762  70.778  1.00  0.00    -0.163 C  
BRANCH   3   4
HETATM    4  N   UNL     1     -12.872  12.104  71.264  1.00  0.00    -0.320 NA 
HETATM    5  C   UNL     1     -12.164  13.045  70.582  1.00  0.00    -0.307 A  
HETATM    6  N   UNL     1     -10.975  15.237  69.665  1.00  0.00    -0.266 NA 
HETATM    7  C   UNL     1     -13.469  12.718  72.329  1.00  0.00    -0.490 A  
HETATM    8  N   UNL     1     -11.797  16.590  71.415  1.00  0.00    -0.590 NA 
HETATM    9  N   UNL     1     -11.459  12.877  69.452  1.00  0.00    -0.275 NA 
HETATM   10  C   UNL     1     -11.715  15.351  70.791  1.00  0.00    -0.348 A  
HETATM   11  N   UNL     1     -13.149  13.990  72.400  1.00  0.00    -0.430 NA 
HETATM   12  C   UNL     1     -10.901  14.031  69.062  1.00  0.00    -0.243 A  
HETATM   13  C   UNL     1     -12.350  14.211  71.298  1.00  0.00    -0.369 A  
HETATM   14  H1  UNL     1     -11.335  17.420  71.046  1.00  0.00     0.000 HD 
HETATM   15  H2  UNL     1     -11.490  16.470  72.380  1.00  0.00     0.000 HD 
ENDBRANCH   3   4
ENDBRANCH   1   3
BRANCH   1  16
HETATM   16  O   UNL     1     -10.978   9.392  70.951  1.00  0.00    -0.265 OA 
BRANCH  16  17
HETATM   17  C   UNL     1     -10.969   8.605  69.735  1.00  0.00    -0.127 C  
HETATM   18  O   UNL     1     -11.249  10.169  67.943  1.00  0.00    -0.282 OA 
HETATM   19  O   UNL     1      -9.101  10.278  69.438  1.00  0.00    -0.196 OA 
HETATM   20  P   UNL     1     -10.010   9.389  68.389  1.00  0.00    -0.184 P  
HETATM   21  O   UNL     1      -9.102  10.130  67.115  1.00  0.00    -0.135 OA 
BRANCH  19  22
HETATM   22  C   UNL     1      -7.854   9.784  69.877  1.00  0.00    -0.161 C  
BRANCH  22  23
HETATM   23  O   UNL     1      -7.915   8.392  70.207  1.00  0.00    -0.095 OA 
BRANCH  23  24
HETATM   24  C   UNL     1      -7.785   8.131  71.532  1.00  0.00    -0.092 C  
HETATM   25  O   UNL     1      -7.323   8.896  72.368  1.00  0.00    -0.335 OA 
BRANCH  24  26
HETATM   26  O   UNL     1      -8.231   6.872  71.785  1.00  0.00    -0.105 OA 
BRANCH  26  27
HETATM   27  C   UNL     1      -9.450   6.793  72.556  1.00  0.00    -0.139 C  
HETATM   28  C   UNL     1     -10.349   5.719  71.954  1.00  0.00    -0.263 C  
HETATM   29  C   UNL     1      -9.110   6.449  74.003  1.00  0.00    -0.158 C  
ENDBRANCH  26  27
ENDBRANCH  24  26
ENDBRANCH  23  24
ENDBRANCH  22  23
ENDBRANCH  19  22
BRANCH  21  30
HETATM   30  C   UNL     1      -8.764   9.223  66.088  1.00  0.00    -0.149 C  
BRANCH  30  31
HETATM   31  O   UNL     1      -9.588   9.396  64.940  1.00  0.00    -0.191 OA 
BRANCH  31  32
HETATM   32  C   UNL     1      -9.082  10.249  64.020  1.00  0.00    -0.251 C  
HETATM   33  O   UNL     1      -7.902  10.348  63.710  1.00  0.00    -0.144 OA 
BRANCH  32  34
HETATM   34  O   UNL     1     -10.115  10.928  63.461  1.00  0.00    -0.324 OA 
BRANCH  34  35
HETATM   35  C   UNL     1     -11.006  11.601  64.372  1.00  0.00    -0.337 C  
HETATM   36  C   UNL     1     -12.219  12.062  63.569  1.00  0.00    -0.653 C  
HETATM   37  C   UNL     1     -10.314  12.803  65.005  1.00  0.00    -0.323 C  
ENDBRANCH  34  35
ENDBRANCH  32  34
ENDBRANCH  31  32
ENDBRANCH  30  31
ENDBRANCH  21  30
ENDBRANCH  16  17
ENDBRANCH   1  16
TORSDOF 14
ENDMDL
MODEL       97
REMARK 921   NORMALIZED FREE ENERGY PREDICTED BY IDOCK:   -5.29 KCAL/MOL
REMARK 922        TOTAL FREE ENERGY PREDICTED BY IDOCK:  -11.47 KCAL/MOL
REMARK 923 INTER-LIGAND FREE ENERGY PREDICTED BY IDOCK:   -9.57 KCAL/MOL
REMARK 924 INTRA-LIGAND FREE ENERGY PREDICTED BY IDOCK:   -1.90 KCAL/MOL
REMARK 927      BINDING AFFINITY PREDICTED BY RF-SCORE:    0.00 PKD
ROOT
HETATM    1  C   UNL     1     -12.031  10.364  69.683  1.00  0.00    -0.136 C  
HETATM    2  C   UNL     1     -12.609  10.887  70.996  1.00  0.00    -0.517 C  
ENDROOT
BRANCH   1   3
HETATM    3  C   UNL     1     -10.559   9.982  69.768  1.00  0.00    -0.267 C  
BRANCH   3   4
HETATM    4  N   UNL     1     -10.243   8.612  69.465  1.00  0.00    -0.204 NA 
HETATM    5  C   UNL     1      -9.428   8.258  68.434  1.00  0.00    -0.139 A  
HETATM    6  N   UNL     1      -7.895   7.035  66.641  1.00  0.00    -0.104 NA 
HETATM    7  C   UNL     1     -10.523   7.484  70.184  1.00  0.00    -0.222 A  
HETATM    8  N   UNL     1      -8.217   4.906  67.605  1.00  0.00    -0.105 NA 
HETATM    9  N   UNL     1      -8.886   9.065  67.508  1.00  0.00    -0.123 NA 
HETATM   10  C   UNL     1      -8.453   6.275  67.610  1.00  0.00    -0.116 A  
HETATM   11  N   UNL     1      -9.975   6.417  69.650  1.00  0.00    -0.161 NA 
HETATM   12  C   UNL     1      -8.127   8.366  66.652  1.00  0.00    -0.101 A  
HETATM   13  C   UNL     1      -9.268   6.893  68.566  1.00  0.00    -0.129 A  
HETATM   14  H1  UNL     1      -7.623   4.455  66.909  1.00  0.00     0.000 HD 
HETATM   15  H2  UNL     1      -9.122   4.437  67.588  1.00  0.00     0.000 HD 
ENDBRANCH   3   4
ENDBRANCH   1   3
BRANCH   1  16
HETATM   16  O   UNL     1     -12.326  11.320  68.641  1.00  0.00    -0.534 OA 
BRANCH  16  17
HETATM   17  C   UNL     1     -11.408  11.349  67.521  1.00  0.00    -0.292 C  
HETATM   18  O   UNL     1     -12.658  12.219  65.674  1.00  0.00    -0.504 OA 
HETATM   19  O   UNL     1     -12.209  13.731  67.765  1.00  0.00    -0.329 OA 
HETATM   20  P   UNL     1     -11.560  12.871  66.517  1.00  0.00    -0.404 P  
HETATM   21  O   UNL     1     -11.703  14.310  65.568  1.00  0.00    -0.337 OA 
BRANCH  19  22
HETATM   22  C   UNL     1     -11.370  14.505  68.594  1.00  0.00    -0.276 C  
BRANCH  22  23
HETATM   23  O   UNL     1      -9.986  14.331  68.268  1.00  0.00    -0.225 OA 
BRANCH  23  24
HETATM   24  C   UNL     1      -9.137  15.023  69.068  1.00  0.00    -0.205 C  
HETATM   25  O   UNL     1      -9.464  15.729  70.013  1.00  0.00    -0.105 OA 
BRANCH  24  26
HETATM   26  O   UNL     1      -7.861  14.825  68.643  1.00  0.00    -0.126 OA 
BRANCH  26  27
HETATM   27  C   UNL     1      -6.868  14.744  69.690  1.00  0.00    -0.173 C  
HETATM   28  C   UNL     1      -5.995  13.516  69.452  1.00  0.00    -0.097 C  
HETATM   29  C   UNL     1      -6.017  16.010  69.677  1.00  0.00    -0.162 C  
ENDBRANCH  26  27
ENDBRANCH  24  26
ENDBRANCH  23  24
ENDBRANCH  22  23
ENDBRANCH  19  22
BRANCH  21  30
HETATM   30  C   UNL     1     -10.584  14.528  64.736  1.00  0.00    -0.377 C  
BRANCH  30  31
HETATM   31  O   UNL     1      -9.826  15.657  65.159  1.00  0.00    -0.337 OA 
BRANCH  31  32
HETATM   32  C   UNL     1     -10.543  16.801  65.253  1.00  0.00    -0.168 C  
HETATM   33  O   UNL     1     -11.247  17.277  64.373  1.00  0.00    -1.082 OA 
BRANCH  32  34
HETATM   34  O   UNL     1     -10.393  17.290  66.509  1.00  0.00    -0.321 OA 
BRANCH  34  35
HETATM   35  C   UNL     1      -9.713  18.556  66.626  1.00  0.00    -0.341 C  
HETATM   36  C   UNL     1      -8.646  18.405  67.706  1.00  0.00    -0.278 C  
HETATM   37  C   UNL     1     -10.696  19.655  67.015  1.00  0.00    -0.575 C  
ENDBRANCH  34  35
ENDBRANCH  32  34
ENDBRANCH  31  32
ENDBRANCH  30  31
ENDBRANCH  21  30
ENDBRANCH  16  17
ENDBRANCH   1  16
TORSDOF 14
ENDMDL
MODEL       98
REMARK 921   NORMALIZED FREE ENERGY PREDICTED BY IDOCK:   -5.28 KCAL/MOL
REMARK 922        TOTAL FREE ENERGY PREDICTED BY IDOCK:  -11.45 KCAL/MOL
REMARK 923 INTER-LIGAND FREE ENERGY PREDICTED BY IDOCK:  -10.03 KCAL/MOL
REMARK 924 INTRA-LIGAND FREE ENERGY PREDICTED BY IDOCK:   -1.42 KCAL/MOL
REMARK 927      BINDING AFFINITY PREDICTED BY RF-SCORE:    0.00 PKD
ROOT
HETATM    1  C   UNL     1     -10.413  10.825  67.901  1.00  0.00    -0.199 C  
HETATM    2  C   UNL     1      -9.145  11.429  68.500  1.00  0.00    -0.169 C  
ENDROOT
BRANCH   1   3
HETATM    3  C   UNL     1     -11.631  11.733  67.998  1.00  0.00    -0.316 C  
BRANCH   3   4
HETATM    4  N   UNL     1     -11.573  12.954  67.240  1.00  0.00    -0.339 NA 
HETATM    5  C   UNL     1     -11.870  13.009  65.914  1.00  0.00    -0.416 A  
HETATM    6  N   UNL     1     -12.388  13.688  63.397  1.00  0.00    -0.760 NA 
HETATM    7  C   UNL     1     -11.395  14.235  67.684  1.00  0.00    -0.324 A  
HETATM    8  N   UNL     1     -12.092  15.993  63.806  1.00  0.00    -1.255 NA 
HETATM    9  N   UNL     1     -12.155  11.983  65.097  1.00  0.00    -0.370 NA 
HETATM   10  C   UNL     1     -12.112  14.683  64.270  1.00  0.00    -0.415 A  
HETATM   11  N   UNL     1     -11.512  15.108  66.710  1.00  0.00    -0.258 NA 
HETATM   12  C   UNL     1     -12.407  12.417  63.854  1.00  0.00    -0.508 A  
HETATM   13  C   UNL     1     -11.833  14.354  65.601  1.00  0.00    -0.355 A  
HETATM   14  H1  UNL     1     -12.297  16.233  62.836  1.00  0.00     0.000 HD 
HETATM   15  H2  UNL     1     -11.181  16.388  64.036  1.00  0.00     0.000 HD 
ENDBRANCH   3   4
ENDBRANCH   1   3
BRANCH   1  16
HETATM   16  O   UNL     1     -10.612   9.516  68.477  1.00  0.00    -0.214 OA 
BRANCH  16  17
HETATM   17  C   UNL     1     -10.472   8.392  67.574  1.00  0.00    -0.257 C  
HETATM   18  O   UNL     1      -8.155   8.324  66.971  1.00  0.00    -0.102 OA 
HETATM   19  O   UNL     1      -8.862   7.913  69.459  1.00  0.00    -0.140 OA 
HETATM   20  P   UNL     1      -8.963   7.408  67.893  1.00  0.00    -0.129 P  
HETATM   21  O   UNL     1      -7.536   6.477  68.196  1.00  0.00    -0.099 OA 
BRANCH  19  22
HETATM   22  C   UNL     1      -9.442   7.137  70.485  1.00  0.00    -0.162 C  
BRANCH  22  23
HETATM   23  O   UNL     1     -10.345   7.903  71.291  1.00  0.00    -0.191 OA 
BRANCH  23  24
HETATM   24  C   UNL     1     -10.862   7.221  72.343  1.00  0.00    -0.255 C  
HETATM   25  O   UNL     1     -10.429   6.169  72.795  1.00  0.00    -0.199 OA 
BRANCH  24  26
HETATM   26  O   UNL     1     -11.957   7.880  72.808  1.00  0.00    -0.301 OA 
BRANCH  26  27
HETATM   27  C   UNL     1     -12.855   8.377  71.791  1.00  0.00    -0.345 C  
HETATM   28  C   UNL     1     -13.825   7.268  71.401  1.00  0.00    -0.416 C  
HETATM   29  C   UNL     1     -13.617   9.581  72.337  1.00  0.00    -0.459 C  
ENDBRANCH  26  27
ENDBRANCH  24  26
ENDBRANCH  23  24
ENDBRANCH  22  23
ENDBRANCH  19  22
BRANCH  21  30
HETATM   30  C   UNL     1      -7.587   5.196  67.605  1.00  0.00    -0.087 C  
BRANCH  30  31
HETATM   31  O   UNL     1      -8.597   5.116  66.605  1.00  0.00    -0.111 OA 
BRANCH  31  32
HETATM   32  C   UNL     1      -8.858   3.857  66.182  1.00  0.00    -0.124 C  
HETATM   33  O   UNL     1      -8.335   2.837  66.611  1.00  0.00    -0.089 OA 
BRANCH  32  34
HETATM   34  O   UNL     1      -9.840   3.921  65.249  1.00  0.00    -0.183 OA 
BRANCH  34  35
HETATM   35  C   UNL     1      -9.503   3.440  63.933  1.00  0.00    -0.132 C  
HETATM   36  C   UNL     1      -8.709   4.539  63.232  1.00  0.00    -0.124 C  
HETATM   37  C   UNL     1     -10.768   3.125  63.140  1.00  0.00    -0.225 C  
ENDBRANCH  34  35
ENDBRANCH  32  34
ENDBRANCH  31  32
ENDBRANCH  30  31
ENDBRANCH  21  30
ENDBRANCH  16  17
ENDBRANCH   1  16
TORSDOF 14
ENDMDL
MODEL       99
REMARK 921   NORMALIZED FREE ENERGY PREDICTED BY IDOCK:   -5.28 KCAL/MOL
REMARK 922        TOTAL FREE ENERGY PREDICTED BY IDOCK:  -11.44 KCAL/MOL
REMARK 923 INTER-LIGAND FREE ENERGY PREDICTED BY IDOCK:   -9.63 KCAL/MOL
REMARK 924 INTRA-LIGAND FREE ENERGY PREDICTED BY IDOCK:   -1.81 KCAL/MOL
REMARK 927      BINDING AFFINITY PREDICTED BY RF-SCORE:    0.00 PKD
ROOT
HETATM    1  C   UNL     1     -11.575   9.969  70.368  1.00  0.00    -0.302 C  
HETATM    2  C   UNL     1     -12.706  10.815  70.949  1.00  0.00    -0.478 C  
ENDROOT
BRANCH   1   3
HETATM    3  C   UNL     1     -10.742   9.250  71.420  1.00  0.00    -0.362 C  
BRANCH   3   4
HETATM    4  N   UNL     1     -10.697   7.816  71.322  1.00  0.00    -0.227 NA 
HETATM    5  C   UNL     1     -10.486   7.013  72.400  1.00  0.00    -0.209 A  
HETATM    6  N   UNL     1     -10.180   5.018  74.128  1.00  0.00    -0.221 NA 
HETATM    7  C   UNL     1     -11.004   7.016  70.257  1.00  0.00    -0.271 A  
HETATM    8  N   UNL     1     -10.610   3.357  72.509  1.00  0.00    -0.060 NA 
HETATM    9  N   UNL     1     -10.198   7.390  73.655  1.00  0.00    -0.348 NA 
HETATM   10  C   UNL     1     -10.490   4.698  72.852  1.00  0.00    -0.194 A  
HETATM   11  N   UNL     1     -10.955   5.743  70.574  1.00  0.00    -0.279 NA 
HETATM   12  C   UNL     1     -10.066   6.324  74.456  1.00  0.00    -0.336 A  
HETATM   13  C   UNL     1     -10.654   5.729  71.920  1.00  0.00    -0.232 A  
HETATM   14  H1  UNL     1     -10.491   2.606  73.188  1.00  0.00     0.000 HD 
HETATM   15  H2  UNL     1      -9.970   3.178  71.736  1.00  0.00     0.000 HD 
ENDBRANCH   3   4
ENDBRANCH   1   3
BRANCH   1  16
HETATM   16  O   UNL     1     -10.799  10.795  69.473  1.00  0.00    -0.225 OA 
BRANCH  16  17
HETATM   17  C   UNL     1     -11.510  11.355  68.342  1.00  0.00    -0.299 C  
HETATM   18  O   UNL     1      -9.845  12.412  66.984  1.00  0.00    -0.206 OA 
HETATM   19  O   UNL     1      -9.786   9.817  67.326  1.00  0.00    -0.158 OA 
HETATM   20  P   UNL     1     -10.626  11.116  66.758  1.00  0.00    -0.261 P  
HETATM   21  O   UNL     1      -9.791  10.889  65.260  1.00  0.00    -0.230 OA 
BRANCH  19  22
HETATM   22  C   UNL     1     -10.280   8.513  67.110  1.00  0.00    -0.284 C  
BRANCH  22  23
HETATM   23  O   UNL     1      -9.308   7.669  66.479  1.00  0.00    -0.175 OA 
BRANCH  23  24
HETATM   24  C   UNL     1      -8.677   6.821  67.330  1.00  0.00    -0.119 C  
HETATM   25  O   UNL     1      -7.787   7.127  68.112  1.00  0.00    -0.114 OA 
BRANCH  24  26
HETATM   26  O   UNL     1      -9.176   5.568  67.162  1.00  0.00    -0.111 OA 
BRANCH  26  27
HETATM   27  C   UNL     1      -9.386   5.166  65.791  1.00  0.00    -0.154 C  
HETATM   28  C   UNL     1      -8.388   4.070  65.436  1.00  0.00    -0.109 C  
HETATM   29  C   UNL     1     -10.814   4.656  65.628  1.00  0.00    -0.105 C  
ENDBRANCH  26  27
ENDBRANCH  24  26
ENDBRANCH  23  24
ENDBRANCH  22  23
ENDBRANCH  19  22
BRANCH  21  30
HETATM   30  C   UNL     1     -10.627  11.071  64.137  1.00  0.00    -0.342 C  
BRANCH  30  31
HETATM   31  O   UNL     1     -10.851  12.451  63.866  1.00  0.00    -0.350 OA 
BRANCH  31  32
HETATM   32  C   UNL     1     -12.141  12.759  63.599  1.00  0.00    -0.543 C  
HETATM   33  O   UNL     1     -13.025  11.958  63.326  1.00  0.00    -0.707 OA 
BRANCH  32  34
HETATM   34  O   UNL     1     -12.294  14.099  63.749  1.00  0.00    -0.716 OA 
BRANCH  34  35
HETATM   35  C   UNL     1     -11.572  14.708  64.837  1.00  0.00    -0.405 C  
HETATM   36  C   UNL     1     -12.402  14.515  66.103  1.00  0.00    -0.229 C  
HETATM   37  C   UNL     1     -11.363  16.195  64.573  1.00  0.00    -0.273 C  
ENDBRANCH  34  35
ENDBRANCH  32  34
ENDBRANCH  31  32
ENDBRANCH  30  31
ENDBRANCH  21  30
ENDBRANCH  16  17
ENDBRANCH   1  16
TORSDOF 14
ENDMDL
MODEL      100
REMARK 921   NORMALIZED FREE ENERGY PREDICTED BY IDOCK:   -5.28 KCAL/MOL
REMARK 922        TOTAL FREE ENERGY PREDICTED BY IDOCK:  -11.44 KCAL/MOL
REMARK 923 INTER-LIGAND FREE ENERGY PREDICTED BY IDOCK:  -10.52 KCAL/MOL
REMARK 924 INTRA-LIGAND FREE ENERGY PREDICTED BY IDOCK:   -0.91 KCAL/MOL
REMARK 927      BINDING AFFINITY PREDICTED BY RF-SCORE:    0.00 PKD
ROOT
HETATM    1  C   UNL     1     -11.798  14.758  66.084  1.00  0.00    -0.199 C  
HETATM    2  C   UNL     1     -11.808  14.424  64.593  1.00  0.00    -0.460 C  
ENDROOT
BRANCH   1   3
HETATM    3  C   UNL     1     -10.453  15.262  66.591  1.00  0.00    -0.290 C  
BRANCH   3   4
HETATM    4  N   UNL     1     -10.251  16.685  66.541  1.00  0.00    -0.300 NA 
HETATM    5  C   UNL     1      -9.253  17.309  67.225  1.00  0.00    -0.232 A  
HETATM    6  N   UNL     1      -7.487  18.994  68.274  1.00  0.00    -0.281 NA 
HETATM    7  C   UNL     1     -10.849  17.613  65.734  1.00  0.00     0.026 A  
HETATM    8  N   UNL     1      -8.318  20.843  67.066  1.00  0.00    -0.566 NA 
HETATM    9  N   UNL     1      -8.393  16.758  68.096  1.00  0.00    -0.195 NA 
HETATM   10  C   UNL     1      -8.367  19.489  67.375  1.00  0.00    -0.294 A  
HETATM   11  N   UNL     1     -10.327  18.807  65.894  1.00  0.00    -0.582 NA 
HETATM   12  C   UNL     1      -7.539  17.677  68.569  1.00  0.00    -0.272 A  
HETATM   13  C   UNL     1      -9.311  18.624  66.809  1.00  0.00    -0.308 A  
HETATM   14  H1  UNL     1      -7.630  21.473  67.478  1.00  0.00     0.000 HD 
HETATM   15  H2  UNL     1      -9.242  21.235  67.246  1.00  0.00     0.000 HD 
ENDBRANCH   3   4
ENDBRANCH   1   3
BRANCH   1  16
HETATM   16  O   UNL     1     -12.307  13.620  66.811  1.00  0.00    -0.387 OA 
BRANCH  16  17
HETATM   17  C   UNL     1     -11.591  13.261  68.018  1.00  0.00    -0.336 C  
HETATM   18  O   UNL     1     -12.550  11.194  68.754  1.00  0.00    -0.345 OA 
HETATM   19  O   UNL     1     -11.277  11.293  66.468  1.00  0.00    -0.273 OA 
HETATM   20  P   UNL     1     -11.194  11.477  68.104  1.00  0.00    -0.325 P  
HETATM   21  O   UNL     1     -10.818   9.790  68.185  1.00  0.00    -0.242 OA 
BRANCH  19  22
HETATM   22  C   UNL     1     -10.104  11.395  65.691  1.00  0.00    -0.248 C  
BRANCH  22  23
HETATM   23  O   UNL     1      -9.980  10.309  64.763  1.00  0.00    -0.331 OA 
BRANCH  23  24
HETATM   24  C   UNL     1      -9.639  10.691  63.507  1.00  0.00    -0.323 C  
HETATM   25  O   UNL     1      -9.849  11.792  63.014  1.00  0.00    -0.398 OA 
BRANCH  24  26
HETATM   26  O   UNL     1      -9.042   9.649  62.870  1.00  0.00    -0.258 OA 
BRANCH  26  27
HETATM   27  C   UNL     1      -7.789   9.214  63.441  1.00  0.00    -0.132 C  
HETATM   28  C   UNL     1      -8.071   8.198  64.543  1.00  0.00    -0.142 C  
HETATM   29  C   UNL     1      -6.928   8.587  62.349  1.00  0.00    -0.094 C  
ENDBRANCH  26  27
ENDBRANCH  24  26
ENDBRANCH  23  24
ENDBRANCH  22  23
ENDBRANCH  19  22
BRANCH  21  30
HETATM   30  C   UNL     1      -9.810   9.501  69.130  1.00  0.00    -0.176 C  
BRANCH  30  31
HETATM   31  O   UNL     1     -10.138  10.006  70.421  1.00  0.00    -0.247 OA 
BRANCH  31  32
HETATM   32  C   UNL     1     -10.611   9.071  71.276  1.00  0.00    -0.308 C  
HETATM   33  O   UNL     1      -9.982   8.556  72.192  1.00  0.00    -0.269 OA 
BRANCH  32  34
HETATM   34  O   UNL     1     -11.917   8.852  70.981  1.00  0.00    -0.290 OA 
BRANCH  34  35
HETATM   35  C   UNL     1     -12.872   9.214  71.997  1.00  0.00    -0.408 C  
HETATM   36  C   UNL     1     -14.108   8.342  71.795  1.00  0.00    -0.510 C  
HETATM   37  C   UNL     1     -13.248  10.687  71.875  1.00  0.00    -0.528 C  
ENDBRANCH  34  35
ENDBRANCH  32  34
ENDBRANCH  31  32
ENDBRANCH  30  31
ENDBRANCH  21  30
ENDBRANCH  16  17
ENDBRANCH   1  16
TORSDOF 14
ENDMDL
MODEL      101
REMARK 921   NORMALIZED FREE ENERGY PREDICTED BY IDOCK:   -5.26 KCAL/MOL
REMARK 922        TOTAL FREE ENERGY PREDICTED BY IDOCK:  -11.41 KCAL/MOL
REMARK 923 INTER-LIGAND FREE ENERGY PREDICTED BY IDOCK:  -10.36 KCAL/MOL
REMARK 924 INTRA-LIGAND FREE ENERGY PREDICTED BY IDOCK:   -1.05 KCAL/MOL
REMARK 927      BINDING AFFINITY PREDICTED BY RF-SCORE:    0.00 PKD
ROOT
HETATM    1  C   UNL     1     -11.265  14.505  66.388  1.00  0.00    -0.341 C  
HETATM    2  C   UNL     1     -12.564  14.266  65.621  1.00  0.00    -0.429 C  
ENDROOT
BRANCH   1   3
HETATM    3  C   UNL     1     -10.261  15.373  65.640  1.00  0.00    -0.376 C  
BRANCH   3   4
HETATM    4  N   UNL     1      -9.443  16.235  66.450  1.00  0.00    -0.272 NA 
HETATM    5  C   UNL     1      -9.626  17.582  66.504  1.00  0.00    -0.285 A  
HETATM    6  N   UNL     1      -9.579  20.188  67.022  1.00  0.00    -0.397 NA 
HETATM    7  C   UNL     1      -8.506  15.901  67.388  1.00  0.00    -0.175 A  
HETATM    8  N   UNL     1      -7.909  19.976  68.675  1.00  0.00    -0.162 NA 
HETATM    9  N   UNL     1     -10.484  18.319  65.780  1.00  0.00    -0.617 NA 
HETATM   10  C   UNL     1      -8.750  19.393  67.734  1.00  0.00    -0.311 A  
HETATM   11  N   UNL     1      -8.040  16.960  68.010  1.00  0.00    -0.189 NA 
HETATM   12  C   UNL     1     -10.395  19.615  66.110  1.00  0.00    -0.530 A  
HETATM   13  C   UNL     1      -8.752  18.017  67.480  1.00  0.00    -0.248 A  
HETATM   14  H1  UNL     1      -7.908  20.979  68.860  1.00  0.00     0.000 HD 
HETATM   15  H2  UNL     1      -6.954  19.704  68.445  1.00  0.00     0.000 HD 
ENDBRANCH   3   4
ENDBRANCH   1   3
BRANCH   1  16
HETATM   16  O   UNL     1     -10.738  13.228  66.804  1.00  0.00    -0.273 OA 
BRANCH  16  17
HETATM   17  C   UNL     1     -10.393  13.104  68.205  1.00  0.00    -0.252 C  
HETATM   18  O   UNL     1     -12.474  12.932  69.377  1.00  0.00    -0.027 OA 
HETATM   19  O   UNL     1     -11.772  11.052  67.694  1.00  0.00    -0.576 OA 
HETATM   20  P   UNL     1     -11.416  11.866  69.082  1.00  0.00    -0.328 P  
HETATM   21  O   UNL     1     -12.383  10.696  69.911  1.00  0.00    -0.309 OA 
BRANCH  19  22
HETATM   22  C   UNL     1     -10.983   9.948  67.306  1.00  0.00    -0.117 C  
BRANCH  22  23
HETATM   23  O   UNL     1      -9.794  10.356  66.618  1.00  0.00    -0.187 OA 
BRANCH  23  24
HETATM   24  C   UNL     1      -9.345   9.456  65.708  1.00  0.00    -0.239 C  
HETATM   25  O   UNL     1      -9.536   8.248  65.745  1.00  0.00    -0.118 OA 
BRANCH  24  26
HETATM   26  O   UNL     1      -8.630  10.107  64.752  1.00  0.00    -0.160 OA 
BRANCH  26  27
HETATM   27  C   UNL     1      -9.267  10.195  63.458  1.00  0.00    -0.286 C  
HETATM   28  C   UNL     1     -10.320  11.297  63.497  1.00  0.00    -0.463 C  
HETATM   29  C   UNL     1      -8.214  10.505  62.399  1.00  0.00    -0.227 C  
ENDBRANCH  26  27
ENDBRANCH  24  26
ENDBRANCH  23  24
ENDBRANCH  22  23
ENDBRANCH  19  22
BRANCH  21  30
HETATM   30  C   UNL     1     -11.815  10.291  71.139  1.00  0.00    -0.362 C  
BRANCH  30  31
HETATM   31  O   UNL     1     -12.186   8.957  71.476  1.00  0.00    -0.297 OA 
BRANCH  31  32
HETATM   32  C   UNL     1     -11.315   8.016  71.045  1.00  0.00    -0.273 C  
HETATM   33  O   UNL     1     -10.768   7.997  69.950  1.00  0.00    -0.244 OA 
BRANCH  32  34
HETATM   34  O   UNL     1     -11.109   7.137  72.057  1.00  0.00    -0.234 OA 
BRANCH  34  35
HETATM   35  C   UNL     1     -10.430   7.650  73.221  1.00  0.00    -0.355 C  
HETATM   36  C   UNL     1      -9.073   8.177  72.764  1.00  0.00    -0.328 C  
HETATM   37  C   UNL     1     -10.238   6.546  74.255  1.00  0.00    -0.373 C  
ENDBRANCH  34  35
ENDBRANCH  32  34
ENDBRANCH  31  32
ENDBRANCH  30  31
ENDBRANCH  21  30
ENDBRANCH  16  17
ENDBRANCH   1  16
TORSDOF 14
ENDMDL
MODEL      102
REMARK 921   NORMALIZED FREE ENERGY PREDICTED BY IDOCK:   -5.26 KCAL/MOL
REMARK 922        TOTAL FREE ENERGY PREDICTED BY IDOCK:  -11.41 KCAL/MOL
REMARK 923 INTER-LIGAND FREE ENERGY PREDICTED BY IDOCK:   -9.86 KCAL/MOL
REMARK 924 INTRA-LIGAND FREE ENERGY PREDICTED BY IDOCK:   -1.55 KCAL/MOL
REMARK 927      BINDING AFFINITY PREDICTED BY RF-SCORE:    0.00 PKD
ROOT
HETATM    1  C   UNL     1     -11.604  14.709  66.845  1.00  0.00    -0.362 C  
HETATM    2  C   UNL     1     -11.324  14.436  65.369  1.00  0.00    -0.339 C  
ENDROOT
BRANCH   1   3
HETATM    3  C   UNL     1     -10.410  15.274  67.603  1.00  0.00    -0.250 C  
BRANCH   3   4
HETATM    4  N   UNL     1      -9.631  16.263  66.909  1.00  0.00    -0.226 NA 
HETATM    5  C   UNL     1      -9.914  17.593  66.967  1.00  0.00    -0.320 A  
HETATM    6  N   UNL     1      -9.972  20.243  66.785  1.00  0.00    -0.460 NA 
HETATM    7  C   UNL     1      -8.445  16.116  66.246  1.00  0.00    -0.322 A  
HETATM    8  N   UNL     1      -7.958  20.348  65.561  1.00  0.00    -0.438 NA 
HETATM    9  N   UNL     1     -10.965  18.179  67.562  1.00  0.00    -0.230 NA 
HETATM   10  C   UNL     1      -8.926  19.600  66.220  1.00  0.00    -0.375 A  
HETATM   11  N   UNL     1      -7.971  17.269  65.832  1.00  0.00    -0.519 NA 
HETATM   12  C   UNL     1     -10.910  19.511  67.425  1.00  0.00    -0.414 A  
HETATM   13  C   UNL     1      -8.871  18.204  66.298  1.00  0.00    -0.174 A  
HETATM   14  H1  UNL     1      -7.997  21.365  65.504  1.00  0.00     0.000 HD 
HETATM   15  H2  UNL     1      -7.885  19.989  64.610  1.00  0.00     0.000 HD 
ENDBRANCH   3   4
ENDBRANCH   1   3
BRANCH   1  16
HETATM   16  O   UNL     1     -12.157  13.513  67.434  1.00  0.00    -0.369 OA 
BRANCH  16  17
HETATM   17  C   UNL     1     -11.690  13.181  68.765  1.00  0.00    -0.324 C  
HETATM   18  O   UNL     1     -12.551  10.996  69.232  1.00  0.00    -0.361 OA 
HETATM   19  O   UNL     1     -10.825  11.322  67.291  1.00  0.00    -0.235 OA 
HETATM   20  P   UNL     1     -11.126  11.446  68.906  1.00  0.00    -0.280 P  
HETATM   21  O   UNL     1     -10.591   9.806  69.041  1.00  0.00    -0.207 OA 
BRANCH  19  22
HETATM   22  C   UNL     1      -9.527  11.578  66.797  1.00  0.00    -0.189 C  
BRANCH  22  23
HETATM   23  O   UNL     1      -9.432  11.331  65.389  1.00  0.00    -0.218 OA 
BRANCH  23  24
HETATM   24  C   UNL     1      -8.715  10.225  65.069  1.00  0.00    -0.182 C  
HETATM   25  O   UNL     1      -8.494   9.822  63.935  1.00  0.00    -0.154 OA 
BRANCH  24  26
HETATM   26  O   UNL     1      -8.294   9.620  66.211  1.00  0.00    -0.114 OA 
BRANCH  26  27
HETATM   27  C   UNL     1      -7.973   8.217  66.083  1.00  0.00    -0.100 C  
HETATM   28  C   UNL     1      -6.982   7.833  67.176  1.00  0.00    -0.077 C  
HETATM   29  C   UNL     1      -9.251   7.395  66.213  1.00  0.00    -0.182 C  
ENDBRANCH  26  27
ENDBRANCH  24  26
ENDBRANCH  23  24
ENDBRANCH  22  23
ENDBRANCH  19  22
BRANCH  21  30
HETATM   30  C   UNL     1      -9.791   9.585  70.183  1.00  0.00    -0.244 C  
BRANCH  30  31
HETATM   31  O   UNL     1     -10.578   9.478  71.365  1.00  0.00    -0.336 OA 
BRANCH  31  32
HETATM   32  C   UNL     1     -10.075   8.625  72.288  1.00  0.00    -0.292 C  
HETATM   33  O   UNL     1      -9.025   8.773  72.899  1.00  0.00    -0.337 OA 
BRANCH  32  34
HETATM   34  O   UNL     1     -10.965   7.616  72.459  1.00  0.00    -0.269 OA 
BRANCH  34  35
HETATM   35  C   UNL     1     -10.526   6.302  72.063  1.00  0.00    -0.207 C  
HETATM   36  C   UNL     1     -10.997   6.074  70.630  1.00  0.00    -0.376 C  
HETATM   37  C   UNL     1     -11.122   5.241  72.983  1.00  0.00    -0.377 C  
ENDBRANCH  34  35
ENDBRANCH  32  34
ENDBRANCH  31  32
ENDBRANCH  30  31
ENDBRANCH  21  30
ENDBRANCH  16  17
ENDBRANCH   1  16
TORSDOF 14
ENDMDL
MODEL      103
REMARK 921   NORMALIZED FREE ENERGY PREDICTED BY IDOCK:   -5.26 KCAL/MOL
REMARK 922        TOTAL FREE ENERGY PREDICTED BY IDOCK:  -11.41 KCAL/MOL
REMARK 923 INTER-LIGAND FREE ENERGY PREDICTED BY IDOCK:  -10.02 KCAL/MOL
REMARK 924 INTRA-LIGAND FREE ENERGY PREDICTED BY IDOCK:   -1.38 KCAL/MOL
REMARK 927      BINDING AFFINITY PREDICTED BY RF-SCORE:    0.00 PKD
ROOT
HETATM    1  C   UNL     1     -10.518  13.474  68.721  1.00  0.00    -0.197 C  
HETATM    2  C   UNL     1     -11.942  13.459  69.273  1.00  0.00    -0.367 C  
ENDROOT
BRANCH   1   3
HETATM    3  C   UNL     1     -10.370  14.255  67.422  1.00  0.00    -0.259 C  
BRANCH   3   4
HETATM    4  N   UNL     1     -11.250  13.873  66.350  1.00  0.00    -0.310 NA 
HETATM    5  C   UNL     1     -10.882  12.995  65.379  1.00  0.00    -0.284 A  
HETATM    6  N   UNL     1     -10.718  11.329  63.315  1.00  0.00    -0.290 NA 
HETATM    7  C   UNL     1     -12.579  14.148  66.188  1.00  0.00    -0.321 A  
HETATM    8  N   UNL     1     -12.981  11.620  62.714  1.00  0.00    -0.665 NA 
HETATM    9  N   UNL     1      -9.676  12.436  65.196  1.00  0.00    -0.122 NA 
HETATM   10  C   UNL     1     -11.916  11.906  63.559  1.00  0.00    -0.466 A  
HETATM   11  N   UNL     1     -13.078  13.534  65.139  1.00  0.00    -0.713 NA 
HETATM   12  C   UNL     1      -9.687  11.610  64.140  1.00  0.00    -0.184 A  
HETATM   13  C   UNL     1     -12.030  12.791  64.638  1.00  0.00    -0.396 A  
HETATM   14  H1  UNL     1     -12.898  10.975  61.929  1.00  0.00     0.000 HD 
HETATM   15  H2  UNL     1     -13.334  12.505  62.351  1.00  0.00     0.000 HD 
ENDBRANCH   3   4
ENDBRANCH   1   3
BRANCH   1  16
HETATM   16  O   UNL     1     -10.045  12.112  68.640  1.00  0.00    -0.212 OA 
BRANCH  16  17
HETATM   17  C   UNL     1     -11.061  11.089  68.502  1.00  0.00    -0.243 C  
HETATM   18  O   UNL     1     -10.363   9.720  66.665  1.00  0.00    -0.235 OA 
HETATM   19  O   UNL     1      -8.905   9.819  68.838  1.00  0.00    -0.129 OA 
HETATM   20  P   UNL     1     -10.361   9.433  68.168  1.00  0.00    -0.210 P  
HETATM   21  O   UNL     1      -9.699   7.865  67.853  1.00  0.00    -0.147 OA 
BRANCH  19  22
HETATM   22  C   UNL     1      -8.656   9.520  70.195  1.00  0.00    -0.224 C  
BRANCH  22  23
HETATM   23  O   UNL     1      -9.663   8.664  70.748  1.00  0.00    -0.174 OA 
BRANCH  23  24
HETATM   24  C   UNL     1      -9.715   8.676  72.104  1.00  0.00    -0.313 C  
HETATM   25  O   UNL     1      -8.754   8.786  72.854  1.00  0.00    -0.379 OA 
BRANCH  24  26
HETATM   26  O   UNL     1     -11.006   8.524  72.502  1.00  0.00    -0.353 OA 
BRANCH  26  27
HETATM   27  C   UNL     1     -11.956   8.293  71.439  1.00  0.00    -0.299 C  
HETATM   28  C   UNL     1     -12.618   6.936  71.651  1.00  0.00    -0.410 C  
HETATM   29  C   UNL     1     -13.004   9.401  71.449  1.00  0.00    -0.421 C  
ENDBRANCH  26  27
ENDBRANCH  24  26
ENDBRANCH  23  24
ENDBRANCH  22  23
ENDBRANCH  19  22
BRANCH  21  30
HETATM   30  C   UNL     1     -10.619   6.825  68.101  1.00  0.00    -0.230 C  
BRANCH  30  31
HETATM   31  O   UNL     1     -11.086   6.235  66.892  1.00  0.00    -0.361 OA 
BRANCH  31  32
HETATM   32  C   UNL     1     -10.426   5.109  66.536  1.00  0.00    -0.294 C  
HETATM   33  O   UNL     1     -10.608   4.469  65.508  1.00  0.00    -0.282 OA 
BRANCH  32  34
HETATM   34  O   UNL     1      -9.492   4.850  67.484  1.00  0.00    -0.127 OA 
BRANCH  34  35
HETATM   35  C   UNL     1      -9.342   3.471  67.875  1.00  0.00    -0.187 C  
HETATM   36  C   UNL     1      -9.640   3.384  69.369  1.00  0.00    -0.143 C  
HETATM   37  C   UNL     1      -7.921   2.990  67.599  1.00  0.00    -0.075 C  
ENDBRANCH  34  35
ENDBRANCH  32  34
ENDBRANCH  31  32
ENDBRANCH  30  31
ENDBRANCH  21  30
ENDBRANCH  16  17
ENDBRANCH   1  16
TORSDOF 14
ENDMDL
MODEL      104
REMARK 921   NORMALIZED FREE ENERGY PREDICTED BY IDOCK:   -5.25 KCAL/MOL
REMARK 922        TOTAL FREE ENERGY PREDICTED BY IDOCK:  -11.39 KCAL/MOL
REMARK 923 INTER-LIGAND FREE ENERGY PREDICTED BY IDOCK:   -9.65 KCAL/MOL
REMARK 924 INTRA-LIGAND FREE ENERGY PREDICTED BY IDOCK:   -1.74 KCAL/MOL
REMARK 927      BINDING AFFINITY PREDICTED BY RF-SCORE:    0.00 PKD
ROOT
HETATM    1  C   UNL     1     -11.070  11.690  69.349  1.00  0.00    -0.206 C  
HETATM    2  C   UNL     1     -12.216  12.047  70.293  1.00  0.00    -0.348 C  
ENDROOT
BRANCH   1   3
HETATM    3  C   UNL     1     -11.481  11.615  67.884  1.00  0.00    -0.311 C  
BRANCH   3   4
HETATM    4  N   UNL     1     -11.396  12.841  67.139  1.00  0.00    -0.296 NA 
HETATM    5  C   UNL     1     -11.833  12.951  65.855  1.00  0.00    -0.424 A  
HETATM    6  N   UNL     1     -12.564  13.726  63.420  1.00  0.00    -0.789 NA 
HETATM    7  C   UNL     1     -11.054  14.091  67.573  1.00  0.00    -0.298 A  
HETATM    8  N   UNL     1     -12.016  15.986  63.818  1.00  0.00    -1.339 NA 
HETATM    9  N   UNL     1     -12.300  11.971  65.065  1.00  0.00    -0.367 NA 
HETATM   10  C   UNL     1     -12.103  14.674  64.267  1.00  0.00    -0.415 A  
HETATM   11  N   UNL     1     -11.199  14.992  66.629  1.00  0.00    -0.332 NA 
HETATM   12  C   UNL     1     -12.648  12.452  63.863  1.00  0.00    -0.427 A  
HETATM   13  C   UNL     1     -11.708  14.293  65.555  1.00  0.00    -0.353 A  
HETATM   14  H1  UNL     1     -12.304  16.264  62.880  1.00  0.00     0.000 HD 
HETATM   15  H2  UNL     1     -11.052  16.293  63.948  1.00  0.00     0.000 HD 
ENDBRANCH   3   4
ENDBRANCH   1   3
BRANCH   1  16
HETATM   16  O   UNL     1     -10.431  10.492  69.838  1.00  0.00    -0.241 OA 
BRANCH  16  17
HETATM   17  C   UNL     1     -11.012   9.236  69.410  1.00  0.00    -0.120 C  
HETATM   18  O   UNL     1      -9.919   8.678  67.354  1.00  0.00    -0.177 OA 
HETATM   19  O   UNL     1      -8.535   8.780  69.575  1.00  0.00    -0.123 OA 
HETATM   20  P   UNL     1      -9.770   8.067  68.749  1.00  0.00    -0.162 P  
HETATM   21  O   UNL     1      -8.596   6.961  68.124  1.00  0.00    -0.123 OA 
BRANCH  19  22
HETATM   22  C   UNL     1      -8.156   8.281  70.840  1.00  0.00    -0.102 C  
BRANCH  22  23
HETATM   23  O   UNL     1      -9.237   7.605  71.494  1.00  0.00    -0.135 OA 
BRANCH  23  24
HETATM   24  C   UNL     1      -9.415   7.970  72.788  1.00  0.00    -0.269 C  
HETATM   25  O   UNL     1      -8.667   8.690  73.436  1.00  0.00    -0.333 OA 
BRANCH  24  26
HETATM   26  O   UNL     1     -10.551   7.393  73.263  1.00  0.00    -0.337 OA 
BRANCH  26  27
HETATM   27  C   UNL     1     -11.279   6.590  72.308  1.00  0.00    -0.273 C  
HETATM   28  C   UNL     1     -11.550   5.218  72.916  1.00  0.00    -0.292 C  
HETATM   29  C   UNL     1     -12.592   7.285  71.962  1.00  0.00    -0.254 C  
ENDBRANCH  26  27
ENDBRANCH  24  26
ENDBRANCH  23  24
ENDBRANCH  22  23
ENDBRANCH  19  22
BRANCH  21  30
HETATM   30  C   UNL     1      -9.071   5.632  68.073  1.00  0.00    -0.107 C  
BRANCH  30  31
HETATM   31  O   UNL     1      -9.925   5.336  69.174  1.00  0.00    -0.170 OA 
BRANCH  31  32
HETATM   32  C   UNL     1      -9.447   4.380  70.003  1.00  0.00    -0.181 C  
HETATM   33  O   UNL     1      -9.832   3.219  70.053  1.00  0.00    -0.085 OA 
BRANCH  32  34
HETATM   34  O   UNL     1      -8.429   4.917  70.722  1.00  0.00    -0.105 OA 
BRANCH  34  35
HETATM   35  C   UNL     1      -7.553   3.984  71.385  1.00  0.00    -0.063 C  
HETATM   36  C   UNL     1      -7.373   4.467  72.821  1.00  0.00    -0.078 C  
HETATM   37  C   UNL     1      -6.201   3.930  70.681  1.00  0.00    -0.019 C  
ENDBRANCH  34  35
ENDBRANCH  32  34
ENDBRANCH  31  32
ENDBRANCH  30  31
ENDBRANCH  21  30
ENDBRANCH  16  17
ENDBRANCH   1  16
TORSDOF 14
ENDMDL
MODEL      105
REMARK 921   NORMALIZED FREE ENERGY PREDICTED BY IDOCK:   -5.24 KCAL/MOL
REMARK 922        TOTAL FREE ENERGY PREDICTED BY IDOCK:  -11.37 KCAL/MOL
REMARK 923 INTER-LIGAND FREE ENERGY PREDICTED BY IDOCK:   -9.68 KCAL/MOL
REMARK 924 INTRA-LIGAND FREE ENERGY PREDICTED BY IDOCK:   -1.68 KCAL/MOL
REMARK 927      BINDING AFFINITY PREDICTED BY RF-SCORE:    0.00 PKD
ROOT
HETATM    1  C   UNL     1     -11.049  14.599  67.220  1.00  0.00    -0.328 C  
HETATM    2  C   UNL     1     -10.066  14.236  66.109  1.00  0.00    -0.325 C  
ENDROOT
BRANCH   1   3
HETATM    3  C   UNL     1     -10.429  15.417  68.345  1.00  0.00    -0.239 C  
BRANCH   3   4
HETATM    4  N   UNL     1     -10.197  16.808  68.063  1.00  0.00    -0.286 NA 
HETATM    5  C   UNL     1      -8.980  17.395  68.221  1.00  0.00    -0.268 A  
HETATM    6  N   UNL     1      -6.863  18.999  68.288  1.00  0.00    -0.240 NA 
HETATM    7  C   UNL     1     -11.026  17.715  67.464  1.00  0.00    -0.077 A  
HETATM    8  N   UNL     1      -8.022  20.809  67.315  1.00  0.00    -0.483 NA 
HETATM    9  N   UNL     1      -7.868  16.844  68.733  1.00  0.00    -0.244 NA 
HETATM   10  C   UNL     1      -8.006  19.494  67.765  1.00  0.00    -0.294 A  
HETATM   11  N   UNL     1     -10.427  18.868  67.271  1.00  0.00    -0.416 NA 
HETATM   12  C   UNL     1      -6.853  17.720  68.723  1.00  0.00    -0.247 A  
HETATM   13  C   UNL     1      -9.138  18.672  67.720  1.00  0.00    -0.285 A  
HETATM   14  H1  UNL     1      -7.197  21.408  67.347  1.00  0.00     0.000 HD 
HETATM   15  H2  UNL     1      -8.774  21.293  67.804  1.00  0.00     0.000 HD 
ENDBRANCH   3   4
ENDBRANCH   1   3
BRANCH   1  16
HETATM   16  O   UNL     1     -11.700  13.390  67.667  1.00  0.00    -0.318 OA 
BRANCH  16  17
HETATM   17  C   UNL     1     -11.607  13.100  69.083  1.00  0.00    -0.316 C  
HETATM   18  O   UNL     1     -12.725  11.006  69.394  1.00  0.00    -0.279 OA 
HETATM   19  O   UNL     1     -10.548  11.112  67.943  1.00  0.00    -0.180 OA 
HETATM   20  P   UNL     1     -11.233  11.342  69.424  1.00  0.00    -0.276 P  
HETATM   21  O   UNL     1     -10.879   9.680  69.748  1.00  0.00    -0.230 OA 
BRANCH  19  22
HETATM   22  C   UNL     1      -9.153  11.254  67.785  1.00  0.00    -0.152 C  
BRANCH  22  23
HETATM   23  O   UNL     1      -8.741  11.024  66.432  1.00  0.00    -0.161 OA 
BRANCH  23  24
HETATM   24  C   UNL     1      -8.960   9.759  65.995  1.00  0.00    -0.155 C  
HETATM   25  O   UNL     1      -8.405   8.752  66.415  1.00  0.00    -0.111 OA 
BRANCH  24  26
HETATM   26  O   UNL     1      -9.883   9.785  64.997  1.00  0.00    -0.306 OA 
BRANCH  26  27
HETATM   27  C   UNL     1      -9.561  10.645  63.882  1.00  0.00    -0.306 C  
HETATM   28  C   UNL     1      -9.135   9.785  62.697  1.00  0.00    -0.297 C  
HETATM   29  C   UNL     1     -10.786  11.478  63.518  1.00  0.00    -0.473 C  
ENDBRANCH  26  27
ENDBRANCH  24  26
ENDBRANCH  23  24
ENDBRANCH  22  23
ENDBRANCH  19  22
BRANCH  21  30
HETATM   30  C   UNL     1     -10.408   9.468  71.062  1.00  0.00    -0.283 C  
BRANCH  30  31
HETATM   31  O   UNL     1     -11.304   8.658  71.817  1.00  0.00    -0.278 OA 
BRANCH  31  32
HETATM   32  C   UNL     1     -10.724   7.577  72.387  1.00  0.00    -0.263 C  
HETATM   33  O   UNL     1     -10.833   7.242  73.560  1.00  0.00    -0.375 OA 
BRANCH  32  34
HETATM   34  O   UNL     1     -10.053   6.900  71.422  1.00  0.00    -0.187 OA 
BRANCH  34  35
HETATM   35  C   UNL     1     -10.765   5.820  70.787  1.00  0.00    -0.271 C  
HETATM   36  C   UNL     1      -9.890   4.574  70.886  1.00  0.00    -0.269 C  
HETATM   37  C   UNL     1     -11.039   6.149  69.323  1.00  0.00    -0.463 C  
ENDBRANCH  34  35
ENDBRANCH  32  34
ENDBRANCH  31  32
ENDBRANCH  30  31
ENDBRANCH  21  30
ENDBRANCH  16  17
ENDBRANCH   1  16
TORSDOF 14
ENDMDL
MODEL      106
REMARK 921   NORMALIZED FREE ENERGY PREDICTED BY IDOCK:   -5.24 KCAL/MOL
REMARK 922        TOTAL FREE ENERGY PREDICTED BY IDOCK:  -11.36 KCAL/MOL
REMARK 923 INTER-LIGAND FREE ENERGY PREDICTED BY IDOCK:   -9.88 KCAL/MOL
REMARK 924 INTRA-LIGAND FREE ENERGY PREDICTED BY IDOCK:   -1.48 KCAL/MOL
REMARK 927      BINDING AFFINITY PREDICTED BY RF-SCORE:    0.00 PKD
ROOT
HETATM    1  C   UNL     1      -9.829   9.960  69.023  1.00  0.00    -0.190 C  
HETATM    2  C   UNL     1     -10.425   9.061  67.942  1.00  0.00    -0.291 C  
ENDROOT
BRANCH   1   3
HETATM    3  C   UNL     1     -10.702  10.091  70.263  1.00  0.00    -0.309 C  
BRANCH   3   4
HETATM    4  N   UNL     1     -11.010   8.867  70.953  1.00  0.00    -0.250 NA 
HETATM    5  C   UNL     1     -10.268   8.406  71.996  1.00  0.00    -0.294 A  
HETATM    6  N   UNL     1      -9.234   7.104  74.069  1.00  0.00    -0.225 NA 
HETATM    7  C   UNL     1     -12.112   8.067  70.836  1.00  0.00    -0.152 A  
HETATM    8  N   UNL     1     -10.969   5.505  74.115  1.00  0.00    -0.408 NA 
HETATM    9  N   UNL     1      -9.126   8.922  72.477  1.00  0.00    -0.277 NA 
HETATM   10  C   UNL     1     -10.395   6.640  73.554  1.00  0.00    -0.296 A  
HETATM   11  N   UNL     1     -12.099   7.089  71.713  1.00  0.00    -0.319 NA 
HETATM   12  C   UNL     1      -8.681   8.207  73.520  1.00  0.00    -0.249 A  
HETATM   13  C   UNL     1     -10.960   7.304  72.460  1.00  0.00    -0.282 A  
HETATM   14  H1  UNL     1     -10.558   5.021  74.912  1.00  0.00     0.000 HD 
HETATM   15  H2  UNL     1     -11.093   4.821  73.369  1.00  0.00     0.000 HD 
ENDBRANCH   3   4
ENDBRANCH   1   3
BRANCH   1  16
HETATM   16  O   UNL     1      -9.474  11.224  68.422  1.00  0.00    -0.179 OA 
BRANCH  16  17
HETATM   17  C   UNL     1     -10.373  11.720  67.399  1.00  0.00    -0.204 C  
HETATM   18  O   UNL     1     -11.761  13.343  68.482  1.00  0.00    -0.313 OA 
HETATM   19  O   UNL     1      -9.186  13.771  68.269  1.00  0.00    -0.198 OA 
HETATM   20  P   UNL     1     -10.615  13.531  67.485  1.00  0.00    -0.247 P  
HETATM   21  O   UNL     1     -10.845  15.244  67.565  1.00  0.00    -0.289 OA 
BRANCH  19  22
HETATM   22  C   UNL     1      -8.024  14.082  67.531  1.00  0.00    -0.187 C  
BRANCH  22  23
HETATM   23  O   UNL     1      -7.421  15.304  67.972  1.00  0.00    -0.107 OA 
BRANCH  23  24
HETATM   24  C   UNL     1      -7.514  16.321  67.079  1.00  0.00    -0.222 C  
HETATM   25  O   UNL     1      -8.081  16.270  65.996  1.00  0.00    -0.219 OA 
BRANCH  24  26
HETATM   26  O   UNL     1      -6.859  17.407  67.569  1.00  0.00    -0.149 OA 
BRANCH  26  27
HETATM   27  C   UNL     1      -7.535  18.105  68.638  1.00  0.00    -0.290 C  
HETATM   28  C   UNL     1      -6.534  19.004  69.356  1.00  0.00    -0.325 C  
HETATM   29  C   UNL     1      -8.673  18.937  68.057  1.00  0.00    -0.330 C  
ENDBRANCH  26  27
ENDBRANCH  24  26
ENDBRANCH  23  24
ENDBRANCH  22  23
ENDBRANCH  19  22
BRANCH  21  30
HETATM   30  C   UNL     1     -11.384  15.778  66.374  1.00  0.00     0.143 C  
BRANCH  30  31
HETATM   31  O   UNL     1     -12.018  14.775  65.587  1.00  0.00    -0.284 OA 
BRANCH  31  32
HETATM   32  C   UNL     1     -12.202  15.124  64.292  1.00  0.00    -0.240 C  
HETATM   33  O   UNL     1     -12.120  16.258  63.839  1.00  0.00    -0.986 OA 
BRANCH  32  34
HETATM   34  O   UNL     1     -12.432  13.993  63.580  1.00  0.00    -0.803 OA 
BRANCH  34  35
HETATM   35  C   UNL     1     -11.885  12.774  64.120  1.00  0.00    -0.413 C  
HETATM   36  C   UNL     1     -10.517  12.562  63.478  1.00  0.00    -0.360 C  
HETATM   37  C   UNL     1     -12.797  11.593  63.804  1.00  0.00    -0.138 C  
ENDBRANCH  34  35
ENDBRANCH  32  34
ENDBRANCH  31  32
ENDBRANCH  30  31
ENDBRANCH  21  30
ENDBRANCH  16  17
ENDBRANCH   1  16
TORSDOF 14
ENDMDL
MODEL      107
REMARK 921   NORMALIZED FREE ENERGY PREDICTED BY IDOCK:   -5.23 KCAL/MOL
REMARK 922        TOTAL FREE ENERGY PREDICTED BY IDOCK:  -11.35 KCAL/MOL
REMARK 923 INTER-LIGAND FREE ENERGY PREDICTED BY IDOCK:   -9.31 KCAL/MOL
REMARK 924 INTRA-LIGAND FREE ENERGY PREDICTED BY IDOCK:   -2.05 KCAL/MOL
REMARK 927      BINDING AFFINITY PREDICTED BY RF-SCORE:    0.00 PKD
ROOT
HETATM    1  C   UNL     1     -11.212  15.312  69.754  1.00  0.00    -0.286 C  
HETATM    2  C   UNL     1     -12.293  15.095  70.811  1.00  0.00    -0.415 C  
ENDROOT
BRANCH   1   3
HETATM    3  C   UNL     1     -10.956  16.777  69.428  1.00  0.00    -0.176 C  
BRANCH   3   4
HETATM    4  N   UNL     1      -9.834  17.048  68.571  1.00  0.00    -0.276 NA 
HETATM    5  C   UNL     1      -9.850  18.031  67.630  1.00  0.00    -0.305 A  
HETATM    6  N   UNL     1      -9.324  19.808  65.726  1.00  0.00    -0.350 NA 
HETATM    7  C   UNL     1      -8.565  16.544  68.629  1.00  0.00    -0.243 A  
HETATM    8  N   UNL     1      -7.071  19.139  65.522  1.00  0.00    -0.455 NA 
HETATM    9  N   UNL     1     -10.885  18.811  67.281  1.00  0.00    -0.419 NA 
HETATM   10  C   UNL     1      -8.313  19.008  66.131  1.00  0.00    -0.217 A  
HETATM   11  N   UNL     1      -7.774  17.111  67.746  1.00  0.00    -0.175 NA 
HETATM   12  C   UNL     1     -10.529  19.677  66.322  1.00  0.00    -0.519 A  
HETATM   13  C   UNL     1      -8.563  18.060  67.130  1.00  0.00    -0.239 A  
HETATM   14  H1  UNL     1      -6.888  19.829  64.794  1.00  0.00     0.000 HD 
HETATM   15  H2  UNL     1      -6.810  18.225  65.152  1.00  0.00     0.000 HD 
ENDBRANCH   3   4
ENDBRANCH   1   3
BRANCH   1  16
HETATM   16  O   UNL     1     -11.532  14.504  68.601  1.00  0.00    -0.264 OA 
BRANCH  16  17
HETATM   17  C   UNL     1     -11.924  13.135  68.868  1.00  0.00    -0.277 C  
HETATM   18  O   UNL     1     -12.260  12.123  66.724  1.00  0.00    -0.553 OA 
HETATM   19  O   UNL     1      -9.872  12.949  67.408  1.00  0.00    -0.202 OA 
HETATM   20  P   UNL     1     -11.129  11.936  67.737  1.00  0.00    -0.282 P  
HETATM   21  O   UNL     1     -10.378  10.801  66.669  1.00  0.00    -0.225 OA 
BRANCH  19  22
HETATM   22  C   UNL     1      -8.679  12.852  68.156  1.00  0.00    -0.190 C  
BRANCH  22  23
HETATM   23  O   UNL     1      -7.530  13.215  67.381  1.00  0.00    -0.156 OA 
BRANCH  23  24
HETATM   24  C   UNL     1      -6.587  12.242  67.300  1.00  0.00    -0.146 C  
HETATM   25  O   UNL     1      -5.557  12.301  66.643  1.00  0.00    -0.299 OA 
BRANCH  24  26
HETATM   26  O   UNL     1      -6.978  11.179  68.051  1.00  0.00    -0.066 OA 
BRANCH  26  27
HETATM   27  C   UNL     1      -5.954  10.611  68.897  1.00  0.00    -0.040 C  
HETATM   28  C   UNL     1      -6.003  11.291  70.261  1.00  0.00    -0.154 C  
HETATM   29  C   UNL     1      -6.193   9.112  69.042  1.00  0.00    -0.043 C  
ENDBRANCH  26  27
ENDBRANCH  24  26
ENDBRANCH  23  24
ENDBRANCH  22  23
ENDBRANCH  19  22
BRANCH  21  30
HETATM   30  C   UNL     1     -10.437   9.476  67.151  1.00  0.00    -0.253 C  
BRANCH  30  31
HETATM   31  O   UNL     1      -9.739   9.333  68.384  1.00  0.00    -0.149 OA 
BRANCH  31  32
HETATM   32  C   UNL     1     -10.356   8.525  69.278  1.00  0.00    -0.221 C  
HETATM   33  O   UNL     1     -10.605   7.338  69.114  1.00  0.00    -0.212 OA 
BRANCH  32  34
HETATM   34  O   UNL     1     -10.592   9.244  70.403  1.00  0.00    -0.214 OA 
BRANCH  34  35
HETATM   35  C   UNL     1     -11.811   8.943  71.110  1.00  0.00    -0.298 C  
HETATM   36  C   UNL     1     -12.508  10.268  71.407  1.00  0.00    -0.528 C  
HETATM   37  C   UNL     1     -11.505   8.212  72.414  1.00  0.00    -0.462 C  
ENDBRANCH  34  35
ENDBRANCH  32  34
ENDBRANCH  31  32
ENDBRANCH  30  31
ENDBRANCH  21  30
ENDBRANCH  16  17
ENDBRANCH   1  16
TORSDOF 14
ENDMDL
MODEL      108
REMARK 921   NORMALIZED FREE ENERGY PREDICTED BY IDOCK:   -5.23 KCAL/MOL
REMARK 922        TOTAL FREE ENERGY PREDICTED BY IDOCK:  -11.35 KCAL/MOL
REMARK 923 INTER-LIGAND FREE ENERGY PREDICTED BY IDOCK:   -9.85 KCAL/MOL
REMARK 924 INTRA-LIGAND FREE ENERGY PREDICTED BY IDOCK:   -1.50 KCAL/MOL
REMARK 927      BINDING AFFINITY PREDICTED BY RF-SCORE:    0.00 PKD
ROOT
HETATM    1  C   UNL     1     -11.647  14.562  66.252  1.00  0.00    -0.360 C  
HETATM    2  C   UNL     1     -12.429  13.918  65.109  1.00  0.00    -0.479 C  
ENDROOT
BRANCH   1   3
HETATM    3  C   UNL     1     -10.780  15.736  65.819  1.00  0.00    -0.327 C  
BRANCH   3   4
HETATM    4  N   UNL     1     -10.235  16.545  66.876  1.00  0.00    -0.290 NA 
HETATM    5  C   UNL     1      -9.042  17.189  66.765  1.00  0.00    -0.247 A  
HETATM    6  N   UNL     1      -6.859  18.676  67.060  1.00  0.00    -0.194 NA 
HETATM    7  C   UNL     1     -10.822  16.947  68.042  1.00  0.00    -0.338 A  
HETATM    8  N   UNL     1      -7.549  19.532  69.148  1.00  0.00    -0.335 NA 
HETATM    9  N   UNL     1      -8.163  17.112  65.753  1.00  0.00    -0.451 NA 
HETATM   10  C   UNL     1      -7.789  18.729  68.039  1.00  0.00    -0.272 A  
HETATM   11  N   UNL     1     -10.056  17.776  68.713  1.00  0.00    -0.375 NA 
HETATM   12  C   UNL     1      -7.099  17.895  65.984  1.00  0.00    -0.305 A  
HETATM   13  C   UNL     1      -8.947  17.953  67.911  1.00  0.00    -0.264 A  
HETATM   14  H1  UNL     1      -6.705  20.097  69.241  1.00  0.00     0.000 HD 
HETATM   15  H2  UNL     1      -7.617  18.942  69.977  1.00  0.00     0.000 HD 
ENDBRANCH   3   4
ENDBRANCH   1   3
BRANCH   1  16
HETATM   16  O   UNL     1     -10.921  13.527  66.950  1.00  0.00    -0.283 OA 
BRANCH  16  17
HETATM   17  C   UNL     1     -11.293  13.307  68.333  1.00  0.00    -0.291 C  
HETATM   18  O   UNL     1     -12.370  11.168  68.386  1.00  0.00    -0.556 OA 
HETATM   19  O   UNL     1      -9.840  11.331  67.730  1.00  0.00    -0.169 OA 
HETATM   20  P   UNL     1     -10.986  11.590  68.886  1.00  0.00    -0.245 P  
HETATM   21  O   UNL     1     -10.696   9.966  69.409  1.00  0.00    -0.211 OA 
BRANCH  19  22
HETATM   22  C   UNL     1      -8.478  11.545  68.032  1.00  0.00    -0.148 C  
BRANCH  22  23
HETATM   23  O   UNL     1      -7.707  11.823  66.858  1.00  0.00    -0.156 OA 
BRANCH  23  24
HETATM   24  C   UNL     1      -6.454  11.303  66.883  1.00  0.00    -0.128 C  
HETATM   25  O   UNL     1      -5.451  11.834  66.425  1.00  0.00    -0.294 OA 
BRANCH  24  26
HETATM   26  O   UNL     1      -6.489  10.083  67.483  1.00  0.00    -0.066 OA 
BRANCH  26  27
HETATM   27  C   UNL     1      -6.576   8.956  66.584  1.00  0.00    -0.064 C  
HETATM   28  C   UNL     1      -5.234   8.233  66.562  1.00  0.00    -0.028 C  
HETATM   29  C   UNL     1      -7.678   8.015  67.060  1.00  0.00    -0.100 C  
ENDBRANCH  26  27
ENDBRANCH  24  26
ENDBRANCH  23  24
ENDBRANCH  22  23
ENDBRANCH  19  22
BRANCH  21  30
HETATM   30  C   UNL     1     -10.682   9.841  70.815  1.00  0.00    -0.323 C  
BRANCH  30  31
HETATM   31  O   UNL     1     -11.987   9.972  71.369  1.00  0.00    -0.365 OA 
BRANCH  31  32
HETATM   32  C   UNL     1     -12.425   8.869  72.019  1.00  0.00    -0.392 C  
HETATM   33  O   UNL     1     -13.522   8.738  72.546  1.00  0.00    -0.397 OA 
BRANCH  32  34
HETATM   34  O   UNL     1     -11.463   7.918  71.930  1.00  0.00    -0.257 OA 
BRANCH  34  35
HETATM   35  C   UNL     1     -11.898   6.603  71.528  1.00  0.00    -0.337 C  
HETATM   36  C   UNL     1     -11.268   5.599  72.490  1.00  0.00    -0.346 C  
HETATM   37  C   UNL     1     -11.452   6.307  70.100  1.00  0.00    -0.452 C  
ENDBRANCH  34  35
ENDBRANCH  32  34
ENDBRANCH  31  32
ENDBRANCH  30  31
ENDBRANCH  21  30
ENDBRANCH  16  17
ENDBRANCH   1  16
TORSDOF 14
ENDMDL
MODEL      109
REMARK 921   NORMALIZED FREE ENERGY PREDICTED BY IDOCK:   -5.22 KCAL/MOL
REMARK 922        TOTAL FREE ENERGY PREDICTED BY IDOCK:  -11.33 KCAL/MOL
REMARK 923 INTER-LIGAND FREE ENERGY PREDICTED BY IDOCK:  -10.41 KCAL/MOL
REMARK 924 INTRA-LIGAND FREE ENERGY PREDICTED BY IDOCK:   -0.92 KCAL/MOL
REMARK 927      BINDING AFFINITY PREDICTED BY RF-SCORE:    0.00 PKD
ROOT
HETATM    1  C   UNL     1      -8.909  10.001  68.179  1.00  0.00    -0.122 C  
HETATM    2  C   UNL     1     -10.189   9.658  67.421  1.00  0.00    -0.283 C  
ENDROOT
BRANCH   1   3
HETATM    3  C   UNL     1      -9.060   9.952  69.694  1.00  0.00    -0.227 C  
BRANCH   3   4
HETATM    4  N   UNL     1     -10.406  10.003  70.198  1.00  0.00    -0.274 NA 
HETATM    5  C   UNL     1     -10.918   9.048  71.020  1.00  0.00    -0.284 A  
HETATM    6  N   UNL     1     -12.373   7.539  72.653  1.00  0.00     0.014 NA 
HETATM    7  C   UNL     1     -11.319  11.016  70.112  1.00  0.00    -0.251 A  
HETATM    8  N   UNL     1     -14.178   9.058  72.682  1.00  0.00    -0.930 NA 
HETATM    9  N   UNL     1     -10.332   7.903  71.405  1.00  0.00    -0.196 NA 
HETATM   10  C   UNL     1     -12.904   8.714  72.247  1.00  0.00    -0.383 A  
HETATM   11  N   UNL     1     -12.410  10.748  70.792  1.00  0.00    -0.349 NA 
HETATM   12  C   UNL     1     -11.133   7.211  72.228  1.00  0.00    -0.254 A  
HETATM   13  C   UNL     1     -12.161   9.527  71.384  1.00  0.00    -0.378 A  
HETATM   14  H1  UNL     1     -14.720   8.466  73.311  1.00  0.00     0.000 HD 
HETATM   15  H2  UNL     1     -14.749   9.233  71.856  1.00  0.00     0.000 HD 
ENDBRANCH   3   4
ENDBRANCH   1   3
BRANCH   1  16
HETATM   16  O   UNL     1      -8.407  11.261  67.683  1.00  0.00    -0.119 OA 
BRANCH  16  17
HETATM   17  C   UNL     1      -7.669  12.072  68.629  1.00  0.00    -0.099 C  
HETATM   18  O   UNL     1      -6.179  13.411  67.316  1.00  0.00    -0.313 OA 
HETATM   19  O   UNL     1      -8.767  13.730  67.073  1.00  0.00    -0.224 OA 
HETATM   20  P   UNL     1      -7.454  13.800  68.067  1.00  0.00    -0.182 P  
HETATM   21  O   UNL     1      -7.252  15.435  67.537  1.00  0.00    -0.161 OA 
BRANCH  19  22
HETATM   22  C   UNL     1     -10.025  14.164  67.541  1.00  0.00    -0.236 C  
BRANCH  22  23
HETATM   23  O   UNL     1     -11.032  13.157  67.382  1.00  0.00    -0.255 OA 
BRANCH  23  24
HETATM   24  C   UNL     1     -11.863  13.366  66.330  1.00  0.00    -0.396 C  
HETATM   25  O   UNL     1     -12.277  14.454  65.953  1.00  0.00    -0.392 OA 
BRANCH  24  26
HETATM   26  O   UNL     1     -12.182  12.170  65.768  1.00  0.00    -0.586 OA 
BRANCH  26  27
HETATM   27  C   UNL     1     -11.586  11.917  64.477  1.00  0.00    -0.271 C  
HETATM   28  C   UNL     1     -12.656  12.060  63.400  1.00  0.00    -0.592 C  
HETATM   29  C   UNL     1     -10.457  12.914  64.239  1.00  0.00    -0.430 C  
ENDBRANCH  26  27
ENDBRANCH  24  26
ENDBRANCH  23  24
ENDBRANCH  22  23
ENDBRANCH  19  22
BRANCH  21  30
HETATM   30  C   UNL     1      -6.893  16.308  68.586  1.00  0.00    -0.141 C  
BRANCH  30  31
HETATM   31  O   UNL     1      -6.559  17.605  68.101  1.00  0.00    -0.183 OA 
BRANCH  31  32
HETATM   32  C   UNL     1      -7.487  18.551  68.370  1.00  0.00    -0.296 C  
HETATM   33  O   UNL     1      -7.459  19.333  69.312  1.00  0.00    -0.317 OA 
BRANCH  32  34
HETATM   34  O   UNL     1      -8.417  18.523  67.383  1.00  0.00    -0.254 OA 
BRANCH  34  35
HETATM   35  C   UNL     1      -8.752  19.789  66.783  1.00  0.00    -0.339 C  
HETATM   36  C   UNL     1     -10.194  19.696  66.292  1.00  0.00    -0.598 C  
HETATM   37  C   UNL     1      -7.822  20.088  65.612  1.00  0.00    -0.113 C  
ENDBRANCH  34  35
ENDBRANCH  32  34
ENDBRANCH  31  32
ENDBRANCH  30  31
ENDBRANCH  21  30
ENDBRANCH  16  17
ENDBRANCH   1  16
TORSDOF 14
ENDMDL
MODEL      110
REMARK 921   NORMALIZED FREE ENERGY PREDICTED BY IDOCK:   -5.22 KCAL/MOL
REMARK 922        TOTAL FREE ENERGY PREDICTED BY IDOCK:  -11.33 KCAL/MOL
REMARK 923 INTER-LIGAND FREE ENERGY PREDICTED BY IDOCK:   -9.98 KCAL/MOL
REMARK 924 INTRA-LIGAND FREE ENERGY PREDICTED BY IDOCK:   -1.35 KCAL/MOL
REMARK 927      BINDING AFFINITY PREDICTED BY RF-SCORE:    0.00 PKD
ROOT
HETATM    1  C   UNL     1     -11.997  14.310  65.593  1.00  0.00    -0.386 C  
HETATM    2  C   UNL     1     -12.298  13.583  64.284  1.00  0.00    -0.392 C  
ENDROOT
BRANCH   1   3
HETATM    3  C   UNL     1     -10.707  15.119  65.564  1.00  0.00    -0.365 C  
BRANCH   3   4
HETATM    4  N   UNL     1     -10.501  16.022  66.664  1.00  0.00    -0.304 NA 
HETATM    5  C   UNL     1     -10.532  17.374  66.519  1.00  0.00    -0.264 A  
HETATM    6  N   UNL     1     -10.546  20.015  66.812  1.00  0.00    -0.403 NA 
HETATM    7  C   UNL     1     -10.413  15.745  68.000  1.00  0.00    -0.270 A  
HETATM    8  N   UNL     1     -10.337  19.901  69.160  1.00  0.00    -0.600 NA 
HETATM    9  N   UNL     1     -10.652  18.071  65.378  1.00  0.00    -0.580 NA 
HETATM   10  C   UNL     1     -10.447  19.262  67.930  1.00  0.00    -0.410 A  
HETATM   11  N   UNL     1     -10.338  16.841  68.720  1.00  0.00    -0.296 NA 
HETATM   12  C   UNL     1     -10.655  19.389  65.620  1.00  0.00    -0.299 A  
HETATM   13  C   UNL     1     -10.434  17.868  67.805  1.00  0.00    -0.400 A  
HETATM   14  H1  UNL     1     -10.347  20.916  69.251  1.00  0.00     0.000 HD 
HETATM   15  H2  UNL     1      -9.488  19.559  69.610  1.00  0.00     0.000 HD 
ENDBRANCH   3   4
ENDBRANCH   1   3
BRANCH   1  16
HETATM   16  O   UNL     1     -12.061  13.353  66.673  1.00  0.00    -0.391 OA 
BRANCH  16  17
HETATM   17  C   UNL     1     -11.450  12.064  66.421  1.00  0.00    -0.353 C  
HETATM   18  O   UNL     1      -9.122  12.338  66.911  1.00  0.00    -0.197 OA 
HETATM   19  O   UNL     1     -10.890  12.588  68.827  1.00  0.00    -0.242 OA 
HETATM   20  P   UNL     1     -10.215  11.604  67.690  1.00  0.00    -0.197 P  
HETATM   21  O   UNL     1      -9.047  11.168  68.890  1.00  0.00    -0.164 OA 
BRANCH  19  22
HETATM   22  C   UNL     1     -11.838  12.067  69.733  1.00  0.00    -0.331 C  
BRANCH  22  23
HETATM   23  O   UNL     1     -11.973  10.646  69.608  1.00  0.00    -0.290 OA 
BRANCH  23  24
HETATM   24  C   UNL     1     -12.274  10.015  70.771  1.00  0.00    -0.315 C  
HETATM   25  O   UNL     1     -13.401   9.751  71.168  1.00  0.00    -0.373 OA 
BRANCH  24  26
HETATM   26  O   UNL     1     -11.124   9.740  71.441  1.00  0.00    -0.359 OA 
BRANCH  26  27
HETATM   27  C   UNL     1     -10.789   8.338  71.541  1.00  0.00    -0.249 C  
HETATM   28  C   UNL     1     -11.406   7.770  72.815  1.00  0.00    -0.446 C  
HETATM   29  C   UNL     1     -11.328   7.603  70.318  1.00  0.00    -0.197 C  
ENDBRANCH  26  27
ENDBRANCH  24  26
ENDBRANCH  23  24
ENDBRANCH  22  23
ENDBRANCH  19  22
BRANCH  21  30
HETATM   30  C   UNL     1      -8.742   9.790  68.879  1.00  0.00    -0.136 C  
BRANCH  30  31
HETATM   31  O   UNL     1      -7.875   9.452  67.801  1.00  0.00    -0.095 OA 
BRANCH  31  32
HETATM   32  C   UNL     1      -8.257   8.355  67.107  1.00  0.00    -0.108 C  
HETATM   33  O   UNL     1      -9.057   7.510  67.490  1.00  0.00    -0.125 OA 
BRANCH  32  34
HETATM   34  O   UNL     1      -7.650   8.390  65.895  1.00  0.00    -0.079 OA 
BRANCH  34  35
HETATM   35  C   UNL     1      -7.359   9.697  65.363  1.00  0.00    -0.108 C  
HETATM   36  C   UNL     1      -8.482  10.056  64.394  1.00  0.00    -0.178 C  
HETATM   37  C   UNL     1      -6.022   9.689  64.630  1.00  0.00    -0.084 C  
ENDBRANCH  34  35
ENDBRANCH  32  34
ENDBRANCH  31  32
ENDBRANCH  30  31
ENDBRANCH  21  30
ENDBRANCH  16  17
ENDBRANCH   1  16
TORSDOF 14
ENDMDL
MODEL      111
REMARK 921   NORMALIZED FREE ENERGY PREDICTED BY IDOCK:   -5.22 KCAL/MOL
REMARK 922        TOTAL FREE ENERGY PREDICTED BY IDOCK:  -11.33 KCAL/MOL
REMARK 923 INTER-LIGAND FREE ENERGY PREDICTED BY IDOCK:  -10.45 KCAL/MOL
REMARK 924 INTRA-LIGAND FREE ENERGY PREDICTED BY IDOCK:   -0.88 KCAL/MOL
REMARK 927      BINDING AFFINITY PREDICTED BY RF-SCORE:    0.00 PKD
ROOT
HETATM    1  C   UNL     1     -11.031  12.738  63.798  1.00  0.00    -0.402 C  
HETATM    2  C   UNL     1     -12.334  13.426  63.398  1.00  0.00    -0.343 C  
ENDROOT
BRANCH   1   3
HETATM    3  C   UNL     1     -10.931  11.292  63.330  1.00  0.00    -0.171 C  
BRANCH   3   4
HETATM    4  N   UNL     1      -9.612  10.718  63.326  1.00  0.00    -0.317 NA 
HETATM    5  C   UNL     1      -9.172   9.884  64.306  1.00  0.00    -0.265 A  
HETATM    6  N   UNL     1      -7.849   8.198  65.878  1.00  0.00    -0.090 NA 
HETATM    7  C   UNL     1      -8.666  10.743  62.339  1.00  0.00    -0.289 A  
HETATM    8  N   UNL     1      -6.004   8.055  64.414  1.00  0.00    -0.052 NA 
HETATM    9  N   UNL     1      -9.810   9.545  65.438  1.00  0.00    -0.266 NA 
HETATM   10  C   UNL     1      -7.263   8.560  64.715  1.00  0.00    -0.085 A  
HETATM   11  N   UNL     1      -7.620  10.010  62.649  1.00  0.00    -0.125 NA 
HETATM   12  C   UNL     1      -9.074   8.692  66.163  1.00  0.00    -0.201 A  
HETATM   13  C   UNL     1      -7.936   9.449  63.869  1.00  0.00    -0.142 A  
HETATM   14  H1  UNL     1      -5.514   7.406  65.030  1.00  0.00     0.000 HD 
HETATM   15  H2  UNL     1      -5.385   8.847  64.246  1.00  0.00     0.000 HD 
ENDBRANCH   3   4
ENDBRANCH   1   3
BRANCH   1  16
HETATM   16  O   UNL     1     -10.842  12.907  65.219  1.00  0.00    -0.283 OA 
BRANCH  16  17
HETATM   17  C   UNL     1     -11.973  12.569  66.059  1.00  0.00    -0.392 C  
HETATM   18  O   UNL     1     -11.065  11.378  67.928  1.00  0.00    -0.223 OA 
HETATM   19  O   UNL     1     -10.427  13.891  67.555  1.00  0.00    -0.246 OA 
HETATM   20  P   UNL     1     -11.628  12.799  67.841  1.00  0.00    -0.357 P  
HETATM   21  O   UNL     1     -11.303  13.016  69.526  1.00  0.00    -0.231 OA 
BRANCH  19  22
HETATM   22  C   UNL     1     -10.719  15.271  67.556  1.00  0.00    -0.285 C  
BRANCH  22  23
HETATM   23  O   UNL     1     -10.348  15.898  66.322  1.00  0.00    -0.289 OA 
BRANCH  23  24
HETATM   24  C   UNL     1      -9.070  16.353  66.296  1.00  0.00    -0.327 C  
HETATM   25  O   UNL     1      -8.075  15.702  66.581  1.00  0.00    -0.250 OA 
BRANCH  24  26
HETATM   26  O   UNL     1      -9.070  17.660  65.920  1.00  0.00    -0.515 OA 
BRANCH  26  27
HETATM   27  C   UNL     1      -9.754  18.560  66.820  1.00  0.00    -0.333 C  
HETATM   28  C   UNL     1      -8.734  19.190  67.763  1.00  0.00    -0.336 C  
HETATM   29  C   UNL     1     -10.464  19.640  66.009  1.00  0.00    -0.622 C  
ENDBRANCH  26  27
ENDBRANCH  24  26
ENDBRANCH  23  24
ENDBRANCH  22  23
ENDBRANCH  19  22
BRANCH  21  30
HETATM   30  C   UNL     1     -12.478  13.070  70.306  1.00  0.00    -0.147 C  
BRANCH  30  31
HETATM   31  O   UNL     1     -12.415  14.104  71.283  1.00  0.00    -0.333 OA 
BRANCH  31  32
HETATM   32  C   UNL     1     -13.511  14.185  72.073  1.00  0.00    -0.431 C  
HETATM   33  O   UNL     1     -14.134  13.235  72.529  1.00  0.00    -0.709 OA 
BRANCH  32  34
HETATM   34  O   UNL     1     -13.757  15.496  72.320  1.00  0.00    -0.463 OA 
BRANCH  34  35
HETATM   35  C   UNL     1     -12.941  16.121  73.330  1.00  0.00    -0.509 C  
HETATM   36  C   UNL     1     -11.808  16.853  72.617  1.00  0.00     0.140 C  
HETATM   37  C   UNL     1     -12.369  15.072  74.278  1.00  0.00    -0.556 C  
ENDBRANCH  34  35
ENDBRANCH  32  34
ENDBRANCH  31  32
ENDBRANCH  30  31
ENDBRANCH  21  30
ENDBRANCH  16  17
ENDBRANCH   1  16
TORSDOF 14
ENDMDL
MODEL      112
REMARK 921   NORMALIZED FREE ENERGY PREDICTED BY IDOCK:   -5.22 KCAL/MOL
REMARK 922        TOTAL FREE ENERGY PREDICTED BY IDOCK:  -11.33 KCAL/MOL
REMARK 923 INTER-LIGAND FREE ENERGY PREDICTED BY IDOCK:   -9.62 KCAL/MOL
REMARK 924 INTRA-LIGAND FREE ENERGY PREDICTED BY IDOCK:   -1.71 KCAL/MOL
REMARK 927      BINDING AFFINITY PREDICTED BY RF-SCORE:    0.00 PKD
ROOT
HETATM    1  C   UNL     1      -9.224  11.219  67.521  1.00  0.00    -0.158 C  
HETATM    2  C   UNL     1      -8.036  11.262  66.562  1.00  0.00    -0.160 C  
ENDROOT
BRANCH   1   3
HETATM    3  C   UNL     1      -9.637  12.587  68.049  1.00  0.00    -0.212 C  
BRANCH   3   4
HETATM    4  N   UNL     1      -9.818  13.618  67.062  1.00  0.00    -0.245 NA 
HETATM    5  C   UNL     1     -10.860  13.620  66.187  1.00  0.00    -0.279 A  
HETATM    6  N   UNL     1     -12.684  14.144  64.327  1.00  0.00    -0.629 NA 
HETATM    7  C   UNL     1      -9.147  14.799  66.919  1.00  0.00    -0.248 A  
HETATM    8  N   UNL     1     -11.738  16.236  63.782  1.00  0.00    -1.488 NA 
HETATM    9  N   UNL     1     -11.793  12.669  66.025  1.00  0.00    -0.426 NA 
HETATM   10  C   UNL     1     -11.729  15.075  64.547  1.00  0.00    -0.368 A  
HETATM   11  N   UNL     1      -9.666  15.543  65.969  1.00  0.00    -0.318 NA 
HETATM   12  C   UNL     1     -12.671  13.019  65.075  1.00  0.00    -0.410 A  
HETATM   13  C   UNL     1     -10.754  14.824  65.518  1.00  0.00    -0.357 A  
HETATM   14  H1  UNL     1     -12.449  16.419  63.074  1.00  0.00     0.000 HD 
HETATM   15  H2  UNL     1     -10.827  16.315  63.331  1.00  0.00     0.000 HD 
ENDBRANCH   3   4
ENDBRANCH   1   3
BRANCH   1  16
HETATM   16  O   UNL     1      -8.941  10.255  68.557  1.00  0.00    -0.124 OA 
BRANCH  16  17
HETATM   17  C   UNL     1      -9.056   8.860  68.181  1.00  0.00    -0.140 C  
HETATM   18  O   UNL     1      -6.903   7.895  68.587  1.00  0.00    -0.059 OA 
HETATM   19  O   UNL     1      -8.308   8.822  70.592  1.00  0.00    -0.122 OA 
HETATM   20  P   UNL     1      -8.216   7.737  69.356  1.00  0.00    -0.134 P  
HETATM   21  O   UNL     1      -7.422   6.673  70.466  1.00  0.00    -0.083 OA 
BRANCH  19  22
HETATM   22  C   UNL     1      -9.390   8.765  71.497  1.00  0.00    -0.267 C  
BRANCH  22  23
HETATM   23  O   UNL     1     -10.339   7.756  71.133  1.00  0.00    -0.200 OA 
BRANCH  23  24
HETATM   24  C   UNL     1     -11.609   8.022  71.531  1.00  0.00    -0.275 C  
HETATM   25  O   UNL     1     -12.513   7.202  71.627  1.00  0.00    -0.334 OA 
BRANCH  24  26
HETATM   26  O   UNL     1     -11.726   9.351  71.790  1.00  0.00    -0.371 OA 
BRANCH  26  27
HETATM   27  C   UNL     1     -12.787  10.026  71.078  1.00  0.00    -0.365 C  
HETATM   28  C   UNL     1     -13.402  11.083  71.989  1.00  0.00    -0.393 C  
HETATM   29  C   UNL     1     -12.216  10.676  69.822  1.00  0.00    -0.318 C  
ENDBRANCH  26  27
ENDBRANCH  24  26
ENDBRANCH  23  24
ENDBRANCH  22  23
ENDBRANCH  19  22
BRANCH  21  30
HETATM   30  C   UNL     1      -7.847   5.333  70.336  1.00  0.00    -0.076 C  
BRANCH  30  31
HETATM   31  O   UNL     1      -9.018   5.228  69.533  1.00  0.00    -0.102 OA 
BRANCH  31  32
HETATM   32  C   UNL     1      -9.536   3.979  69.472  1.00  0.00    -0.187 C  
HETATM   33  O   UNL     1      -9.608   3.190  70.405  1.00  0.00    -0.171 OA 
BRANCH  32  34
HETATM   34  O   UNL     1     -10.013   3.781  68.218  1.00  0.00    -0.006 OA 
BRANCH  34  35
HETATM   35  C   UNL     1      -9.431   4.590  67.177  1.00  0.00    -0.162 C  
HETATM   36  C   UNL     1     -10.575   5.126  66.320  1.00  0.00    -0.325 C  
HETATM   37  C   UNL     1      -8.484   3.756  66.320  1.00  0.00    -0.110 C  
ENDBRANCH  34  35
ENDBRANCH  32  34
ENDBRANCH  31  32
ENDBRANCH  30  31
ENDBRANCH  21  30
ENDBRANCH  16  17
ENDBRANCH   1  16
TORSDOF 14
ENDMDL
MODEL      113
REMARK 921   NORMALIZED FREE ENERGY PREDICTED BY IDOCK:   -5.22 KCAL/MOL
REMARK 922        TOTAL FREE ENERGY PREDICTED BY IDOCK:  -11.32 KCAL/MOL
REMARK 923 INTER-LIGAND FREE ENERGY PREDICTED BY IDOCK:   -9.81 KCAL/MOL
REMARK 924 INTRA-LIGAND FREE ENERGY PREDICTED BY IDOCK:   -1.51 KCAL/MOL
REMARK 927      BINDING AFFINITY PREDICTED BY RF-SCORE:    0.00 PKD
ROOT
HETATM    1  C   UNL     1      -8.811   8.970  68.770  1.00  0.00    -0.137 C  
HETATM    2  C   UNL     1      -8.352   9.999  69.802  1.00  0.00    -0.187 C  
ENDROOT
BRANCH   1   3
HETATM    3  C   UNL     1      -7.755   7.927  68.431  1.00  0.00    -0.114 C  
BRANCH   3   4
HETATM    4  N   UNL     1      -7.831   7.354  67.114  1.00  0.00    -0.114 NA 
HETATM    5  C   UNL     1      -8.510   6.204  66.853  1.00  0.00    -0.105 A  
HETATM    6  N   UNL     1      -9.708   4.083  65.793  1.00  0.00    -0.190 NA 
HETATM    7  C   UNL     1      -7.426   7.882  65.920  1.00  0.00    -0.078 A  
HETATM    8  N   UNL     1      -9.122   4.674  63.585  1.00  0.00    -0.266 NA 
HETATM    9  N   UNL     1      -9.109   5.391  67.737  1.00  0.00    -0.108 NA 
HETATM   10  C   UNL     1      -9.104   4.947  64.948  1.00  0.00    -0.114 A  
HETATM   11  N   UNL     1      -7.763   7.115  64.909  1.00  0.00    -0.110 NA 
HETATM   12  C   UNL     1      -9.689   4.354  67.116  1.00  0.00    -0.197 A  
HETATM   13  C   UNL     1      -8.462   6.072  65.479  1.00  0.00    -0.151 A  
HETATM   14  H1  UNL     1      -9.590   3.855  63.198  1.00  0.00     0.000 HD 
HETATM   15  H2  UNL     1      -8.155   4.659  63.261  1.00  0.00     0.000 HD 
ENDBRANCH   3   4
ENDBRANCH   1   3
BRANCH   1  16
HETATM   16  O   UNL     1      -9.327   9.674  67.620  1.00  0.00    -0.127 OA 
BRANCH  16  17
HETATM   17  C   UNL     1      -9.042  11.093  67.558  1.00  0.00    -0.146 C  
HETATM   18  O   UNL     1     -10.154  11.897  65.596  1.00  0.00    -0.229 OA 
HETATM   19  O   UNL     1     -11.562  10.940  67.586  1.00  0.00    -0.531 OA 
HETATM   20  P   UNL     1     -10.498  12.090  67.075  1.00  0.00    -0.234 P  
HETATM   21  O   UNL     1     -11.874  13.033  66.618  1.00  0.00    -0.367 OA 
BRANCH  19  22
HETATM   22  C   UNL     1     -12.097  11.009  68.889  1.00  0.00    -0.169 C  
BRANCH  22  23
HETATM   23  O   UNL     1     -11.638  12.168  69.596  1.00  0.00    -0.298 OA 
BRANCH  23  24
HETATM   24  C   UNL     1     -12.403  12.504  70.665  1.00  0.00    -0.282 C  
HETATM   25  O   UNL     1     -12.791  11.735  71.534  1.00  0.00    -0.401 OA 
BRANCH  24  26
HETATM   26  O   UNL     1     -12.691  13.831  70.608  1.00  0.00    -0.313 OA 
BRANCH  26  27
HETATM   27  C   UNL     1     -13.062  14.436  71.866  1.00  0.00    -0.355 C  
HETATM   28  C   UNL     1     -11.977  15.423  72.282  1.00  0.00    -0.529 C  
HETATM   29  C   UNL     1     -14.399  15.153  71.706  1.00  0.00    -0.696 C  
ENDBRANCH  26  27
ENDBRANCH  24  26
ENDBRANCH  23  24
ENDBRANCH  22  23
ENDBRANCH  19  22
BRANCH  21  30
HETATM   30  C   UNL     1     -11.724  14.402  66.927  1.00  0.00    -0.402 C  
BRANCH  30  31
HETATM   31  O   UNL     1     -11.582  15.195  65.753  1.00  0.00    -0.246 OA 
BRANCH  31  32
HETATM   32  C   UNL     1     -10.410  15.868  65.679  1.00  0.00    -0.390 C  
HETATM   33  O   UNL     1      -9.296  15.377  65.803  1.00  0.00    -0.325 OA 
BRANCH  32  34
HETATM   34  O   UNL     1     -10.686  17.162  65.383  1.00  0.00    -0.562 OA 
BRANCH  34  35
HETATM   35  C   UNL     1     -10.094  18.155  66.243  1.00  0.00    -0.371 C  
HETATM   36  C   UNL     1     -10.541  17.849  67.670  1.00  0.00    -0.398 C  
HETATM   37  C   UNL     1     -10.555  19.552  65.842  1.00  0.00    -0.572 C  
ENDBRANCH  34  35
ENDBRANCH  32  34
ENDBRANCH  31  32
ENDBRANCH  30  31
ENDBRANCH  21  30
ENDBRANCH  16  17
ENDBRANCH   1  16
TORSDOF 14
ENDMDL
MODEL      114
REMARK 921   NORMALIZED FREE ENERGY PREDICTED BY IDOCK:   -5.21 KCAL/MOL
REMARK 922        TOTAL FREE ENERGY PREDICTED BY IDOCK:  -11.32 KCAL/MOL
REMARK 923 INTER-LIGAND FREE ENERGY PREDICTED BY IDOCK:   -9.52 KCAL/MOL
REMARK 924 INTRA-LIGAND FREE ENERGY PREDICTED BY IDOCK:   -1.80 KCAL/MOL
REMARK 927      BINDING AFFINITY PREDICTED BY RF-SCORE:    0.00 PKD
ROOT
HETATM    1  C   UNL     1      -8.439  11.632  68.271  1.00  0.00    -0.160 C  
HETATM    2  C   UNL     1      -7.065  11.089  67.882  1.00  0.00    -0.081 C  
ENDROOT
BRANCH   1   3
HETATM    3  C   UNL     1      -9.599  10.774  67.784  1.00  0.00    -0.162 C  
BRANCH   3   4
HETATM    4  N   UNL     1     -10.713  10.646  68.684  1.00  0.00    -0.192 NA 
HETATM    5  C   UNL     1     -10.634   9.959  69.856  1.00  0.00    -0.273 A  
HETATM    6  N   UNL     1     -11.013   8.826  72.229  1.00  0.00    -0.331 NA 
HETATM    7  C   UNL     1     -11.926  11.274  68.647  1.00  0.00    -0.243 A  
HETATM    8  N   UNL     1     -13.188   9.709  72.465  1.00  0.00    -0.562 NA 
HETATM    9  N   UNL     1      -9.598   9.236  70.310  1.00  0.00    -0.217 NA 
HETATM   10  C   UNL     1     -12.015   9.582  71.730  1.00  0.00    -0.371 A  
HETATM   11  N   UNL     1     -12.653  10.994  69.705  1.00  0.00    -0.225 NA 
HETATM   12  C   UNL     1      -9.875   8.707  71.510  1.00  0.00    -0.272 A  
HETATM   13  C   UNL     1     -11.844  10.189  70.480  1.00  0.00    -0.321 A  
HETATM   14  H1  UNL     1     -13.313   9.268  73.376  1.00  0.00     0.000 HD 
HETATM   15  H2  UNL     1     -13.960   9.410  71.869  1.00  0.00     0.000 HD 
ENDBRANCH   3   4
ENDBRANCH   1   3
BRANCH   1  16
HETATM   16  O   UNL     1      -8.519  13.012  67.856  1.00  0.00    -0.161 OA 
BRANCH  16  17
HETATM   17  C   UNL     1      -7.739  13.958  68.628  1.00  0.00    -0.128 C  
HETATM   18  O   UNL     1      -5.841  14.500  67.271  1.00  0.00    -0.294 OA 
HETATM   19  O   UNL     1      -8.245  15.151  66.461  1.00  0.00    -0.150 OA 
HETATM   20  P   UNL     1      -7.080  15.331  67.613  1.00  0.00    -0.196 P  
HETATM   21  O   UNL     1      -6.457  16.629  66.654  1.00  0.00    -0.219 OA 
BRANCH  19  22
HETATM   22  C   UNL     1      -9.423  15.925  66.528  1.00  0.00    -0.273 C  
BRANCH  22  23
HETATM   23  O   UNL     1     -10.550  15.233  65.976  1.00  0.00    -0.295 OA 
BRANCH  23  24
HETATM   24  C   UNL     1     -11.464  14.841  66.898  1.00  0.00    -0.347 C  
HETATM   25  O   UNL     1     -12.231  13.894  66.785  1.00  0.00    -0.429 OA 
BRANCH  24  26
HETATM   26  O   UNL     1     -11.410  15.681  67.966  1.00  0.00    -0.343 OA 
BRANCH  26  27
HETATM   27  C   UNL     1     -11.352  15.034  69.256  1.00  0.00    -0.296 C  
HETATM   28  C   UNL     1     -10.368  15.787  70.146  1.00  0.00    -0.230 C  
HETATM   29  C   UNL     1     -12.742  15.035  69.884  1.00  0.00    -0.125 C  
ENDBRANCH  26  27
ENDBRANCH  24  26
ENDBRANCH  23  24
ENDBRANCH  22  23
ENDBRANCH  19  22
BRANCH  21  30
HETATM   30  C   UNL     1      -6.044  17.732  67.432  1.00  0.00    -0.147 C  
BRANCH  30  31
HETATM   31  O   UNL     1      -6.543  18.960  66.911  1.00  0.00    -0.188 OA 
BRANCH  31  32
HETATM   32  C   UNL     1      -7.144  19.747  67.833  1.00  0.00    -0.274 C  
HETATM   33  O   UNL     1      -6.746  19.943  68.974  1.00  0.00    -0.310 OA 
BRANCH  32  34
HETATM   34  O   UNL     1      -8.225  20.326  67.253  1.00  0.00    -0.323 OA 
BRANCH  34  35
HETATM   35  C   UNL     1      -9.382  19.485  67.075  1.00  0.00    -0.336 C  
HETATM   36  C   UNL     1     -10.213  20.084  65.944  1.00  0.00    -0.527 C  
HETATM   37  C   UNL     1     -10.207  19.435  68.357  1.00  0.00    -0.516 C  
ENDBRANCH  34  35
ENDBRANCH  32  34
ENDBRANCH  31  32
ENDBRANCH  30  31
ENDBRANCH  21  30
ENDBRANCH  16  17
ENDBRANCH   1  16
TORSDOF 14
ENDMDL
MODEL      115
REMARK 921   NORMALIZED FREE ENERGY PREDICTED BY IDOCK:   -5.21 KCAL/MOL
REMARK 922        TOTAL FREE ENERGY PREDICTED BY IDOCK:  -11.32 KCAL/MOL
REMARK 923 INTER-LIGAND FREE ENERGY PREDICTED BY IDOCK:   -9.05 KCAL/MOL
REMARK 924 INTRA-LIGAND FREE ENERGY PREDICTED BY IDOCK:   -2.27 KCAL/MOL
REMARK 927      BINDING AFFINITY PREDICTED BY RF-SCORE:    0.00 PKD
ROOT
HETATM    1  C   UNL     1     -10.229  15.935  67.126  1.00  0.00    -0.278 C  
HETATM    2  C   UNL     1     -11.471  15.167  67.571  1.00  0.00    -0.306 C  
ENDROOT
BRANCH   1   3
HETATM    3  C   UNL     1      -9.937  15.820  65.635  1.00  0.00    -0.345 C  
BRANCH   3   4
HETATM    4  N   UNL     1     -10.887  15.069  64.860  1.00  0.00    -0.412 NA 
HETATM    5  C   UNL     1     -10.755  13.735  64.631  1.00  0.00    -0.414 A  
HETATM    6  N   UNL     1     -11.021  11.182  63.940  1.00  0.00    -0.312 NA 
HETATM    7  C   UNL     1     -12.105  15.460  64.379  1.00  0.00    -0.196 A  
HETATM    8  N   UNL     1     -13.141  11.518  62.960  1.00  0.00    -0.683 NA 
HETATM    9  N   UNL     1      -9.728  12.944  64.978  1.00  0.00    -0.016 NA 
HETATM   10  C   UNL     1     -12.034  12.023  63.633  1.00  0.00    -0.515 A  
HETATM   11  N   UNL     1     -12.746  14.464  63.810  1.00  0.00    -0.682 NA 
HETATM   12  C   UNL     1      -9.949  11.678  64.596  1.00  0.00    -0.253 A  
HETATM   13  C   UNL     1     -11.920  13.373  63.982  1.00  0.00    -0.464 A  
HETATM   14  H1  UNL     1     -13.224  10.534  62.706  1.00  0.00     0.000 HD 
HETATM   15  H2  UNL     1     -13.261  12.068  62.109  1.00  0.00     0.000 HD 
ENDBRANCH   3   4
ENDBRANCH   1   3
BRANCH   1  16
HETATM   16  O   UNL     1      -9.124  15.547  67.969  1.00  0.00    -0.180 OA 
BRANCH  16  17
HETATM   17  C   UNL     1      -7.939  15.065  67.289  1.00  0.00    -0.206 C  
HETATM   18  O   UNL     1      -6.362  14.547  69.015  1.00  0.00    -0.088 OA 
HETATM   19  O   UNL     1      -8.597  13.192  68.850  1.00  0.00     0.079 OA 
HETATM   20  P   UNL     1      -7.183  13.619  68.117  1.00  0.00    -0.159 P  
HETATM   21  O   UNL     1      -6.469  12.252  68.900  1.00  0.00    -0.076 OA 
BRANCH  19  22
HETATM   22  C   UNL     1      -9.447  12.247  68.237  1.00  0.00    -0.209 C  
BRANCH  22  23
HETATM   23  O   UNL     1     -10.599  11.964  69.040  1.00  0.00    -0.196 OA 
BRANCH  23  24
HETATM   24  C   UNL     1     -11.551  11.236  68.404  1.00  0.00    -0.308 C  
HETATM   25  O   UNL     1     -11.948  11.423  67.262  1.00  0.00    -0.580 OA 
BRANCH  24  26
HETATM   26  O   UNL     1     -12.012  10.272  69.245  1.00  0.00    -0.099 OA 
BRANCH  26  27
HETATM   27  C   UNL     1     -11.631  10.429  70.630  1.00  0.00    -0.349 C  
HETATM   28  C   UNL     1     -12.889  10.601  71.474  1.00  0.00    -0.567 C  
HETATM   29  C   UNL     1     -10.853   9.197  71.082  1.00  0.00    -0.381 C  
ENDBRANCH  26  27
ENDBRANCH  24  26
ENDBRANCH  23  24
ENDBRANCH  22  23
ENDBRANCH  19  22
BRANCH  21  30
HETATM   30  C   UNL     1      -5.576  11.549  68.062  1.00  0.00    -0.043 C  
BRANCH  30  31
HETATM   31  O   UNL     1      -5.880  11.746  66.685  1.00  0.00    -0.163 OA 
BRANCH  31  32
HETATM   32  C   UNL     1      -6.130  10.603  66.005  1.00  0.00    -0.131 C  
HETATM   33  O   UNL     1      -5.772  10.360  64.860  1.00  0.00    -0.119 OA 
BRANCH  32  34
HETATM   34  O   UNL     1      -6.790   9.756  66.834  1.00  0.00    -0.081 OA 
BRANCH  34  35
HETATM   35  C   UNL     1      -7.707   8.836  66.210  1.00  0.00    -0.098 C  
HETATM   36  C   UNL     1      -8.918   8.701  67.128  1.00  0.00    -0.148 C  
HETATM   37  C   UNL     1      -7.046   7.474  66.015  1.00  0.00    -0.069 C  
ENDBRANCH  34  35
ENDBRANCH  32  34
ENDBRANCH  31  32
ENDBRANCH  30  31
ENDBRANCH  21  30
ENDBRANCH  16  17
ENDBRANCH   1  16
TORSDOF 14
ENDMDL
MODEL      116
REMARK 921   NORMALIZED FREE ENERGY PREDICTED BY IDOCK:   -5.21 KCAL/MOL
REMARK 922        TOTAL FREE ENERGY PREDICTED BY IDOCK:  -11.31 KCAL/MOL
REMARK 923 INTER-LIGAND FREE ENERGY PREDICTED BY IDOCK:   -9.20 KCAL/MOL
REMARK 924 INTRA-LIGAND FREE ENERGY PREDICTED BY IDOCK:   -2.11 KCAL/MOL
REMARK 927      BINDING AFFINITY PREDICTED BY RF-SCORE:    0.00 PKD
ROOT
HETATM    1  C   UNL     1      -9.307  11.254  65.966  1.00  0.00    -0.214 C  
HETATM    2  C   UNL     1     -10.020  10.042  65.368  1.00  0.00    -0.364 C  
ENDROOT
BRANCH   1   3
HETATM    3  C   UNL     1      -7.810  11.053  66.159  1.00  0.00    -0.117 C  
BRANCH   3   4
HETATM    4  N   UNL     1      -7.312  11.253  67.493  1.00  0.00    -0.100 NA 
HETATM    5  C   UNL     1      -6.858  12.458  67.934  1.00  0.00    -0.099 A  
HETATM    6  N   UNL     1      -5.937  14.539  69.304  1.00  0.00    -0.100 NA 
HETATM    7  C   UNL     1      -7.345  10.401  68.562  1.00  0.00    -0.086 A  
HETATM    8  N   UNL     1      -5.813  13.335  71.330  1.00  0.00    -0.537 NA 
HETATM    9  N   UNL     1      -6.708  13.584  67.220  1.00  0.00    -0.186 NA 
HETATM   10  C   UNL     1      -6.127  13.382  69.977  1.00  0.00    -0.125 A  
HETATM   11  N   UNL     1      -6.895  10.973  69.655  1.00  0.00    -0.132 NA 
HETATM   12  C   UNL     1      -6.245  14.579  67.990  1.00  0.00    -0.154 A  
HETATM   13  C   UNL     1      -6.608  12.268  69.279  1.00  0.00    -0.099 A  
HETATM   14  H1  UNL     1      -5.462  14.146  71.838  1.00  0.00     0.000 HD 
HETATM   15  H2  UNL     1      -5.147  12.575  71.466  1.00  0.00     0.000 HD 
ENDBRANCH   3   4
ENDBRANCH   1   3
BRANCH   1  16
HETATM   16  O   UNL     1     -10.004  11.646  67.169  1.00  0.00    -0.197 OA 
BRANCH  16  17
HETATM   17  C   UNL     1     -10.985  10.707  67.674  1.00  0.00    -0.310 C  
HETATM   18  O   UNL     1     -10.384  10.302  69.957  1.00  0.00    -0.258 OA 
HETATM   19  O   UNL     1     -11.137  12.699  69.219  1.00  0.00    -0.215 OA 
HETATM   20  P   UNL     1     -11.544  11.109  69.370  1.00  0.00    -0.378 P  
HETATM   21  O   UNL     1     -12.073  11.488  70.972  1.00  0.00    -0.307 OA 
BRANCH  19  22
HETATM   22  C   UNL     1     -12.108  13.635  68.805  1.00  0.00    -0.297 C  
BRANCH  22  23
HETATM   23  O   UNL     1     -11.522  14.893  68.450  1.00  0.00    -0.290 OA 
BRANCH  23  24
HETATM   24  C   UNL     1     -10.857  14.880  67.268  1.00  0.00    -0.306 C  
HETATM   25  O   UNL     1      -9.668  15.122  67.115  1.00  0.00    -0.223 OA 
BRANCH  24  26
HETATM   26  O   UNL     1     -11.729  14.574  66.270  1.00  0.00    -0.371 OA 
BRANCH  26  27
HETATM   27  C   UNL     1     -11.156  14.529  64.944  1.00  0.00    -0.394 C  
HETATM   28  C   UNL     1     -11.754  13.349  64.185  1.00  0.00    -0.466 C  
HETATM   29  C   UNL     1     -11.460  15.835  64.219  1.00  0.00    -0.203 C  
ENDBRANCH  26  27
ENDBRANCH  24  26
ENDBRANCH  23  24
ENDBRANCH  22  23
ENDBRANCH  19  22
BRANCH  21  30
HETATM   30  C   UNL     1     -13.277  10.838  71.317  1.00  0.00    -0.232 C  
BRANCH  30  31
HETATM   31  O   UNL     1     -13.082   9.884  72.357  1.00  0.00    -0.372 OA 
BRANCH  31  32
HETATM   32  C   UNL     1     -13.385   8.613  72.005  1.00  0.00    -0.392 C  
HETATM   33  O   UNL     1     -14.369   8.264  71.366  1.00  0.00    -0.412 OA 
BRANCH  32  34
HETATM   34  O   UNL     1     -12.380   7.807  72.431  1.00  0.00    -0.259 OA 
BRANCH  34  35
HETATM   35  C   UNL     1     -12.215   6.564  71.722  1.00  0.00    -0.322 C  
HETATM   36  C   UNL     1     -11.604   5.559  72.695  1.00  0.00    -0.293 C  
HETATM   37  C   UNL     1     -11.292   6.752  70.522  1.00  0.00    -0.394 C  
ENDBRANCH  34  35
ENDBRANCH  32  34
ENDBRANCH  31  32
ENDBRANCH  30  31
ENDBRANCH  21  30
ENDBRANCH  16  17
ENDBRANCH   1  16
TORSDOF 14
ENDMDL
MODEL      117
REMARK 921   NORMALIZED FREE ENERGY PREDICTED BY IDOCK:   -5.20 KCAL/MOL
REMARK 922        TOTAL FREE ENERGY PREDICTED BY IDOCK:  -11.30 KCAL/MOL
REMARK 923 INTER-LIGAND FREE ENERGY PREDICTED BY IDOCK:   -9.94 KCAL/MOL
REMARK 924 INTRA-LIGAND FREE ENERGY PREDICTED BY IDOCK:   -1.37 KCAL/MOL
REMARK 927      BINDING AFFINITY PREDICTED BY RF-SCORE:    0.00 PKD
ROOT
HETATM    1  C   UNL     1      -9.976  10.355  67.469  1.00  0.00    -0.181 C  
HETATM    2  C   UNL     1     -10.403   9.052  66.797  1.00  0.00    -0.310 C  
ENDROOT
BRANCH   1   3
HETATM    3  C   UNL     1      -9.503  10.179  68.906  1.00  0.00    -0.182 C  
BRANCH   3   4
HETATM    4  N   UNL     1     -10.120   9.114  69.650  1.00  0.00    -0.190 NA 
HETATM    5  C   UNL     1     -11.220   9.305  70.428  1.00  0.00    -0.247 A  
HETATM    6  N   UNL     1     -13.349   9.101  72.005  1.00  0.00    -0.411 NA 
HETATM    7  C   UNL     1      -9.867   7.772  69.603  1.00  0.00    -0.182 A  
HETATM    8  N   UNL     1     -13.169   6.756  72.189  1.00  0.00    -0.540 NA 
HETATM    9  N   UNL     1     -11.832  10.467  70.707  1.00  0.00    -0.340 NA 
HETATM   10  C   UNL     1     -12.704   7.961  71.675  1.00  0.00    -0.330 A  
HETATM   11  N   UNL     1     -10.711   7.091  70.344  1.00  0.00    -0.227 NA 
HETATM   12  C   UNL     1     -12.893  10.269  71.501  1.00  0.00    -0.452 A  
HETATM   13  C   UNL     1     -11.577   8.039  70.848  1.00  0.00    -0.269 A  
HETATM   14  H1  UNL     1     -13.990   6.699  72.791  1.00  0.00     0.000 HD 
HETATM   15  H2  UNL     1     -12.394   6.311  72.681  1.00  0.00     0.000 HD 
ENDBRANCH   3   4
ENDBRANCH   1   3
BRANCH   1  16
HETATM   16  O   UNL     1     -11.042  11.317  67.319  1.00  0.00    -0.274 OA 
BRANCH  16  17
HETATM   17  C   UNL     1     -11.041  12.087  66.092  1.00  0.00    -0.322 C  
HETATM   18  O   UNL     1     -12.540  13.916  66.467  1.00  0.00    -0.384 OA 
HETATM   19  O   UNL     1     -10.347  13.724  67.884  1.00  0.00    -0.236 OA 
HETATM   20  P   UNL     1     -11.012  13.892  66.386  1.00  0.00    -0.312 P  
HETATM   21  O   UNL     1     -10.985  15.600  66.664  1.00  0.00    -0.299 OA 
BRANCH  19  22
HETATM   22  C   UNL     1      -8.946  13.797  68.042  1.00  0.00    -0.187 C  
BRANCH  22  23
HETATM   23  O   UNL     1      -8.559  14.884  68.891  1.00  0.00    -0.169 OA 
BRANCH  23  24
HETATM   24  C   UNL     1      -7.289  14.794  69.361  1.00  0.00    -0.162 C  
HETATM   25  O   UNL     1      -6.626  13.768  69.432  1.00  0.00    -0.109 OA 
BRANCH  24  26
HETATM   26  O   UNL     1      -6.874  16.024  69.763  1.00  0.00    -0.181 OA 
BRANCH  26  27
HETATM   27  C   UNL     1      -6.765  17.011  68.713  1.00  0.00    -0.193 C  
HETATM   28  C   UNL     1      -6.260  18.320  69.313  1.00  0.00    -0.255 C  
HETATM   29  C   UNL     1      -5.796  16.508  67.647  1.00  0.00    -0.163 C  
ENDBRANCH  26  27
ENDBRANCH  24  26
ENDBRANCH  23  24
ENDBRANCH  22  23
ENDBRANCH  19  22
BRANCH  21  30
HETATM   30  C   UNL     1     -10.596  16.332  65.521  1.00  0.00    -0.353 C  
BRANCH  30  31
HETATM   31  O   UNL     1      -9.440  17.125  65.772  1.00  0.00    -0.525 OA 
BRANCH  31  32
HETATM   32  C   UNL     1      -9.712  18.403  66.122  1.00  0.00    -0.229 C  
HETATM   33  O   UNL     1     -10.762  18.995  65.906  1.00  0.00    -0.454 OA 
BRANCH  32  34
HETATM   34  O   UNL     1      -8.645  18.890  66.802  1.00  0.00    -0.279 OA 
BRANCH  34  35
HETATM   35  C   UNL     1      -7.876  19.913  66.140  1.00  0.00    -0.326 C  
HETATM   36  C   UNL     1      -6.748  19.220  65.382  1.00  0.00    -0.293 C  
HETATM   37  C   UNL     1      -7.296  20.889  67.159  1.00  0.00    -0.369 C  
ENDBRANCH  34  35
ENDBRANCH  32  34
ENDBRANCH  31  32
ENDBRANCH  30  31
ENDBRANCH  21  30
ENDBRANCH  16  17
ENDBRANCH   1  16
TORSDOF 14
ENDMDL
MODEL      118
REMARK 921   NORMALIZED FREE ENERGY PREDICTED BY IDOCK:   -5.19 KCAL/MOL
REMARK 922        TOTAL FREE ENERGY PREDICTED BY IDOCK:  -11.28 KCAL/MOL
REMARK 923 INTER-LIGAND FREE ENERGY PREDICTED BY IDOCK:   -9.65 KCAL/MOL
REMARK 924 INTRA-LIGAND FREE ENERGY PREDICTED BY IDOCK:   -1.62 KCAL/MOL
REMARK 927      BINDING AFFINITY PREDICTED BY RF-SCORE:    0.00 PKD
ROOT
HETATM    1  C   UNL     1      -8.654  11.300  67.201  1.00  0.00    -0.147 C  
HETATM    2  C   UNL     1      -7.208  11.371  66.716  1.00  0.00    -0.131 C  
ENDROOT
BRANCH   1   3
HETATM    3  C   UNL     1      -9.169  12.605  67.794  1.00  0.00    -0.195 C  
BRANCH   3   4
HETATM    4  N   UNL     1      -9.477  13.648  66.853  1.00  0.00    -0.253 NA 
HETATM    5  C   UNL     1     -10.571  13.606  66.044  1.00  0.00    -0.290 A  
HETATM    6  N   UNL     1     -12.540  14.059  64.318  1.00  0.00    -0.685 NA 
HETATM    7  C   UNL     1      -8.894  14.875  66.706  1.00  0.00    -0.261 A  
HETATM    8  N   UNL     1     -11.766  16.223  63.782  1.00  0.00    -1.488 NA 
HETATM    9  N   UNL     1     -11.450  12.601  65.911  1.00  0.00    -0.343 NA 
HETATM   10  C   UNL     1     -11.634  15.045  64.507  1.00  0.00    -0.343 A  
HETATM   11  N   UNL     1      -9.519  15.609  65.813  1.00  0.00    -0.330 NA 
HETATM   12  C   UNL     1     -12.407  12.917  65.028  1.00  0.00    -0.485 A  
HETATM   13  C   UNL     1     -10.585  14.832  65.409  1.00  0.00    -0.378 A  
HETATM   14  H1  UNL     1     -12.531  16.378  63.125  1.00  0.00     0.000 HD 
HETATM   15  H2  UNL     1     -10.893  16.374  63.278  1.00  0.00     0.000 HD 
ENDBRANCH   3   4
ENDBRANCH   1   3
BRANCH   1  16
HETATM   16  O   UNL     1      -8.784  10.166  68.086  1.00  0.00    -0.120 OA 
BRANCH  16  17
HETATM   17  C   UNL     1      -9.127  10.464  69.462  1.00  0.00    -0.107 C  
HETATM   18  O   UNL     1     -11.499  10.790  69.486  1.00  0.00    -0.246 OA 
HETATM   19  O   UNL     1     -10.518   8.442  68.871  1.00  0.00    -0.218 OA 
HETATM   20  P   UNL     1     -10.657   9.625  70.010  1.00  0.00    -0.300 P  
HETATM   21  O   UNL     1     -12.104   8.830  70.529  1.00  0.00    -0.084 OA 
BRANCH  19  22
HETATM   22  C   UNL     1      -9.877   7.227  69.196  1.00  0.00    -0.166 C  
BRANCH  22  23
HETATM   23  O   UNL     1     -10.770   6.110  69.108  1.00  0.00    -0.245 OA 
BRANCH  23  24
HETATM   24  C   UNL     1     -10.206   4.991  68.589  1.00  0.00    -0.084 C  
HETATM   25  O   UNL     1      -9.752   4.055  69.234  1.00  0.00    -0.188 OA 
BRANCH  24  26
HETATM   26  O   UNL     1     -10.206   5.079  67.232  1.00  0.00    -0.192 OA 
BRANCH  26  27
HETATM   27  C   UNL     1      -8.936   4.815  66.597  1.00  0.00    -0.111 C  
HETATM   28  C   UNL     1      -9.113   3.695  65.577  1.00  0.00    -0.148 C  
HETATM   29  C   UNL     1      -8.441   6.084  65.911  1.00  0.00    -0.143 C  
ENDBRANCH  26  27
ENDBRANCH  24  26
ENDBRANCH  23  24
ENDBRANCH  22  23
ENDBRANCH  19  22
BRANCH  21  30
HETATM   30  C   UNL     1     -12.232   8.795  71.935  1.00  0.00    -0.361 C  
BRANCH  30  31
HETATM   31  O   UNL     1     -12.194   7.461  72.433  1.00  0.00    -0.215 OA 
BRANCH  31  32
HETATM   32  C   UNL     1     -10.986   7.085  72.914  1.00  0.00    -0.302 C  
HETATM   33  O   UNL     1     -10.180   7.818  73.472  1.00  0.00    -0.323 OA 
BRANCH  32  34
HETATM   34  O   UNL     1     -10.855   5.748  72.726  1.00  0.00    -0.223 OA 
BRANCH  34  35
HETATM   35  C   UNL     1      -9.852   5.086  73.520  1.00  0.00    -0.151 C  
HETATM   36  C   UNL     1      -8.810   4.516  72.561  1.00  0.00    -0.126 C  
HETATM   37  C   UNL     1     -10.476   3.960  74.338  1.00  0.00    -0.269 C  
ENDBRANCH  34  35
ENDBRANCH  32  34
ENDBRANCH  31  32
ENDBRANCH  30  31
ENDBRANCH  21  30
ENDBRANCH  16  17
ENDBRANCH   1  16
TORSDOF 14
ENDMDL
MODEL      119
REMARK 921   NORMALIZED FREE ENERGY PREDICTED BY IDOCK:   -5.18 KCAL/MOL
REMARK 922        TOTAL FREE ENERGY PREDICTED BY IDOCK:  -11.27 KCAL/MOL
REMARK 923 INTER-LIGAND FREE ENERGY PREDICTED BY IDOCK:   -9.50 KCAL/MOL
REMARK 924 INTRA-LIGAND FREE ENERGY PREDICTED BY IDOCK:   -1.77 KCAL/MOL
REMARK 927      BINDING AFFINITY PREDICTED BY RF-SCORE:    0.00 PKD
ROOT
HETATM    1  C   UNL     1     -11.842  14.606  67.898  1.00  0.00    -0.320 C  
HETATM    2  C   UNL     1     -12.122  14.327  66.423  1.00  0.00    -0.442 C  
ENDROOT
BRANCH   1   3
HETATM    3  C   UNL     1     -10.378  14.890  68.204  1.00  0.00    -0.237 C  
BRANCH   3   4
HETATM    4  N   UNL     1      -9.733  15.862  67.362  1.00  0.00    -0.226 NA 
HETATM    5  C   UNL     1      -9.730  17.192  67.649  1.00  0.00    -0.263 A  
HETATM    6  N   UNL     1      -9.368  19.823  67.752  1.00  0.00    -0.334 NA 
HETATM    7  C   UNL     1      -8.911  15.662  66.289  1.00  0.00    -0.342 A  
HETATM    8  N   UNL     1      -7.942  19.846  65.872  1.00  0.00    -0.421 NA 
HETATM    9  N   UNL     1     -10.373  17.814  68.650  1.00  0.00    -0.367 NA 
HETATM   10  C   UNL     1      -8.729  19.141  66.775  1.00  0.00    -0.307 A  
HETATM   11  N   UNL     1      -8.416  16.791  65.837  1.00  0.00    -0.476 NA 
HETATM   12  C   UNL     1     -10.130  19.132  68.627  1.00  0.00    -0.398 A  
HETATM   13  C   UNL     1      -8.904  17.754  66.695  1.00  0.00    -0.264 A  
HETATM   14  H1  UNL     1      -7.814  20.855  65.930  1.00  0.00     0.000 HD 
HETATM   15  H2  UNL     1      -8.282  19.632  64.934  1.00  0.00     0.000 HD 
ENDBRANCH   3   4
ENDBRANCH   1   3
BRANCH   1  16
HETATM   16  O   UNL     1     -12.404  13.530  68.681  1.00  0.00    -0.232 OA 
BRANCH  16  17
HETATM   17  C   UNL     1     -11.683  13.172  69.885  1.00  0.00    -0.257 C  
HETATM   18  O   UNL     1     -13.200  11.850  71.184  1.00  0.00    -0.143 OA 
HETATM   19  O   UNL     1     -12.370  10.968  68.862  1.00  0.00    -0.516 OA 
HETATM   20  P   UNL     1     -11.960  11.435  70.389  1.00  0.00    -0.278 P  
HETATM   21  O   UNL     1     -12.221   9.792  70.865  1.00  0.00    -0.294 OA 
BRANCH  19  22
HETATM   22  C   UNL     1     -11.384  10.437  68.003  1.00  0.00    -0.204 C  
BRANCH  22  23
HETATM   23  O   UNL     1     -10.059  10.722  68.467  1.00  0.00    -0.162 OA 
BRANCH  23  24
HETATM   24  C   UNL     1      -9.278  11.355  67.556  1.00  0.00    -0.160 C  
HETATM   25  O   UNL     1      -9.681  12.032  66.619  1.00  0.00    -0.200 OA 
BRANCH  24  26
HETATM   26  O   UNL     1      -7.972  11.103  67.835  1.00  0.00    -0.108 OA 
BRANCH  26  27
HETATM   27  C   UNL     1      -7.243  12.203  68.422  1.00  0.00    -0.097 C  
HETATM   28  C   UNL     1      -6.425  11.685  69.600  1.00  0.00    -0.124 C  
HETATM   29  C   UNL     1      -6.326  12.819  67.370  1.00  0.00    -0.139 C  
ENDBRANCH  26  27
ENDBRANCH  24  26
ENDBRANCH  23  24
ENDBRANCH  22  23
ENDBRANCH  19  22
BRANCH  21  30
HETATM   30  C   UNL     1     -11.250   9.329  71.779  1.00  0.00    -0.343 C  
BRANCH  30  31
HETATM   31  O   UNL     1     -10.304   8.469  71.150  1.00  0.00    -0.196 OA 
BRANCH  31  32
HETATM   32  C   UNL     1     -10.833   7.318  70.675  1.00  0.00    -0.242 C  
HETATM   33  O   UNL     1     -11.884   6.809  71.044  1.00  0.00    -0.339 OA 
BRANCH  32  34
HETATM   34  O   UNL     1     -10.031   6.864  69.680  1.00  0.00    -0.168 OA 
BRANCH  34  35
HETATM   35  C   UNL     1     -10.659   6.044  68.675  1.00  0.00    -0.266 C  
HETATM   36  C   UNL     1      -9.782   4.812  68.475  1.00  0.00    -0.215 C  
HETATM   37  C   UNL     1     -10.787   6.812  67.364  1.00  0.00    -0.417 C  
ENDBRANCH  34  35
ENDBRANCH  32  34
ENDBRANCH  31  32
ENDBRANCH  30  31
ENDBRANCH  21  30
ENDBRANCH  16  17
ENDBRANCH   1  16
TORSDOF 14
ENDMDL
MODEL      120
REMARK 921   NORMALIZED FREE ENERGY PREDICTED BY IDOCK:   -5.18 KCAL/MOL
REMARK 922        TOTAL FREE ENERGY PREDICTED BY IDOCK:  -11.26 KCAL/MOL
REMARK 923 INTER-LIGAND FREE ENERGY PREDICTED BY IDOCK:   -9.64 KCAL/MOL
REMARK 924 INTRA-LIGAND FREE ENERGY PREDICTED BY IDOCK:   -1.63 KCAL/MOL
REMARK 927      BINDING AFFINITY PREDICTED BY RF-SCORE:    0.00 PKD
ROOT
HETATM    1  C   UNL     1     -10.965  14.974  66.905  1.00  0.00    -0.324 C  
HETATM    2  C   UNL     1     -10.184  15.405  65.665  1.00  0.00    -0.403 C  
ENDROOT
BRANCH   1   3
HETATM    3  C   UNL     1     -10.850  15.945  68.072  1.00  0.00    -0.317 C  
BRANCH   3   4
HETATM    4  N   UNL     1      -9.686  16.790  68.080  1.00  0.00    -0.240 NA 
HETATM    5  C   UNL     1      -9.732  18.105  67.733  1.00  0.00    -0.293 A  
HETATM    6  N   UNL     1      -9.268  20.672  67.227  1.00  0.00    -0.363 NA 
HETATM    7  C   UNL     1      -8.434  16.526  68.562  1.00  0.00    -0.226 A  
HETATM    8  N   UNL     1      -7.020  20.554  67.936  1.00  0.00    -0.305 NA 
HETATM    9  N   UNL     1     -10.783  18.786  67.252  1.00  0.00    -0.446 NA 
HETATM   10  C   UNL     1      -8.249  19.939  67.731  1.00  0.00    -0.301 A  
HETATM   11  N   UNL     1      -7.656  17.583  68.500  1.00  0.00    -0.257 NA 
HETATM   12  C   UNL     1     -10.461  20.069  67.032  1.00  0.00    -0.380 A  
HETATM   13  C   UNL     1      -8.465  18.584  68.004  1.00  0.00    -0.283 A  
HETATM   14  H1  UNL     1      -6.863  21.542  67.737  1.00  0.00     0.000 HD 
HETATM   15  H2  UNL     1      -6.319  20.022  67.421  1.00  0.00     0.000 HD 
ENDBRANCH   3   4
ENDBRANCH   1   3
BRANCH   1  16
HETATM   16  O   UNL     1     -10.590  13.619  67.234  1.00  0.00    -0.264 OA 
BRANCH  16  17
HETATM   17  C   UNL     1     -10.390  13.334  68.640  1.00  0.00    -0.196 C  
HETATM   18  O   UNL     1     -12.578  13.261  69.608  1.00  0.00    -0.062 OA 
HETATM   19  O   UNL     1     -11.894  11.483  67.812  1.00  0.00    -0.584 OA 
HETATM   20  P   UNL     1     -11.597  12.128  69.299  1.00  0.00    -0.308 P  
HETATM   21  O   UNL     1     -12.739  10.988  69.923  1.00  0.00    -0.212 OA 
BRANCH  19  22
HETATM   22  C   UNL     1     -11.174  10.348  67.383  1.00  0.00    -0.129 C  
BRANCH  22  23
HETATM   23  O   UNL     1      -9.973  10.158  68.140  1.00  0.00    -0.143 OA 
BRANCH  23  24
HETATM   24  C   UNL     1      -9.360   8.969  67.917  1.00  0.00    -0.141 C  
HETATM   25  O   UNL     1      -8.204   8.695  68.212  1.00  0.00    -0.120 OA 
BRANCH  24  26
HETATM   26  O   UNL     1     -10.228   8.130  67.292  1.00  0.00    -0.223 OA 
BRANCH  26  27
HETATM   27  C   UNL     1     -10.191   6.758  67.743  1.00  0.00    -0.171 C  
HETATM   28  C   UNL     1     -10.968   6.644  69.050  1.00  0.00    -0.332 C  
HETATM   29  C   UNL     1     -10.813   5.860  66.678  1.00  0.00    -0.292 C  
ENDBRANCH  26  27
ENDBRANCH  24  26
ENDBRANCH  23  24
ENDBRANCH  22  23
ENDBRANCH  19  22
BRANCH  21  30
HETATM   30  C   UNL     1     -12.327  10.418  71.147  1.00  0.00    -0.400 C  
BRANCH  30  31
HETATM   31  O   UNL     1     -11.210   9.552  70.976  1.00  0.00    -0.300 OA 
BRANCH  31  32
HETATM   32  C   UNL     1     -10.926   8.796  72.062  1.00  0.00    -0.368 C  
HETATM   33  O   UNL     1     -11.725   8.108  72.683  1.00  0.00    -0.399 OA 
BRANCH  32  34
HETATM   34  O   UNL     1      -9.594   8.887  72.300  1.00  0.00    -0.295 OA 
BRANCH  34  35
HETATM   35  C   UNL     1      -8.937   7.678  72.731  1.00  0.00    -0.161 C  
HETATM   36  C   UNL     1      -8.135   8.014  73.985  1.00  0.00    -0.303 C  
HETATM   37  C   UNL     1      -8.006   7.160  71.640  1.00  0.00    -0.097 C  
ENDBRANCH  34  35
ENDBRANCH  32  34
ENDBRANCH  31  32
ENDBRANCH  30  31
ENDBRANCH  21  30
ENDBRANCH  16  17
ENDBRANCH   1  16
TORSDOF 14
ENDMDL
MODEL      121
REMARK 921   NORMALIZED FREE ENERGY PREDICTED BY IDOCK:   -5.18 KCAL/MOL
REMARK 922        TOTAL FREE ENERGY PREDICTED BY IDOCK:  -11.26 KCAL/MOL
REMARK 923 INTER-LIGAND FREE ENERGY PREDICTED BY IDOCK:  -10.50 KCAL/MOL
REMARK 924 INTRA-LIGAND FREE ENERGY PREDICTED BY IDOCK:   -0.77 KCAL/MOL
REMARK 927      BINDING AFFINITY PREDICTED BY RF-SCORE:    0.00 PKD
ROOT
HETATM    1  C   UNL     1     -10.862  11.858  63.935  1.00  0.00    -0.395 C  
HETATM    2  C   UNL     1     -12.374  11.869  63.720  1.00  0.00    -0.541 C  
ENDROOT
BRANCH   1   3
HETATM    3  C   UNL     1     -10.338  10.572  64.558  1.00  0.00    -0.205 C  
BRANCH   3   4
HETATM    4  N   UNL     1      -9.531  10.723  65.739  1.00  0.00    -0.194 NA 
HETATM    5  C   UNL     1     -10.017  10.508  66.992  1.00  0.00    -0.201 A  
HETATM    6  N   UNL     1     -10.415  10.168  69.597  1.00  0.00    -0.236 NA 
HETATM    7  C   UNL     1      -8.184  10.925  65.841  1.00  0.00    -0.133 A  
HETATM    8  N   UNL     1      -8.147  10.529  70.138  1.00  0.00    -0.359 NA 
HETATM    9  N   UNL     1     -11.284  10.231  67.340  1.00  0.00    -0.285 NA 
HETATM   10  C   UNL     1      -9.154  10.430  69.186  1.00  0.00    -0.187 A  
HETATM   11  N   UNL     1      -7.780  10.900  67.091  1.00  0.00    -0.118 NA 
HETATM   12  C   UNL     1     -11.390  10.071  68.667  1.00  0.00    -0.055 A  
HETATM   13  C   UNL     1      -8.917  10.617  67.819  1.00  0.00    -0.140 A  
HETATM   14  H1  UNL     1      -8.320  10.393  71.133  1.00  0.00     0.000 HD 
HETATM   15  H2  UNL     1      -7.704  11.440  70.024  1.00  0.00     0.000 HD 
ENDBRANCH   3   4
ENDBRANCH   1   3
BRANCH   1  16
HETATM   16  O   UNL     1     -10.495  13.051  64.661  1.00  0.00    -0.343 OA 
BRANCH  16  17
HETATM   17  C   UNL     1     -11.566  13.723  65.369  1.00  0.00    -0.320 C  
HETATM   18  O   UNL     1     -11.299  13.128  67.673  1.00  0.00    -0.268 OA 
HETATM   19  O   UNL     1      -9.447  14.538  66.474  1.00  0.00    -0.264 OA 
HETATM   20  P   UNL     1     -11.020  14.451  66.956  1.00  0.00    -0.321 P  
HETATM   21  O   UNL     1     -10.505  15.139  68.458  1.00  0.00    -0.225 OA 
BRANCH  19  22
HETATM   22  C   UNL     1      -8.955  15.728  65.897  1.00  0.00    -0.193 C  
BRANCH  22  23
HETATM   23  O   UNL     1      -7.814  16.232  66.601  1.00  0.00    -0.237 OA 
BRANCH  23  24
HETATM   24  C   UNL     1      -8.078  17.310  67.383  1.00  0.00    -0.190 C  
HETATM   25  O   UNL     1      -7.919  17.368  68.595  1.00  0.00    -0.263 OA 
BRANCH  24  26
HETATM   26  O   UNL     1      -8.568  18.314  66.608  1.00  0.00    -0.258 OA 
BRANCH  26  27
HETATM   27  C   UNL     1      -9.853  18.834  67.014  1.00  0.00    -0.325 C  
HETATM   28  C   UNL     1      -9.667  19.702  68.254  1.00  0.00    -0.500 C  
HETATM   29  C   UNL     1     -10.447  19.657  65.875  1.00  0.00    -0.591 C  
ENDBRANCH  26  27
ENDBRANCH  24  26
ENDBRANCH  23  24
ENDBRANCH  22  23
ENDBRANCH  19  22
BRANCH  21  30
HETATM   30  C   UNL     1     -11.408  16.104  68.953  1.00  0.00    -0.350 C  
BRANCH  30  31
HETATM   31  O   UNL     1     -11.070  16.512  70.275  1.00  0.00    -0.348 OA 
BRANCH  31  32
HETATM   32  C   UNL     1     -11.790  15.898  71.243  1.00  0.00    -0.449 C  
HETATM   33  O   UNL     1     -11.416  15.696  72.392  1.00  0.00    -0.423 OA 
BRANCH  32  34
HETATM   34  O   UNL     1     -13.013  15.603  70.737  1.00  0.00    -0.478 OA 
BRANCH  34  35
HETATM   35  C   UNL     1     -13.476  14.252  70.930  1.00  0.00    -0.136 C  
HETATM   36  C   UNL     1     -14.267  14.221  72.235  1.00  0.00    -0.587 C  
HETATM   37  C   UNL     1     -12.296  13.290  71.012  1.00  0.00    -0.379 C  
ENDBRANCH  34  35
ENDBRANCH  32  34
ENDBRANCH  31  32
ENDBRANCH  30  31
ENDBRANCH  21  30
ENDBRANCH  16  17
ENDBRANCH   1  16
TORSDOF 14
ENDMDL
MODEL      122
REMARK 921   NORMALIZED FREE ENERGY PREDICTED BY IDOCK:   -5.18 KCAL/MOL
REMARK 922        TOTAL FREE ENERGY PREDICTED BY IDOCK:  -11.26 KCAL/MOL
REMARK 923 INTER-LIGAND FREE ENERGY PREDICTED BY IDOCK:   -9.79 KCAL/MOL
REMARK 924 INTRA-LIGAND FREE ENERGY PREDICTED BY IDOCK:   -1.48 KCAL/MOL
REMARK 927      BINDING AFFINITY PREDICTED BY RF-SCORE:    0.00 PKD
ROOT
HETATM    1  C   UNL     1     -10.440  15.347  67.254  1.00  0.00    -0.282 C  
HETATM    2  C   UNL     1     -11.513  15.841  68.223  1.00  0.00    -0.338 C  
ENDROOT
BRANCH   1   3
HETATM    3  C   UNL     1     -10.312  16.194  65.995  1.00  0.00    -0.358 C  
BRANCH   3   4
HETATM    4  N   UNL     1      -9.922  17.564  66.191  1.00  0.00    -0.453 NA 
HETATM    5  C   UNL     1      -8.643  17.929  66.479  1.00  0.00    -0.255 A  
HETATM    6  N   UNL     1      -6.353  19.178  66.982  1.00  0.00    -0.183 NA 
HETATM    7  C   UNL     1     -10.645  18.704  65.978  1.00  0.00    -0.365 A  
HETATM    8  N   UNL     1      -7.303  21.324  66.740  1.00  0.00    -0.755 NA 
HETATM    9  N   UNL     1      -7.598  17.121  66.718  1.00  0.00    -0.213 NA 
HETATM   10  C   UNL     1      -7.436  19.941  66.716  1.00  0.00    -0.254 A  
HETATM   11  N   UNL     1      -9.919  19.783  66.158  1.00  0.00    -0.454 NA 
HETATM   12  C   UNL     1      -6.488  17.834  66.956  1.00  0.00    -0.159 A  
HETATM   13  C   UNL     1      -8.657  19.309  66.450  1.00  0.00    -0.343 A  
HETATM   14  H1  UNL     1      -6.414  21.784  66.934  1.00  0.00     0.000 HD 
HETATM   15  H2  UNL     1      -7.988  21.688  67.401  1.00  0.00     0.000 HD 
ENDBRANCH   3   4
ENDBRANCH   1   3
BRANCH   1  16
HETATM   16  O   UNL     1     -10.670  13.945  66.994  1.00  0.00    -0.280 OA 
BRANCH  16  17
HETATM   17  C   UNL     1     -10.505  13.051  68.121  1.00  0.00    -0.245 C  
HETATM   18  O   UNL     1     -12.273  11.445  67.943  1.00  0.00    -0.592 OA 
HETATM   19  O   UNL     1     -10.427  11.554  66.090  1.00  0.00    -0.236 OA 
HETATM   20  P   UNL     1     -10.773  11.295  67.680  1.00  0.00    -0.262 P  
HETATM   21  O   UNL     1     -11.026   9.635  67.263  1.00  0.00    -0.224 OA 
BRANCH  19  22
HETATM   22  C   UNL     1      -9.114  11.348  65.615  1.00  0.00    -0.161 C  
BRANCH  22  23
HETATM   23  O   UNL     1      -8.200  11.053  66.679  1.00  0.00    -0.142 OA 
BRANCH  23  24
HETATM   24  C   UNL     1      -7.004  10.566  66.262  1.00  0.00    -0.128 C  
HETATM   25  O   UNL     1      -5.907  11.011  66.570  1.00  0.00    -0.093 OA 
BRANCH  24  26
HETATM   26  O   UNL     1      -7.217   9.514  65.428  1.00  0.00    -0.090 OA 
BRANCH  26  27
HETATM   27  C   UNL     1      -6.199   9.308  64.424  1.00  0.00    -0.077 C  
HETATM   28  C   UNL     1      -6.089   7.816  64.128  1.00  0.00    -0.053 C  
HETATM   29  C   UNL     1      -6.577  10.073  63.160  1.00  0.00    -0.132 C  
ENDBRANCH  26  27
ENDBRANCH  24  26
ENDBRANCH  23  24
ENDBRANCH  22  23
ENDBRANCH  19  22
BRANCH  21  30
HETATM   30  C   UNL     1     -10.500   8.746  68.224  1.00  0.00    -0.187 C  
BRANCH  30  31
HETATM   31  O   UNL     1     -10.357   9.369  69.497  1.00  0.00    -0.196 OA 
BRANCH  31  32
HETATM   32  C   UNL     1     -10.919   8.680  70.516  1.00  0.00    -0.238 C  
HETATM   33  O   UNL     1     -10.927   7.462  70.636  1.00  0.00    -0.245 OA 
BRANCH  32  34
HETATM   34  O   UNL     1     -11.414   9.574  71.407  1.00  0.00    -0.342 OA 
BRANCH  34  35
HETATM   35  C   UNL     1     -12.807   9.914  71.266  1.00  0.00    -0.390 C  
HETATM   36  C   UNL     1     -12.959  11.387  71.635  1.00  0.00    -0.523 C  
HETATM   37  C   UNL     1     -13.662   9.054  72.191  1.00  0.00    -0.536 C  
ENDBRANCH  34  35
ENDBRANCH  32  34
ENDBRANCH  31  32
ENDBRANCH  30  31
ENDBRANCH  21  30
ENDBRANCH  16  17
ENDBRANCH   1  16
TORSDOF 14
ENDMDL
MODEL      123
REMARK 921   NORMALIZED FREE ENERGY PREDICTED BY IDOCK:   -5.18 KCAL/MOL
REMARK 922        TOTAL FREE ENERGY PREDICTED BY IDOCK:  -11.25 KCAL/MOL
REMARK 923 INTER-LIGAND FREE ENERGY PREDICTED BY IDOCK:   -9.97 KCAL/MOL
REMARK 924 INTRA-LIGAND FREE ENERGY PREDICTED BY IDOCK:   -1.28 KCAL/MOL
REMARK 927      BINDING AFFINITY PREDICTED BY RF-SCORE:    0.00 PKD
ROOT
HETATM    1  C   UNL     1      -8.021   9.483  68.597  1.00  0.00    -0.092 C  
HETATM    2  C   UNL     1      -6.949   8.502  68.128  1.00  0.00    -0.074 C  
ENDROOT
BRANCH   1   3
HETATM    3  C   UNL     1      -9.445   8.994  68.368  1.00  0.00    -0.146 C  
BRANCH   3   4
HETATM    4  N   UNL     1     -10.382   9.254  69.428  1.00  0.00    -0.209 NA 
HETATM    5  C   UNL     1     -10.991   8.260  70.129  1.00  0.00    -0.222 A  
HETATM    6  N   UNL     1     -12.384   6.755  71.818  1.00  0.00    -0.353 NA 
HETATM    7  C   UNL     1     -10.700  10.443  70.022  1.00  0.00    -0.265 A  
HETATM    8  N   UNL     1     -13.175   8.609  73.044  1.00  0.00    -0.816 NA 
HETATM    9  N   UNL     1     -10.912   6.938  69.908  1.00  0.00    -0.262 NA 
HETATM   10  C   UNL     1     -12.411   8.093  72.005  1.00  0.00    -0.338 A  
HETATM   11  N   UNL     1     -11.518  10.276  71.037  1.00  0.00    -0.344 NA 
HETATM   12  C   UNL     1     -11.638   6.259  70.807  1.00  0.00    -0.279 A  
HETATM   13  C   UNL     1     -11.688   8.910  71.127  1.00  0.00    -0.298 A  
HETATM   14  H1  UNL     1     -13.701   8.014  73.684  1.00  0.00     0.000 HD 
HETATM   15  H2  UNL     1     -13.827   9.283  72.644  1.00  0.00     0.000 HD 
ENDBRANCH   3   4
ENDBRANCH   1   3
BRANCH   1  16
HETATM   16  O   UNL     1      -7.746  10.774  68.012  1.00  0.00    -0.097 OA 
BRANCH  16  17
HETATM   17  C   UNL     1      -7.433  11.843  68.939  1.00  0.00    -0.060 C  
HETATM   18  O   UNL     1      -6.507  13.608  67.611  1.00  0.00    -0.161 OA 
HETATM   19  O   UNL     1      -8.999  12.885  67.255  1.00  0.00    -0.190 OA 
HETATM   20  P   UNL     1      -7.873  13.496  68.292  1.00  0.00    -0.152 P  
HETATM   21  O   UNL     1      -8.290  15.060  67.681  1.00  0.00    -0.146 OA 
BRANCH  19  22
HETATM   22  C   UNL     1     -10.351  12.812  67.651  1.00  0.00    -0.221 C  
BRANCH  22  23
HETATM   23  O   UNL     1     -11.242  12.889  66.532  1.00  0.00    -0.282 OA 
BRANCH  23  24
HETATM   24  C   UNL     1     -10.881  12.107  65.483  1.00  0.00    -0.283 C  
HETATM   25  O   UNL     1     -10.801  10.886  65.498  1.00  0.00    -0.161 OA 
BRANCH  24  26
HETATM   26  O   UNL     1     -10.603  12.897  64.412  1.00  0.00    -0.351 OA 
BRANCH  26  27
HETATM   27  C   UNL     1     -11.738  13.241  63.587  1.00  0.00    -0.394 C  
HETATM   28  C   UNL     1     -12.735  12.087  63.610  1.00  0.00    -0.550 C  
HETATM   29  C   UNL     1     -12.385  14.513  64.125  1.00  0.00    -0.317 C  
ENDBRANCH  26  27
ENDBRANCH  24  26
ENDBRANCH  23  24
ENDBRANCH  22  23
ENDBRANCH  19  22
BRANCH  21  30
HETATM   30  C   UNL     1      -8.355  16.042  68.693  1.00  0.00    -0.203 C  
BRANCH  30  31
HETATM   31  O   UNL     1      -9.096  15.586  69.821  1.00  0.00    -0.251 OA 
BRANCH  31  32
HETATM   32  C   UNL     1     -10.402  15.939  69.803  1.00  0.00    -0.290 C  
HETATM   33  O   UNL     1     -10.930  16.683  68.987  1.00  0.00    -0.312 OA 
BRANCH  32  34
HETATM   34  O   UNL     1     -11.031  15.278  70.807  1.00  0.00    -0.313 OA 
BRANCH  34  35
HETATM   35  C   UNL     1     -12.257  15.863  71.288  1.00  0.00    -0.422 C  
HETATM   36  C   UNL     1     -12.046  16.229  72.755  1.00  0.00    -0.637 C  
HETATM   37  C   UNL     1     -13.408  14.871  71.160  1.00  0.00    -0.480 C  
ENDBRANCH  34  35
ENDBRANCH  32  34
ENDBRANCH  31  32
ENDBRANCH  30  31
ENDBRANCH  21  30
ENDBRANCH  16  17
ENDBRANCH   1  16
TORSDOF 14
ENDMDL
MODEL      124
REMARK 921   NORMALIZED FREE ENERGY PREDICTED BY IDOCK:   -5.15 KCAL/MOL
REMARK 922        TOTAL FREE ENERGY PREDICTED BY IDOCK:  -11.21 KCAL/MOL
REMARK 923 INTER-LIGAND FREE ENERGY PREDICTED BY IDOCK:  -10.41 KCAL/MOL
REMARK 924 INTRA-LIGAND FREE ENERGY PREDICTED BY IDOCK:   -0.81 KCAL/MOL
REMARK 927      BINDING AFFINITY PREDICTED BY RF-SCORE:    0.00 PKD
ROOT
HETATM    1  C   UNL     1      -8.898  11.187  66.393  1.00  0.00    -0.178 C  
HETATM    2  C   UNL     1      -9.845  10.653  65.320  1.00  0.00    -0.334 C  
ENDROOT
BRANCH   1   3
HETATM    3  C   UNL     1      -8.202  10.096  67.195  1.00  0.00    -0.121 C  
BRANCH   3   4
HETATM    4  N   UNL     1      -8.992   9.457  68.213  1.00  0.00    -0.128 NA 
HETATM    5  C   UNL     1      -9.689   8.310  67.987  1.00  0.00    -0.161 A  
HETATM    6  N   UNL     1     -11.154   6.098  68.116  1.00  0.00    -0.314 NA 
HETATM    7  C   UNL     1      -9.066   9.737  69.548  1.00  0.00    -0.216 A  
HETATM    8  N   UNL     1     -11.534   6.311  70.435  1.00  0.00    -0.373 NA 
HETATM    9  N   UNL     1      -9.840   7.662  66.822  1.00  0.00    -0.225 NA 
HETATM   10  C   UNL     1     -10.953   6.782  69.264  1.00  0.00    -0.259 A  
HETATM   11  N   UNL     1      -9.810   8.865  70.189  1.00  0.00    -0.171 NA 
HETATM   12  C   UNL     1     -10.586   6.560  66.981  1.00  0.00    -0.332 A  
HETATM   13  C   UNL     1     -10.187   7.953  69.225  1.00  0.00    -0.216 A  
HETATM   14  H1  UNL     1     -12.091   5.458  70.464  1.00  0.00     0.000 HD 
HETATM   15  H2  UNL     1     -12.103   7.064  70.822  1.00  0.00     0.000 HD 
ENDBRANCH   3   4
ENDBRANCH   1   3
BRANCH   1  16
HETATM   16  O   UNL     1      -9.617  12.140  67.204  1.00  0.00    -0.189 OA 
BRANCH  16  17
HETATM   17  C   UNL     1      -8.815  13.142  67.876  1.00  0.00    -0.196 C  
HETATM   18  O   UNL     1      -8.803  15.048  66.427  1.00  0.00    -0.273 OA 
HETATM   19  O   UNL     1     -11.053  14.249  67.502  1.00  0.00    -0.282 OA 
HETATM   20  P   UNL     1      -9.529  14.822  67.755  1.00  0.00    -0.210 P  
HETATM   21  O   UNL     1     -10.204  16.411  67.642  1.00  0.00    -0.258 OA 
BRANCH  19  22
HETATM   22  C   UNL     1     -11.931  14.084  68.595  1.00  0.00    -0.354 C  
BRANCH  22  23
HETATM   23  O   UNL     1     -11.547  12.985  69.429  1.00  0.00    -0.281 OA 
BRANCH  23  24
HETATM   24  C   UNL     1     -12.181  12.953  70.628  1.00  0.00    -0.302 C  
HETATM   25  O   UNL     1     -12.661  11.958  71.155  1.00  0.00    -0.371 OA 
BRANCH  24  26
HETATM   26  O   UNL     1     -12.217  14.209  71.148  1.00  0.00    -0.341 OA 
BRANCH  26  27
HETATM   27  C   UNL     1     -13.090  14.380  72.285  1.00  0.00    -0.389 C  
HETATM   28  C   UNL     1     -12.359  15.182  73.357  1.00  0.00    -0.597 C  
HETATM   29  C   UNL     1     -14.353  15.113  71.845  1.00  0.00    -0.693 C  
ENDBRANCH  26  27
ENDBRANCH  24  26
ENDBRANCH  23  24
ENDBRANCH  22  23
ENDBRANCH  19  22
BRANCH  21  30
HETATM   30  C   UNL     1      -9.663  17.302  68.593  1.00  0.00    -0.301 C  
BRANCH  30  31
HETATM   31  O   UNL     1      -8.732  18.203  68.002  1.00  0.00    -0.257 OA 
BRANCH  31  32
HETATM   32  C   UNL     1      -9.243  18.937  66.986  1.00  0.00    -0.303 C  
HETATM   33  O   UNL     1     -10.236  19.649  67.048  1.00  0.00    -0.378 OA 
BRANCH  32  34
HETATM   34  O   UNL     1      -8.428  18.792  65.911  1.00  0.00    -0.481 OA 
BRANCH  34  35
HETATM   35  C   UNL     1      -7.462  19.838  65.694  1.00  0.00    -0.251 C  
HETATM   36  C   UNL     1      -6.148  19.173  65.296  1.00  0.00    -0.297 C  
HETATM   37  C   UNL     1      -7.267  20.656  66.967  1.00  0.00    -0.372 C  
ENDBRANCH  34  35
ENDBRANCH  32  34
ENDBRANCH  31  32
ENDBRANCH  30  31
ENDBRANCH  21  30
ENDBRANCH  16  17
ENDBRANCH   1  16
TORSDOF 14
ENDMDL
MODEL      125
REMARK 921   NORMALIZED FREE ENERGY PREDICTED BY IDOCK:   -5.15 KCAL/MOL
REMARK 922        TOTAL FREE ENERGY PREDICTED BY IDOCK:  -11.21 KCAL/MOL
REMARK 923 INTER-LIGAND FREE ENERGY PREDICTED BY IDOCK:   -8.97 KCAL/MOL
REMARK 924 INTRA-LIGAND FREE ENERGY PREDICTED BY IDOCK:   -2.24 KCAL/MOL
REMARK 927      BINDING AFFINITY PREDICTED BY RF-SCORE:    0.00 PKD
ROOT
HETATM    1  C   UNL     1     -11.262   5.442  72.117  1.00  0.00    -0.130 C  
HETATM    2  C   UNL     1     -11.169   4.620  73.401  1.00  0.00    -0.423 C  
ENDROOT
BRANCH   1   3
HETATM    3  C   UNL     1      -9.951   5.529  71.347  1.00  0.00    -0.186 C  
BRANCH   3   4
HETATM    4  N   UNL     1      -9.841   4.685  70.188  1.00  0.00    -0.221 NA 
HETATM    5  C   UNL     1     -10.185   5.105  68.940  1.00  0.00    -0.150 A  
HETATM    6  N   UNL     1     -10.638   5.412  66.340  1.00  0.00    -0.287 NA 
HETATM    7  C   UNL     1      -9.256   3.455  70.071  1.00  0.00    -0.150 A  
HETATM    8  N   UNL     1      -9.743   3.301  65.787  1.00  0.00    -0.389 NA 
HETATM    9  N   UNL     1     -10.750   6.273  68.598  1.00  0.00    -0.266 NA 
HETATM   10  C   UNL     1     -10.053   4.262  66.741  1.00  0.00    -0.079 A  
HETATM   11  N   UNL     1      -9.247   3.037  68.826  1.00  0.00    -0.153 NA 
HETATM   12  C   UNL     1     -10.937   6.343  67.273  1.00  0.00    -0.392 A  
HETATM   13  C   UNL     1      -9.805   4.072  68.106  1.00  0.00     0.008 A  
HETATM   14  H1  UNL     1      -9.923   3.439  64.793  1.00  0.00     0.000 HD 
HETATM   15  H2  UNL     1     -10.198   2.432  66.064  1.00  0.00     0.000 HD 
ENDBRANCH   3   4
ENDBRANCH   1   3
BRANCH   1  16
HETATM   16  O   UNL     1     -11.838   6.727  72.437  1.00  0.00    -0.259 OA 
BRANCH  16  17
HETATM   17  C   UNL     1     -12.561   7.387  71.370  1.00  0.00    -0.370 C  
HETATM   18  O   UNL     1     -13.449   9.394  72.328  1.00  0.00    -0.434 OA 
HETATM   19  O   UNL     1     -10.856   9.082  72.142  1.00  0.00    -0.337 OA 
HETATM   20  P   UNL     1     -12.294   9.197  71.345  1.00  0.00    -0.335 P  
HETATM   21  O   UNL     1     -12.041  10.909  71.320  1.00  0.00    -0.311 OA 
BRANCH  19  22
HETATM   22  C   UNL     1      -9.651   9.014  71.410  1.00  0.00    -0.285 C  
BRANCH  22  23
HETATM   23  O   UNL     1      -9.861   9.243  70.012  1.00  0.00    -0.180 OA 
BRANCH  23  24
HETATM   24  C   UNL     1      -8.758   9.677  69.351  1.00  0.00    -0.171 C  
HETATM   25  O   UNL     1      -7.823  10.289  69.848  1.00  0.00    -0.166 OA 
BRANCH  24  26
HETATM   26  O   UNL     1      -8.864   9.340  68.038  1.00  0.00    -0.128 OA 
BRANCH  26  27
HETATM   27  C   UNL     1      -9.591  10.280  67.216  1.00  0.00    -0.159 C  
HETATM   28  C   UNL     1      -8.693  11.476  66.918  1.00  0.00    -0.181 C  
HETATM   29  C   UNL     1     -10.011   9.596  65.919  1.00  0.00    -0.351 C  
ENDBRANCH  26  27
ENDBRANCH  24  26
ENDBRANCH  23  24
ENDBRANCH  22  23
ENDBRANCH  19  22
BRANCH  21  30
HETATM   30  C   UNL     1     -12.408  11.496  70.090  1.00  0.00    -0.245 C  
BRANCH  30  31
HETATM   31  O   UNL     1     -11.322  12.202  69.499  1.00  0.00    -0.257 OA 
BRANCH  31  32
HETATM   32  C   UNL     1     -11.612  13.479  69.159  1.00  0.00    -0.310 C  
HETATM   33  O   UNL     1     -12.450  14.189  69.699  1.00  0.00    -0.310 OA 
BRANCH  32  34
HETATM   34  O   UNL     1     -10.773  13.851  68.160  1.00  0.00    -0.240 OA 
BRANCH  34  35
HETATM   35  C   UNL     1     -11.392  14.321  66.946  1.00  0.00    -0.343 C  
HETATM   36  C   UNL     1     -12.071  13.125  66.285  1.00  0.00    -0.460 C  
HETATM   37  C   UNL     1     -10.344  14.909  66.007  1.00  0.00    -0.313 C  
ENDBRANCH  34  35
ENDBRANCH  32  34
ENDBRANCH  31  32
ENDBRANCH  30  31
ENDBRANCH  21  30
ENDBRANCH  16  17
ENDBRANCH   1  16
TORSDOF 14
ENDMDL
MODEL      126
REMARK 921   NORMALIZED FREE ENERGY PREDICTED BY IDOCK:   -5.13 KCAL/MOL
REMARK 922        TOTAL FREE ENERGY PREDICTED BY IDOCK:  -11.16 KCAL/MOL
REMARK 923 INTER-LIGAND FREE ENERGY PREDICTED BY IDOCK:   -9.58 KCAL/MOL
REMARK 924 INTRA-LIGAND FREE ENERGY PREDICTED BY IDOCK:   -1.58 KCAL/MOL
REMARK 927      BINDING AFFINITY PREDICTED BY RF-SCORE:    0.00 PKD
ROOT
HETATM    1  C   UNL     1     -10.550  10.375  66.545  1.00  0.00    -0.151 C  
HETATM    2  C   UNL     1      -9.456  10.708  65.533  1.00  0.00    -0.261 C  
ENDROOT
BRANCH   1   3
HETATM    3  C   UNL     1     -11.178  11.600  67.197  1.00  0.00    -0.309 C  
BRANCH   3   4
HETATM    4  N   UNL     1     -11.564  12.662  66.307  1.00  0.00    -0.364 NA 
HETATM    5  C   UNL     1     -10.861  13.822  66.201  1.00  0.00    -0.279 A  
HETATM    6  N   UNL     1      -9.858  16.198  65.563  1.00  0.00    -0.487 NA 
HETATM    7  C   UNL     1     -12.528  12.665  65.338  1.00  0.00    -0.355 A  
HETATM    8  N   UNL     1     -11.426  16.558  63.837  1.00  0.00    -1.599 NA 
HETATM    9  N   UNL     1      -9.805  14.206  66.934  1.00  0.00    -0.258 NA 
HETATM   10  C   UNL     1     -10.913  15.751  64.845  1.00  0.00    -0.427 A  
HETATM   11  N   UNL     1     -12.518  13.781  64.645  1.00  0.00    -0.608 NA 
HETATM   12  C   UNL     1      -9.363  15.409  66.542  1.00  0.00    -0.282 A  
HETATM   13  C   UNL     1     -11.463  14.504  65.162  1.00  0.00    -0.368 A  
HETATM   14  H1  UNL     1     -11.025  17.466  63.606  1.00  0.00     0.000 HD 
HETATM   15  H2  UNL     1     -12.417  16.698  64.029  1.00  0.00     0.000 HD 
ENDBRANCH   3   4
ENDBRANCH   1   3
BRANCH   1  16
HETATM   16  O   UNL     1     -10.023   9.417  67.489  1.00  0.00    -0.176 OA 
BRANCH  16  17
HETATM   17  C   UNL     1      -9.767   9.912  68.826  1.00  0.00    -0.160 C  
HETATM   18  O   UNL     1     -11.859   9.783  69.983  1.00  0.00    -0.148 OA 
HETATM   19  O   UNL     1     -10.691   7.587  69.163  1.00  0.00    -0.214 OA 
HETATM   20  P   UNL     1     -10.600   8.925  70.121  1.00  0.00    -0.234 P  
HETATM   21  O   UNL     1     -11.387   7.991  71.346  1.00  0.00    -0.247 OA 
BRANCH  19  22
HETATM   22  C   UNL     1      -9.681   6.604  69.231  1.00  0.00    -0.146 C  
BRANCH  22  23
HETATM   23  O   UNL     1     -10.190   5.294  68.957  1.00  0.00    -0.203 OA 
BRANCH  23  24
HETATM   24  C   UNL     1      -9.253   4.417  68.515  1.00  0.00    -0.135 C  
HETATM   25  O   UNL     1      -9.018   3.319  69.002  1.00  0.00    -0.102 OA 
BRANCH  24  26
HETATM   26  O   UNL     1      -8.599   4.961  67.455  1.00  0.00    -0.105 OA 
BRANCH  26  27
HETATM   27  C   UNL     1      -8.588   4.153  66.257  1.00  0.00    -0.113 C  
HETATM   28  C   UNL     1      -9.291   4.913  65.138  1.00  0.00    -0.104 C  
HETATM   29  C   UNL     1      -7.145   3.850  65.867  1.00  0.00    -0.067 C  
ENDBRANCH  26  27
ENDBRANCH  24  26
ENDBRANCH  23  24
ENDBRANCH  22  23
ENDBRANCH  19  22
BRANCH  21  30
HETATM   30  C   UNL     1     -10.847   8.211  72.632  1.00  0.00    -0.359 C  
BRANCH  30  31
HETATM   31  O   UNL     1      -9.447   8.469  72.577  1.00  0.00    -0.280 OA 
BRANCH  31  32
HETATM   32  C   UNL     1      -8.742   7.908  73.586  1.00  0.00    -0.269 C  
HETATM   33  O   UNL     1      -8.038   8.509  74.387  1.00  0.00    -0.312 OA 
BRANCH  32  34
HETATM   34  O   UNL     1      -9.000   6.576  73.590  1.00  0.00    -0.123 OA 
BRANCH  34  35
HETATM   35  C   UNL     1      -8.177   5.762  72.732  1.00  0.00    -0.112 C  
HETATM   36  C   UNL     1      -8.965   4.496  72.409  1.00  0.00    -0.139 C  
HETATM   37  C   UNL     1      -6.872   5.399  73.433  1.00  0.00    -0.083 C  
ENDBRANCH  34  35
ENDBRANCH  32  34
ENDBRANCH  31  32
ENDBRANCH  30  31
ENDBRANCH  21  30
ENDBRANCH  16  17
ENDBRANCH   1  16
TORSDOF 14
ENDMDL
MODEL      127
REMARK 921   NORMALIZED FREE ENERGY PREDICTED BY IDOCK:   -5.11 KCAL/MOL
REMARK 922        TOTAL FREE ENERGY PREDICTED BY IDOCK:  -11.14 KCAL/MOL
REMARK 923 INTER-LIGAND FREE ENERGY PREDICTED BY IDOCK:   -9.69 KCAL/MOL
REMARK 924 INTRA-LIGAND FREE ENERGY PREDICTED BY IDOCK:   -1.44 KCAL/MOL
REMARK 927      BINDING AFFINITY PREDICTED BY RF-SCORE:    0.00 PKD
ROOT
HETATM    1  C   UNL     1      -9.765   8.832  67.603  1.00  0.00    -0.169 C  
HETATM    2  C   UNL     1     -10.080   7.442  67.053  1.00  0.00    -0.328 C  
ENDROOT
BRANCH   1   3
HETATM    3  C   UNL     1      -9.471   8.850  69.097  1.00  0.00    -0.157 C  
BRANCH   3   4
HETATM    4  N   UNL     1     -10.576   9.179  69.956  1.00  0.00    -0.218 NA 
HETATM    5  C   UNL     1     -11.328   8.231  70.578  1.00  0.00    -0.219 A  
HETATM    6  N   UNL     1     -13.044   6.837  72.052  1.00  0.00    -0.175 NA 
HETATM    7  C   UNL     1     -10.965  10.401  70.429  1.00  0.00    -0.248 A  
HETATM    8  N   UNL     1     -13.993   8.763  73.030  1.00  0.00    -1.092 NA 
HETATM    9  N   UNL     1     -11.246   6.899  70.435  1.00  0.00    -0.293 NA 
HETATM   10  C   UNL     1     -13.068   8.183  72.170  1.00  0.00    -0.243 A  
HETATM   11  N   UNL     1     -11.956  10.299  71.284  1.00  0.00    -0.373 NA 
HETATM   12  C   UNL     1     -12.142   6.279  71.216  1.00  0.00    -0.035 A  
HETATM   13  C   UNL     1     -12.177   8.943  71.403  1.00  0.00    -0.318 A  
HETATM   14  H1  UNL     1     -14.642   8.210  73.589  1.00  0.00     0.000 HD 
HETATM   15  H2  UNL     1     -14.544   9.428  72.488  1.00  0.00     0.000 HD 
ENDBRANCH   3   4
ENDBRANCH   1   3
BRANCH   1  16
HETATM   16  O   UNL     1     -10.823   9.730  67.205  1.00  0.00    -0.265 OA 
BRANCH  16  17
HETATM   17  C   UNL     1     -10.667  10.370  65.914  1.00  0.00     0.047 C  
HETATM   18  O   UNL     1     -12.327  12.094  65.836  1.00  0.00    -0.561 OA 
HETATM   19  O   UNL     1     -10.395  12.232  67.597  1.00  0.00    -0.200 OA 
HETATM   20  P   UNL     1     -10.809  12.192  66.003  1.00  0.00    -0.306 P  
HETATM   21  O   UNL     1     -10.943  13.914  66.086  1.00  0.00    -0.291 OA 
BRANCH  19  22
HETATM   22  C   UNL     1      -9.048  12.439  67.967  1.00  0.00    -0.195 C  
BRANCH  22  23
HETATM   23  O   UNL     1      -8.152  12.211  66.873  1.00  0.00    -0.168 OA 
BRANCH  23  24
HETATM   24  C   UNL     1      -6.969  11.652  67.234  1.00  0.00    -0.131 C  
HETATM   25  O   UNL     1      -6.108  12.185  67.921  1.00  0.00    -0.059 OA 
BRANCH  24  26
HETATM   26  O   UNL     1      -6.881  10.407  66.695  1.00  0.00    -0.088 OA 
BRANCH  26  27
HETATM   27  C   UNL     1      -6.906  10.357  65.252  1.00  0.00    -0.102 C  
HETATM   28  C   UNL     1      -5.488  10.551  64.724  1.00  0.00    -0.140 C  
HETATM   29  C   UNL     1      -7.458   9.008  64.803  1.00  0.00    -0.102 C  
ENDBRANCH  26  27
ENDBRANCH  24  26
ENDBRANCH  23  24
ENDBRANCH  22  23
ENDBRANCH  19  22
BRANCH  21  30
HETATM   30  C   UNL     1     -10.418  14.558  64.944  1.00  0.00    -0.409 C  
BRANCH  30  31
HETATM   31  O   UNL     1      -9.815  15.805  65.274  1.00  0.00    -0.375 OA 
BRANCH  31  32
HETATM   32  C   UNL     1     -10.660  16.860  65.215  1.00  0.00    -0.120 C  
HETATM   33  O   UNL     1     -11.303  17.206  64.232  1.00  0.00    -1.126 OA 
BRANCH  32  34
HETATM   34  O   UNL     1     -10.715  17.426  66.446  1.00  0.00    -0.229 OA 
BRANCH  34  35
HETATM   35  C   UNL     1      -9.801  18.512  66.693  1.00  0.00    -0.354 C  
HETATM   36  C   UNL     1     -10.420  19.775  66.101  1.00  0.00    -0.613 C  
HETATM   37  C   UNL     1      -8.453  18.235  66.035  1.00  0.00    -0.035 C  
ENDBRANCH  34  35
ENDBRANCH  32  34
ENDBRANCH  31  32
ENDBRANCH  30  31
ENDBRANCH  21  30
ENDBRANCH  16  17
ENDBRANCH   1  16
TORSDOF 14
ENDMDL
MODEL      128
REMARK 921   NORMALIZED FREE ENERGY PREDICTED BY IDOCK:   -5.11 KCAL/MOL
REMARK 922        TOTAL FREE ENERGY PREDICTED BY IDOCK:  -11.13 KCAL/MOL
REMARK 923 INTER-LIGAND FREE ENERGY PREDICTED BY IDOCK:   -9.70 KCAL/MOL
REMARK 924 INTRA-LIGAND FREE ENERGY PREDICTED BY IDOCK:   -1.44 KCAL/MOL
REMARK 927      BINDING AFFINITY PREDICTED BY RF-SCORE:    0.00 PKD
ROOT
HETATM    1  C   UNL     1      -7.853   9.301  68.058  1.00  0.00    -0.092 C  
HETATM    2  C   UNL     1      -6.646   9.494  67.141  1.00  0.00    -0.071 C  
ENDROOT
BRANCH   1   3
HETATM    3  C   UNL     1      -8.059   7.860  68.507  1.00  0.00    -0.123 C  
BRANCH   3   4
HETATM    4  N   UNL     1      -8.439   7.674  69.881  1.00  0.00    -0.135 NA 
HETATM    5  C   UNL     1      -9.673   7.231  70.248  1.00  0.00    -0.175 A  
HETATM    6  N   UNL     1     -11.851   6.359  71.494  1.00  0.00    -0.318 NA 
HETATM    7  C   UNL     1      -7.662   7.727  71.004  1.00  0.00    -0.084 A  
HETATM    8  N   UNL     1     -10.823   6.388  73.618  1.00  0.00    -0.454 NA 
HETATM    9  N   UNL     1     -10.727   6.998  69.450  1.00  0.00    -0.233 NA 
HETATM   10  C   UNL     1     -10.752   6.592  72.245  1.00  0.00    -0.221 A  
HETATM   11  N   UNL     1      -8.336   7.390  72.080  1.00  0.00    -0.107 NA 
HETATM   12  C   UNL     1     -11.775   6.558  70.160  1.00  0.00    -0.353 A  
HETATM   13  C   UNL     1      -9.591   7.055  71.615  1.00  0.00    -0.156 A  
HETATM   14  H1  UNL     1     -11.668   6.050  74.077  1.00  0.00     0.000 HD 
HETATM   15  H2  UNL     1     -10.551   7.258  74.074  1.00  0.00     0.000 HD 
ENDBRANCH   3   4
ENDBRANCH   1   3
BRANCH   1  16
HETATM   16  O   UNL     1      -9.009   9.886  67.421  1.00  0.00    -0.134 OA 
BRANCH  16  17
HETATM   17  C   UNL     1      -8.742  10.841  66.365  1.00  0.00    -0.158 C  
HETATM   18  O   UNL     1     -10.160  10.210  64.542  1.00  0.00    -0.304 OA 
HETATM   19  O   UNL     1     -11.224  11.023  66.792  1.00  0.00    -0.264 OA 
HETATM   20  P   UNL     1     -10.261  11.393  65.507  1.00  0.00    -0.287 P  
HETATM   21  O   UNL     1     -11.697  11.916  64.696  1.00  0.00    -0.308 OA 
BRANCH  19  22
HETATM   22  C   UNL     1     -11.542  12.018  67.741  1.00  0.00    -0.330 C  
BRANCH  22  23
HETATM   23  O   UNL     1     -10.742  11.905  68.924  1.00  0.00    -0.221 OA 
BRANCH  23  24
HETATM   24  C   UNL     1     -11.145  10.926  69.773  1.00  0.00    -0.262 C  
HETATM   25  O   UNL     1     -10.417  10.281  70.515  1.00  0.00    -0.208 OA 
BRANCH  24  26
HETATM   26  O   UNL     1     -12.489  10.758  69.654  1.00  0.00    -0.289 OA 
BRANCH  26  27
HETATM   27  C   UNL     1     -13.242  10.935  70.874  1.00  0.00    -0.006 C  
HETATM   28  C   UNL     1     -12.978   9.750  71.797  1.00  0.00    -0.536 C  
HETATM   29  C   UNL     1     -12.815  12.236  71.546  1.00  0.00    -0.384 C  
ENDBRANCH  26  27
ENDBRANCH  24  26
ENDBRANCH  23  24
ENDBRANCH  22  23
ENDBRANCH  19  22
BRANCH  21  30
HETATM   30  C   UNL     1     -11.504  13.102  63.956  1.00  0.00    -0.406 C  
BRANCH  30  31
HETATM   31  O   UNL     1     -12.219  14.197  64.521  1.00  0.00    -0.442 OA 
BRANCH  31  32
HETATM   32  C   UNL     1     -11.483  15.324  64.659  1.00  0.00    -0.354 C  
HETATM   33  O   UNL     1     -11.616  16.349  64.002  1.00  0.00    -1.071 OA 
BRANCH  32  34
HETATM   34  O   UNL     1     -10.620  15.141  65.689  1.00  0.00    -0.310 OA 
BRANCH  34  35
HETATM   35  C   UNL     1     -10.529  16.215  66.646  1.00  0.00    -0.300 C  
HETATM   36  C   UNL     1      -9.055  16.585  66.780  1.00  0.00    -0.262 C  
HETATM   37  C   UNL     1     -11.080  15.773  67.998  1.00  0.00    -0.337 C  
ENDBRANCH  34  35
ENDBRANCH  32  34
ENDBRANCH  31  32
ENDBRANCH  30  31
ENDBRANCH  21  30
ENDBRANCH  16  17
ENDBRANCH   1  16
TORSDOF 14
ENDMDL
MODEL      129
REMARK 921   NORMALIZED FREE ENERGY PREDICTED BY IDOCK:   -5.10 KCAL/MOL
REMARK 922        TOTAL FREE ENERGY PREDICTED BY IDOCK:  -11.12 KCAL/MOL
REMARK 923 INTER-LIGAND FREE ENERGY PREDICTED BY IDOCK:  -10.52 KCAL/MOL
REMARK 924 INTRA-LIGAND FREE ENERGY PREDICTED BY IDOCK:   -0.59 KCAL/MOL
REMARK 927      BINDING AFFINITY PREDICTED BY RF-SCORE:    0.00 PKD
ROOT
HETATM    1  C   UNL     1     -12.636  12.891  70.449  1.00  0.00    -0.074 C  
HETATM    2  C   UNL     1     -13.046  12.822  71.919  1.00  0.00    -0.474 C  
ENDROOT
BRANCH   1   3
HETATM    3  C   UNL     1     -12.253  11.543  69.854  1.00  0.00    -0.258 C  
BRANCH   3   4
HETATM    4  N   UNL     1     -12.310  10.417  70.747  1.00  0.00    -0.337 NA 
HETATM    5  C   UNL     1     -11.213   9.680  71.069  1.00  0.00    -0.375 A  
HETATM    6  N   UNL     1      -9.433   7.978  72.065  1.00  0.00    -0.179 NA 
HETATM    7  C   UNL     1     -13.346   9.992  71.531  1.00  0.00    -0.361 A  
HETATM    8  N   UNL     1     -10.995   6.967  73.516  1.00  0.00    -0.556 NA 
HETATM    9  N   UNL     1      -9.974   9.796  70.565  1.00  0.00    -0.248 NA 
HETATM   10  C   UNL     1     -10.693   7.919  72.549  1.00  0.00    -0.328 A  
HETATM   11  N   UNL     1     -12.993   8.991  72.304  1.00  0.00    -0.413 NA 
HETATM   12  C   UNL     1      -9.145   8.905  71.127  1.00  0.00    -0.249 A  
HETATM   13  C   UNL     1     -11.652   8.802  72.040  1.00  0.00    -0.366 A  
HETATM   14  H1  UNL     1     -10.296   6.324  73.888  1.00  0.00     0.000 HD 
HETATM   15  H2  UNL     1     -11.773   6.409  73.167  1.00  0.00     0.000 HD 
ENDBRANCH   3   4
ENDBRANCH   1   3
BRANCH   1  16
HETATM   16  O   UNL     1     -11.618  13.904  70.305  1.00  0.00    -0.242 OA 
BRANCH  16  17
HETATM   17  C   UNL     1     -12.039  15.155  69.708  1.00  0.00    -0.319 C  
HETATM   18  O   UNL     1     -10.070  16.510  69.573  1.00  0.00    -0.237 OA 
HETATM   19  O   UNL     1     -10.217  14.292  68.188  1.00  0.00    -0.222 OA 
HETATM   20  P   UNL     1     -10.849  15.788  68.471  1.00  0.00    -0.326 P  
HETATM   21  O   UNL     1      -9.723  16.387  67.302  1.00  0.00    -0.233 OA 
BRANCH  19  22
HETATM   22  C   UNL     1     -10.718  13.508  67.127  1.00  0.00    -0.279 C  
BRANCH  22  23
HETATM   23  O   UNL     1      -9.965  12.302  66.951  1.00  0.00    -0.208 OA 
BRANCH  23  24
HETATM   24  C   UNL     1     -10.617  11.341  66.250  1.00  0.00    -0.263 C  
HETATM   25  O   UNL     1     -11.096  11.473  65.132  1.00  0.00    -0.271 OA 
BRANCH  24  26
HETATM   26  O   UNL     1     -10.674  10.206  66.997  1.00  0.00    -0.244 OA 
BRANCH  26  27
HETATM   27  C   UNL     1     -10.146   9.021  66.359  1.00  0.00    -0.281 C  
HETATM   28  C   UNL     1      -8.640   9.180  66.186  1.00  0.00    -0.149 C  
HETATM   29  C   UNL     1     -10.456   7.803  67.223  1.00  0.00    -0.392 C  
ENDBRANCH  26  27
ENDBRANCH  24  26
ENDBRANCH  23  24
ENDBRANCH  22  23
ENDBRANCH  19  22
BRANCH  21  30
HETATM   30  C   UNL     1     -10.287  17.363  66.452  1.00  0.00    -0.317 C  
BRANCH  30  31
HETATM   31  O   UNL     1      -9.903  18.680  66.836  1.00  0.00    -0.304 OA 
BRANCH  31  32
HETATM   32  C   UNL     1      -8.662  19.033  66.430  1.00  0.00    -0.317 C  
HETATM   33  O   UNL     1      -7.933  18.372  65.702  1.00  0.00    -0.482 OA 
BRANCH  32  34
HETATM   34  O   UNL     1      -8.394  20.270  66.919  1.00  0.00    -0.313 OA 
BRANCH  34  35
HETATM   35  C   UNL     1      -7.394  20.346  67.953  1.00  0.00    -0.251 C  
HETATM   36  C   UNL     1      -6.073  20.721  67.286  1.00  0.00    -0.308 C  
HETATM   37  C   UNL     1      -7.256  19.003  68.662  1.00  0.00    -0.351 C  
ENDBRANCH  34  35
ENDBRANCH  32  34
ENDBRANCH  31  32
ENDBRANCH  30  31
ENDBRANCH  21  30
ENDBRANCH  16  17
ENDBRANCH   1  16
TORSDOF 14
ENDMDL
MODEL      130
REMARK 921   NORMALIZED FREE ENERGY PREDICTED BY IDOCK:   -5.10 KCAL/MOL
REMARK 922        TOTAL FREE ENERGY PREDICTED BY IDOCK:  -11.12 KCAL/MOL
REMARK 923 INTER-LIGAND FREE ENERGY PREDICTED BY IDOCK:   -8.57 KCAL/MOL
REMARK 924 INTRA-LIGAND FREE ENERGY PREDICTED BY IDOCK:   -2.55 KCAL/MOL
REMARK 927      BINDING AFFINITY PREDICTED BY RF-SCORE:    0.00 PKD
ROOT
HETATM    1  C   UNL     1      -7.321   7.660  68.166  1.00  0.00    -0.099 C  
HETATM    2  C   UNL     1      -5.819   7.809  68.394  1.00  0.00    -0.032 C  
ENDROOT
BRANCH   1   3
HETATM    3  C   UNL     1      -7.894   6.346  68.680  1.00  0.00    -0.102 C  
BRANCH   3   4
HETATM    4  N   UNL     1      -8.323   6.336  70.053  1.00  0.00    -0.127 NA 
HETATM    5  C   UNL     1      -9.635   6.387  70.411  1.00  0.00    -0.165 A  
HETATM    6  N   UNL     1     -11.988   6.403  71.646  1.00  0.00    -0.322 NA 
HETATM    7  C   UNL     1      -7.587   6.118  71.184  1.00  0.00    -0.093 A  
HETATM    8  N   UNL     1     -11.033   6.086  73.780  1.00  0.00    -0.407 NA 
HETATM    9  N   UNL     1     -10.696   6.547  69.605  1.00  0.00    -0.243 NA 
HETATM   10  C   UNL     1     -10.884   6.226  72.406  1.00  0.00    -0.243 A  
HETATM   11  N   UNL     1      -8.344   6.072  72.256  1.00  0.00    -0.114 NA 
HETATM   12  C   UNL     1     -11.836   6.538  70.310  1.00  0.00    -0.295 A  
HETATM   13  C   UNL     1      -9.631   6.216  71.782  1.00  0.00    -0.150 A  
HETATM   14  H1  UNL     1     -11.946   6.092  74.235  1.00  0.00     0.000 HD 
HETATM   15  H2  UNL     1     -10.461   6.802  74.227  1.00  0.00     0.000 HD 
ENDBRANCH   3   4
ENDBRANCH   1   3
BRANCH   1  16
HETATM   16  O   UNL     1      -7.599   7.912  66.772  1.00  0.00    -0.094 OA 
BRANCH  16  17
HETATM   17  C   UNL     1      -7.427   9.279  66.323  1.00  0.00    -0.096 C  
HETATM   18  O   UNL     1      -8.218   9.327  64.063  1.00  0.00    -0.144 OA 
HETATM   19  O   UNL     1      -9.886   8.800  66.011  1.00  0.00    -0.258 OA 
HETATM   20  P   UNL     1      -8.845   9.888  65.341  1.00  0.00    -0.201 P  
HETATM   21  O   UNL     1     -10.187  10.465  64.413  1.00  0.00    -0.333 OA 
BRANCH  19  22
HETATM   22  C   UNL     1     -10.658   9.168  67.134  1.00  0.00    -0.216 C  
BRANCH  22  23
HETATM   23  O   UNL     1     -10.023  10.191  67.909  1.00  0.00    -0.155 OA 
BRANCH  23  24
HETATM   24  C   UNL     1     -10.154  10.032  69.250  1.00  0.00    -0.213 C  
HETATM   25  O   UNL     1      -9.238   9.836  70.038  1.00  0.00    -0.222 OA 
BRANCH  24  26
HETATM   26  O   UNL     1     -11.470  10.103  69.581  1.00  0.00    -0.241 OA 
BRANCH  26  27
HETATM   27  C   UNL     1     -11.787  11.021  70.651  1.00  0.00    -0.333 C  
HETATM   28  C   UNL     1     -12.086  12.393  70.056  1.00  0.00    -0.335 C  
HETATM   29  C   UNL     1     -12.998  10.501  71.419  1.00  0.00    -0.542 C  
ENDBRANCH  26  27
ENDBRANCH  24  26
ENDBRANCH  23  24
ENDBRANCH  22  23
ENDBRANCH  19  22
BRANCH  21  30
HETATM   30  C   UNL     1     -10.211  11.872  64.308  1.00  0.00    -0.311 C  
BRANCH  30  31
HETATM   31  O   UNL     1     -10.117  12.498  65.584  1.00  0.00    -0.265 OA 
BRANCH  31  32
HETATM   32  C   UNL     1     -11.295  12.964  66.059  1.00  0.00    -0.317 C  
HETATM   33  O   UNL     1     -12.159  12.294  66.609  1.00  0.00    -0.612 OA 
BRANCH  32  34
HETATM   34  O   UNL     1     -11.322  14.307  65.873  1.00  0.00    -0.317 OA 
BRANCH  34  35
HETATM   35  C   UNL     1     -10.424  15.084  66.690  1.00  0.00    -0.284 C  
HETATM   36  C   UNL     1     -11.214  15.573  67.901  1.00  0.00    -0.325 C  
HETATM   37  C   UNL     1      -9.884  16.275  65.905  1.00  0.00    -0.365 C  
ENDBRANCH  34  35
ENDBRANCH  32  34
ENDBRANCH  31  32
ENDBRANCH  30  31
ENDBRANCH  21  30
ENDBRANCH  16  17
ENDBRANCH   1  16
TORSDOF 14
ENDMDL
MODEL      131
REMARK 921   NORMALIZED FREE ENERGY PREDICTED BY IDOCK:   -5.09 KCAL/MOL
REMARK 922        TOTAL FREE ENERGY PREDICTED BY IDOCK:  -11.10 KCAL/MOL
REMARK 923 INTER-LIGAND FREE ENERGY PREDICTED BY IDOCK:   -9.44 KCAL/MOL
REMARK 924 INTRA-LIGAND FREE ENERGY PREDICTED BY IDOCK:   -1.66 KCAL/MOL
REMARK 927      BINDING AFFINITY PREDICTED BY RF-SCORE:    0.00 PKD
ROOT
HETATM    1  C   UNL     1      -8.703   5.656  70.471  1.00  0.00    -0.137 C  
HETATM    2  C   UNL     1      -7.492   5.031  71.159  1.00  0.00    -0.074 C  
ENDROOT
BRANCH   1   3
HETATM    3  C   UNL     1      -8.362   6.413  69.194  1.00  0.00    -0.122 C  
BRANCH   3   4
HETATM    4  N   UNL     1      -9.237   6.194  68.075  1.00  0.00    -0.117 NA 
HETATM    5  C   UNL     1      -9.081   5.152  67.214  1.00  0.00    -0.113 A  
HETATM    6  N   UNL     1      -9.275   3.308  65.311  1.00  0.00    -0.148 NA 
HETATM    7  C   UNL     1     -10.410   6.823  67.763  1.00  0.00    -0.198 A  
HETATM    8  N   UNL     1     -11.302   4.178  64.473  1.00  0.00    -0.836 NA 
HETATM    9  N   UNL     1      -8.084   4.253  67.193  1.00  0.00    -0.100 NA 
HETATM   10  C   UNL     1     -10.261   4.229  65.392  1.00  0.00    -0.220 A  
HETATM   11  N   UNL     1     -10.995   6.276  66.722  1.00  0.00    -0.326 NA 
HETATM   12  C   UNL     1      -8.266   3.362  66.208  1.00  0.00    -0.097 A  
HETATM   13  C   UNL     1     -10.182   5.214  66.383  1.00  0.00    -0.266 A  
HETATM   14  H1  UNL     1     -11.359   3.460  63.751  1.00  0.00     0.000 HD 
HETATM   15  H2  UNL     1     -11.349   5.085  64.010  1.00  0.00     0.000 HD 
ENDBRANCH   3   4
ENDBRANCH   1   3
BRANCH   1  16
HETATM   16  O   UNL     1      -9.425   6.444  71.442  1.00  0.00    -0.156 OA 
BRANCH  16  17
HETATM   17  C   UNL     1     -10.822   6.695  71.151  1.00  0.00    -0.241 C  
HETATM   18  O   UNL     1     -11.658   7.956  73.007  1.00  0.00    -0.351 OA 
HETATM   19  O   UNL     1      -9.806   8.984  71.468  1.00  0.00    -0.296 OA 
HETATM   20  P   UNL     1     -11.342   8.396  71.576  1.00  0.00    -0.320 P  
HETATM   21  O   UNL     1     -11.834  10.006  71.978  1.00  0.00    -0.103 OA 
BRANCH  19  22
HETATM   22  C   UNL     1      -9.356   9.552  70.257  1.00  0.00    -0.259 C  
BRANCH  22  23
HETATM   23  O   UNL     1     -10.377   9.549  69.252  1.00  0.00    -0.192 OA 
BRANCH  23  24
HETATM   24  C   UNL     1     -10.336  10.619  68.419  1.00  0.00    -0.175 C  
HETATM   25  O   UNL     1     -10.144  11.780  68.757  1.00  0.00    -0.206 OA 
BRANCH  24  26
HETATM   26  O   UNL     1     -10.563  10.202  67.145  1.00  0.00    -0.244 OA 
BRANCH  26  27
HETATM   27  C   UNL     1      -9.484  10.443  66.216  1.00  0.00    -0.171 C  
HETATM   28  C   UNL     1      -8.392   9.403  66.441  1.00  0.00    -0.116 C  
HETATM   29  C   UNL     1     -10.017  10.352  64.789  1.00  0.00    -0.409 C  
ENDBRANCH  26  27
ENDBRANCH  24  26
ENDBRANCH  23  24
ENDBRANCH  22  23
ENDBRANCH  19  22
BRANCH  21  30
HETATM   30  C   UNL     1     -13.046  10.376  71.356  1.00  0.00    -0.413 C  
BRANCH  30  31
HETATM   31  O   UNL     1     -13.677  11.457  72.035  1.00  0.00    -0.164 OA 
BRANCH  31  32
HETATM   32  C   UNL     1     -13.075  12.655  71.848  1.00  0.00    -0.366 C  
HETATM   33  O   UNL     1     -12.582  13.050  70.800  1.00  0.00    -0.314 OA 
BRANCH  32  34
HETATM   34  O   UNL     1     -13.169  13.359  73.003  1.00  0.00    -0.451 OA 
BRANCH  34  35
HETATM   35  C   UNL     1     -12.847  14.761  72.925  1.00  0.00    -0.463 C  
HETATM   36  C   UNL     1     -12.336  15.191  74.298  1.00  0.00    -0.675 C  
HETATM   37  C   UNL     1     -14.084  15.572  72.553  1.00  0.00    -0.595 C  
ENDBRANCH  34  35
ENDBRANCH  32  34
ENDBRANCH  31  32
ENDBRANCH  30  31
ENDBRANCH  21  30
ENDBRANCH  16  17
ENDBRANCH   1  16
TORSDOF 14
ENDMDL
MODEL      132
REMARK 921   NORMALIZED FREE ENERGY PREDICTED BY IDOCK:   -5.09 KCAL/MOL
REMARK 922        TOTAL FREE ENERGY PREDICTED BY IDOCK:  -11.10 KCAL/MOL
REMARK 923 INTER-LIGAND FREE ENERGY PREDICTED BY IDOCK:   -9.06 KCAL/MOL
REMARK 924 INTRA-LIGAND FREE ENERGY PREDICTED BY IDOCK:   -2.04 KCAL/MOL
REMARK 927      BINDING AFFINITY PREDICTED BY RF-SCORE:    0.00 PKD
ROOT
HETATM    1  C   UNL     1      -9.932   5.009  69.837  1.00  0.00    -0.251 C  
HETATM    2  C   UNL     1      -9.636   3.691  70.551  1.00  0.00    -0.256 C  
ENDROOT
BRANCH   1   3
HETATM    3  C   UNL     1      -8.825   5.457  68.892  1.00  0.00    -0.100 C  
BRANCH   3   4
HETATM    4  N   UNL     1      -9.085   5.287  67.488  1.00  0.00    -0.108 NA 
HETATM    5  C   UNL     1      -8.391   5.956  66.527  1.00  0.00    -0.112 A  
HETATM    6  N   UNL     1      -7.336   6.924  64.289  1.00  0.00    -0.078 NA 
HETATM    7  C   UNL     1      -9.888   4.373  66.865  1.00  0.00    -0.207 A  
HETATM    8  N   UNL     1      -8.624   5.517  62.901  1.00  0.00    -0.292 NA 
HETATM    9  N   UNL     1      -7.465   6.911  66.705  1.00  0.00    -0.080 NA 
HETATM   10  C   UNL     1      -8.261   5.946  64.172  1.00  0.00    -0.075 A  
HETATM   11  N   UNL     1      -9.788   4.446  65.558  1.00  0.00    -0.202 NA 
HETATM   12  C   UNL     1      -6.986   7.336  65.527  1.00  0.00    -0.060 A  
HETATM   13  C   UNL     1      -8.835   5.419  65.335  1.00  0.00    -0.143 A  
HETATM   14  H1  UNL     1      -8.205   5.900  62.054  1.00  0.00     0.000 HD 
HETATM   15  H2  UNL     1      -9.635   5.619  62.818  1.00  0.00     0.000 HD 
ENDBRANCH   3   4
ENDBRANCH   1   3
BRANCH   1  16
HETATM   16  O   UNL     1     -10.289   5.996  70.829  1.00  0.00    -0.204 OA 
BRANCH  16  17
HETATM   17  C   UNL     1     -11.582   6.627  70.665  1.00  0.00    -0.382 C  
HETATM   18  O   UNL     1     -11.872   8.027  72.586  1.00  0.00    -0.377 OA 
HETATM   19  O   UNL     1      -9.949   8.541  70.884  1.00  0.00    -0.178 OA 
HETATM   20  P   UNL     1     -11.572   8.396  71.132  1.00  0.00    -0.272 P  
HETATM   21  O   UNL     1     -11.563  10.069  71.572  1.00  0.00    -0.353 OA 
BRANCH  19  22
HETATM   22  C   UNL     1      -9.467   8.990  69.636  1.00  0.00    -0.171 C  
BRANCH  22  23
HETATM   23  O   UNL     1     -10.528   9.431  68.780  1.00  0.00    -0.205 OA 
BRANCH  23  24
HETATM   24  C   UNL     1     -10.399   9.033  67.489  1.00  0.00    -0.264 C  
HETATM   25  O   UNL     1     -10.879   8.017  67.004  1.00  0.00    -0.283 OA 
BRANCH  24  26
HETATM   26  O   UNL     1      -9.631   9.934  66.819  1.00  0.00    -0.168 OA 
BRANCH  26  27
HETATM   27  C   UNL     1     -10.141  11.285  66.801  1.00  0.00    -0.219 C  
HETATM   28  C   UNL     1      -8.967  12.258  66.776  1.00  0.00    -0.209 C  
HETATM   29  C   UNL     1     -11.016  11.478  65.567  1.00  0.00    -0.290 C  
ENDBRANCH  26  27
ENDBRANCH  24  26
ENDBRANCH  23  24
ENDBRANCH  22  23
ENDBRANCH  19  22
BRANCH  21  30
HETATM   30  C   UNL     1     -12.675  10.774  71.061  1.00  0.00    -0.415 C  
BRANCH  30  31
HETATM   31  O   UNL     1     -13.393  11.443  72.093  1.00  0.00    -0.469 OA 
BRANCH  31  32
HETATM   32  C   UNL     1     -13.413  12.790  71.967  1.00  0.00    -0.444 C  
HETATM   33  O   UNL     1     -14.230  13.544  72.481  1.00  0.00    -0.734 OA 
BRANCH  32  34
HETATM   34  O   UNL     1     -12.339  13.161  71.227  1.00  0.00    -0.292 OA 
BRANCH  34  35
HETATM   35  C   UNL     1     -12.532  14.274  70.332  1.00  0.00    -0.362 C  
HETATM   36  C   UNL     1     -11.902  13.899  68.993  1.00  0.00    -0.397 C  
HETATM   37  C   UNL     1     -11.866  15.527  70.888  1.00  0.00    -0.413 C  
ENDBRANCH  34  35
ENDBRANCH  32  34
ENDBRANCH  31  32
ENDBRANCH  30  31
ENDBRANCH  21  30
ENDBRANCH  16  17
ENDBRANCH   1  16
TORSDOF 14
ENDMDL
MODEL      133
REMARK 921   NORMALIZED FREE ENERGY PREDICTED BY IDOCK:   -5.08 KCAL/MOL
REMARK 922        TOTAL FREE ENERGY PREDICTED BY IDOCK:  -11.09 KCAL/MOL
REMARK 923 INTER-LIGAND FREE ENERGY PREDICTED BY IDOCK:   -9.47 KCAL/MOL
REMARK 924 INTRA-LIGAND FREE ENERGY PREDICTED BY IDOCK:   -1.62 KCAL/MOL
REMARK 927      BINDING AFFINITY PREDICTED BY RF-SCORE:    0.00 PKD
ROOT
HETATM    1  C   UNL     1     -11.427  11.574  69.465  1.00  0.00    -0.311 C  
HETATM    2  C   UNL     1     -12.345  11.844  70.655  1.00  0.00    -0.405 C  
ENDROOT
BRANCH   1   3
HETATM    3  C   UNL     1     -12.101  11.763  68.113  1.00  0.00     0.030 C  
BRANCH   3   4
HETATM    4  N   UNL     1     -11.755  12.961  67.395  1.00  0.00    -0.362 NA 
HETATM    5  C   UNL     1     -12.015  13.122  66.069  1.00  0.00    -0.433 A  
HETATM    6  N   UNL     1     -12.333  13.975  63.573  1.00  0.00    -0.750 NA 
HETATM    7  C   UNL     1     -11.294  14.152  67.880  1.00  0.00    -0.294 A  
HETATM    8  N   UNL     1     -11.522  16.138  64.056  1.00  0.00    -1.425 NA 
HETATM    9  N   UNL     1     -12.518  12.212  65.220  1.00  0.00    -0.443 NA 
HETATM   10  C   UNL     1     -11.847  14.854  64.478  1.00  0.00    -0.396 A  
HETATM   11  N   UNL     1     -11.196  15.058  66.934  1.00  0.00    -0.336 NA 
HETATM   12  C   UNL     1     -12.648  12.729  63.990  1.00  0.00    -0.291 A  
HETATM   13  C   UNL     1     -11.667  14.430  65.800  1.00  0.00    -0.362 A  
HETATM   14  H1  UNL     1     -11.654  16.447  63.093  1.00  0.00     0.000 HD 
HETATM   15  H2  UNL     1     -10.547  16.306  64.303  1.00  0.00     0.000 HD 
ENDBRANCH   3   4
ENDBRANCH   1   3
BRANCH   1  16
HETATM   16  O   UNL     1     -10.822  10.275  69.640  1.00  0.00    -0.234 OA 
BRANCH  16  17
HETATM   17  C   UNL     1     -10.754   9.778  70.999  1.00  0.00    -0.272 C  
HETATM   18  O   UNL     1     -12.818   8.624  71.376  1.00  0.00    -0.314 OA 
HETATM   19  O   UNL     1     -11.139   7.727  69.579  1.00  0.00    -0.142 OA 
HETATM   20  P   UNL     1     -11.405   8.077  71.167  1.00  0.00    -0.271 P  
HETATM   21  O   UNL     1     -12.020   6.467  71.327  1.00  0.00    -0.336 OA 
BRANCH  19  22
HETATM   22  C   UNL     1      -9.936   7.100  69.190  1.00  0.00    -0.168 C  
BRANCH  22  23
HETATM   23  O   UNL     1      -9.561   7.444  67.851  1.00  0.00    -0.139 OA 
BRANCH  23  24
HETATM   24  C   UNL     1      -8.438   8.200  67.767  1.00  0.00    -0.132 C  
HETATM   25  O   UNL     1      -7.845   8.703  68.711  1.00  0.00    -0.102 OA 
BRANCH  24  26
HETATM   26  O   UNL     1      -8.083   8.328  66.461  1.00  0.00    -0.101 OA 
BRANCH  26  27
HETATM   27  C   UNL     1      -7.940   9.687  65.992  1.00  0.00    -0.108 C  
HETATM   28  C   UNL     1      -6.961   9.708  64.823  1.00  0.00    -0.111 C  
HETATM   29  C   UNL     1      -9.302  10.215  65.553  1.00  0.00    -0.260 C  
ENDBRANCH  26  27
ENDBRANCH  24  26
ENDBRANCH  23  24
ENDBRANCH  22  23
ENDBRANCH  19  22
BRANCH  21  30
HETATM   30  C   UNL     1     -11.610   5.844  72.525  1.00  0.00    -0.277 C  
BRANCH  30  31
HETATM   31  O   UNL     1     -10.203   5.947  72.718  1.00  0.00    -0.177 OA 
BRANCH  31  32
HETATM   32  C   UNL     1      -9.546   4.766  72.639  1.00  0.00    -0.135 C  
HETATM   33  O   UNL     1      -9.882   3.807  71.956  1.00  0.00    -0.157 OA 
BRANCH  32  34
HETATM   34  O   UNL     1      -8.425   4.856  73.396  1.00  0.00    -0.106 OA 
BRANCH  34  35
HETATM   35  C   UNL     1      -7.189   4.484  72.756  1.00  0.00    -0.081 C  
HETATM   36  C   UNL     1      -6.982   2.990  72.993  1.00  0.00    -0.038 C  
HETATM   37  C   UNL     1      -6.024   5.271  73.346  1.00  0.00    -0.031 C  
ENDBRANCH  34  35
ENDBRANCH  32  34
ENDBRANCH  31  32
ENDBRANCH  30  31
ENDBRANCH  21  30
ENDBRANCH  16  17
ENDBRANCH   1  16
TORSDOF 14
ENDMDL
MODEL      134
REMARK 921   NORMALIZED FREE ENERGY PREDICTED BY IDOCK:   -5.08 KCAL/MOL
REMARK 922        TOTAL FREE ENERGY PREDICTED BY IDOCK:  -11.07 KCAL/MOL
REMARK 923 INTER-LIGAND FREE ENERGY PREDICTED BY IDOCK:   -9.59 KCAL/MOL
REMARK 924 INTRA-LIGAND FREE ENERGY PREDICTED BY IDOCK:   -1.48 KCAL/MOL
REMARK 927      BINDING AFFINITY PREDICTED BY RF-SCORE:    0.00 PKD
ROOT
HETATM    1  C   UNL     1      -9.844  10.212  65.493  1.00  0.00    -0.298 C  
HETATM    2  C   UNL     1      -9.161  10.667  64.205  1.00  0.00    -0.245 C  
ENDROOT
BRANCH   1   3
HETATM    3  C   UNL     1     -11.265  10.738  65.653  1.00  0.00     0.367 C  
BRANCH   3   4
HETATM    4  N   UNL     1     -11.561  11.976  64.984  1.00  0.00    -0.298 NA 
HETATM    5  C   UNL     1     -11.199  13.187  65.489  1.00  0.00    -0.281 A  
HETATM    6  N   UNL     1     -10.694  15.751  65.970  1.00  0.00    -0.323 NA 
HETATM    7  C   UNL     1     -12.065  12.178  63.730  1.00  0.00    -0.525 A  
HETATM    8  N   UNL     1     -11.552  16.459  63.889  1.00  0.00    -1.602 NA 
HETATM    9  N   UNL     1     -10.627  13.438  66.677  1.00  0.00    -0.280 NA 
HETATM   10  C   UNL     1     -11.253  15.436  64.780  1.00  0.00    -0.395 A  
HETATM   11  N   UNL     1     -12.095  13.453  63.416  1.00  0.00    -0.592 NA 
HETATM   12  C   UNL     1     -10.405  14.751  66.831  1.00  0.00    -0.267 A  
HETATM   13  C   UNL     1     -11.533  14.093  64.502  1.00  0.00    -0.372 A  
HETATM   14  H1  UNL     1     -11.348  17.437  64.092  1.00  0.00     0.000 HD 
HETATM   15  H2  UNL     1     -12.544  16.392  63.663  1.00  0.00     0.000 HD 
ENDBRANCH   3   4
ENDBRANCH   1   3
BRANCH   1  16
HETATM   16  O   UNL     1      -8.978  10.523  66.604  1.00  0.00    -0.140 OA 
BRANCH  16  17
HETATM   17  C   UNL     1      -8.389   9.392  67.292  1.00  0.00    -0.125 C  
HETATM   18  O   UNL     1      -7.220  10.307  69.171  1.00  0.00    -0.067 OA 
HETATM   19  O   UNL     1      -9.825  10.530  69.029  1.00  0.00    -0.194 OA 
HETATM   20  P   UNL     1      -8.528   9.516  69.112  1.00  0.00    -0.150 P  
HETATM   21  O   UNL     1      -8.660   9.632  70.833  1.00  0.00    -0.233 OA 
BRANCH  19  22
HETATM   22  C   UNL     1     -11.133  10.002  69.084  1.00  0.00    -0.190 C  
BRANCH  22  23
HETATM   23  O   UNL     1     -12.032  10.871  69.784  1.00  0.00    -0.301 OA 
BRANCH  23  24
HETATM   24  C   UNL     1     -12.358  10.443  71.029  1.00  0.00    -0.387 C  
HETATM   25  O   UNL     1     -12.852  11.130  71.913  1.00  0.00    -0.411 OA 
BRANCH  24  26
HETATM   26  O   UNL     1     -12.030   9.129  71.150  1.00  0.00    -0.288 OA 
BRANCH  26  27
HETATM   27  C   UNL     1     -12.809   8.385  72.113  1.00  0.00    -0.346 C  
HETATM   28  C   UNL     1     -14.275   8.413  71.694  1.00  0.00    -0.516 C  
HETATM   29  C   UNL     1     -12.301   6.948  72.170  1.00  0.00    -0.227 C  
ENDBRANCH  26  27
ENDBRANCH  24  26
ENDBRANCH  23  24
ENDBRANCH  22  23
ENDBRANCH  19  22
BRANCH  21  30
HETATM   30  C   UNL     1      -8.453   8.395  71.481  1.00  0.00    -0.157 C  
BRANCH  30  31
HETATM   31  O   UNL     1      -9.206   7.350  70.872  1.00  0.00    -0.154 OA 
BRANCH  31  32
HETATM   32  C   UNL     1      -8.836   6.107  71.258  1.00  0.00    -0.136 C  
HETATM   33  O   UNL     1      -8.453   5.790  72.377  1.00  0.00    -0.118 OA 
BRANCH  32  34
HETATM   34  O   UNL     1      -9.023   5.268  70.209  1.00  0.00    -0.122 OA 
BRANCH  34  35
HETATM   35  C   UNL     1      -7.847   4.913  69.456  1.00  0.00    -0.067 C  
HETATM   36  C   UNL     1      -7.810   5.803  68.217  1.00  0.00    -0.100 C  
HETATM   37  C   UNL     1      -7.900   3.446  69.042  1.00  0.00    -0.053 C  
ENDBRANCH  34  35
ENDBRANCH  32  34
ENDBRANCH  31  32
ENDBRANCH  30  31
ENDBRANCH  21  30
ENDBRANCH  16  17
ENDBRANCH   1  16
TORSDOF 14
ENDMDL
MODEL      135
REMARK 921   NORMALIZED FREE ENERGY PREDICTED BY IDOCK:   -5.07 KCAL/MOL
REMARK 922        TOTAL FREE ENERGY PREDICTED BY IDOCK:  -11.06 KCAL/MOL
REMARK 923 INTER-LIGAND FREE ENERGY PREDICTED BY IDOCK:   -9.27 KCAL/MOL
REMARK 924 INTRA-LIGAND FREE ENERGY PREDICTED BY IDOCK:   -1.79 KCAL/MOL
REMARK 927      BINDING AFFINITY PREDICTED BY RF-SCORE:    0.00 PKD
ROOT
HETATM    1  C   UNL     1      -8.680   9.869  67.593  1.00  0.00    -0.121 C  
HETATM    2  C   UNL     1      -9.994   9.422  66.956  1.00  0.00    -0.282 C  
ENDROOT
BRANCH   1   3
HETATM    3  C   UNL     1      -8.509   9.410  69.035  1.00  0.00    -0.129 C  
BRANCH   3   4
HETATM    4  N   UNL     1      -9.720   9.125  69.757  1.00  0.00    -0.173 NA 
HETATM    5  C   UNL     1     -10.143   7.856  70.009  1.00  0.00    -0.199 A  
HETATM    6  N   UNL     1     -11.375   5.645  70.816  1.00  0.00    -0.037 NA 
HETATM    7  C   UNL     1     -10.541   9.983  70.434  1.00  0.00    -0.280 A  
HETATM    8  N   UNL     1     -13.000   6.827  72.052  1.00  0.00    -0.546 NA 
HETATM    9  N   UNL     1      -9.595   6.711  69.571  1.00  0.00    -0.147 NA 
HETATM   10  C   UNL     1     -11.871   6.828  71.241  1.00  0.00    -0.348 A  
HETATM   11  N   UNL     1     -11.496   9.343  71.070  1.00  0.00    -0.305 NA 
HETATM   12  C   UNL     1     -10.276   5.651  70.029  1.00  0.00    -0.252 A  
HETATM   13  C   UNL     1     -11.243   8.009  70.829  1.00  0.00    -0.265 A  
HETATM   14  H1  UNL     1     -13.457   5.967  72.352  1.00  0.00     0.000 HD 
HETATM   15  H2  UNL     1     -13.704   7.409  71.599  1.00  0.00     0.000 HD 
ENDBRANCH   3   4
ENDBRANCH   1   3
BRANCH   1  16
HETATM   16  O   UNL     1      -8.548  11.296  67.416  1.00  0.00    -0.132 OA 
BRANCH  16  17
HETATM   17  C   UNL     1      -7.802  12.001  68.438  1.00  0.00    -0.147 C  
HETATM   18  O   UNL     1      -6.102  13.225  67.277  1.00  0.00    -0.328 OA 
HETATM   19  O   UNL     1      -8.624  13.806  66.875  1.00  0.00    -0.196 OA 
HETATM   20  P   UNL     1      -7.383  13.715  67.956  1.00  0.00    -0.173 P  
HETATM   21  O   UNL     1      -6.987  15.337  67.501  1.00  0.00    -0.171 OA 
BRANCH  19  22
HETATM   22  C   UNL     1      -9.864  14.348  67.274  1.00  0.00    -0.247 C  
BRANCH  22  23
HETATM   23  O   UNL     1     -10.957  13.482  66.947  1.00  0.00    -0.283 OA 
BRANCH  23  24
HETATM   24  C   UNL     1     -11.489  12.835  68.014  1.00  0.00    -0.318 C  
HETATM   25  O   UNL     1     -12.124  11.790  67.971  1.00  0.00    -0.572 OA 
BRANCH  24  26
HETATM   26  O   UNL     1     -11.223  13.544  69.143  1.00  0.00    -0.260 OA 
BRANCH  26  27
HETATM   27  C   UNL     1     -12.373  14.135  69.786  1.00  0.00    -0.299 C  
HETATM   28  C   UNL     1     -12.653  13.391  71.087  1.00  0.00    -0.430 C  
HETATM   29  C   UNL     1     -12.092  15.608  70.067  1.00  0.00    -0.379 C  
ENDBRANCH  26  27
ENDBRANCH  24  26
ENDBRANCH  23  24
ENDBRANCH  22  23
ENDBRANCH  19  22
BRANCH  21  30
HETATM   30  C   UNL     1      -6.619  16.138  68.603  1.00  0.00    -0.126 C  
BRANCH  30  31
HETATM   31  O   UNL     1      -7.633  17.084  68.928  1.00  0.00    -0.236 OA 
BRANCH  31  32
HETATM   32  C   UNL     1      -7.347  18.352  68.551  1.00  0.00    -0.287 C  
HETATM   33  O   UNL     1      -6.612  19.127  69.149  1.00  0.00    -0.279 OA 
BRANCH  32  34
HETATM   34  O   UNL     1      -7.967  18.589  67.368  1.00  0.00    -0.236 OA 
BRANCH  34  35
HETATM   35  C   UNL     1      -8.223  19.971  67.046  1.00  0.00    -0.321 C  
HETATM   36  C   UNL     1      -9.647  20.059  66.504  1.00  0.00    -0.539 C  
HETATM   37  C   UNL     1      -7.234  20.465  65.995  1.00  0.00    -0.225 C  
ENDBRANCH  34  35
ENDBRANCH  32  34
ENDBRANCH  31  32
ENDBRANCH  30  31
ENDBRANCH  21  30
ENDBRANCH  16  17
ENDBRANCH   1  16
TORSDOF 14
ENDMDL
MODEL      136
REMARK 921   NORMALIZED FREE ENERGY PREDICTED BY IDOCK:   -5.07 KCAL/MOL
REMARK 922        TOTAL FREE ENERGY PREDICTED BY IDOCK:  -11.06 KCAL/MOL
REMARK 923 INTER-LIGAND FREE ENERGY PREDICTED BY IDOCK:   -9.39 KCAL/MOL
REMARK 924 INTRA-LIGAND FREE ENERGY PREDICTED BY IDOCK:   -1.67 KCAL/MOL
REMARK 927      BINDING AFFINITY PREDICTED BY RF-SCORE:    0.00 PKD
ROOT
HETATM    1  C   UNL     1      -9.227  10.826  64.281  1.00  0.00    -0.218 C  
HETATM    2  C   UNL     1      -9.352  10.851  62.759  1.00  0.00    -0.366 C  
ENDROOT
BRANCH   1   3
HETATM    3  C   UNL     1      -9.406   9.441  64.888  1.00  0.00    -0.150 C  
BRANCH   3   4
HETATM    4  N   UNL     1      -8.511   9.099  65.961  1.00  0.00    -0.126 NA 
HETATM    5  C   UNL     1      -8.644   7.960  66.693  1.00  0.00    -0.135 A  
HETATM    6  N   UNL     1      -8.403   5.904  68.358  1.00  0.00    -0.111 NA 
HETATM    7  C   UNL     1      -7.339   9.699  66.327  1.00  0.00    -0.094 A  
HETATM    8  N   UNL     1      -6.371   6.690  69.264  1.00  0.00    -0.034 NA 
HETATM    9  N   UNL     1      -9.632   7.054  66.621  1.00  0.00    -0.174 NA 
HETATM   10  C   UNL     1      -7.427   6.839  68.373  1.00  0.00    -0.095 A  
HETATM   11  N   UNL     1      -6.733   9.038  67.287  1.00  0.00    -0.069 NA 
HETATM   12  C   UNL     1      -9.426   6.054  67.489  1.00  0.00    -0.112 A  
HETATM   13  C   UNL     1      -7.530   7.935  67.508  1.00  0.00    -0.093 A  
HETATM   14  H1  UNL     1      -6.296   5.891  69.894  1.00  0.00     0.000 HD 
HETATM   15  H2  UNL     1      -6.325   7.535  69.832  1.00  0.00     0.000 HD 
ENDBRANCH   3   4
ENDBRANCH   1   3
BRANCH   1  16
HETATM   16  O   UNL     1     -10.115  11.823  64.829  1.00  0.00    -0.250 OA 
BRANCH  16  17
HETATM   17  C   UNL     1     -11.013  11.375  65.874  1.00  0.00    -0.207 C  
HETATM   18  O   UNL     1      -9.769  11.530  67.914  1.00  0.00    -0.173 OA 
HETATM   19  O   UNL     1     -10.327  13.704  66.565  1.00  0.00    -0.273 OA 
HETATM   20  P   UNL     1     -10.912  12.400  67.386  1.00  0.00    -0.285 P  
HETATM   21  O   UNL     1     -10.817  13.370  68.815  1.00  0.00    -0.245 OA 
BRANCH  19  22
HETATM   22  C   UNL     1     -11.216  14.695  66.097  1.00  0.00    -0.341 C  
BRANCH  22  23
HETATM   23  O   UNL     1     -10.738  16.017  66.373  1.00  0.00    -0.301 OA 
BRANCH  23  24
HETATM   24  C   UNL     1     -10.795  16.859  65.310  1.00  0.00    -0.104 C  
HETATM   25  O   UNL     1     -11.396  16.649  64.265  1.00  0.00    -1.116 OA 
BRANCH  24  26
HETATM   26  O   UNL     1     -10.059  17.970  65.581  1.00  0.00    -0.551 OA 
BRANCH  26  27
HETATM   27  C   UNL     1     -10.480  18.720  66.741  1.00  0.00    -0.420 C  
HETATM   28  C   UNL     1      -9.517  18.441  67.890  1.00  0.00    -0.299 C  
HETATM   29  C   UNL     1     -10.487  20.207  66.404  1.00  0.00    -0.443 C  
ENDBRANCH  26  27
ENDBRANCH  24  26
ENDBRANCH  23  24
ENDBRANCH  22  23
ENDBRANCH  19  22
BRANCH  21  30
HETATM   30  C   UNL     1     -11.929  13.196  69.667  1.00  0.00    -0.306 C  
BRANCH  30  31
HETATM   31  O   UNL     1     -12.374  11.843  69.683  1.00  0.00    -0.176 OA 
BRANCH  31  32
HETATM   32  C   UNL     1     -12.399  11.284  70.915  1.00  0.00    -0.388 C  
HETATM   33  O   UNL     1     -13.261  11.465  71.764  1.00  0.00    -0.458 OA 
BRANCH  32  34
HETATM   34  O   UNL     1     -11.338  10.445  71.018  1.00  0.00    -0.306 OA 
BRANCH  34  35
HETATM   35  C   UNL     1     -11.613   9.042  70.842  1.00  0.00    -0.290 C  
HETATM   36  C   UNL     1     -11.635   8.402  72.228  1.00  0.00    -0.453 C  
HETATM   37  C   UNL     1     -10.533   8.390  69.985  1.00  0.00    -0.224 C  
ENDBRANCH  34  35
ENDBRANCH  32  34
ENDBRANCH  31  32
ENDBRANCH  30  31
ENDBRANCH  21  30
ENDBRANCH  16  17
ENDBRANCH   1  16
TORSDOF 14
ENDMDL
MODEL      137
REMARK 921   NORMALIZED FREE ENERGY PREDICTED BY IDOCK:   -5.07 KCAL/MOL
REMARK 922        TOTAL FREE ENERGY PREDICTED BY IDOCK:  -11.05 KCAL/MOL
REMARK 923 INTER-LIGAND FREE ENERGY PREDICTED BY IDOCK:   -9.95 KCAL/MOL
REMARK 924 INTRA-LIGAND FREE ENERGY PREDICTED BY IDOCK:   -1.11 KCAL/MOL
REMARK 927      BINDING AFFINITY PREDICTED BY RF-SCORE:    0.00 PKD
ROOT
HETATM    1  C   UNL     1     -10.227  10.781  68.248  1.00  0.00    -0.167 C  
HETATM    2  C   UNL     1     -10.846   9.492  67.712  1.00  0.00    -0.258 C  
ENDROOT
BRANCH   1   3
HETATM    3  C   UNL     1     -10.773  11.207  69.605  1.00  0.00    -0.089 C  
BRANCH   3   4
HETATM    4  N   UNL     1     -11.181  10.145  70.485  1.00  0.00    -0.317 NA 
HETATM    5  C   UNL     1     -10.290   9.373  71.164  1.00  0.00    -0.307 A  
HETATM    6  N   UNL     1      -9.025   7.647  72.740  1.00  0.00    -0.147 NA 
HETATM    7  C   UNL     1     -12.435   9.824  70.924  1.00  0.00    -0.277 A  
HETATM    8  N   UNL     1     -11.025   6.814  73.675  1.00  0.00    -0.509 NA 
HETATM    9  N   UNL     1      -8.951   9.393  71.067  1.00  0.00    -0.262 NA 
HETATM   10  C   UNL     1     -10.375   7.685  72.809  1.00  0.00    -0.295 A  
HETATM   11  N   UNL     1     -12.407   8.857  71.813  1.00  0.00    -0.333 NA 
HETATM   12  C   UNL     1      -8.399   8.497  71.898  1.00  0.00    -0.156 A  
HETATM   13  C   UNL     1     -11.067   8.582  71.988  1.00  0.00    -0.342 A  
HETATM   14  H1  UNL     1     -10.521   6.160  74.274  1.00  0.00     0.000 HD 
HETATM   15  H2  UNL     1     -11.694   6.275  73.126  1.00  0.00     0.000 HD 
ENDBRANCH   3   4
ENDBRANCH   1   3
BRANCH   1  16
HETATM   16  O   UNL     1     -10.336  11.799  67.230  1.00  0.00    -0.201 OA 
BRANCH  16  17
HETATM   17  C   UNL     1      -9.431  12.923  67.350  1.00  0.00    -0.198 C  
HETATM   18  O   UNL     1      -9.904  14.344  65.481  1.00  0.00    -0.324 OA 
HETATM   19  O   UNL     1     -11.737  13.950  67.309  1.00  0.00    -0.342 OA 
HETATM   20  P   UNL     1     -10.231  14.523  66.965  1.00  0.00    -0.268 P  
HETATM   21  O   UNL     1     -10.987  16.036  66.602  1.00  0.00    -0.234 OA 
BRANCH  19  22
HETATM   22  C   UNL     1     -12.277  14.127  68.600  1.00  0.00    -0.181 C  
BRANCH  22  23
HETATM   23  O   UNL     1     -12.159  15.482  69.049  1.00  0.00    -0.319 OA 
BRANCH  23  24
HETATM   24  C   UNL     1     -11.752  15.605  70.338  1.00  0.00    -0.357 C  
HETATM   25  O   UNL     1     -10.591  15.696  70.714  1.00  0.00    -0.255 OA 
BRANCH  24  26
HETATM   26  O   UNL     1     -12.840  15.590  71.153  1.00  0.00    -0.433 OA 
BRANCH  26  27
HETATM   27  C   UNL     1     -12.662  14.893  72.406  1.00  0.00    -0.344 C  
HETATM   28  C   UNL     1     -12.972  15.849  73.553  1.00  0.00    -0.707 C  
HETATM   29  C   UNL     1     -13.598  13.690  72.451  1.00  0.00    -0.703 C  
ENDBRANCH  26  27
ENDBRANCH  24  26
ENDBRANCH  23  24
ENDBRANCH  22  23
ENDBRANCH  19  22
BRANCH  21  30
HETATM   30  C   UNL     1     -10.252  17.142  67.081  1.00  0.00    -0.316 C  
BRANCH  30  31
HETATM   31  O   UNL     1      -8.896  17.102  66.647  1.00  0.00    -0.227 OA 
BRANCH  31  32
HETATM   32  C   UNL     1      -8.020  17.655  67.517  1.00  0.00    -0.203 C  
HETATM   33  O   UNL     1      -8.233  18.637  68.218  1.00  0.00    -0.302 OA 
BRANCH  32  34
HETATM   34  O   UNL     1      -6.894  16.899  67.521  1.00  0.00    -0.132 OA 
BRANCH  34  35
HETATM   35  C   UNL     1      -6.438  16.438  68.808  1.00  0.00    -0.142 C  
HETATM   36  C   UNL     1      -5.165  15.628  68.579  1.00  0.00    -0.097 C  
HETATM   37  C   UNL     1      -7.499  15.565  69.469  1.00  0.00    -0.200 C  
ENDBRANCH  34  35
ENDBRANCH  32  34
ENDBRANCH  31  32
ENDBRANCH  30  31
ENDBRANCH  21  30
ENDBRANCH  16  17
ENDBRANCH   1  16
TORSDOF 14
ENDMDL
MODEL      138
REMARK 921   NORMALIZED FREE ENERGY PREDICTED BY IDOCK:   -5.06 KCAL/MOL
REMARK 922        TOTAL FREE ENERGY PREDICTED BY IDOCK:  -11.04 KCAL/MOL
REMARK 923 INTER-LIGAND FREE ENERGY PREDICTED BY IDOCK:   -9.46 KCAL/MOL
REMARK 924 INTRA-LIGAND FREE ENERGY PREDICTED BY IDOCK:   -1.58 KCAL/MOL
REMARK 927      BINDING AFFINITY PREDICTED BY RF-SCORE:    0.00 PKD
ROOT
HETATM    1  C   UNL     1      -7.878   8.430  69.048  1.00  0.00    -0.102 C  
HETATM    2  C   UNL     1      -6.480   8.121  68.516  1.00  0.00    -0.054 C  
ENDROOT
BRANCH   1   3
HETATM    3  C   UNL     1      -8.715   7.190  69.331  1.00  0.00    -0.134 C  
BRANCH   3   4
HETATM    4  N   UNL     1      -9.574   6.750  68.265  1.00  0.00    -0.127 NA 
HETATM    5  C   UNL     1      -9.226   5.752  67.408  1.00  0.00    -0.109 A  
HETATM    6  N   UNL     1      -9.088   3.868  65.538  1.00  0.00    -0.136 NA 
HETATM    7  C   UNL     1     -10.875   7.084  68.013  1.00  0.00    -0.163 A  
HETATM    8  N   UNL     1     -11.302   4.229  64.806  1.00  0.00    -1.022 NA 
HETATM    9  N   UNL     1      -8.052   5.106  67.340  1.00  0.00    -0.100 NA 
HETATM   10  C   UNL     1     -10.254   4.539  65.665  1.00  0.00    -0.253 A  
HETATM   11  N   UNL     1     -11.371   6.393  67.012  1.00  0.00    -0.198 NA 
HETATM   12  C   UNL     1      -8.074   4.174  66.377  1.00  0.00    -0.098 A  
HETATM   13  C   UNL     1     -10.354   5.539  66.640  1.00  0.00    -0.269 A  
HETATM   14  H1  UNL     1     -11.229   3.500  64.097  1.00  0.00     0.000 HD 
HETATM   15  H2  UNL     1     -11.582   5.089  64.337  1.00  0.00     0.000 HD 
ENDBRANCH   3   4
ENDBRANCH   1   3
BRANCH   1  16
HETATM   16  O   UNL     1      -8.510   9.370  68.153  1.00  0.00    -0.119 OA 
BRANCH  16  17
HETATM   17  C   UNL     1      -8.357  10.772  68.486  1.00  0.00    -0.138 C  
HETATM   18  O   UNL     1      -8.910  11.980  66.493  1.00  0.00    -0.205 OA 
HETATM   19  O   UNL     1     -10.745  10.550  67.696  1.00  0.00    -0.232 OA 
HETATM   20  P   UNL     1      -9.694  11.815  67.797  1.00  0.00    -0.193 P  
HETATM   21  O   UNL     1     -10.957  12.802  67.147  1.00  0.00    -0.251 OA 
BRANCH  19  22
HETATM   22  C   UNL     1     -11.647  10.301  68.752  1.00  0.00    -0.050 C  
BRANCH  22  23
HETATM   23  O   UNL     1     -11.202  10.880  69.984  1.00  0.00    -0.281 OA 
BRANCH  23  24
HETATM   24  C   UNL     1     -11.258  10.036  71.045  1.00  0.00    -0.314 C  
HETATM   25  O   UNL     1     -10.299   9.490  71.574  1.00  0.00    -0.278 OA 
BRANCH  24  26
HETATM   26  O   UNL     1     -12.555   9.874  71.418  1.00  0.00    -0.337 OA 
BRANCH  26  27
HETATM   27  C   UNL     1     -12.848   8.639  72.108  1.00  0.00    -0.391 C  
HETATM   28  C   UNL     1     -14.340   8.587  72.422  1.00  0.00    -0.412 C  
HETATM   29  C   UNL     1     -12.452   7.461  71.223  1.00  0.00    -0.381 C  
ENDBRANCH  26  27
ENDBRANCH  24  26
ENDBRANCH  23  24
ENDBRANCH  22  23
ENDBRANCH  19  22
BRANCH  21  30
HETATM   30  C   UNL     1     -11.038  14.065  67.771  1.00  0.00    -0.267 C  
BRANCH  30  31
HETATM   31  O   UNL     1     -12.015  14.078  68.808  1.00  0.00    -0.338 OA 
BRANCH  31  32
HETATM   32  C   UNL     1     -11.993  15.194  69.573  1.00  0.00    -0.321 C  
HETATM   33  O   UNL     1     -11.309  16.188  69.367  1.00  0.00    -0.328 OA 
BRANCH  32  34
HETATM   34  O   UNL     1     -12.904  15.041  70.567  1.00  0.00    -0.357 OA 
BRANCH  34  35
HETATM   35  C   UNL     1     -12.466  14.307  71.727  1.00  0.00    -0.316 C  
HETATM   36  C   UNL     1     -13.641  13.455  72.200  1.00  0.00    -0.660 C  
HETATM   37  C   UNL     1     -12.040  15.265  72.835  1.00  0.00    -0.522 C  
ENDBRANCH  34  35
ENDBRANCH  32  34
ENDBRANCH  31  32
ENDBRANCH  30  31
ENDBRANCH  21  30
ENDBRANCH  16  17
ENDBRANCH   1  16
TORSDOF 14
ENDMDL
MODEL      139
REMARK 921   NORMALIZED FREE ENERGY PREDICTED BY IDOCK:   -5.06 KCAL/MOL
REMARK 922        TOTAL FREE ENERGY PREDICTED BY IDOCK:  -11.04 KCAL/MOL
REMARK 923 INTER-LIGAND FREE ENERGY PREDICTED BY IDOCK:   -9.42 KCAL/MOL
REMARK 924 INTRA-LIGAND FREE ENERGY PREDICTED BY IDOCK:   -1.62 KCAL/MOL
REMARK 927      BINDING AFFINITY PREDICTED BY RF-SCORE:    0.00 PKD
ROOT
HETATM    1  C   UNL     1      -9.866   8.677  68.332  1.00  0.00    -0.172 C  
HETATM    2  C   UNL     1     -10.601   7.934  67.219  1.00  0.00    -0.365 C  
ENDROOT
BRANCH   1   3
HETATM    3  C   UNL     1     -10.750   9.031  69.521  1.00  0.00    -0.206 C  
BRANCH   3   4
HETATM    4  N   UNL     1     -10.952   7.990  70.492  1.00  0.00    -0.246 NA 
HETATM    5  C   UNL     1     -10.253   7.929  71.658  1.00  0.00    -0.192 A  
HETATM    6  N   UNL     1      -9.247   7.372  74.054  1.00  0.00    -0.251 NA 
HETATM    7  C   UNL     1     -11.920   7.027  70.533  1.00  0.00    -0.266 A  
HETATM    8  N   UNL     1     -10.747   5.590  74.429  1.00  0.00    -0.405 NA 
HETATM    9  N   UNL     1      -9.240   8.721  72.046  1.00  0.00    -0.349 NA 
HETATM   10  C   UNL     1     -10.282   6.619  73.619  1.00  0.00    -0.302 A  
HETATM   11  N   UNL     1     -11.856   6.317  71.637  1.00  0.00    -0.296 NA 
HETATM   12  C   UNL     1      -8.801   8.372  73.263  1.00  0.00    -0.126 A  
HETATM   13  C   UNL     1     -10.830   6.889  72.360  1.00  0.00    -0.235 A  
HETATM   14  H1  UNL     1     -10.349   5.394  75.347  1.00  0.00     0.000 HD 
HETATM   15  H2  UNL     1     -10.708   4.728  73.886  1.00  0.00     0.000 HD 
ENDBRANCH   3   4
ENDBRANCH   1   3
BRANCH   1  16
HETATM   16  O   UNL     1      -9.184   9.810  67.753  1.00  0.00    -0.131 OA 
BRANCH  16  17
HETATM   17  C   UNL     1      -8.599  10.750  68.688  1.00  0.00    -0.151 C  
HETATM   18  O   UNL     1      -7.356  12.305  67.357  1.00  0.00    -0.131 OA 
HETATM   19  O   UNL     1      -9.959  12.171  67.106  1.00  0.00    -0.199 OA 
HETATM   20  P   UNL     1      -8.682  12.480  68.100  1.00  0.00    -0.154 P  
HETATM   21  O   UNL     1      -8.761  14.117  67.545  1.00  0.00    -0.181 OA 
BRANCH  19  22
HETATM   22  C   UNL     1     -11.276  12.390  67.565  1.00  0.00    -0.294 C  
BRANCH  22  23
HETATM   23  O   UNL     1     -11.299  12.866  68.916  1.00  0.00    -0.254 OA 
BRANCH  23  24
HETATM   24  C   UNL     1     -12.016  14.005  69.088  1.00  0.00    -0.360 C  
HETATM   25  O   UNL     1     -12.029  14.962  68.325  1.00  0.00    -0.299 OA 
BRANCH  24  26
HETATM   26  O   UNL     1     -12.705  13.926  70.257  1.00  0.00    -0.296 OA 
BRANCH  26  27
HETATM   27  C   UNL     1     -12.991  15.193  70.891  1.00  0.00    -0.429 C  
HETATM   28  C   UNL     1     -14.304  15.079  71.658  1.00  0.00    -0.680 C  
HETATM   29  C   UNL     1     -11.852  15.550  71.841  1.00  0.00    -0.514 C  
ENDBRANCH  26  27
ENDBRANCH  24  26
ENDBRANCH  23  24
ENDBRANCH  22  23
ENDBRANCH  19  22
BRANCH  21  30
HETATM   30  C   UNL     1      -8.562  15.054  68.582  1.00  0.00    -0.174 C  
BRANCH  30  31
HETATM   31  O   UNL     1      -8.302  16.358  68.070  1.00  0.00    -0.172 OA 
BRANCH  31  32
HETATM   32  C   UNL     1      -7.124  16.886  68.475  1.00  0.00    -0.198 C  
HETATM   33  O   UNL     1      -6.348  16.375  69.273  1.00  0.00    -0.161 OA 
BRANCH  32  34
HETATM   34  O   UNL     1      -6.926  18.045  67.799  1.00  0.00    -0.202 OA 
BRANCH  34  35
HETATM   35  C   UNL     1      -7.339  19.253  68.467  1.00  0.00    -0.320 C  
HETATM   36  C   UNL     1      -7.799  20.235  67.393  1.00  0.00    -0.361 C  
HETATM   37  C   UNL     1      -6.178  19.850  69.255  1.00  0.00    -0.352 C  
ENDBRANCH  34  35
ENDBRANCH  32  34
ENDBRANCH  31  32
ENDBRANCH  30  31
ENDBRANCH  21  30
ENDBRANCH  16  17
ENDBRANCH   1  16
TORSDOF 14
ENDMDL
MODEL      140
REMARK 921   NORMALIZED FREE ENERGY PREDICTED BY IDOCK:   -5.04 KCAL/MOL
REMARK 922        TOTAL FREE ENERGY PREDICTED BY IDOCK:  -11.01 KCAL/MOL
REMARK 923 INTER-LIGAND FREE ENERGY PREDICTED BY IDOCK:   -9.33 KCAL/MOL
REMARK 924 INTRA-LIGAND FREE ENERGY PREDICTED BY IDOCK:   -1.68 KCAL/MOL
REMARK 927      BINDING AFFINITY PREDICTED BY RF-SCORE:    0.00 PKD
ROOT
HETATM    1  C   UNL     1     -11.565  12.069  67.498  1.00  0.00    -0.330 C  
HETATM    2  C   UNL     1     -11.882  12.712  66.150  1.00  0.00    -0.477 C  
ENDROOT
BRANCH   1   3
HETATM    3  C   UNL     1     -10.807  12.983  68.452  1.00  0.00    -0.258 C  
BRANCH   3   4
HETATM    4  N   UNL     1     -11.605  13.908  69.210  1.00  0.00    -0.288 NA 
HETATM    5  C   UNL     1     -12.274  13.546  70.339  1.00  0.00    -0.356 A  
HETATM    6  N   UNL     1     -13.695  13.407  72.579  1.00  0.00    -0.698 NA 
HETATM    7  C   UNL     1     -11.714  15.264  69.074  1.00  0.00    -0.347 A  
HETATM    8  N   UNL     1     -14.129  15.726  72.620  1.00  0.00    -0.531 NA 
HETATM    9  N   UNL     1     -12.386  12.316  70.862  1.00  0.00    -0.347 NA 
HETATM   10  C   UNL     1     -13.532  14.625  72.017  1.00  0.00    -0.380 A  
HETATM   11  N   UNL     1     -12.453  15.791  70.023  1.00  0.00    -0.263 NA 
HETATM   12  C   UNL     1     -13.112  12.341  71.989  1.00  0.00    -0.355 A  
HETATM   13  C   UNL     1     -12.790  14.727  70.834  1.00  0.00    -0.362 A  
HETATM   14  H1  UNL     1     -14.669  15.651  73.482  1.00  0.00     0.000 HD 
HETATM   15  H2  UNL     1     -14.721  16.177  71.923  1.00  0.00     0.000 HD 
ENDBRANCH   3   4
ENDBRANCH   1   3
BRANCH   1  16
HETATM   16  O   UNL     1     -10.911  10.804  67.259  1.00  0.00    -0.290 OA 
BRANCH  16  17
HETATM   17  C   UNL     1      -9.678  10.574  67.983  1.00  0.00    -0.147 C  
HETATM   18  O   UNL     1     -10.322   9.633  70.088  1.00  0.00    -0.229 OA 
HETATM   19  O   UNL     1     -10.797   8.314  67.877  1.00  0.00    -0.117 OA 
HETATM   20  P   UNL     1      -9.664   8.976  68.873  1.00  0.00    -0.172 P  
HETATM   21  O   UNL     1      -9.649   7.465  69.715  1.00  0.00    -0.163 OA 
BRANCH  19  22
HETATM   22  C   UNL     1     -10.390   7.557  66.757  1.00  0.00    -0.262 C  
BRANCH  22  23
HETATM   23  O   UNL     1     -10.926   6.228  66.786  1.00  0.00    -0.347 OA 
BRANCH  23  24
HETATM   24  C   UNL     1      -9.990   5.252  66.673  1.00  0.00    -0.202 C  
HETATM   25  O   UNL     1      -8.904   5.236  67.236  1.00  0.00    -0.108 OA 
BRANCH  24  26
HETATM   26  O   UNL     1     -10.441   4.299  65.815  1.00  0.00    -0.212 OA 
BRANCH  26  27
HETATM   27  C   UNL     1      -9.538   3.960  64.740  1.00  0.00    -0.177 C  
HETATM   28  C   UNL     1      -8.925   2.592  65.019  1.00  0.00    -0.131 C  
HETATM   29  C   UNL     1     -10.308   3.936  63.423  1.00  0.00    -0.190 C  
ENDBRANCH  26  27
ENDBRANCH  24  26
ENDBRANCH  23  24
ENDBRANCH  22  23
ENDBRANCH  19  22
BRANCH  21  30
HETATM   30  C   UNL     1      -8.349   7.060  70.087  1.00  0.00    -0.138 C  
BRANCH  30  31
HETATM   31  O   UNL     1      -8.179   7.071  71.501  1.00  0.00    -0.107 OA 
BRANCH  31  32
HETATM   32  C   UNL     1      -8.557   5.924  72.112  1.00  0.00    -0.129 C  
HETATM   33  O   UNL     1      -7.931   4.872  72.107  1.00  0.00    -0.105 OA 
BRANCH  32  34
HETATM   34  O   UNL     1      -9.715   6.162  72.777  1.00  0.00    -0.159 OA 
BRANCH  34  35
HETATM   35  C   UNL     1     -10.843   5.342  72.413  1.00  0.00    -0.241 C  
HETATM   36  C   UNL     1     -12.029   6.273  72.180  1.00  0.00    -0.338 C  
HETATM   37  C   UNL     1     -11.167   4.354  73.528  1.00  0.00    -0.375 C  
ENDBRANCH  34  35
ENDBRANCH  32  34
ENDBRANCH  31  32
ENDBRANCH  30  31
ENDBRANCH  21  30
ENDBRANCH  16  17
ENDBRANCH   1  16
TORSDOF 14
ENDMDL
MODEL      141
REMARK 921   NORMALIZED FREE ENERGY PREDICTED BY IDOCK:   -5.04 KCAL/MOL
REMARK 922        TOTAL FREE ENERGY PREDICTED BY IDOCK:  -11.00 KCAL/MOL
REMARK 923 INTER-LIGAND FREE ENERGY PREDICTED BY IDOCK:   -9.07 KCAL/MOL
REMARK 924 INTRA-LIGAND FREE ENERGY PREDICTED BY IDOCK:   -1.93 KCAL/MOL
REMARK 927      BINDING AFFINITY PREDICTED BY RF-SCORE:    0.00 PKD
ROOT
HETATM    1  C   UNL     1     -12.222   9.579  71.331  1.00  0.00    -0.371 C  
HETATM    2  C   UNL     1     -12.861   8.199  71.474  1.00  0.00    -0.319 C  
ENDROOT
BRANCH   1   3
HETATM    3  C   UNL     1     -13.156  10.632  70.751  1.00  0.00    -0.219 C  
BRANCH   3   4
HETATM    4  N   UNL     1     -13.015  11.963  71.279  1.00  0.00    -0.312 NA 
HETATM    5  C   UNL     1     -12.313  12.936  70.637  1.00  0.00    -0.302 A  
HETATM    6  N   UNL     1     -11.148  15.175  69.806  1.00  0.00    -0.264 NA 
HETATM    7  C   UNL     1     -13.643  12.535  72.350  1.00  0.00    -0.250 A  
HETATM    8  N   UNL     1     -12.026  16.461  71.578  1.00  0.00    -0.635 NA 
HETATM    9  N   UNL     1     -11.585  12.813  69.516  1.00  0.00    -0.289 NA 
HETATM   10  C   UNL     1     -11.910  15.242  70.920  1.00  0.00    -0.341 A  
HETATM   11  N   UNL     1     -13.347  13.810  72.463  1.00  0.00    -0.537 NA 
HETATM   12  C   UNL     1     -11.041  13.988  69.169  1.00  0.00    -0.259 A  
HETATM   13  C   UNL     1     -12.533  14.077  71.382  1.00  0.00    -0.356 A  
HETATM   14  H1  UNL     1     -11.573  17.310  71.242  1.00  0.00     0.000 HD 
HETATM   15  H2  UNL     1     -11.734  16.318  72.545  1.00  0.00     0.000 HD 
ENDBRANCH   3   4
ENDBRANCH   1   3
BRANCH   1  16
HETATM   16  O   UNL     1     -10.982   9.435  70.605  1.00  0.00    -0.244 OA 
BRANCH  16  17
HETATM   17  C   UNL     1     -11.063   8.750  69.331  1.00  0.00     0.067 C  
HETATM   18  O   UNL     1     -11.163  10.472  67.670  1.00  0.00    -0.326 OA 
HETATM   19  O   UNL     1      -9.017  10.218  69.149  1.00  0.00    -0.160 OA 
HETATM   20  P   UNL     1     -10.021   9.524  68.041  1.00  0.00    -0.186 P  
HETATM   21  O   UNL     1      -9.036  10.255  66.822  1.00  0.00    -0.132 OA 
BRANCH  19  22
HETATM   22  C   UNL     1      -7.834   9.554  69.537  1.00  0.00    -0.103 C  
BRANCH  22  23
HETATM   23  O   UNL     1      -7.382   9.977  70.829  1.00  0.00    -0.323 OA 
BRANCH  23  24
HETATM   24  C   UNL     1      -6.219  10.675  70.806  1.00  0.00     0.016 C  
HETATM   25  O   UNL     1      -5.140  10.279  71.227  1.00  0.00    -0.070 OA 
BRANCH  24  26
HETATM   26  O   UNL     1      -6.444  11.899  70.259  1.00  0.00    -0.129 OA 
BRANCH  26  27
HETATM   27  C   UNL     1      -5.358  12.843  70.391  1.00  0.00    -0.131 C  
HETATM   28  C   UNL     1      -5.248  13.657  69.107  1.00  0.00    -0.073 C  
HETATM   29  C   UNL     1      -5.629  13.760  71.579  1.00  0.00    -0.217 C  
ENDBRANCH  26  27
ENDBRANCH  24  26
ENDBRANCH  23  24
ENDBRANCH  22  23
ENDBRANCH  19  22
BRANCH  21  30
HETATM   30  C   UNL     1      -8.803   9.400  65.723  1.00  0.00    -0.171 C  
BRANCH  30  31
HETATM   31  O   UNL     1      -9.761   9.598  64.689  1.00  0.00    -0.202 OA 
BRANCH  31  32
HETATM   32  C   UNL     1      -9.321  10.370  63.669  1.00  0.00    -0.291 C  
HETATM   33  O   UNL     1      -8.180  10.386  63.225  1.00  0.00    -0.160 OA 
BRANCH  32  34
HETATM   34  O   UNL     1     -10.376  11.073  63.187  1.00  0.00    -0.325 OA 
BRANCH  34  35
HETATM   35  C   UNL     1     -11.159  11.796  64.157  1.00  0.00    -0.374 C  
HETATM   36  C   UNL     1     -12.524  12.070  63.531  1.00  0.00    -0.654 C  
HETATM   37  C   UNL     1     -10.479  13.113  64.517  1.00  0.00    -0.425 C  
ENDBRANCH  34  35
ENDBRANCH  32  34
ENDBRANCH  31  32
ENDBRANCH  30  31
ENDBRANCH  21  30
ENDBRANCH  16  17
ENDBRANCH   1  16
TORSDOF 14
ENDMDL
MODEL      142
REMARK 921   NORMALIZED FREE ENERGY PREDICTED BY IDOCK:   -5.01 KCAL/MOL
REMARK 922        TOTAL FREE ENERGY PREDICTED BY IDOCK:  -10.96 KCAL/MOL
REMARK 923 INTER-LIGAND FREE ENERGY PREDICTED BY IDOCK:   -9.86 KCAL/MOL
REMARK 924 INTRA-LIGAND FREE ENERGY PREDICTED BY IDOCK:   -1.10 KCAL/MOL
REMARK 927      BINDING AFFINITY PREDICTED BY RF-SCORE:    0.00 PKD
ROOT
HETATM    1  C   UNL     1      -8.544  11.680  68.712  1.00  0.00    -0.019 C  
HETATM    2  C   UNL     1      -7.245  10.992  68.297  1.00  0.00    -0.085 C  
ENDROOT
BRANCH   1   3
HETATM    3  C   UNL     1      -9.795  10.871  68.396  1.00  0.00    -0.177 C  
BRANCH   3   4
HETATM    4  N   UNL     1     -10.162  10.790  67.008  1.00  0.00    -0.208 NA 
HETATM    5  C   UNL     1     -11.040  11.653  66.430  1.00  0.00    -0.291 A  
HETATM    6  N   UNL     1     -12.604  13.067  64.812  1.00  0.00    -0.650 NA 
HETATM    7  C   UNL     1      -9.627  10.011  66.021  1.00  0.00    -0.222 A  
HETATM    8  N   UNL     1     -11.937  11.875  62.888  1.00  0.00    -0.651 NA 
HETATM    9  N   UNL     1     -11.756  12.616  67.032  1.00  0.00    -0.363 NA 
HETATM   10  C   UNL     1     -11.845  12.096  64.257  1.00  0.00    -0.378 A  
HETATM   11  N   UNL     1     -10.144  10.291  64.846  1.00  0.00    -0.326 NA 
HETATM   12  C   UNL     1     -12.509  13.278  66.143  1.00  0.00    -0.268 A  
HETATM   13  C   UNL     1     -11.014  11.334  65.087  1.00  0.00    -0.146 A  
HETATM   14  H1  UNL     1     -12.541  12.430  62.284  1.00  0.00     0.000 HD 
HETATM   15  H2  UNL     1     -12.179  10.894  62.750  1.00  0.00     0.000 HD 
ENDBRANCH   3   4
ENDBRANCH   1   3
BRANCH   1  16
HETATM   16  O   UNL     1      -8.554  13.012  68.156  1.00  0.00    -0.176 OA 
BRANCH  16  17
HETATM   17  C   UNL     1      -7.316  13.757  68.260  1.00  0.00    -0.118 C  
HETATM   18  O   UNL     1      -7.379  15.376  66.497  1.00  0.00     0.050 OA 
HETATM   19  O   UNL     1      -9.136  15.498  68.435  1.00  0.00    -0.182 OA 
HETATM   20  P   UNL     1      -7.545  15.555  68.007  1.00  0.00    -0.145 P  
HETATM   21  O   UNL     1      -7.762  17.255  67.769  1.00  0.00    -0.184 OA 
BRANCH  19  22
HETATM   22  C   UNL     1      -9.513  15.759  69.769  1.00  0.00    -0.102 C  
BRANCH  22  23
HETATM   23  O   UNL     1     -10.429  14.776  70.268  1.00  0.00    -0.007 OA 
BRANCH  23  24
HETATM   24  C   UNL     1     -11.718  14.983  69.900  1.00  0.00    -0.307 C  
HETATM   25  O   UNL     1     -12.091  15.409  68.815  1.00  0.00    -0.281 OA 
BRANCH  24  26
HETATM   26  O   UNL     1     -12.536  14.662  70.938  1.00  0.00    -0.293 OA 
BRANCH  26  27
HETATM   27  C   UNL     1     -12.944  15.771  71.768  1.00  0.00    -0.435 C  
HETATM   28  C   UNL     1     -14.375  15.539  72.239  1.00  0.00    -0.556 C  
HETATM   29  C   UNL     1     -12.003  15.879  72.964  1.00  0.00    -0.596 C  
ENDBRANCH  26  27
ENDBRANCH  24  26
ENDBRANCH  23  24
ENDBRANCH  22  23
ENDBRANCH  19  22
BRANCH  21  30
HETATM   30  C   UNL     1      -6.671  18.015  68.243  1.00  0.00    -0.207 C  
BRANCH  30  31
HETATM   31  O   UNL     1      -6.462  19.183  67.455  1.00  0.00    -0.193 OA 
BRANCH  31  32
HETATM   32  C   UNL     1      -7.209  19.231  66.328  1.00  0.00    -0.250 C  
HETATM   33  O   UNL     1      -7.035  18.549  65.326  1.00  0.00    -0.527 OA 
BRANCH  32  34
HETATM   34  O   UNL     1      -8.217  20.117  66.527  1.00  0.00    -0.309 OA 
BRANCH  34  35
HETATM   35  C   UNL     1      -9.534  19.559  66.702  1.00  0.00    -0.360 C  
HETATM   36  C   UNL     1     -10.419  20.119  65.592  1.00  0.00    -0.323 C  
HETATM   37  C   UNL     1     -10.100  19.944  68.064  1.00  0.00    -0.572 C  
ENDBRANCH  34  35
ENDBRANCH  32  34
ENDBRANCH  31  32
ENDBRANCH  30  31
ENDBRANCH  21  30
ENDBRANCH  16  17
ENDBRANCH   1  16
TORSDOF 14
ENDMDL
MODEL      143
REMARK 921   NORMALIZED FREE ENERGY PREDICTED BY IDOCK:   -5.01 KCAL/MOL
REMARK 922        TOTAL FREE ENERGY PREDICTED BY IDOCK:  -10.95 KCAL/MOL
REMARK 923 INTER-LIGAND FREE ENERGY PREDICTED BY IDOCK:   -9.73 KCAL/MOL
REMARK 924 INTRA-LIGAND FREE ENERGY PREDICTED BY IDOCK:   -1.22 KCAL/MOL
REMARK 927      BINDING AFFINITY PREDICTED BY RF-SCORE:    0.00 PKD
ROOT
HETATM    1  C   UNL     1      -9.094  12.614  67.746  1.00  0.00    -0.192 C  
HETATM    2  C   UNL     1      -8.164  11.434  67.471  1.00  0.00    -0.130 C  
ENDROOT
BRANCH   1   3
HETATM    3  C   UNL     1     -10.568  12.297  67.530  1.00  0.00    -0.218 C  
BRANCH   3   4
HETATM    4  N   UNL     1     -11.364  12.148  68.719  1.00  0.00    -0.264 NA 
HETATM    5  C   UNL     1     -11.470  10.967  69.387  1.00  0.00    -0.294 A  
HETATM    6  N   UNL     1     -11.971   8.979  71.077  1.00  0.00    -0.286 NA 
HETATM    7  C   UNL     1     -11.987  13.109  69.464  1.00  0.00    -0.294 A  
HETATM    8  N   UNL     1     -13.168  10.358  72.571  1.00  0.00    -0.426 NA 
HETATM    9  N   UNL     1     -10.965   9.777  69.026  1.00  0.00    -0.198 NA 
HETATM   10  C   UNL     1     -12.439  10.206  71.398  1.00  0.00    -0.423 A  
HETATM   11  N   UNL     1     -12.529  12.608  70.551  1.00  0.00    -0.247 NA 
HETATM   12  C   UNL     1     -11.261   8.838  69.936  1.00  0.00    -0.051 A  
HETATM   13  C   UNL     1     -12.192  11.271  70.524  1.00  0.00    -0.383 A  
HETATM   14  H1  UNL     1     -13.348   9.582  73.208  1.00  0.00     0.000 HD 
HETATM   15  H2  UNL     1     -14.068  10.768  72.323  1.00  0.00     0.000 HD 
ENDBRANCH   3   4
ENDBRANCH   1   3
BRANCH   1  16
HETATM   16  O   UNL     1      -8.625  13.752  66.993  1.00  0.00    -0.214 OA 
BRANCH  16  17
HETATM   17  C   UNL     1      -8.338  14.950  67.756  1.00  0.00    -0.157 C  
HETATM   18  O   UNL     1      -6.821  16.229  66.416  1.00  0.00    -0.152 OA 
HETATM   19  O   UNL     1      -9.254  15.786  65.557  1.00  0.00    -0.280 OA 
HETATM   20  P   UNL     1      -8.302  16.459  66.722  1.00  0.00    -0.311 P  
HETATM   21  O   UNL     1      -8.269  17.886  65.744  1.00  0.00    -0.530 OA 
BRANCH  19  22
HETATM   22  C   UNL     1     -10.651  15.986  65.590  1.00  0.00    -0.377 C  
BRANCH  22  23
HETATM   23  O   UNL     1     -11.370  14.797  65.243  1.00  0.00    -0.341 OA 
BRANCH  23  24
HETATM   24  C   UNL     1     -12.190  14.938  64.171  1.00  0.00    -0.255 C  
HETATM   25  O   UNL     1     -13.030  15.816  64.026  1.00  0.00    -0.442 OA 
BRANCH  24  26
HETATM   26  O   UNL     1     -11.945  13.935  63.286  1.00  0.00    -0.259 OA 
BRANCH  26  27
HETATM   27  C   UNL     1     -11.730  12.634  63.874  1.00  0.00    -0.457 C  
HETATM   28  C   UNL     1     -12.980  11.784  63.671  1.00  0.00    -0.222 C  
HETATM   29  C   UNL     1     -10.526  11.973  63.210  1.00  0.00    -0.403 C  
ENDBRANCH  26  27
ENDBRANCH  24  26
ENDBRANCH  23  24
ENDBRANCH  22  23
ENDBRANCH  19  22
BRANCH  21  30
HETATM   30  C   UNL     1      -8.381  19.070  66.505  1.00  0.00    -0.305 C  
BRANCH  30  31
HETATM   31  O   UNL     1      -7.131  19.454  67.068  1.00  0.00    -0.206 OA 
BRANCH  31  32
HETATM   32  C   UNL     1      -7.193  19.781  68.380  1.00  0.00    -0.317 C  
HETATM   33  O   UNL     1      -8.208  19.798  69.065  1.00  0.00    -0.244 OA 
BRANCH  32  34
HETATM   34  O   UNL     1      -5.932  20.024  68.814  1.00  0.00    -0.245 OA 
BRANCH  34  35
HETATM   35  C   UNL     1      -5.408  19.114  69.801  1.00  0.00    -0.204 C  
HETATM   36  C   UNL     1      -5.974  17.730  69.494  1.00  0.00    -0.245 C  
HETATM   37  C   UNL     1      -5.825  19.548  71.202  1.00  0.00    -0.159 C  
ENDBRANCH  34  35
ENDBRANCH  32  34
ENDBRANCH  31  32
ENDBRANCH  30  31
ENDBRANCH  21  30
ENDBRANCH  16  17
ENDBRANCH   1  16
TORSDOF 14
ENDMDL
MODEL      144
REMARK 921   NORMALIZED FREE ENERGY PREDICTED BY IDOCK:   -5.00 KCAL/MOL
REMARK 922        TOTAL FREE ENERGY PREDICTED BY IDOCK:  -10.93 KCAL/MOL
REMARK 923 INTER-LIGAND FREE ENERGY PREDICTED BY IDOCK:   -9.97 KCAL/MOL
REMARK 924 INTRA-LIGAND FREE ENERGY PREDICTED BY IDOCK:   -0.96 KCAL/MOL
REMARK 927      BINDING AFFINITY PREDICTED BY RF-SCORE:    0.00 PKD
ROOT
HETATM    1  C   UNL     1      -8.941  12.130  68.285  1.00  0.00    -0.186 C  
HETATM    2  C   UNL     1      -7.422  11.972  68.267  1.00  0.00    -0.106 C  
ENDROOT
BRANCH   1   3
HETATM    3  C   UNL     1      -9.684  11.002  67.581  1.00  0.00    -0.168 C  
BRANCH   3   4
HETATM    4  N   UNL     1     -10.103  11.265  66.231  1.00  0.00    -0.222 NA 
HETATM    5  C   UNL     1     -11.093  12.149  65.929  1.00  0.00    -0.318 A  
HETATM    6  N   UNL     1     -12.871  13.764  64.793  1.00  0.00    -0.704 NA 
HETATM    7  C   UNL     1      -9.533  10.858  65.058  1.00  0.00    -0.233 A  
HETATM    8  N   UNL     1     -12.168  13.236  62.604  1.00  0.00    -0.542 NA 
HETATM    9  N   UNL     1     -11.880  12.818  66.787  1.00  0.00    -0.407 NA 
HETATM   10  C   UNL     1     -12.038  13.079  63.979  1.00  0.00    -0.450 A  
HETATM   11  N   UNL     1     -10.129  11.389  64.015  1.00  0.00    -0.288 NA 
HETATM   12  C   UNL     1     -12.739  13.609  66.129  1.00  0.00    -0.238 A  
HETATM   13  C   UNL     1     -11.094  12.218  64.550  1.00  0.00    -0.321 A  
HETATM   14  H1  UNL     1     -12.855  13.863  62.188  1.00  0.00     0.000 HD 
HETATM   15  H2  UNL     1     -12.310  12.310  62.200  1.00  0.00     0.000 HD 
ENDBRANCH   3   4
ENDBRANCH   1   3
BRANCH   1  16
HETATM   16  O   UNL     1      -9.270  13.445  67.788  1.00  0.00    -0.194 OA 
BRANCH  16  17
HETATM   17  C   UNL     1      -8.529  14.549  68.362  1.00  0.00    -0.163 C  
HETATM   18  O   UNL     1      -8.867  16.401  66.882  1.00  0.00    -0.183 OA 
HETATM   19  O   UNL     1     -10.903  15.388  68.181  1.00  0.00    -0.265 OA 
HETATM   20  P   UNL     1      -9.437  16.135  68.277  1.00  0.00    -0.218 P  
HETATM   21  O   UNL     1     -10.296  17.635  68.198  1.00  0.00    -0.347 OA 
BRANCH  19  22
HETATM   22  C   UNL     1     -11.652  15.159  69.355  1.00  0.00    -0.323 C  
BRANCH  22  23
HETATM   23  O   UNL     1     -11.337  13.896  69.953  1.00  0.00    -0.212 OA 
BRANCH  23  24
HETATM   24  C   UNL     1     -12.404  13.262  70.502  1.00  0.00    -0.316 C  
HETATM   25  O   UNL     1     -13.234  13.773  71.241  1.00  0.00    -0.319 OA 
BRANCH  24  26
HETATM   26  O   UNL     1     -12.395  11.959  70.116  1.00  0.00    -0.248 OA 
BRANCH  26  27
HETATM   27  C   UNL     1     -12.354  10.998  71.194  1.00  0.00    -0.359 C  
HETATM   28  C   UNL     1     -13.652  10.197  71.195  1.00  0.00    -0.147 C  
HETATM   29  C   UNL     1     -11.159  10.071  70.998  1.00  0.00    -0.341 C  
ENDBRANCH  26  27
ENDBRANCH  24  26
ENDBRANCH  23  24
ENDBRANCH  22  23
ENDBRANCH  19  22
BRANCH  21  30
HETATM   30  C   UNL     1      -9.774  18.609  69.076  1.00  0.00    -0.259 C  
BRANCH  30  31
HETATM   31  O   UNL     1      -9.426  19.806  68.388  1.00  0.00    -0.351 OA 
BRANCH  31  32
HETATM   32  C   UNL     1      -8.096  19.966  68.198  1.00  0.00    -0.252 C  
HETATM   33  O   UNL     1      -7.576  20.615  67.299  1.00  0.00    -0.329 OA 
BRANCH  32  34
HETATM   34  O   UNL     1      -7.446  19.337  69.208  1.00  0.00    -0.317 OA 
BRANCH  34  35
HETATM   35  C   UNL     1      -6.065  19.003  68.970  1.00  0.00    -0.239 C  
HETATM   36  C   UNL     1      -5.975  17.484  68.844  1.00  0.00    -0.186 C  
HETATM   37  C   UNL     1      -5.193  19.481  70.127  1.00  0.00    -0.219 C  
ENDBRANCH  34  35
ENDBRANCH  32  34
ENDBRANCH  31  32
ENDBRANCH  30  31
ENDBRANCH  21  30
ENDBRANCH  16  17
ENDBRANCH   1  16
TORSDOF 14
ENDMDL
MODEL      145
REMARK 921   NORMALIZED FREE ENERGY PREDICTED BY IDOCK:   -4.99 KCAL/MOL
REMARK 922        TOTAL FREE ENERGY PREDICTED BY IDOCK:  -10.91 KCAL/MOL
REMARK 923 INTER-LIGAND FREE ENERGY PREDICTED BY IDOCK:   -9.32 KCAL/MOL
REMARK 924 INTRA-LIGAND FREE ENERGY PREDICTED BY IDOCK:   -1.59 KCAL/MOL
REMARK 927      BINDING AFFINITY PREDICTED BY RF-SCORE:    0.00 PKD
ROOT
HETATM    1  C   UNL     1      -8.719  13.971  67.153  1.00  0.00    -0.221 C  
HETATM    2  C   UNL     1      -7.335  13.436  67.517  1.00  0.00    -0.165 C  
ENDROOT
BRANCH   1   3
HETATM    3  C   UNL     1      -9.078  15.273  67.857  1.00  0.00    -0.175 C  
BRANCH   3   4
HETATM    4  N   UNL     1      -9.652  16.301  67.031  1.00  0.00    -0.227 NA 
HETATM    5  C   UNL     1      -9.521  17.626  67.312  1.00  0.00    -0.257 A  
HETATM    6  N   UNL     1      -9.525  20.283  67.348  1.00  0.00    -0.393 NA 
HETATM    7  C   UNL     1     -10.248  16.189  65.806  1.00  0.00    -0.374 A  
HETATM    8  N   UNL     1     -10.609  20.454  65.260  1.00  0.00    -0.130 NA 
HETATM    9  N   UNL     1      -8.954  18.178  68.396  1.00  0.00    -0.289 NA 
HETATM   10  C   UNL     1     -10.065  19.671  66.271  1.00  0.00    -0.480 A  
HETATM   11  N   UNL     1     -10.551  17.364  65.302  1.00  0.00    -0.640 NA 
HETATM   12  C   UNL     1      -8.996  19.516  68.327  1.00  0.00    -0.335 A  
HETATM   13  C   UNL     1     -10.080  18.272  66.227  1.00  0.00    -0.380 A  
HETATM   14  H1  UNL     1     -10.599  21.473  65.292  1.00  0.00     0.000 HD 
HETATM   15  H2  UNL     1     -11.577  20.160  65.128  1.00  0.00     0.000 HD 
ENDBRANCH   3   4
ENDBRANCH   1   3
BRANCH   1  16
HETATM   16  O   UNL     1      -9.684  12.915  67.349  1.00  0.00    -0.195 OA 
BRANCH  16  17
HETATM   17  C   UNL     1     -10.689  13.149  68.366  1.00  0.00    -0.253 C  
HETATM   18  O   UNL     1     -12.345  11.449  68.048  1.00  0.00    -0.444 OA 
HETATM   19  O   UNL     1      -9.914  10.777  68.753  1.00  0.00    -0.178 OA 
HETATM   20  P   UNL     1     -11.286  11.603  69.142  1.00  0.00    -0.318 P  
HETATM   21  O   UNL     1     -11.851  10.142  69.876  1.00  0.00    -0.217 OA 
BRANCH  19  22
HETATM   22  C   UNL     1      -8.857  10.694  69.683  1.00  0.00     0.167 C  
BRANCH  22  23
HETATM   23  O   UNL     1      -8.408   9.346  69.866  1.00  0.00    -0.130 OA 
BRANCH  23  24
HETATM   24  C   UNL     1      -7.478   9.200  70.843  1.00  0.00    -0.118 C  
HETATM   25  O   UNL     1      -6.270   9.330  70.703  1.00  0.00    -0.046 OA 
BRANCH  24  26
HETATM   26  O   UNL     1      -8.101   8.864  72.004  1.00  0.00    -0.355 OA 
BRANCH  26  27
HETATM   27  C   UNL     1      -7.316   8.063  72.915  1.00  0.00    -0.112 C  
HETATM   28  C   UNL     1      -7.725   8.394  74.346  1.00  0.00    -0.263 C  
HETATM   29  C   UNL     1      -7.558   6.585  72.623  1.00  0.00    -0.101 C  
ENDBRANCH  26  27
ENDBRANCH  24  26
ENDBRANCH  23  24
ENDBRANCH  22  23
ENDBRANCH  19  22
BRANCH  21  30
HETATM   30  C   UNL     1     -12.516  10.369  71.101  1.00  0.00    -0.404 C  
BRANCH  30  31
HETATM   31  O   UNL     1     -12.018   9.525  72.134  1.00  0.00    -0.304 OA 
BRANCH  31  32
HETATM   32  C   UNL     1     -12.577   8.293  72.160  1.00  0.00    -0.337 C  
HETATM   33  O   UNL     1     -13.684   8.002  71.725  1.00  0.00    -0.348 OA 
BRANCH  32  34
HETATM   34  O   UNL     1     -11.677   7.432  72.694  1.00  0.00    -0.273 OA 
BRANCH  34  35
HETATM   35  C   UNL     1     -11.598   6.128  72.085  1.00  0.00    -0.317 C  
HETATM   36  C   UNL     1     -11.045   5.166  73.132  1.00  0.00    -0.391 C  
HETATM   37  C   UNL     1     -10.677   6.162  70.870  1.00  0.00    -0.316 C  
ENDBRANCH  34  35
ENDBRANCH  32  34
ENDBRANCH  31  32
ENDBRANCH  30  31
ENDBRANCH  21  30
ENDBRANCH  16  17
ENDBRANCH   1  16
TORSDOF 14
ENDMDL
MODEL      146
REMARK 921   NORMALIZED FREE ENERGY PREDICTED BY IDOCK:   -4.98 KCAL/MOL
REMARK 922        TOTAL FREE ENERGY PREDICTED BY IDOCK:  -10.90 KCAL/MOL
REMARK 923 INTER-LIGAND FREE ENERGY PREDICTED BY IDOCK:   -9.80 KCAL/MOL
REMARK 924 INTRA-LIGAND FREE ENERGY PREDICTED BY IDOCK:   -1.10 KCAL/MOL
REMARK 927      BINDING AFFINITY PREDICTED BY RF-SCORE:    0.00 PKD
ROOT
HETATM    1  C   UNL     1     -10.428   9.571  67.924  1.00  0.00    -0.241 C  
HETATM    2  C   UNL     1     -10.258   8.167  67.347  1.00  0.00    -0.327 C  
ENDROOT
BRANCH   1   3
HETATM    3  C   UNL     1     -11.235   9.610  69.215  1.00  0.00    -0.047 C  
BRANCH   3   4
HETATM    4  N   UNL     1     -10.552   9.170  70.402  1.00  0.00    -0.214 NA 
HETATM    5  C   UNL     1     -11.004   8.140  71.169  1.00  0.00    -0.237 A  
HETATM    6  N   UNL     1     -11.386   6.207  72.951  1.00  0.00    -0.213 NA 
HETATM    7  C   UNL     1      -9.325   9.539  70.876  1.00  0.00    -0.087 A  
HETATM    8  N   UNL     1      -9.341   6.619  74.052  1.00  0.00    -0.175 NA 
HETATM    9  N   UNL     1     -12.149   7.456  71.025  1.00  0.00    -0.313 NA 
HETATM   10  C   UNL     1     -10.240   6.918  73.036  1.00  0.00    -0.218 A  
HETATM   11  N   UNL     1      -8.979   8.840  71.932  1.00  0.00    -0.337 NA 
HETATM   12  C   UNL     1     -12.256   6.501  71.960  1.00  0.00    -0.295 A  
HETATM   13  C   UNL     1     -10.014   7.945  72.111  1.00  0.00    -0.207 A  
HETATM   14  H1  UNL     1      -9.505   5.871  74.725  1.00  0.00     0.000 HD 
HETATM   15  H2  UNL     1      -9.174   7.476  74.579  1.00  0.00     0.000 HD 
ENDBRANCH   3   4
ENDBRANCH   1   3
BRANCH   1  16
HETATM   16  O   UNL     1     -10.944  10.432  66.887  1.00  0.00    -0.206 OA 
BRANCH  16  17
HETATM   17  C   UNL     1      -9.979  11.291  66.231  1.00  0.00    -0.221 C  
HETATM   18  O   UNL     1     -11.237  12.634  64.698  1.00  0.00    -0.290 OA 
HETATM   19  O   UNL     1     -11.650  12.871  67.273  1.00  0.00    -0.319 OA 
HETATM   20  P   UNL     1     -10.579  13.008  66.028  1.00  0.00    -0.288 P  
HETATM   21  O   UNL     1     -11.146  14.631  65.836  1.00  0.00    -0.325 OA 
BRANCH  19  22
HETATM   22  C   UNL     1     -11.275  13.283  68.570  1.00  0.00    -0.271 C  
BRANCH  22  23
HETATM   23  O   UNL     1     -12.387  13.801  69.310  1.00  0.00    -0.312 OA 
BRANCH  23  24
HETATM   24  C   UNL     1     -12.294  13.616  70.650  1.00  0.00    -0.368 C  
HETATM   25  O   UNL     1     -12.505  12.566  71.242  1.00  0.00    -0.305 OA 
BRANCH  24  26
HETATM   26  O   UNL     1     -11.946  14.790  71.240  1.00  0.00    -0.319 OA 
BRANCH  26  27
HETATM   27  C   UNL     1     -12.979  15.410  72.036  1.00  0.00    -0.401 C  
HETATM   28  C   UNL     1     -14.342  14.969  71.512  1.00  0.00    -0.651 C  
HETATM   29  C   UNL     1     -12.811  14.993  73.494  1.00  0.00    -0.636 C  
ENDBRANCH  26  27
ENDBRANCH  24  26
ENDBRANCH  23  24
ENDBRANCH  22  23
ENDBRANCH  19  22
BRANCH  21  30
HETATM   30  C   UNL     1     -10.103  15.544  65.567  1.00  0.00    -0.373 C  
BRANCH  30  31
HETATM   31  O   UNL     1      -9.642  16.181  66.754  1.00  0.00    -0.225 OA 
BRANCH  31  32
HETATM   32  C   UNL     1      -8.492  16.876  66.597  1.00  0.00    -0.250 C  
HETATM   33  O   UNL     1      -8.235  17.632  65.669  1.00  0.00    -0.501 OA 
BRANCH  32  34
HETATM   34  O   UNL     1      -7.703  16.636  67.674  1.00  0.00    -0.159 OA 
BRANCH  34  35
HETATM   35  C   UNL     1      -6.292  16.504  67.417  1.00  0.00    -0.167 C  
HETATM   36  C   UNL     1      -5.852  15.146  67.958  1.00  0.00    -0.154 C  
HETATM   37  C   UNL     1      -5.516  17.618  68.114  1.00  0.00    -0.151 C  
ENDBRANCH  34  35
ENDBRANCH  32  34
ENDBRANCH  31  32
ENDBRANCH  30  31
ENDBRANCH  21  30
ENDBRANCH  16  17
ENDBRANCH   1  16
TORSDOF 14
ENDMDL
MODEL      147
REMARK 921   NORMALIZED FREE ENERGY PREDICTED BY IDOCK:   -4.97 KCAL/MOL
REMARK 922        TOTAL FREE ENERGY PREDICTED BY IDOCK:  -10.87 KCAL/MOL
REMARK 923 INTER-LIGAND FREE ENERGY PREDICTED BY IDOCK:  -10.06 KCAL/MOL
REMARK 924 INTRA-LIGAND FREE ENERGY PREDICTED BY IDOCK:   -0.81 KCAL/MOL
REMARK 927      BINDING AFFINITY PREDICTED BY RF-SCORE:    0.00 PKD
ROOT
HETATM    1  C   UNL     1      -9.755  15.164  67.470  1.00  0.00    -0.205 C  
HETATM    2  C   UNL     1     -10.328  15.870  68.697  1.00  0.00    -0.229 C  
ENDROOT
BRANCH   1   3
HETATM    3  C   UNL     1      -9.964  15.927  66.168  1.00  0.00    -0.314 C  
BRANCH   3   4
HETATM    4  N   UNL     1      -9.611  17.321  66.189  1.00  0.00    -0.445 NA 
HETATM    5  C   UNL     1      -8.320  17.750  66.235  1.00  0.00    -0.205 A  
HETATM    6  N   UNL     1      -6.038  19.110  66.259  1.00  0.00    -0.169 NA 
HETATM    7  C   UNL     1     -10.409  18.415  66.005  1.00  0.00    -0.375 A  
HETATM    8  N   UNL     1      -7.110  21.196  66.004  1.00  0.00    -0.424 NA 
HETATM    9  N   UNL     1      -7.215  16.999  66.365  1.00  0.00    -0.275 NA 
HETATM   10  C   UNL     1      -7.183  19.813  66.112  1.00  0.00    -0.279 A  
HETATM   11  N   UNL     1      -9.713  19.528  65.979  1.00  0.00    -0.404 NA 
HETATM   12  C   UNL     1      -6.115  17.765  66.362  1.00  0.00    -0.205 A  
HETATM   13  C   UNL     1      -8.400  19.122  66.099  1.00  0.00    -0.244 A  
HETATM   14  H1  UNL     1      -6.224  21.700  66.013  1.00  0.00     0.000 HD 
HETATM   15  H2  UNL     1      -7.698  21.594  66.736  1.00  0.00     0.000 HD 
ENDBRANCH   3   4
ENDBRANCH   1   3
BRANCH   1  16
HETATM   16  O   UNL     1     -10.263  13.813  67.442  1.00  0.00    -0.248 OA 
BRANCH  16  17
HETATM   17  C   UNL     1      -9.804  12.936  68.499  1.00  0.00    -0.144 C  
HETATM   18  O   UNL     1     -11.697  11.600  69.106  1.00  0.00    -0.271 OA 
HETATM   19  O   UNL     1     -10.673  11.387  66.705  1.00  0.00    -0.247 OA 
HETATM   20  P   UNL     1     -10.434  11.226  68.327  1.00  0.00    -0.221 P  
HETATM   21  O   UNL     1     -11.028   9.610  68.165  1.00  0.00    -0.216 OA 
BRANCH  19  22
HETATM   22  C   UNL     1      -9.667  10.980  65.803  1.00  0.00    -0.224 C  
BRANCH  22  23
HETATM   23  O   UNL     1     -10.187  10.755  64.487  1.00  0.00    -0.328 OA 
BRANCH  23  24
HETATM   24  C   UNL     1      -9.960  11.776  63.622  1.00  0.00    -0.381 C  
HETATM   25  O   UNL     1      -9.359  11.690  62.559  1.00  0.00    -0.267 OA 
BRANCH  24  26
HETATM   26  O   UNL     1     -10.491  12.919  64.131  1.00  0.00    -0.403 OA 
BRANCH  26  27
HETATM   27  C   UNL     1     -11.822  13.240  63.670  1.00  0.00    -0.458 C  
HETATM   28  C   UNL     1     -12.593  11.945  63.440  1.00  0.00    -0.555 C  
HETATM   29  C   UNL     1     -12.525  14.097  64.717  1.00  0.00    -0.395 C  
ENDBRANCH  26  27
ENDBRANCH  24  26
ENDBRANCH  23  24
ENDBRANCH  22  23
ENDBRANCH  19  22
BRANCH  21  30
HETATM   30  C   UNL     1     -10.297   8.680  68.936  1.00  0.00    -0.211 C  
BRANCH  30  31
HETATM   31  O   UNL     1     -10.793   8.597  70.269  1.00  0.00    -0.230 OA 
BRANCH  31  32
HETATM   32  C   UNL     1      -9.855   8.807  71.221  1.00  0.00    -0.266 C  
HETATM   33  O   UNL     1      -8.820   9.445  71.076  1.00  0.00    -0.250 OA 
BRANCH  32  34
HETATM   34  O   UNL     1     -10.291   8.242  72.374  1.00  0.00    -0.284 OA 
BRANCH  34  35
HETATM   35  C   UNL     1      -9.520   7.132  72.874  1.00  0.00    -0.151 C  
HETATM   36  C   UNL     1     -10.504   6.059  73.331  1.00  0.00    -0.264 C  
HETATM   37  C   UNL     1      -8.648   7.572  74.046  1.00  0.00    -0.272 C  
ENDBRANCH  34  35
ENDBRANCH  32  34
ENDBRANCH  31  32
ENDBRANCH  30  31
ENDBRANCH  21  30
ENDBRANCH  16  17
ENDBRANCH   1  16
TORSDOF 14
ENDMDL
MODEL      148
REMARK 921   NORMALIZED FREE ENERGY PREDICTED BY IDOCK:   -4.95 KCAL/MOL
REMARK 922        TOTAL FREE ENERGY PREDICTED BY IDOCK:  -10.84 KCAL/MOL
REMARK 923 INTER-LIGAND FREE ENERGY PREDICTED BY IDOCK:   -8.64 KCAL/MOL
REMARK 924 INTRA-LIGAND FREE ENERGY PREDICTED BY IDOCK:   -2.20 KCAL/MOL
REMARK 927      BINDING AFFINITY PREDICTED BY RF-SCORE:    0.00 PKD
ROOT
HETATM    1  C   UNL     1      -7.839   9.708  64.687  1.00  0.00    -0.133 C  
HETATM    2  C   UNL     1      -6.544  10.462  64.392  1.00  0.00    -0.014 C  
ENDROOT
BRANCH   1   3
HETATM    3  C   UNL     1      -8.796  10.464  65.599  1.00  0.00    -0.173 C  
BRANCH   3   4
HETATM    4  N   UNL     1      -9.802  11.257  64.943  1.00  0.00    -0.250 NA 
HETATM    5  C   UNL     1     -10.212  12.462  65.422  1.00  0.00    -0.278 A  
HETATM    6  N   UNL     1     -11.316  14.839  65.862  1.00  0.00    -0.340 NA 
HETATM    7  C   UNL     1     -10.382  11.071  63.719  1.00  0.00    -0.364 A  
HETATM    8  N   UNL     1     -12.518  14.819  63.832  1.00  0.00    -1.049 NA 
HETATM    9  N   UNL     1      -9.852  13.050  66.574  1.00  0.00    -0.258 NA 
HETATM   10  C   UNL     1     -11.628  14.209  64.708  1.00  0.00    -0.396 A  
HETATM   11  N   UNL     1     -11.180  12.066  63.403  1.00  0.00    -0.414 NA 
HETATM   12  C   UNL     1     -10.450  14.241  66.710  1.00  0.00    -0.273 A  
HETATM   13  C   UNL     1     -11.064  12.954  64.452  1.00  0.00    -0.361 A  
HETATM   14  H1  UNL     1     -12.929  15.733  64.018  1.00  0.00     0.000 HD 
HETATM   15  H2  UNL     1     -13.282  14.166  63.664  1.00  0.00     0.000 HD 
ENDBRANCH   3   4
ENDBRANCH   1   3
BRANCH   1  16
HETATM   16  O   UNL     1      -7.502   8.387  65.162  1.00  0.00    -0.079 OA 
BRANCH  16  17
HETATM   17  C   UNL     1      -8.556   7.663  65.841  1.00  0.00    -0.148 C  
HETATM   18  O   UNL     1      -7.678   5.476  66.265  1.00  0.00    -0.096 OA 
HETATM   19  O   UNL     1      -6.583   7.559  67.413  1.00  0.00    -0.058 OA 
HETATM   20  P   UNL     1      -7.937   6.639  67.225  1.00  0.00    -0.119 P  
HETATM   21  O   UNL     1      -7.352   5.670  68.534  1.00  0.00    -0.073 OA 
BRANCH  19  22
HETATM   22  C   UNL     1      -6.576   8.615  68.349  1.00  0.00    -0.060 C  
BRANCH  22  23
HETATM   23  O   UNL     1      -7.902   8.988  68.744  1.00  0.00    -0.094 OA 
BRANCH  23  24
HETATM   24  C   UNL     1      -7.955  10.102  69.517  1.00  0.00    -0.165 C  
HETATM   25  O   UNL     1      -7.115  10.441  70.339  1.00  0.00    -0.268 OA 
BRANCH  24  26
HETATM   26  O   UNL     1      -9.106  10.776  69.250  1.00  0.00    -0.143 OA 
BRANCH  26  27
HETATM   27  C   UNL     1     -10.314   9.989  69.332  1.00  0.00    -0.227 C  
HETATM   28  C   UNL     1     -10.594   9.659  70.795  1.00  0.00    -0.392 C  
HETATM   29  C   UNL     1     -11.473  10.782  68.737  1.00  0.00    -0.364 C  
ENDBRANCH  26  27
ENDBRANCH  24  26
ENDBRANCH  23  24
ENDBRANCH  22  23
ENDBRANCH  19  22
BRANCH  21  30
HETATM   30  C   UNL     1      -8.376   5.282  69.425  1.00  0.00    -0.095 C  
BRANCH  30  31
HETATM   31  O   UNL     1      -9.243   6.369  69.736  1.00  0.00    -0.143 OA 
BRANCH  31  32
HETATM   32  C   UNL     1     -10.559   6.064  69.659  1.00  0.00    -0.300 C  
HETATM   33  O   UNL     1     -11.298   6.322  68.718  1.00  0.00    -0.356 OA 
BRANCH  32  34
HETATM   34  O   UNL     1     -10.898   5.374  70.776  1.00  0.00    -0.222 OA 
BRANCH  34  35
HETATM   35  C   UNL     1     -11.332   6.157  71.905  1.00  0.00    -0.296 C  
HETATM   36  C   UNL     1     -11.293   5.251  73.133  1.00  0.00    -0.358 C  
HETATM   37  C   UNL     1     -12.750   6.672  71.683  1.00  0.00    -0.280 C  
ENDBRANCH  34  35
ENDBRANCH  32  34
ENDBRANCH  31  32
ENDBRANCH  30  31
ENDBRANCH  21  30
ENDBRANCH  16  17
ENDBRANCH   1  16
TORSDOF 14
ENDMDL
MODEL      149
REMARK 921   NORMALIZED FREE ENERGY PREDICTED BY IDOCK:   -4.95 KCAL/MOL
REMARK 922        TOTAL FREE ENERGY PREDICTED BY IDOCK:  -10.83 KCAL/MOL
REMARK 923 INTER-LIGAND FREE ENERGY PREDICTED BY IDOCK:   -8.43 KCAL/MOL
REMARK 924 INTRA-LIGAND FREE ENERGY PREDICTED BY IDOCK:   -2.40 KCAL/MOL
REMARK 927      BINDING AFFINITY PREDICTED BY RF-SCORE:    0.00 PKD
ROOT
HETATM    1  C   UNL     1      -9.172  11.128  65.834  1.00  0.00    -0.206 C  
HETATM    2  C   UNL     1     -10.022  10.090  65.105  1.00  0.00    -0.350 C  
ENDROOT
BRANCH   1   3
HETATM    3  C   UNL     1      -7.730  10.694  66.057  1.00  0.00    -0.151 C  
BRANCH   3   4
HETATM    4  N   UNL     1      -7.494   9.838  67.188  1.00  0.00    -0.088 NA 
HETATM    5  C   UNL     1      -7.035  10.307  68.380  1.00  0.00    -0.069 A  
HETATM    6  N   UNL     1      -6.230  10.679  70.885  1.00  0.00    -0.350 NA 
HETATM    7  C   UNL     1      -7.816   8.520  67.352  1.00  0.00    -0.098 A  
HETATM    8  N   UNL     1      -6.622   8.434  71.497  1.00  0.00    -0.057 NA 
HETATM    9  N   UNL     1      -6.646  11.558  68.670  1.00  0.00    -0.060 NA 
HETATM   10  C   UNL     1      -6.652   9.442  70.540  1.00  0.00    -0.084 A  
HETATM   11  N   UNL     1      -7.547   8.099  68.567  1.00  0.00    -0.102 NA 
HETATM   12  C   UNL     1      -6.263  11.654  69.951  1.00  0.00    -0.144 A  
HETATM   13  C   UNL     1      -7.078   9.216  69.226  1.00  0.00    -0.058 A  
HETATM   14  H1  UNL     1      -6.311   8.598  72.454  1.00  0.00     0.000 HD 
HETATM   15  H2  UNL     1      -6.066   7.667  71.120  1.00  0.00     0.000 HD 
ENDBRANCH   3   4
ENDBRANCH   1   3
BRANCH   1  16
HETATM   16  O   UNL     1      -9.860  11.514  67.043  1.00  0.00    -0.189 OA 
BRANCH  16  17
HETATM   17  C   UNL     1     -10.820  10.562  67.564  1.00  0.00    -0.301 C  
HETATM   18  O   UNL     1     -10.279  10.291  69.881  1.00  0.00    -0.246 OA 
HETATM   19  O   UNL     1     -11.099  12.618  69.003  1.00  0.00    -0.253 OA 
HETATM   20  P   UNL     1     -11.449  11.022  69.219  1.00  0.00    -0.358 P  
HETATM   21  O   UNL     1     -12.045  11.457  70.784  1.00  0.00    -0.363 OA 
BRANCH  19  22
HETATM   22  C   UNL     1     -12.092  13.494  68.514  1.00  0.00    -0.268 C  
BRANCH  22  23
HETATM   23  O   UNL     1     -11.639  14.853  68.485  1.00  0.00    -0.297 OA 
BRANCH  23  24
HETATM   24  C   UNL     1     -11.111  15.235  67.296  1.00  0.00    -0.325 C  
HETATM   25  O   UNL     1     -11.515  14.891  66.193  1.00  0.00    -0.341 OA 
BRANCH  24  26
HETATM   26  O   UNL     1     -10.045  16.049  67.521  1.00  0.00    -0.239 OA 
BRANCH  26  27
HETATM   27  C   UNL     1      -8.957  15.449  68.258  1.00  0.00    -0.185 C  
HETATM   28  C   UNL     1      -8.237  14.452  67.356  1.00  0.00    -0.215 C  
HETATM   29  C   UNL     1      -7.996  16.541  68.716  1.00  0.00    -0.236 C  
ENDBRANCH  26  27
ENDBRANCH  24  26
ENDBRANCH  23  24
ENDBRANCH  22  23
ENDBRANCH  19  22
BRANCH  21  30
HETATM   30  C   UNL     1     -13.235  10.776  71.123  1.00  0.00    -0.175 C  
BRANCH  30  31
HETATM   31  O   UNL     1     -13.053   9.929  72.254  1.00  0.00    -0.418 OA 
BRANCH  31  32
HETATM   32  C   UNL     1     -13.230   8.613  71.993  1.00  0.00    -0.386 C  
HETATM   33  O   UNL     1     -14.307   8.034  71.942  1.00  0.00    -0.417 OA 
BRANCH  32  34
HETATM   34  O   UNL     1     -12.015   8.067  71.740  1.00  0.00    -0.275 OA 
BRANCH  34  35
HETATM   35  C   UNL     1     -12.014   6.735  71.190  1.00  0.00    -0.370 C  
HETATM   36  C   UNL     1     -11.397   5.809  72.234  1.00  0.00    -0.334 C  
HETATM   37  C   UNL     1     -11.196   6.688  69.904  1.00  0.00    -0.421 C  
ENDBRANCH  34  35
ENDBRANCH  32  34
ENDBRANCH  31  32
ENDBRANCH  30  31
ENDBRANCH  21  30
ENDBRANCH  16  17
ENDBRANCH   1  16
TORSDOF 14
ENDMDL
MODEL      150
REMARK 921   NORMALIZED FREE ENERGY PREDICTED BY IDOCK:   -4.94 KCAL/MOL
REMARK 922        TOTAL FREE ENERGY PREDICTED BY IDOCK:  -10.83 KCAL/MOL
REMARK 923 INTER-LIGAND FREE ENERGY PREDICTED BY IDOCK:  -10.20 KCAL/MOL
REMARK 924 INTRA-LIGAND FREE ENERGY PREDICTED BY IDOCK:   -0.64 KCAL/MOL
REMARK 927      BINDING AFFINITY PREDICTED BY RF-SCORE:    0.00 PKD
ROOT
HETATM    1  C   UNL     1      -8.873  12.746  67.701  1.00  0.00    -0.189 C  
HETATM    2  C   UNL     1      -7.702  11.818  67.388  1.00  0.00    -0.151 C  
ENDROOT
BRANCH   1   3
HETATM    3  C   UNL     1     -10.238  12.107  67.487  1.00  0.00    -0.199 C  
BRANCH   3   4
HETATM    4  N   UNL     1     -10.289  10.674  67.589  1.00  0.00    -0.197 NA 
HETATM    5  C   UNL     1     -10.600  10.032  68.748  1.00  0.00    -0.217 A  
HETATM    6  N   UNL     1     -11.194   8.304  70.678  1.00  0.00    -0.259 NA 
HETATM    7  C   UNL     1     -10.216   9.737  66.597  1.00  0.00    -0.226 A  
HETATM    8  N   UNL     1     -11.091   6.438  69.238  1.00  0.00    -0.379 NA 
HETATM    9  N   UNL     1     -10.805  10.580  69.956  1.00  0.00    -0.279 NA 
HETATM   10  C   UNL     1     -10.996   7.810  69.435  1.00  0.00    -0.035 A  
HETATM   11  N   UNL     1     -10.415   8.523  67.058  1.00  0.00    -0.308 NA 
HETATM   12  C   UNL     1     -11.102   9.639  70.863  1.00  0.00    -0.352 A  
HETATM   13  C   UNL     1     -10.679   8.698  68.400  1.00  0.00    -0.046 A  
HETATM   14  H1  UNL     1     -11.322   5.792  69.992  1.00  0.00     0.000 HD 
HETATM   15  H2  UNL     1     -10.214   6.125  68.822  1.00  0.00     0.000 HD 
ENDBRANCH   3   4
ENDBRANCH   1   3
BRANCH   1  16
HETATM   16  O   UNL     1      -8.685  13.980  66.975  1.00  0.00    -0.219 OA 
BRANCH  16  17
HETATM   17  C   UNL     1      -8.371  15.149  67.771  1.00  0.00    -0.151 C  
HETATM   18  O   UNL     1      -6.782  16.402  66.491  1.00  0.00    -0.238 OA 
HETATM   19  O   UNL     1      -9.212  16.067  65.575  1.00  0.00    -0.354 OA 
HETATM   20  P   UNL     1      -8.261  16.678  66.773  1.00  0.00    -0.300 P  
HETATM   21  O   UNL     1      -8.156  18.125  65.830  1.00  0.00    -0.520 OA 
BRANCH  19  22
HETATM   22  C   UNL     1     -10.601  16.317  65.585  1.00  0.00    -0.346 C  
BRANCH  22  23
HETATM   23  O   UNL     1     -11.361  15.110  65.719  1.00  0.00    -0.324 OA 
BRANCH  23  24
HETATM   24  C   UNL     1     -11.674  14.520  64.538  1.00  0.00    -0.410 C  
HETATM   25  O   UNL     1     -12.499  14.930  63.732  1.00  0.00    -0.768 OA 
BRANCH  24  26
HETATM   26  O   UNL     1     -10.940  13.384  64.399  1.00  0.00    -0.370 OA 
BRANCH  26  27
HETATM   27  C   UNL     1     -11.422  12.457  63.401  1.00  0.00    -0.448 C  
HETATM   28  C   UNL     1     -10.392  11.349  63.214  1.00  0.00    -0.422 C  
HETATM   29  C   UNL     1     -12.754  11.871  63.859  1.00  0.00    -0.413 C  
ENDBRANCH  26  27
ENDBRANCH  24  26
ENDBRANCH  23  24
ENDBRANCH  22  23
ENDBRANCH  19  22
BRANCH  21  30
HETATM   30  C   UNL     1      -8.241  19.295  66.615  1.00  0.00    -0.293 C  
BRANCH  30  31
HETATM   31  O   UNL     1      -7.020  19.560  67.299  1.00  0.00    -0.202 OA 
BRANCH  31  32
HETATM   32  C   UNL     1      -7.163  19.755  68.630  1.00  0.00    -0.323 C  
HETATM   33  O   UNL     1      -8.208  19.650  69.259  1.00  0.00    -0.221 OA 
BRANCH  32  34
HETATM   34  O   UNL     1      -5.940  20.027  69.150  1.00  0.00    -0.256 OA 
BRANCH  34  35
HETATM   35  C   UNL     1      -5.332  18.981  69.934  1.00  0.00    -0.214 C  
HETATM   36  C   UNL     1      -6.097  17.691  69.649  1.00  0.00    -0.245 C  
HETATM   37  C   UNL     1      -5.410  19.315  71.420  1.00  0.00    -0.322 C  
ENDBRANCH  34  35
ENDBRANCH  32  34
ENDBRANCH  31  32
ENDBRANCH  30  31
ENDBRANCH  21  30
ENDBRANCH  16  17
ENDBRANCH   1  16
TORSDOF 14
ENDMDL
MODEL      151
REMARK 921   NORMALIZED FREE ENERGY PREDICTED BY IDOCK:   -4.94 KCAL/MOL
REMARK 922        TOTAL FREE ENERGY PREDICTED BY IDOCK:  -10.83 KCAL/MOL
REMARK 923 INTER-LIGAND FREE ENERGY PREDICTED BY IDOCK:   -9.17 KCAL/MOL
REMARK 924 INTRA-LIGAND FREE ENERGY PREDICTED BY IDOCK:   -1.66 KCAL/MOL
REMARK 927      BINDING AFFINITY PREDICTED BY RF-SCORE:    0.00 PKD
ROOT
HETATM    1  C   UNL     1      -9.082  13.467  67.374  1.00  0.00    -0.216 C  
HETATM    2  C   UNL     1      -9.921  13.014  66.180  1.00  0.00    -0.278 C  
ENDROOT
BRANCH   1   3
HETATM    3  C   UNL     1      -8.234  14.700  67.095  1.00  0.00    -0.201 C  
BRANCH   3   4
HETATM    4  N   UNL     1      -8.888  15.970  67.262  1.00  0.00    -0.186 NA 
HETATM    5  C   UNL     1      -8.368  17.132  66.781  1.00  0.00    -0.234 A  
HETATM    6  N   UNL     1      -7.856  19.626  66.020  1.00  0.00    -0.331 NA 
HETATM    7  C   UNL     1     -10.140  16.237  67.740  1.00  0.00    -0.252 A  
HETATM    8  N   UNL     1      -9.930  20.442  66.796  1.00  0.00    -0.535 NA 
HETATM    9  N   UNL     1      -7.177  17.310  66.189  1.00  0.00    -0.292 NA 
HETATM   10  C   UNL     1      -9.050  19.383  66.605  1.00  0.00    -0.346 A  
HETATM   11  N   UNL     1     -10.439  17.512  67.639  1.00  0.00    -0.362 NA 
HETATM   12  C   UNL     1      -7.006  18.592  65.836  1.00  0.00    -0.273 A  
HETATM   13  C   UNL     1      -9.345  18.078  67.019  1.00  0.00    -0.265 A  
HETATM   14  H1  UNL     1      -9.715  21.392  66.494  1.00  0.00     0.000 HD 
HETATM   15  H2  UNL     1     -10.158  20.478  67.789  1.00  0.00     0.000 HD 
ENDBRANCH   3   4
ENDBRANCH   1   3
BRANCH   1  16
HETATM   16  O   UNL     1      -8.327  12.336  67.858  1.00  0.00    -0.143 OA 
BRANCH  16  17
HETATM   17  C   UNL     1      -8.297  11.171  66.996  1.00  0.00    -0.144 C  
HETATM   18  O   UNL     1      -6.281  10.003  67.549  1.00  0.00    -0.057 OA 
HETATM   19  O   UNL     1      -8.174  10.245  69.341  1.00  0.00    -0.148 OA 
HETATM   20  P   UNL     1      -7.738   9.660  67.863  1.00  0.00    -0.085 P  
HETATM   21  O   UNL     1      -7.211   8.231  68.683  1.00  0.00    -0.083 OA 
BRANCH  19  22
HETATM   22  C   UNL     1      -9.445   9.935  69.871  1.00  0.00    -0.220 C  
BRANCH  22  23
HETATM   23  O   UNL     1     -10.462   9.939  68.862  1.00  0.00    -0.193 OA 
BRANCH  23  24
HETATM   24  C   UNL     1     -11.589  10.607  69.214  1.00  0.00    -0.275 C  
HETATM   25  O   UNL     1     -12.408  11.083  68.439  1.00  0.00    -0.528 OA 
BRANCH  24  26
HETATM   26  O   UNL     1     -11.657  10.684  70.570  1.00  0.00    -0.315 OA 
BRANCH  26  27
HETATM   27  C   UNL     1     -12.989  10.799  71.115  1.00  0.00    -0.371 C  
HETATM   28  C   UNL     1     -13.233   9.644  72.080  1.00  0.00    -0.546 C  
HETATM   29  C   UNL     1     -13.123  12.134  71.841  1.00  0.00    -0.475 C  
ENDBRANCH  26  27
ENDBRANCH  24  26
ENDBRANCH  23  24
ENDBRANCH  22  23
ENDBRANCH  19  22
BRANCH  21  30
HETATM   30  C   UNL     1      -7.543   7.049  67.986  1.00  0.00    -0.111 C  
BRANCH  30  31
HETATM   31  O   UNL     1      -8.653   7.245  67.116  1.00  0.00    -0.119 OA 
BRANCH  31  32
HETATM   32  C   UNL     1      -9.777   6.595  67.499  1.00  0.00    -0.127 C  
HETATM   33  O   UNL     1     -10.545   5.998  66.756  1.00  0.00    -0.257 OA 
BRANCH  32  34
HETATM   34  O   UNL     1      -9.867   6.669  68.850  1.00  0.00    -0.138 OA 
BRANCH  34  35
HETATM   35  C   UNL     1     -10.823   5.791  69.476  1.00  0.00    -0.340 C  
HETATM   36  C   UNL     1     -11.662   6.634  70.432  1.00  0.00    -0.446 C  
HETATM   37  C   UNL     1     -10.107   4.687  70.247  1.00  0.00    -0.276 C  
ENDBRANCH  34  35
ENDBRANCH  32  34
ENDBRANCH  31  32
ENDBRANCH  30  31
ENDBRANCH  21  30
ENDBRANCH  16  17
ENDBRANCH   1  16
TORSDOF 14
ENDMDL
MODEL      152
REMARK 921   NORMALIZED FREE ENERGY PREDICTED BY IDOCK:   -4.94 KCAL/MOL
REMARK 922        TOTAL FREE ENERGY PREDICTED BY IDOCK:  -10.83 KCAL/MOL
REMARK 923 INTER-LIGAND FREE ENERGY PREDICTED BY IDOCK:   -9.60 KCAL/MOL
REMARK 924 INTRA-LIGAND FREE ENERGY PREDICTED BY IDOCK:   -1.23 KCAL/MOL
REMARK 927      BINDING AFFINITY PREDICTED BY RF-SCORE:    0.00 PKD
ROOT
HETATM    1  C   UNL     1      -9.671  10.015  64.774  1.00  0.00    -0.293 C  
HETATM    2  C   UNL     1      -8.930  10.792  63.688  1.00  0.00    -0.179 C  
ENDROOT
BRANCH   1   3
HETATM    3  C   UNL     1     -10.444  10.899  65.744  1.00  0.00    -0.210 C  
BRANCH   3   4
HETATM    4  N   UNL     1     -11.096  12.046  65.171  1.00  0.00    -0.311 NA 
HETATM    5  C   UNL     1     -10.639  13.315  65.351  1.00  0.00    -0.296 A  
HETATM    6  N   UNL     1     -10.164  15.929  65.325  1.00  0.00    -0.483 NA 
HETATM    7  C   UNL     1     -12.117  12.092  64.264  1.00  0.00    -0.375 A  
HETATM    8  N   UNL     1     -11.904  16.376  63.795  1.00  0.00    -1.377 NA 
HETATM    9  N   UNL     1      -9.620  13.714  66.129  1.00  0.00    -0.248 NA 
HETATM   10  C   UNL     1     -11.167  15.468  64.545  1.00  0.00    -0.315 A  
HETATM   11  N   UNL     1     -12.376  13.323  63.885  1.00  0.00    -0.660 NA 
HETATM   12  C   UNL     1      -9.450  15.041  66.050  1.00  0.00    -0.302 A  
HETATM   13  C   UNL     1     -11.441  14.095  64.542  1.00  0.00    -0.372 A  
HETATM   14  H1  UNL     1     -11.704  17.376  63.797  1.00  0.00     0.000 HD 
HETATM   15  H2  UNL     1     -12.886  16.258  64.045  1.00  0.00     0.000 HD 
ENDBRANCH   3   4
ENDBRANCH   1   3
BRANCH   1  16
HETATM   16  O   UNL     1      -8.735   9.123  65.417  1.00  0.00    -0.163 OA 
BRANCH  16  17
HETATM   17  C   UNL     1      -8.988   8.828  66.813  1.00  0.00    -0.135 C  
HETATM   18  O   UNL     1     -10.910   7.401  66.840  1.00  0.00    -0.357 OA 
HETATM   19  O   UNL     1      -8.694   6.572  65.718  1.00  0.00    -0.151 OA 
HETATM   20  P   UNL     1      -9.437   7.078  67.099  1.00  0.00    -0.160 P  
HETATM   21  O   UNL     1      -9.862   5.423  67.371  1.00  0.00    -0.135 OA 
BRANCH  19  22
HETATM   22  C   UNL     1      -7.361   6.113  65.766  1.00  0.00    -0.080 C  
BRANCH  22  23
HETATM   23  O   UNL     1      -7.259   4.728  65.415  1.00  0.00    -0.068 OA 
BRANCH  23  24
HETATM   24  C   UNL     1      -7.233   4.496  64.079  1.00  0.00    -0.054 C  
HETATM   25  O   UNL     1      -6.226   4.414  63.388  1.00  0.00    -0.018 OA 
BRANCH  24  26
HETATM   26  O   UNL     1      -8.508   4.388  63.620  1.00  0.00    -0.099 OA 
BRANCH  26  27
HETATM   27  C   UNL     1      -9.326   3.407  64.297  1.00  0.00    -0.136 C  
HETATM   28  C   UNL     1     -10.734   3.449  63.714  1.00  0.00    -0.247 C  
HETATM   29  C   UNL     1      -8.714   2.023  64.107  1.00  0.00    -0.092 C  
ENDBRANCH  26  27
ENDBRANCH  24  26
ENDBRANCH  23  24
ENDBRANCH  22  23
ENDBRANCH  19  22
BRANCH  21  30
HETATM   30  C   UNL     1      -9.728   5.040  68.723  1.00  0.00    -0.161 C  
BRANCH  30  31
HETATM   31  O   UNL     1     -10.863   5.424  69.493  1.00  0.00    -0.269 OA 
BRANCH  31  32
HETATM   32  C   UNL     1     -10.558   5.957  70.699  1.00  0.00    -0.268 C  
HETATM   33  O   UNL     1     -10.041   5.360  71.634  1.00  0.00    -0.188 OA 
BRANCH  32  34
HETATM   34  O   UNL     1     -10.869   7.277  70.667  1.00  0.00    -0.231 OA 
BRANCH  34  35
HETATM   35  C   UNL     1     -11.744   7.753  71.708  1.00  0.00    -0.284 C  
HETATM   36  C   UNL     1     -13.109   7.107  71.490  1.00  0.00    -0.427 C  
HETATM   37  C   UNL     1     -11.871   9.272  71.646  1.00  0.00    -0.453 C  
ENDBRANCH  34  35
ENDBRANCH  32  34
ENDBRANCH  31  32
ENDBRANCH  30  31
ENDBRANCH  21  30
ENDBRANCH  16  17
ENDBRANCH   1  16
TORSDOF 14
ENDMDL
MODEL      153
REMARK 921   NORMALIZED FREE ENERGY PREDICTED BY IDOCK:   -4.94 KCAL/MOL
REMARK 922        TOTAL FREE ENERGY PREDICTED BY IDOCK:  -10.82 KCAL/MOL
REMARK 923 INTER-LIGAND FREE ENERGY PREDICTED BY IDOCK:   -9.82 KCAL/MOL
REMARK 924 INTRA-LIGAND FREE ENERGY PREDICTED BY IDOCK:   -1.00 KCAL/MOL
REMARK 927      BINDING AFFINITY PREDICTED BY RF-SCORE:    0.00 PKD
ROOT
HETATM    1  C   UNL     1     -10.928   7.532  71.700  1.00  0.00    -0.232 C  
HETATM    2  C   UNL     1     -12.272   7.079  71.133  1.00  0.00    -0.427 C  
ENDROOT
BRANCH   1   3
HETATM    3  C   UNL     1     -10.692   7.099  73.140  1.00  0.00    -0.346 C  
BRANCH   3   4
HETATM    4  N   UNL     1     -10.415   5.703  73.344  1.00  0.00    -0.224 NA 
HETATM    5  C   UNL     1      -9.166   5.235  73.614  1.00  0.00    -0.129 A  
HETATM    6  N   UNL     1      -7.001   3.816  74.213  1.00  0.00    -0.050 NA 
HETATM    7  C   UNL     1     -11.291   4.661  73.474  1.00  0.00    -0.268 A  
HETATM    8  N   UNL     1      -8.211   1.805  74.462  1.00  0.00    -0.048 NA 
HETATM    9  N   UNL     1      -8.020   5.933  73.638  1.00  0.00    -0.104 NA 
HETATM   10  C   UNL     1      -8.188   3.168  74.193  1.00  0.00    -0.070 A  
HETATM   11  N   UNL     1     -10.673   3.539  73.765  1.00  0.00    -0.201 NA 
HETATM   12  C   UNL     1      -6.985   5.141  73.952  1.00  0.00    -0.081 A  
HETATM   13  C   UNL     1      -9.344   3.891  73.878  1.00  0.00    -0.095 A  
HETATM   14  H1  UNL     1      -7.368   1.279  74.692  1.00  0.00     0.000 HD 
HETATM   15  H2  UNL     1      -8.657   1.342  73.671  1.00  0.00     0.000 HD 
ENDBRANCH   3   4
ENDBRANCH   1   3
BRANCH   1  16
HETATM   16  O   UNL     1     -10.799   8.955  71.489  1.00  0.00    -0.272 OA 
BRANCH  16  17
HETATM   17  C   UNL     1      -9.834   9.368  70.490  1.00  0.00    -0.270 C  
HETATM   18  O   UNL     1     -10.656   8.531  68.403  1.00  0.00    -0.193 OA 
HETATM   19  O   UNL     1     -12.030  10.338  69.708  1.00  0.00    -0.202 OA 
HETATM   20  P   UNL     1     -10.618   9.961  68.947  1.00  0.00    -0.221 P  
HETATM   21  O   UNL     1     -11.358  10.522  67.488  1.00  0.00    -0.396 OA 
BRANCH  19  22
HETATM   22  C   UNL     1     -12.244  11.650  70.180  1.00  0.00    -0.288 C  
BRANCH  22  23
HETATM   23  O   UNL     1     -12.926  11.662  71.440  1.00  0.00    -0.404 OA 
BRANCH  23  24
HETATM   24  C   UNL     1     -13.403  12.880  71.800  1.00  0.00    -0.359 C  
HETATM   25  O   UNL     1     -14.206  13.095  72.698  1.00  0.00    -0.677 OA 
BRANCH  24  26
HETATM   26  O   UNL     1     -12.861  13.828  70.990  1.00  0.00    -0.326 OA 
BRANCH  26  27
HETATM   27  C   UNL     1     -12.057  14.825  71.659  1.00  0.00    -0.350 C  
HETATM   28  C   UNL     1     -11.132  15.482  70.641  1.00  0.00    -0.378 C  
HETATM   29  C   UNL     1     -12.972  15.867  72.294  1.00  0.00    -0.484 C  
ENDBRANCH  26  27
ENDBRANCH  24  26
ENDBRANCH  23  24
ENDBRANCH  22  23
ENDBRANCH  19  22
BRANCH  21  30
HETATM   30  C   UNL     1     -10.476  11.274  66.683  1.00  0.00    -0.247 C  
BRANCH  30  31
HETATM   31  O   UNL     1     -10.682  11.020  65.296  1.00  0.00    -0.246 OA 
BRANCH  31  32
HETATM   32  C   UNL     1     -10.402  12.073  64.494  1.00  0.00    -0.296 C  
HETATM   33  O   UNL     1     -10.297  12.035  63.275  1.00  0.00    -0.434 OA 
BRANCH  32  34
HETATM   34  O   UNL     1     -10.317  13.183  65.270  1.00  0.00    -0.294 OA 
BRANCH  34  35
HETATM   35  C   UNL     1     -11.180  14.281  64.912  1.00  0.00    -0.379 C  
HETATM   36  C   UNL     1     -10.757  15.487  65.745  1.00  0.00    -0.362 C  
HETATM   37  C   UNL     1     -12.636  13.932  65.203  1.00  0.00    -0.466 C  
ENDBRANCH  34  35
ENDBRANCH  32  34
ENDBRANCH  31  32
ENDBRANCH  30  31
ENDBRANCH  21  30
ENDBRANCH  16  17
ENDBRANCH   1  16
TORSDOF 14
ENDMDL
MODEL      154
REMARK 921   NORMALIZED FREE ENERGY PREDICTED BY IDOCK:   -4.92 KCAL/MOL
REMARK 922        TOTAL FREE ENERGY PREDICTED BY IDOCK:  -10.78 KCAL/MOL
REMARK 923 INTER-LIGAND FREE ENERGY PREDICTED BY IDOCK:   -9.74 KCAL/MOL
REMARK 924 INTRA-LIGAND FREE ENERGY PREDICTED BY IDOCK:   -1.04 KCAL/MOL
REMARK 927      BINDING AFFINITY PREDICTED BY RF-SCORE:    0.00 PKD
ROOT
HETATM    1  C   UNL     1      -9.538   9.812  69.047  1.00  0.00    -0.177 C  
HETATM    2  C   UNL     1     -10.065   8.914  67.929  1.00  0.00    -0.255 C  
ENDROOT
BRANCH   1   3
HETATM    3  C   UNL     1     -10.478   9.923  70.240  1.00  0.00    -0.291 C  
BRANCH   3   4
HETATM    4  N   UNL     1     -10.706   8.713  70.982  1.00  0.00    -0.217 NA 
HETATM    5  C   UNL     1      -9.934   8.345  72.040  1.00  0.00    -0.284 A  
HETATM    6  N   UNL     1      -8.815   7.201  74.162  1.00  0.00    -0.194 NA 
HETATM    7  C   UNL     1     -11.755   7.840  70.905  1.00  0.00    -0.265 A  
HETATM    8  N   UNL     1     -10.444   5.498  74.283  1.00  0.00    -0.274 NA 
HETATM    9  N   UNL     1      -8.827   8.953  72.494  1.00  0.00    -0.311 NA 
HETATM   10  C   UNL     1      -9.944   6.642  73.672  1.00  0.00    -0.247 A  
HETATM   11  N   UNL     1     -11.678   6.903  71.822  1.00  0.00    -0.285 NA 
HETATM   12  C   UNL     1      -8.335   8.314  73.564  1.00  0.00    -0.192 A  
HETATM   13  C   UNL     1     -10.553   7.222  72.553  1.00  0.00    -0.247 A  
HETATM   14  H1  UNL     1     -10.001   5.076  75.099  1.00  0.00     0.000 HD 
HETATM   15  H2  UNL     1     -10.525   4.777  73.568  1.00  0.00     0.000 HD 
ENDBRANCH   3   4
ENDBRANCH   1   3
BRANCH   1  16
HETATM   16  O   UNL     1      -9.167  11.084  68.475  1.00  0.00    -0.164 OA 
BRANCH  16  17
HETATM   17  C   UNL     1      -9.875  11.476  67.273  1.00  0.00    -0.190 C  
HETATM   18  O   UNL     1     -12.160  11.764  67.926  1.00  0.00    -0.592 OA 
HETATM   19  O   UNL     1     -10.318  13.336  68.921  1.00  0.00    -0.178 OA 
HETATM   20  P   UNL     1     -11.097  12.804  67.570  1.00  0.00    -0.295 P  
HETATM   21  O   UNL     1     -12.253  14.061  67.849  1.00  0.00    -0.319 OA 
BRANCH  19  22
HETATM   22  C   UNL     1      -9.380  14.386  68.823  1.00  0.00    -0.150 C  
BRANCH  22  23
HETATM   23  O   UNL     1      -9.502  15.317  69.905  1.00  0.00    -0.195 OA 
BRANCH  23  24
HETATM   24  C   UNL     1     -10.518  16.204  69.759  1.00  0.00    -0.286 C  
HETATM   25  O   UNL     1     -10.869  16.720  68.706  1.00  0.00    -0.328 OA 
BRANCH  24  26
HETATM   26  O   UNL     1     -11.076  16.448  70.974  1.00  0.00    -0.221 OA 
BRANCH  26  27
HETATM   27  C   UNL     1     -11.849  15.361  71.527  1.00  0.00    -0.387 C  
HETATM   28  C   UNL     1     -11.793  15.436  73.049  1.00  0.00    -0.532 C  
HETATM   29  C   UNL     1     -13.291  15.470  71.044  1.00  0.00    -0.495 C  
ENDBRANCH  26  27
ENDBRANCH  24  26
ENDBRANCH  23  24
ENDBRANCH  22  23
ENDBRANCH  19  22
BRANCH  21  30
HETATM   30  C   UNL     1     -12.654  14.707  66.660  1.00  0.00     0.369 C  
BRANCH  30  31
HETATM   31  O   UNL     1     -12.511  13.858  65.526  1.00  0.00    -0.452 OA 
BRANCH  31  32
HETATM   32  C   UNL     1     -11.937  14.457  64.456  1.00  0.00    -0.472 C  
HETATM   33  O   UNL     1     -11.091  15.340  64.501  1.00  0.00    -0.343 OA 
BRANCH  32  34
HETATM   34  O   UNL     1     -12.418  13.865  63.334  1.00  0.00    -0.833 OA 
BRANCH  34  35
HETATM   35  C   UNL     1     -11.872  12.572  63.009  1.00  0.00    -0.025 C  
HETATM   36  C   UNL     1     -12.888  11.522  63.451  1.00  0.00     0.072 C  
HETATM   37  C   UNL     1     -10.548  12.353  63.735  1.00  0.00    -0.486 C  
ENDBRANCH  34  35
ENDBRANCH  32  34
ENDBRANCH  31  32
ENDBRANCH  30  31
ENDBRANCH  21  30
ENDBRANCH  16  17
ENDBRANCH   1  16
TORSDOF 14
ENDMDL
MODEL      155
REMARK 921   NORMALIZED FREE ENERGY PREDICTED BY IDOCK:   -4.91 KCAL/MOL
REMARK 922        TOTAL FREE ENERGY PREDICTED BY IDOCK:  -10.76 KCAL/MOL
REMARK 923 INTER-LIGAND FREE ENERGY PREDICTED BY IDOCK:  -10.08 KCAL/MOL
REMARK 924 INTRA-LIGAND FREE ENERGY PREDICTED BY IDOCK:   -0.68 KCAL/MOL
REMARK 927      BINDING AFFINITY PREDICTED BY RF-SCORE:    0.00 PKD
ROOT
HETATM    1  C   UNL     1      -9.108  10.982  65.730  1.00  0.00    -0.202 C  
HETATM    2  C   UNL     1      -9.252  10.898  64.212  1.00  0.00    -0.221 C  
ENDROOT
BRANCH   1   3
HETATM    3  C   UNL     1     -10.106  10.119  66.491  1.00  0.00    -0.234 C  
BRANCH   3   4
HETATM    4  N   UNL     1      -9.558   9.270  67.514  1.00  0.00    -0.145 NA 
HETATM    5  C   UNL     1      -9.915   7.964  67.653  1.00  0.00    -0.181 A  
HETATM    6  N   UNL     1     -10.196   5.409  68.327  1.00  0.00    -0.172 NA 
HETATM    7  C   UNL     1      -8.526   9.517  68.376  1.00  0.00    -0.119 A  
HETATM    8  N   UNL     1      -8.489   5.501  69.953  1.00  0.00    -0.114 NA 
HETATM    9  N   UNL     1     -10.859   7.299  66.970  1.00  0.00    -0.354 NA 
HETATM   10  C   UNL     1      -9.246   6.125  68.969  1.00  0.00    -0.126 A  
HETATM   11  N   UNL     1      -8.230   8.459  69.097  1.00  0.00    -0.119 NA 
HETATM   12  C   UNL     1     -10.928   6.022  67.370  1.00  0.00    -0.246 A  
HETATM   13  C   UNL     1      -9.079   7.474  68.637  1.00  0.00    -0.134 A  
HETATM   14  H1  UNL     1      -8.611   4.518  70.195  1.00  0.00     0.000 HD 
HETATM   15  H2  UNL     1      -8.589   6.044  70.810  1.00  0.00     0.000 HD 
ENDBRANCH   3   4
ENDBRANCH   1   3
BRANCH   1  16
HETATM   16  O   UNL     1      -9.128  12.374  66.115  1.00  0.00    -0.163 OA 
BRANCH  16  17
HETATM   17  C   UNL     1     -10.051  12.731  67.173  1.00  0.00    -0.234 C  
HETATM   18  O   UNL     1      -8.691  13.433  69.015  1.00  0.00     0.177 OA 
HETATM   19  O   UNL     1      -8.670  14.810  66.788  1.00  0.00    -0.240 OA 
HETATM   20  P   UNL     1      -9.559  14.254  68.059  1.00  0.00    -0.235 P  
HETATM   21  O   UNL     1      -9.095  15.695  68.897  1.00  0.00    -0.186 OA 
BRANCH  19  22
HETATM   22  C   UNL     1      -9.256  15.687  65.851  1.00  0.00    -0.295 C  
BRANCH  22  23
HETATM   23  O   UNL     1     -10.684  15.570  65.829  1.00  0.00    -0.326 OA 
BRANCH  23  24
HETATM   24  C   UNL     1     -11.214  15.502  64.582  1.00  0.00    -0.371 C  
HETATM   25  O   UNL     1     -11.773  16.418  63.993  1.00  0.00    -1.044 OA 
BRANCH  24  26
HETATM   26  O   UNL     1     -11.045  14.245  64.092  1.00  0.00    -0.175 OA 
BRANCH  26  27
HETATM   27  C   UNL     1     -11.956  13.252  64.614  1.00  0.00    -0.394 C  
HETATM   28  C   UNL     1     -13.122  13.959  65.297  1.00  0.00    -0.205 C  
HETATM   29  C   UNL     1     -12.461  12.380  63.470  1.00  0.00    -0.605 C  
ENDBRANCH  26  27
ENDBRANCH  24  26
ENDBRANCH  23  24
ENDBRANCH  22  23
ENDBRANCH  19  22
BRANCH  21  30
HETATM   30  C   UNL     1     -10.154  16.258  69.642  1.00  0.00    -0.175 C  
BRANCH  30  31
HETATM   31  O   UNL     1     -10.904  15.260  70.328  1.00  0.00    -0.280 OA 
BRANCH  31  32
HETATM   32  C   UNL     1     -12.053  15.714  70.878  1.00  0.00    -0.407 C  
HETATM   33  O   UNL     1     -13.106  15.901  70.282  1.00  0.00    -0.271 OA 
BRANCH  32  34
HETATM   34  O   UNL     1     -11.852  15.867  72.211  1.00  0.00    -0.433 OA 
BRANCH  34  35
HETATM   35  C   UNL     1     -12.950  15.504  73.070  1.00  0.00    -0.499 C  
HETATM   36  C   UNL     1     -12.477  15.664  74.512  1.00  0.00    -0.749 C  
HETATM   37  C   UNL     1     -13.372  14.061  72.817  1.00  0.00    -0.603 C  
ENDBRANCH  34  35
ENDBRANCH  32  34
ENDBRANCH  31  32
ENDBRANCH  30  31
ENDBRANCH  21  30
ENDBRANCH  16  17
ENDBRANCH   1  16
TORSDOF 14
ENDMDL
MODEL      156
REMARK 921   NORMALIZED FREE ENERGY PREDICTED BY IDOCK:   -4.90 KCAL/MOL
REMARK 922        TOTAL FREE ENERGY PREDICTED BY IDOCK:  -10.75 KCAL/MOL
REMARK 923 INTER-LIGAND FREE ENERGY PREDICTED BY IDOCK:   -8.99 KCAL/MOL
REMARK 924 INTRA-LIGAND FREE ENERGY PREDICTED BY IDOCK:   -1.76 KCAL/MOL
REMARK 927      BINDING AFFINITY PREDICTED BY RF-SCORE:    0.00 PKD
ROOT
HETATM    1  C   UNL     1     -10.380   5.207  70.849  1.00  0.00    -0.212 C  
HETATM    2  C   UNL     1      -9.576   5.501  72.113  1.00  0.00    -0.173 C  
ENDROOT
BRANCH   1   3
HETATM    3  C   UNL     1      -9.697   4.231  69.899  1.00  0.00    -0.221 C  
BRANCH   3   4
HETATM    4  N   UNL     1      -8.779   4.807  68.953  1.00  0.00    -0.088 NA 
HETATM    5  C   UNL     1      -9.017   4.816  67.613  1.00  0.00    -0.110 A  
HETATM    6  N   UNL     1      -9.001   5.157  64.978  1.00  0.00    -0.140 NA 
HETATM    7  C   UNL     1      -7.660   5.555  69.185  1.00  0.00    -0.086 A  
HETATM    8  N   UNL     1      -7.028   6.449  65.012  1.00  0.00    -0.050 NA 
HETATM    9  N   UNL     1     -10.038   4.237  66.961  1.00  0.00    -0.123 NA 
HETATM   10  C   UNL     1      -8.008   5.734  65.690  1.00  0.00    -0.116 A  
HETATM   11  N   UNL     1      -7.134   6.006  68.069  1.00  0.00    -0.076 NA 
HETATM   12  C   UNL     1      -9.952   4.464  65.643  1.00  0.00    -0.236 A  
HETATM   13  C   UNL     1      -7.990   5.568  67.079  1.00  0.00    -0.102 A  
HETATM   14  H1  UNL     1      -7.041   6.571  64.000  1.00  0.00     0.000 HD 
HETATM   15  H2  UNL     1      -6.124   6.048  65.262  1.00  0.00     0.000 HD 
ENDBRANCH   3   4
ENDBRANCH   1   3
BRANCH   1  16
HETATM   16  O   UNL     1     -10.743   6.462  70.235  1.00  0.00    -0.228 OA 
BRANCH  16  17
HETATM   17  C   UNL     1     -11.968   7.074  70.706  1.00  0.00    -0.345 C  
HETATM   18  O   UNL     1     -11.319   8.568  72.461  1.00  0.00    -0.368 OA 
HETATM   19  O   UNL     1     -10.504   9.010  70.012  1.00  0.00    -0.199 OA 
HETATM   20  P   UNL     1     -11.787   8.864  71.035  1.00  0.00    -0.212 P  
HETATM   21  O   UNL     1     -11.617  10.558  71.346  1.00  0.00    -0.193 OA 
BRANCH  19  22
HETATM   22  C   UNL     1     -10.714   9.399  68.672  1.00  0.00    -0.160 C  
BRANCH  22  23
HETATM   23  O   UNL     1      -9.925  10.540  68.316  1.00  0.00    -0.153 OA 
BRANCH  23  24
HETATM   24  C   UNL     1     -10.653  11.649  68.032  1.00  0.00    -0.202 C  
HETATM   25  O   UNL     1     -10.590  12.716  68.628  1.00  0.00    -0.235 OA 
BRANCH  24  26
HETATM   26  O   UNL     1     -11.484  11.383  66.989  1.00  0.00    -0.452 OA 
BRANCH  26  27
HETATM   27  C   UNL     1     -11.219  12.133  65.783  1.00  0.00    -0.339 C  
HETATM   28  C   UNL     1     -10.809  11.167  64.677  1.00  0.00    -0.295 C  
HETATM   29  C   UNL     1     -12.475  12.899  65.380  1.00  0.00    -0.511 C  
ENDBRANCH  26  27
ENDBRANCH  24  26
ENDBRANCH  23  24
ENDBRANCH  22  23
ENDBRANCH  19  22
BRANCH  21  30
HETATM   30  C   UNL     1     -12.858  11.226  71.423  1.00  0.00    -0.410 C  
BRANCH  30  31
HETATM   31  O   UNL     1     -12.758  12.576  70.982  1.00  0.00    -0.326 OA 
BRANCH  31  32
HETATM   32  C   UNL     1     -13.568  13.435  71.643  1.00  0.00    -0.233 C  
HETATM   33  O   UNL     1     -14.410  13.126  72.476  1.00  0.00    -0.613 OA 
BRANCH  32  34
HETATM   34  O   UNL     1     -13.240  14.696  71.268  1.00  0.00    -0.338 OA 
BRANCH  34  35
HETATM   35  C   UNL     1     -11.961  15.186  71.717  1.00  0.00    -0.382 C  
HETATM   36  C   UNL     1     -12.198  15.976  73.000  1.00  0.00    -0.637 C  
HETATM   37  C   UNL     1     -11.333  16.087  70.658  1.00  0.00    -0.424 C  
ENDBRANCH  34  35
ENDBRANCH  32  34
ENDBRANCH  31  32
ENDBRANCH  30  31
ENDBRANCH  21  30
ENDBRANCH  16  17
ENDBRANCH   1  16
TORSDOF 14
ENDMDL
MODEL      157
REMARK 921   NORMALIZED FREE ENERGY PREDICTED BY IDOCK:   -4.89 KCAL/MOL
REMARK 922        TOTAL FREE ENERGY PREDICTED BY IDOCK:  -10.73 KCAL/MOL
REMARK 923 INTER-LIGAND FREE ENERGY PREDICTED BY IDOCK:   -9.88 KCAL/MOL
REMARK 924 INTRA-LIGAND FREE ENERGY PREDICTED BY IDOCK:   -0.85 KCAL/MOL
REMARK 927      BINDING AFFINITY PREDICTED BY RF-SCORE:    0.00 PKD
ROOT
HETATM    1  C   UNL     1     -11.160   8.466  71.771  1.00  0.00    -0.290 C  
HETATM    2  C   UNL     1     -12.552   8.883  72.239  1.00  0.00    -0.455 C  
ENDROOT
BRANCH   1   3
HETATM    3  C   UNL     1     -10.380   7.664  72.804  1.00  0.00    -0.295 C  
BRANCH   3   4
HETATM    4  N   UNL     1     -10.472   6.233  72.695  1.00  0.00    -0.203 NA 
HETATM    5  C   UNL     1      -9.907   5.537  71.672  1.00  0.00    -0.173 A  
HETATM    6  N   UNL     1      -8.972   3.716  69.978  1.00  0.00    -0.090 NA 
HETATM    7  C   UNL     1     -10.952   5.329  73.602  1.00  0.00    -0.255 A  
HETATM    8  N   UNL     1      -9.725   1.902  71.286  1.00  0.00    -0.142 NA 
HETATM    9  N   UNL     1      -9.285   6.034  70.591  1.00  0.00    -0.149 NA 
HETATM   10  C   UNL     1      -9.591   3.272  71.094  1.00  0.00    -0.160 A  
HETATM   11  N   UNL     1     -10.770   4.092  73.200  1.00  0.00    -0.185 NA 
HETATM   12  C   UNL     1      -8.844   5.048  69.798  1.00  0.00    -0.098 A  
HETATM   13  C   UNL     1     -10.096   4.210  72.003  1.00  0.00    -0.164 A  
HETATM   14  H1  UNL     1      -9.358   1.219  70.624  1.00  0.00     0.000 HD 
HETATM   15  H2  UNL     1     -10.717   1.704  71.413  1.00  0.00     0.000 HD 
ENDBRANCH   3   4
ENDBRANCH   1   3
BRANCH   1  16
HETATM   16  O   UNL     1     -10.465   9.640  71.298  1.00  0.00    -0.301 OA 
BRANCH  16  17
HETATM   17  C   UNL     1      -9.499   9.429  70.240  1.00  0.00    -0.251 C  
HETATM   18  O   UNL     1     -10.705   8.383  68.455  1.00  0.00    -0.146 OA 
HETATM   19  O   UNL     1     -11.322  10.821  69.184  1.00  0.00    -0.240 OA 
HETATM   20  P   UNL     1     -10.169   9.810  68.580  1.00  0.00    -0.208 P  
HETATM   21  O   UNL     1     -10.801  10.171  67.011  1.00  0.00    -0.230 OA 
BRANCH  19  22
HETATM   22  C   UNL     1     -11.066  12.206  69.268  1.00  0.00    -0.167 C  
BRANCH  22  23
HETATM   23  O   UNL     1     -12.271  12.978  69.197  1.00  0.00    -0.225 OA 
BRANCH  23  24
HETATM   24  C   UNL     1     -12.122  14.273  69.575  1.00  0.00    -0.330 C  
HETATM   25  O   UNL     1     -11.953  15.221  68.821  1.00  0.00    -0.321 OA 
BRANCH  24  26
HETATM   26  O   UNL     1     -12.170  14.350  70.932  1.00  0.00    -0.301 OA 
BRANCH  26  27
HETATM   27  C   UNL     1     -12.788  15.544  71.460  1.00  0.00    -0.451 C  
HETATM   28  C   UNL     1     -14.204  15.210  71.915  1.00  0.00    -0.676 C  
HETATM   29  C   UNL     1     -11.962  16.062  72.633  1.00  0.00    -0.646 C  
ENDBRANCH  26  27
ENDBRANCH  24  26
ENDBRANCH  23  24
ENDBRANCH  22  23
ENDBRANCH  19  22
BRANCH  21  30
HETATM   30  C   UNL     1      -9.790  10.345  66.042  1.00  0.00    -0.232 C  
BRANCH  30  31
HETATM   31  O   UNL     1     -10.333  10.657  64.763  1.00  0.00    -0.335 OA 
BRANCH  31  32
HETATM   32  C   UNL     1     -10.139  11.939  64.378  1.00  0.00    -0.279 C  
HETATM   33  O   UNL     1      -9.980  12.323  63.226  1.00  0.00    -0.403 OA 
BRANCH  32  34
HETATM   34  O   UNL     1     -10.212  12.726  65.480  1.00  0.00    -0.275 OA 
BRANCH  34  35
HETATM   35  C   UNL     1     -11.370  13.578  65.582  1.00  0.00    -0.298 C  
HETATM   36  C   UNL     1     -12.572  12.778  65.087  1.00  0.00    -0.513 C  
HETATM   37  C   UNL     1     -11.189  14.829  64.729  1.00  0.00    -0.392 C  
ENDBRANCH  34  35
ENDBRANCH  32  34
ENDBRANCH  31  32
ENDBRANCH  30  31
ENDBRANCH  21  30
ENDBRANCH  16  17
ENDBRANCH   1  16
TORSDOF 14
ENDMDL
MODEL      158
REMARK 921   NORMALIZED FREE ENERGY PREDICTED BY IDOCK:   -4.87 KCAL/MOL
REMARK 922        TOTAL FREE ENERGY PREDICTED BY IDOCK:  -10.70 KCAL/MOL
REMARK 923 INTER-LIGAND FREE ENERGY PREDICTED BY IDOCK:   -8.91 KCAL/MOL
REMARK 924 INTRA-LIGAND FREE ENERGY PREDICTED BY IDOCK:   -1.79 KCAL/MOL
REMARK 927      BINDING AFFINITY PREDICTED BY RF-SCORE:    0.00 PKD
ROOT
HETATM    1  C   UNL     1      -7.764   8.508  68.736  1.00  0.00    -0.102 C  
HETATM    2  C   UNL     1      -6.775   8.659  67.582  1.00  0.00    -0.066 C  
ENDROOT
BRANCH   1   3
HETATM    3  C   UNL     1      -8.265   7.083  68.933  1.00  0.00    -0.122 C  
BRANCH   3   4
HETATM    4  N   UNL     1      -9.232   6.614  67.978  1.00  0.00    -0.114 NA 
HETATM    5  C   UNL     1      -8.932   5.692  67.023  1.00  0.00    -0.114 A  
HETATM    6  N   UNL     1      -8.914   3.916  65.046  1.00  0.00    -0.125 NA 
HETATM    7  C   UNL     1     -10.580   6.837  67.937  1.00  0.00    -0.242 A  
HETATM    8  N   UNL     1     -11.235   4.103  64.663  1.00  0.00    -0.886 NA 
HETATM    9  N   UNL     1      -7.730   5.161  66.749  1.00  0.00    -0.092 NA 
HETATM   10  C   UNL     1     -10.101   4.470  65.379  1.00  0.00    -0.192 A  
HETATM   11  N   UNL     1     -11.159   6.150  66.979  1.00  0.00    -0.312 NA 
HETATM   12  C   UNL     1      -7.816   4.276  65.746  1.00  0.00    -0.094 A  
HETATM   13  C   UNL     1     -10.139   5.411  66.414  1.00  0.00    -0.204 A  
HETATM   14  H1  UNL     1     -11.207   3.418  63.909  1.00  0.00     0.000 HD 
HETATM   15  H2  UNL     1     -11.653   4.955  64.290  1.00  0.00     0.000 HD 
ENDBRANCH   3   4
ENDBRANCH   1   3
BRANCH   1  16
HETATM   16  O   UNL     1      -8.819   9.478  68.563  1.00  0.00    -0.123 OA 
BRANCH  16  17
HETATM   17  C   UNL     1      -8.427  10.870  68.645  1.00  0.00    -0.152 C  
HETATM   18  O   UNL     1      -8.221  11.625  66.382  1.00  0.00    -0.146 OA 
HETATM   19  O   UNL     1     -10.559  10.877  67.293  1.00  0.00    -0.221 OA 
HETATM   20  P   UNL     1      -9.295  11.926  67.429  1.00  0.00    -0.186 P  
HETATM   21  O   UNL     1     -10.116  12.925  66.280  1.00  0.00    -0.264 OA 
BRANCH  19  22
HETATM   22  C   UNL     1     -11.709  11.057  68.091  1.00  0.00    -0.202 C  
BRANCH  22  23
HETATM   23  O   UNL     1     -11.529  12.094  69.063  1.00  0.00    -0.252 OA 
BRANCH  23  24
HETATM   24  C   UNL     1     -12.034  11.798  70.288  1.00  0.00    -0.343 C  
HETATM   25  O   UNL     1     -12.341  12.613  71.148  1.00  0.00    -0.314 OA 
BRANCH  24  26
HETATM   26  O   UNL     1     -12.128  10.448  70.418  1.00  0.00    -0.282 OA 
BRANCH  26  27
HETATM   27  C   UNL     1     -12.376   9.974  71.759  1.00  0.00    -0.345 C  
HETATM   28  C   UNL     1     -13.748   9.309  71.805  1.00  0.00    -0.443 C  
HETATM   29  C   UNL     1     -11.290   8.977  72.151  1.00  0.00    -0.311 C  
ENDBRANCH  26  27
ENDBRANCH  24  26
ENDBRANCH  23  24
ENDBRANCH  22  23
ENDBRANCH  19  22
BRANCH  21  30
HETATM   30  C   UNL     1     -10.043  14.298  66.600  1.00  0.00    -0.273 C  
BRANCH  30  31
HETATM   31  O   UNL     1     -11.315  14.820  66.972  1.00  0.00    -0.338 OA 
BRANCH  31  32
HETATM   32  C   UNL     1     -11.266  15.735  67.967  1.00  0.00    -0.338 C  
HETATM   33  O   UNL     1     -11.812  15.634  69.058  1.00  0.00    -0.376 OA 
BRANCH  32  34
HETATM   34  O   UNL     1     -10.461  16.750  67.567  1.00  0.00    -0.308 OA 
BRANCH  34  35
HETATM   35  C   UNL     1      -9.723  17.427  68.604  1.00  0.00    -0.308 C  
HETATM   36  C   UNL     1     -10.103  18.904  68.546  1.00  0.00    -0.460 C  
HETATM   37  C   UNL     1      -8.223  17.267  68.383  1.00  0.00    -0.260 C  
ENDBRANCH  34  35
ENDBRANCH  32  34
ENDBRANCH  31  32
ENDBRANCH  30  31
ENDBRANCH  21  30
ENDBRANCH  16  17
ENDBRANCH   1  16
TORSDOF 14
ENDMDL
MODEL      159
REMARK 921   NORMALIZED FREE ENERGY PREDICTED BY IDOCK:   -4.87 KCAL/MOL
REMARK 922        TOTAL FREE ENERGY PREDICTED BY IDOCK:  -10.69 KCAL/MOL
REMARK 923 INTER-LIGAND FREE ENERGY PREDICTED BY IDOCK:   -9.65 KCAL/MOL
REMARK 924 INTRA-LIGAND FREE ENERGY PREDICTED BY IDOCK:   -1.04 KCAL/MOL
REMARK 927      BINDING AFFINITY PREDICTED BY RF-SCORE:    0.00 PKD
ROOT
HETATM    1  C   UNL     1     -11.306   9.742  69.269  1.00  0.00    -0.014 C  
HETATM    2  C   UNL     1     -11.062  10.171  70.714  1.00  0.00    -0.372 C  
ENDROOT
BRANCH   1   3
HETATM    3  C   UNL     1     -10.251   8.787  68.725  1.00  0.00    -0.206 C  
BRANCH   3   4
HETATM    4  N   UNL     1     -10.222   7.475  69.311  1.00  0.00    -0.196 NA 
HETATM    5  C   UNL     1      -9.339   7.126  70.286  1.00  0.00    -0.155 A  
HETATM    6  N   UNL     1      -7.919   5.953  72.201  1.00  0.00    -0.106 NA 
HETATM    7  C   UNL     1     -11.107   6.444  69.158  1.00  0.00    -0.365 A  
HETATM    8  N   UNL     1      -9.218   3.983  72.158  1.00  0.00    -0.119 NA 
HETATM    9  N   UNL     1      -8.330   7.864  70.776  1.00  0.00    -0.113 NA 
HETATM   10  C   UNL     1      -8.960   5.264  71.683  1.00  0.00    -0.135 A  
HETATM   11  N   UNL     1     -10.816   5.431  69.943  1.00  0.00    -0.235 NA 
HETATM   12  C   UNL     1      -7.674   7.197  71.736  1.00  0.00    -0.092 A  
HETATM   13  C   UNL     1      -9.724   5.857  70.670  1.00  0.00    -0.176 A  
HETATM   14  H1  UNL     1      -8.663   3.552  72.896  1.00  0.00     0.000 HD 
HETATM   15  H2  UNL     1      -9.213   3.351  71.358  1.00  0.00     0.000 HD 
ENDBRANCH   3   4
ENDBRANCH   1   3
BRANCH   1  16
HETATM   16  O   UNL     1     -11.492  10.926  68.464  1.00  0.00    -0.273 OA 
BRANCH  16  17
HETATM   17  C   UNL     1     -11.186  12.189  69.106  1.00  0.00    -0.244 C  
HETATM   18  O   UNL     1      -9.019  12.819  68.305  1.00  0.00    -0.194 OA 
HETATM   19  O   UNL     1     -11.026  12.664  66.631  1.00  0.00    -0.247 OA 
HETATM   20  P   UNL     1     -10.399  13.389  67.971  1.00  0.00    -0.251 P  
HETATM   21  O   UNL     1      -9.655  14.525  66.899  1.00  0.00    -0.232 OA 
BRANCH  19  22
HETATM   22  C   UNL     1     -12.242  13.128  66.086  1.00  0.00    -0.385 C  
BRANCH  22  23
HETATM   23  O   UNL     1     -12.728  12.266  65.050  1.00  0.00    -0.581 OA 
BRANCH  23  24
HETATM   24  C   UNL     1     -12.188  12.510  63.829  1.00  0.00    -0.525 C  
HETATM   25  O   UNL     1     -12.290  13.555  63.200  1.00  0.00    -0.712 OA 
BRANCH  24  26
HETATM   26  O   UNL     1     -11.529  11.400  63.403  1.00  0.00    -0.316 OA 
BRANCH  26  27
HETATM   27  C   UNL     1     -10.105  11.398  63.642  1.00  0.00    -0.377 C  
HETATM   28  C   UNL     1      -9.784  10.375  64.725  1.00  0.00    -0.383 C  
HETATM   29  C   UNL     1      -9.377  11.047  62.348  1.00  0.00    -0.226 C  
ENDBRANCH  26  27
ENDBRANCH  24  26
ENDBRANCH  23  24
ENDBRANCH  22  23
ENDBRANCH  19  22
BRANCH  21  30
HETATM   30  C   UNL     1      -9.710  15.849  67.384  1.00  0.00    -0.227 C  
BRANCH  30  31
HETATM   31  O   UNL     1      -9.398  15.915  68.772  1.00  0.00    -0.197 OA 
BRANCH  31  32
HETATM   32  C   UNL     1     -10.331  16.550  69.518  1.00  0.00    -0.266 C  
HETATM   33  O   UNL     1     -10.816  17.647  69.275  1.00  0.00     0.054 OA 
BRANCH  32  34
HETATM   34  O   UNL     1     -10.678  15.732  70.543  1.00  0.00    -0.312 OA 
BRANCH  34  35
HETATM   35  C   UNL     1     -12.015  15.884  71.059  1.00  0.00    -0.412 C  
HETATM   36  C   UNL     1     -11.900  16.171  72.554  1.00  0.00    -0.630 C  
HETATM   37  C   UNL     1     -12.822  14.610  70.834  1.00  0.00    -0.427 C  
ENDBRANCH  34  35
ENDBRANCH  32  34
ENDBRANCH  31  32
ENDBRANCH  30  31
ENDBRANCH  21  30
ENDBRANCH  16  17
ENDBRANCH   1  16
TORSDOF 14
ENDMDL
MODEL      160
REMARK 921   NORMALIZED FREE ENERGY PREDICTED BY IDOCK:   -4.87 KCAL/MOL
REMARK 922        TOTAL FREE ENERGY PREDICTED BY IDOCK:  -10.69 KCAL/MOL
REMARK 923 INTER-LIGAND FREE ENERGY PREDICTED BY IDOCK:   -9.12 KCAL/MOL
REMARK 924 INTRA-LIGAND FREE ENERGY PREDICTED BY IDOCK:   -1.57 KCAL/MOL
REMARK 927      BINDING AFFINITY PREDICTED BY RF-SCORE:    0.00 PKD
ROOT
HETATM    1  C   UNL     1      -9.973  16.016  66.237  1.00  0.00    -0.310 C  
HETATM    2  C   UNL     1     -10.798  15.816  64.967  1.00  0.00    -0.461 C  
ENDROOT
BRANCH   1   3
HETATM    3  C   UNL     1      -8.635  16.705  65.998  1.00  0.00    -0.194 C  
BRANCH   3   4
HETATM    4  N   UNL     1      -8.325  17.804  66.872  1.00  0.00    -0.230 NA 
HETATM    5  C   UNL     1      -7.470  17.685  67.925  1.00  0.00    -0.204 A  
HETATM    6  N   UNL     1      -5.878  18.025  70.024  1.00  0.00    -0.239 NA 
HETATM    7  C   UNL     1      -8.651  19.125  66.744  1.00  0.00    -0.309 A  
HETATM    8  N   UNL     1      -6.269  20.350  70.127  1.00  0.00    -0.415 NA 
HETATM    9  N   UNL     1      -6.877  16.567  68.373  1.00  0.00    -0.141 NA 
HETATM   10  C   UNL     1      -6.487  19.120  69.517  1.00  0.00    -0.284 A  
HETATM   11  N   UNL     1      -8.094  19.858  67.681  1.00  0.00    -0.298 NA 
HETATM   12  C   UNL     1      -6.092  16.833  69.426  1.00  0.00    -0.211 A  
HETATM   13  C   UNL     1      -7.334  18.969  68.413  1.00  0.00    -0.295 A  
HETATM   14  H1  UNL     1      -5.652  20.460  70.931  1.00  0.00     0.000 HD 
HETATM   15  H2  UNL     1      -7.179  20.733  70.382  1.00  0.00     0.000 HD 
ENDBRANCH   3   4
ENDBRANCH   1   3
BRANCH   1  16
HETATM   16  O   UNL     1      -9.863  14.747  66.916  1.00  0.00    -0.233 OA 
BRANCH  16  17
HETATM   17  C   UNL     1     -10.677  14.584  68.103  1.00  0.00    -0.239 C  
HETATM   18  O   UNL     1     -12.581  13.304  67.418  1.00  0.00    -0.015 OA 
HETATM   19  O   UNL     1     -10.193  12.233  67.322  1.00  0.00    -0.209 OA 
HETATM   20  P   UNL     1     -11.371  12.899  68.263  1.00  0.00    -0.340 P  
HETATM   21  O   UNL     1     -12.027  11.306  68.415  1.00  0.00    -0.555 OA 
BRANCH  19  22
HETATM   22  C   UNL     1      -9.040  11.685  67.924  1.00  0.00    -0.171 C  
BRANCH  22  23
HETATM   23  O   UNL     1      -8.801  10.339  67.496  1.00  0.00    -0.128 OA 
BRANCH  23  24
HETATM   24  C   UNL     1      -7.758  10.209  66.639  1.00  0.00    -0.106 C  
HETATM   25  O   UNL     1      -6.660   9.745  66.916  1.00  0.00    -0.066 OA 
BRANCH  24  26
HETATM   26  O   UNL     1      -8.118  10.695  65.421  1.00  0.00    -0.156 OA 
BRANCH  26  27
HETATM   27  C   UNL     1      -9.102   9.911  64.711  1.00  0.00    -0.237 C  
HETATM   28  C   UNL     1     -10.156  10.846  64.130  1.00  0.00    -0.416 C  
HETATM   29  C   UNL     1      -8.414   9.129  63.596  1.00  0.00    -0.190 C  
ENDBRANCH  26  27
ENDBRANCH  24  26
ENDBRANCH  23  24
ENDBRANCH  22  23
ENDBRANCH  19  22
BRANCH  21  30
HETATM   30  C   UNL     1     -12.480  11.025  69.722  1.00  0.00    -0.183 C  
BRANCH  30  31
HETATM   31  O   UNL     1     -11.810   9.899  70.281  1.00  0.00    -0.249 OA 
BRANCH  31  32
HETATM   32  C   UNL     1     -12.426   9.372  71.365  1.00  0.00    -0.352 C  
HETATM   33  O   UNL     1     -12.962  10.009  72.262  1.00  0.00    -0.389 OA 
BRANCH  32  34
HETATM   34  O   UNL     1     -12.398   8.021  71.250  1.00  0.00    -0.305 OA 
BRANCH  34  35
HETATM   35  C   UNL     1     -11.128   7.435  70.901  1.00  0.00    -0.263 C  
HETATM   36  C   UNL     1     -11.402   6.305  69.912  1.00  0.00    -0.504 C  
HETATM   37  C   UNL     1     -10.436   6.883  72.143  1.00  0.00    -0.230 C  
ENDBRANCH  34  35
ENDBRANCH  32  34
ENDBRANCH  31  32
ENDBRANCH  30  31
ENDBRANCH  21  30
ENDBRANCH  16  17
ENDBRANCH   1  16
TORSDOF 14
ENDMDL
MODEL      161
REMARK 921   NORMALIZED FREE ENERGY PREDICTED BY IDOCK:   -4.86 KCAL/MOL
REMARK 922        TOTAL FREE ENERGY PREDICTED BY IDOCK:  -10.68 KCAL/MOL
REMARK 923 INTER-LIGAND FREE ENERGY PREDICTED BY IDOCK:   -9.05 KCAL/MOL
REMARK 924 INTRA-LIGAND FREE ENERGY PREDICTED BY IDOCK:   -1.64 KCAL/MOL
REMARK 927      BINDING AFFINITY PREDICTED BY RF-SCORE:    0.00 PKD
ROOT
HETATM    1  C   UNL     1      -8.251  14.467  67.737  1.00  0.00    -0.165 C  
HETATM    2  C   UNL     1      -8.248  15.133  69.112  1.00  0.00    -0.214 C  
ENDROOT
BRANCH   1   3
HETATM    3  C   UNL     1      -8.760  15.367  66.619  1.00  0.00    -0.296 C  
BRANCH   3   4
HETATM    4  N   UNL     1      -8.149  16.665  66.524  1.00  0.00    -0.273 NA 
HETATM    5  C   UNL     1      -8.857  17.821  66.646  1.00  0.00    -0.264 A  
HETATM    6  N   UNL     1      -9.719  20.325  66.861  1.00  0.00    -0.432 NA 
HETATM    7  C   UNL     1      -6.822  16.990  66.470  1.00  0.00    -0.246 A  
HETATM    8  N   UNL     1      -7.545  21.236  66.739  1.00  0.00    -0.637 NA 
HETATM    9  N   UNL     1     -10.187  17.954  66.769  1.00  0.00    -0.345 NA 
HETATM   10  C   UNL     1      -8.386  20.129  66.753  1.00  0.00    -0.301 A  
HETATM   11  N   UNL     1      -6.638  18.290  66.503  1.00  0.00    -0.190 NA 
HETATM   12  C   UNL     1     -10.530  19.245  66.876  1.00  0.00    -0.449 A  
HETATM   13  C   UNL     1      -7.904  18.820  66.635  1.00  0.00    -0.262 A  
HETATM   14  H1  UNL     1      -7.896  22.189  66.825  1.00  0.00     0.000 HD 
HETATM   15  H2  UNL     1      -6.987  21.188  65.887  1.00  0.00     0.000 HD 
ENDBRANCH   3   4
ENDBRANCH   1   3
BRANCH   1  16
HETATM   16  O   UNL     1      -8.952  13.209  67.840  1.00  0.00    -0.181 OA 
BRANCH  16  17
HETATM   17  C   UNL     1      -8.363  12.090  67.134  1.00  0.00    -0.181 C  
HETATM   18  O   UNL     1      -7.588  10.585  68.828  1.00  0.00    -0.087 OA 
HETATM   19  O   UNL     1     -10.151  11.067  68.594  1.00  0.00    -0.183 OA 
HETATM   20  P   UNL     1      -8.787  10.475  67.884  1.00  0.00    -0.137 P  
HETATM   21  O   UNL     1      -9.187   8.949  68.592  1.00  0.00    -0.137 OA 
BRANCH  19  22
HETATM   22  C   UNL     1     -11.393  10.951  67.933  1.00  0.00    -0.308 C  
BRANCH  22  23
HETATM   23  O   UNL     1     -12.152  12.164  68.004  1.00  0.00    -0.478 OA 
BRANCH  23  24
HETATM   24  C   UNL     1     -12.107  12.912  66.873  1.00  0.00    -0.244 C  
HETATM   25  O   UNL     1     -12.239  14.127  66.816  1.00  0.00    -0.447 OA 
BRANCH  24  26
HETATM   26  O   UNL     1     -11.909  12.094  65.805  1.00  0.00    -0.469 OA 
BRANCH  26  27
HETATM   27  C   UNL     1     -11.821  12.761  64.527  1.00  0.00    -0.379 C  
HETATM   28  C   UNL     1     -10.360  12.815  64.094  1.00  0.00    -0.401 C  
HETATM   29  C   UNL     1     -12.650  11.995  63.500  1.00  0.00    -0.625 C  
ENDBRANCH  26  27
ENDBRANCH  24  26
ENDBRANCH  23  24
ENDBRANCH  22  23
ENDBRANCH  19  22
BRANCH  21  30
HETATM   30  C   UNL     1      -8.958   7.865  67.718  1.00  0.00    -0.128 C  
BRANCH  30  31
HETATM   31  O   UNL     1      -7.934   7.003  68.205  1.00  0.00    -0.119 OA 
BRANCH  31  32
HETATM   32  C   UNL     1      -6.992   6.688  67.286  1.00  0.00    -0.078 C  
HETATM   33  O   UNL     1      -6.362   7.488  66.606  1.00  0.00    -0.043 OA 
BRANCH  32  34
HETATM   34  O   UNL     1      -6.827   5.342  67.296  1.00  0.00    -0.057 OA 
BRANCH  34  35
HETATM   35  C   UNL     1      -8.009   4.551  67.063  1.00  0.00    -0.102 C  
HETATM   36  C   UNL     1      -7.638   3.091  67.309  1.00  0.00    -0.070 C  
HETATM   37  C   UNL     1      -8.497   4.729  65.629  1.00  0.00    -0.121 C  
ENDBRANCH  34  35
ENDBRANCH  32  34
ENDBRANCH  31  32
ENDBRANCH  30  31
ENDBRANCH  21  30
ENDBRANCH  16  17
ENDBRANCH   1  16
TORSDOF 14
ENDMDL
MODEL      162
REMARK 921   NORMALIZED FREE ENERGY PREDICTED BY IDOCK:   -4.85 KCAL/MOL
REMARK 922        TOTAL FREE ENERGY PREDICTED BY IDOCK:  -10.66 KCAL/MOL
REMARK 923 INTER-LIGAND FREE ENERGY PREDICTED BY IDOCK:   -8.39 KCAL/MOL
REMARK 924 INTRA-LIGAND FREE ENERGY PREDICTED BY IDOCK:   -2.27 KCAL/MOL
REMARK 927      BINDING AFFINITY PREDICTED BY RF-SCORE:    0.00 PKD
ROOT
HETATM    1  C   UNL     1     -11.123  15.172  69.500  1.00  0.00    -0.277 C  
HETATM    2  C   UNL     1     -12.249  14.652  70.390  1.00  0.00    -0.391 C  
ENDROOT
BRANCH   1   3
HETATM    3  C   UNL     1     -10.745  16.622  69.771  1.00  0.00    -0.254 C  
BRANCH   3   4
HETATM    4  N   UNL     1      -9.630  17.136  69.022  1.00  0.00    -0.231 NA 
HETATM    5  C   UNL     1      -9.759  18.137  68.109  1.00  0.00    -0.325 A  
HETATM    6  N   UNL     1      -9.433  20.059  66.303  1.00  0.00    -0.395 NA 
HETATM    7  C   UNL     1      -8.297  16.879  69.178  1.00  0.00    -0.056 A  
HETATM    8  N   UNL     1      -7.084  19.837  66.280  1.00  0.00    -0.237 NA 
HETATM    9  N   UNL     1     -10.893  18.720  67.691  1.00  0.00    -0.392 NA 
HETATM   10  C   UNL     1      -8.323  19.448  66.774  1.00  0.00    -0.296 A  
HETATM   11  N   UNL     1      -7.561  17.622  68.382  1.00  0.00    -0.250 NA 
HETATM   12  C   UNL     1     -10.634  19.677  66.789  1.00  0.00    -0.486 A  
HETATM   13  C   UNL     1      -8.465  18.430  67.724  1.00  0.00    -0.259 A  
HETATM   14  H1  UNL     1      -6.979  20.579  65.588  1.00  0.00     0.000 HD 
HETATM   15  H2  UNL     1      -6.624  19.005  65.911  1.00  0.00     0.000 HD 
ENDBRANCH   3   4
ENDBRANCH   1   3
BRANCH   1  16
HETATM   16  O   UNL     1     -11.468  14.906  68.124  1.00  0.00    -0.304 OA 
BRANCH  16  17
HETATM   17  C   UNL     1     -11.831  13.540  67.808  1.00  0.00    -0.362 C  
HETATM   18  O   UNL     1     -12.355  13.526  65.472  1.00  0.00    -0.423 OA 
HETATM   19  O   UNL     1      -9.917  14.077  66.252  1.00  0.00    -0.288 OA 
HETATM   20  P   UNL     1     -11.138  12.970  66.214  1.00  0.00    -0.308 P  
HETATM   21  O   UNL     1     -10.482  12.432  64.706  1.00  0.00    -0.284 OA 
BRANCH  19  22
HETATM   22  C   UNL     1      -8.662  13.718  66.789  1.00  0.00    -0.087 C  
BRANCH  22  23
HETATM   23  O   UNL     1      -8.772  12.658  67.747  1.00  0.00    -0.159 OA 
BRANCH  23  24
HETATM   24  C   UNL     1      -7.662  12.481  68.506  1.00  0.00    -0.113 C  
HETATM   25  O   UNL     1      -7.111  11.410  68.725  1.00  0.00    -0.087 OA 
BRANCH  24  26
HETATM   26  O   UNL     1      -7.266  13.682  69.005  1.00  0.00    -0.107 OA 
BRANCH  26  27
HETATM   27  C   UNL     1      -5.852  13.801  69.275  1.00  0.00    -0.087 C  
HETATM   28  C   UNL     1      -5.206  14.643  68.179  1.00  0.00    -0.119 C  
HETATM   29  C   UNL     1      -5.652  14.459  70.636  1.00  0.00    -0.156 C  
ENDBRANCH  26  27
ENDBRANCH  24  26
ENDBRANCH  23  24
ENDBRANCH  22  23
ENDBRANCH  19  22
BRANCH  21  30
HETATM   30  C   UNL     1     -10.495  11.026  64.577  1.00  0.00    -0.342 C  
BRANCH  30  31
HETATM   31  O   UNL     1     -10.529  10.381  65.846  1.00  0.00    -0.212 OA 
BRANCH  31  32
HETATM   32  C   UNL     1      -9.895   9.186  65.876  1.00  0.00    -0.235 C  
HETATM   33  O   UNL     1      -9.150   8.750  65.007  1.00  0.00    -0.130 OA 
BRANCH  32  34
HETATM   34  O   UNL     1     -10.181   8.586  67.058  1.00  0.00    -0.246 OA 
BRANCH  34  35
HETATM   35  C   UNL     1      -9.424   9.032  68.201  1.00  0.00    -0.142 C  
HETATM   36  C   UNL     1      -8.509   7.884  68.620  1.00  0.00    -0.128 C  
HETATM   37  C   UNL     1     -10.359   9.399  69.349  1.00  0.00    -0.222 C  
ENDBRANCH  34  35
ENDBRANCH  32  34
ENDBRANCH  31  32
ENDBRANCH  30  31
ENDBRANCH  21  30
ENDBRANCH  16  17
ENDBRANCH   1  16
TORSDOF 14
ENDMDL
MODEL      163
REMARK 921   NORMALIZED FREE ENERGY PREDICTED BY IDOCK:   -4.85 KCAL/MOL
REMARK 922        TOTAL FREE ENERGY PREDICTED BY IDOCK:  -10.66 KCAL/MOL
REMARK 923 INTER-LIGAND FREE ENERGY PREDICTED BY IDOCK:   -9.31 KCAL/MOL
REMARK 924 INTRA-LIGAND FREE ENERGY PREDICTED BY IDOCK:   -1.35 KCAL/MOL
REMARK 927      BINDING AFFINITY PREDICTED BY RF-SCORE:    0.00 PKD
ROOT
HETATM    1  C   UNL     1     -10.468   9.782  70.438  1.00  0.00    -0.297 C  
HETATM    2  C   UNL     1      -9.265   9.219  71.192  1.00  0.00    -0.225 C  
ENDROOT
BRANCH   1   3
HETATM    3  C   UNL     1     -11.583   8.770  70.217  1.00  0.00    -0.016 C  
BRANCH   3   4
HETATM    4  N   UNL     1     -11.190   7.386  70.207  1.00  0.00    -0.267 NA 
HETATM    5  C   UNL     1     -10.846   6.730  69.066  1.00  0.00    -0.249 A  
HETATM    6  N   UNL     1     -10.037   5.018  67.201  1.00  0.00    -0.198 NA 
HETATM    7  C   UNL     1     -10.930   6.558  71.262  1.00  0.00    -0.262 A  
HETATM    8  N   UNL     1      -9.533   3.327  68.767  1.00  0.00    -0.165 NA 
HETATM    9  N   UNL     1     -10.904   7.194  67.808  1.00  0.00    -0.205 NA 
HETATM   10  C   UNL     1      -9.983   4.612  68.489  1.00  0.00    -0.060 A  
HETATM   11  N   UNL     1     -10.484   5.388  70.865  1.00  0.00    -0.246 NA 
HETATM   12  C   UNL     1     -10.475   6.269  66.937  1.00  0.00    -0.272 A  
HETATM   13  C   UNL     1     -10.405   5.492  69.492  1.00  0.00    -0.287 A  
HETATM   14  H1  UNL     1      -9.224   2.686  68.036  1.00  0.00     0.000 HD 
HETATM   15  H2  UNL     1     -10.259   2.855  69.304  1.00  0.00     0.000 HD 
ENDBRANCH   3   4
ENDBRANCH   1   3
BRANCH   1  16
HETATM   16  O   UNL     1      -9.995  10.405  69.224  1.00  0.00    -0.210 OA 
BRANCH  16  17
HETATM   17  C   UNL     1     -10.998  10.684  68.216  1.00  0.00    -0.263 C  
HETATM   18  O   UNL     1     -11.966  12.788  68.826  1.00  0.00    -0.305 OA 
HETATM   19  O   UNL     1      -9.439  12.670  68.148  1.00  0.00    -0.210 OA 
HETATM   20  P   UNL     1     -11.005  12.436  67.689  1.00  0.00    -0.267 P  
HETATM   21  O   UNL     1     -11.012  14.093  67.189  1.00  0.00    -0.290 OA 
BRANCH  19  22
HETATM   22  C   UNL     1      -8.401  12.514  67.205  1.00  0.00    -0.179 C  
BRANCH  22  23
HETATM   23  O   UNL     1      -7.682  11.290  67.397  1.00  0.00    -0.116 OA 
BRANCH  23  24
HETATM   24  C   UNL     1      -6.778  11.020  66.422  1.00  0.00    -0.123 C  
HETATM   25  O   UNL     1      -5.571  11.210  66.496  1.00  0.00    -0.096 OA 
BRANCH  24  26
HETATM   26  O   UNL     1      -7.428  10.521  65.337  1.00  0.00    -0.145 OA 
BRANCH  26  27
HETATM   27  C   UNL     1      -8.225   9.342  65.584  1.00  0.00    -0.120 C  
HETATM   28  C   UNL     1      -9.678   9.644  65.233  1.00  0.00    -0.330 C  
HETATM   29  C   UNL     1      -7.702   8.192  64.730  1.00  0.00    -0.123 C  
ENDBRANCH  26  27
ENDBRANCH  24  26
ENDBRANCH  23  24
ENDBRANCH  22  23
ENDBRANCH  19  22
BRANCH  21  30
HETATM   30  C   UNL     1     -11.689  14.291  65.966  1.00  0.00    -0.379 C  
BRANCH  30  31
HETATM   31  O   UNL     1     -10.816  14.779  64.953  1.00  0.00    -0.389 OA 
BRANCH  31  32
HETATM   32  C   UNL     1     -10.883  16.117  64.763  1.00  0.00    -0.262 C  
HETATM   33  O   UNL     1     -11.656  16.693  64.008  1.00  0.00    -1.197 OA 
BRANCH  32  34
HETATM   34  O   UNL     1      -9.992  16.707  65.598  1.00  0.00    -0.519 OA 
BRANCH  34  35
HETATM   35  C   UNL     1     -10.506  17.749  66.450  1.00  0.00    -0.297 C  
HETATM   36  C   UNL     1      -9.619  18.976  66.259  1.00  0.00    -0.367 C  
HETATM   37  C   UNL     1     -10.477  17.308  67.909  1.00  0.00    -0.382 C  
ENDBRANCH  34  35
ENDBRANCH  32  34
ENDBRANCH  31  32
ENDBRANCH  30  31
ENDBRANCH  21  30
ENDBRANCH  16  17
ENDBRANCH   1  16
TORSDOF 14
ENDMDL
MODEL      164
REMARK 921   NORMALIZED FREE ENERGY PREDICTED BY IDOCK:   -4.85 KCAL/MOL
REMARK 922        TOTAL FREE ENERGY PREDICTED BY IDOCK:  -10.66 KCAL/MOL
REMARK 923 INTER-LIGAND FREE ENERGY PREDICTED BY IDOCK:   -9.07 KCAL/MOL
REMARK 924 INTRA-LIGAND FREE ENERGY PREDICTED BY IDOCK:   -1.59 KCAL/MOL
REMARK 927      BINDING AFFINITY PREDICTED BY RF-SCORE:    0.00 PKD
ROOT
HETATM    1  C   UNL     1     -11.705  12.017  67.685  1.00  0.00    -0.294 C  
HETATM    2  C   UNL     1     -11.507  12.212  66.183  1.00  0.00    -0.429 C  
ENDROOT
BRANCH   1   3
HETATM    3  C   UNL     1     -10.913  12.996  68.541  1.00  0.00    -0.263 C  
BRANCH   3   4
HETATM    4  N   UNL     1     -11.687  13.920  69.326  1.00  0.00    -0.310 NA 
HETATM    5  C   UNL     1     -12.387  13.538  70.429  1.00  0.00    -0.327 A  
HETATM    6  N   UNL     1     -13.850  13.361  72.640  1.00  0.00    -0.745 NA 
HETATM    7  C   UNL     1     -11.741  15.284  69.246  1.00  0.00    -0.338 A  
HETATM    8  N   UNL     1     -14.194  15.692  72.773  1.00  0.00    -0.478 NA 
HETATM    9  N   UNL     1     -12.556  12.292  70.898  1.00  0.00    -0.304 NA 
HETATM   10  C   UNL     1     -13.631  14.595  72.132  1.00  0.00    -0.414 A  
HETATM   11  N   UNL     1     -12.475  15.799  70.206  1.00  0.00    -0.348 NA 
HETATM   12  C   UNL     1     -13.299  12.299  72.013  1.00  0.00    -0.386 A  
HETATM   13  C   UNL     1     -12.866  14.717  70.966  1.00  0.00    -0.352 A  
HETATM   14  H1  UNL     1     -14.750  15.603  73.622  1.00  0.00     0.000 HD 
HETATM   15  H2  UNL     1     -14.756  16.194  72.087  1.00  0.00     0.000 HD 
ENDBRANCH   3   4
ENDBRANCH   1   3
BRANCH   1  16
HETATM   16  O   UNL     1     -11.456  10.631  68.003  1.00  0.00    -0.396 OA 
BRANCH  16  17
HETATM   17  C   UNL     1     -10.817   9.843  66.968  1.00  0.00    -0.116 C  
HETATM   18  O   UNL     1      -8.472   9.914  67.450  1.00  0.00    -0.118 OA 
HETATM   19  O   UNL     1     -10.110   8.761  69.137  1.00  0.00    -0.187 OA 
HETATM   20  P   UNL     1      -9.480   8.774  67.615  1.00  0.00    -0.150 P  
HETATM   21  O   UNL     1      -8.216   7.763  68.225  1.00  0.00    -0.122 OA 
BRANCH  19  22
HETATM   22  C   UNL     1     -10.973   7.716  69.531  1.00  0.00    -0.097 C  
BRANCH  22  23
HETATM   23  O   UNL     1     -10.755   7.327  70.893  1.00  0.00    -0.229 OA 
BRANCH  23  24
HETATM   24  C   UNL     1     -11.664   7.833  71.764  1.00  0.00    -0.284 C  
HETATM   25  O   UNL     1     -12.578   8.596  71.480  1.00  0.00    -0.311 OA 
BRANCH  24  26
HETATM   26  O   UNL     1     -11.387   7.375  73.014  1.00  0.00    -0.311 OA 
BRANCH  26  27
HETATM   27  C   UNL     1     -10.582   6.177  73.067  1.00  0.00    -0.241 C  
HETATM   28  C   UNL     1      -9.634   6.267  74.258  1.00  0.00    -0.240 C  
HETATM   29  C   UNL     1     -11.495   4.963  73.207  1.00  0.00    -0.359 C  
ENDBRANCH  26  27
ENDBRANCH  24  26
ENDBRANCH  23  24
ENDBRANCH  22  23
ENDBRANCH  19  22
BRANCH  21  30
HETATM   30  C   UNL     1      -7.861   6.732  67.328  1.00  0.00    -0.110 C  
BRANCH  30  31
HETATM   31  O   UNL     1      -8.940   6.394  66.461  1.00  0.00    -0.136 OA 
BRANCH  31  32
HETATM   32  C   UNL     1      -9.234   5.074  66.435  1.00  0.00    -0.139 C  
HETATM   33  O   UNL     1     -10.345   4.586  66.595  1.00  0.00    -0.218 OA 
BRANCH  32  34
HETATM   34  O   UNL     1      -8.098   4.394  66.139  1.00  0.00    -0.102 OA 
BRANCH  34  35
HETATM   35  C   UNL     1      -7.932   3.994  64.764  1.00  0.00    -0.089 C  
HETATM   36  C   UNL     1      -8.111   2.480  64.703  1.00  0.00    -0.085 C  
HETATM   37  C   UNL     1      -6.542   4.374  64.263  1.00  0.00    -0.043 C  
ENDBRANCH  34  35
ENDBRANCH  32  34
ENDBRANCH  31  32
ENDBRANCH  30  31
ENDBRANCH  21  30
ENDBRANCH  16  17
ENDBRANCH   1  16
TORSDOF 14
ENDMDL
MODEL      165
REMARK 921   NORMALIZED FREE ENERGY PREDICTED BY IDOCK:   -4.85 KCAL/MOL
REMARK 922        TOTAL FREE ENERGY PREDICTED BY IDOCK:  -10.66 KCAL/MOL
REMARK 923 INTER-LIGAND FREE ENERGY PREDICTED BY IDOCK:   -9.36 KCAL/MOL
REMARK 924 INTRA-LIGAND FREE ENERGY PREDICTED BY IDOCK:   -1.30 KCAL/MOL
REMARK 927      BINDING AFFINITY PREDICTED BY RF-SCORE:    0.00 PKD
ROOT
HETATM    1  C   UNL     1      -7.447  14.702  68.701  1.00  0.00    -0.125 C  
HETATM    2  C   UNL     1      -8.674  15.218  69.450  1.00  0.00    -0.216 C  
ENDROOT
BRANCH   1   3
HETATM    3  C   UNL     1      -7.186  15.420  67.383  1.00  0.00    -0.209 C  
BRANCH   3   4
HETATM    4  N   UNL     1      -7.477  16.829  67.362  1.00  0.00    -0.153 NA 
HETATM    5  C   UNL     1      -8.561  17.344  66.721  1.00  0.00    -0.260 A  
HETATM    6  N   UNL     1     -10.507  18.847  65.713  1.00  0.00    -0.587 NA 
HETATM    7  C   UNL     1      -6.882  17.841  68.061  1.00  0.00    -0.191 A  
HETATM    8  N   UNL     1      -9.711  20.818  66.737  1.00  0.00    -0.641 NA 
HETATM    9  N   UNL     1      -9.446  16.686  65.955  1.00  0.00    -0.446 NA 
HETATM   10  C   UNL     1      -9.596  19.452  66.508  1.00  0.00    -0.370 A  
HETATM   11  N   UNL     1      -7.492  18.989  67.870  1.00  0.00    -0.246 NA 
HETATM   12  C   UNL     1     -10.390  17.519  65.495  1.00  0.00    -0.019 A  
HETATM   13  C   UNL     1      -8.559  18.685  67.050  1.00  0.00    -0.276 A  
HETATM   14  H1  UNL     1     -10.467  21.377  66.342  1.00  0.00     0.000 HD 
HETATM   15  H2  UNL     1      -8.831  21.252  66.461  1.00  0.00     0.000 HD 
ENDBRANCH   3   4
ENDBRANCH   1   3
BRANCH   1  16
HETATM   16  O   UNL     1      -7.559  13.269  68.572  1.00  0.00    -0.128 OA 
BRANCH  16  17
HETATM   17  C   UNL     1      -8.061  12.778  67.305  1.00  0.00    -0.172 C  
HETATM   18  O   UNL     1      -6.449  11.182  66.538  1.00  0.00    -0.121 OA 
HETATM   19  O   UNL     1      -7.792  10.716  68.737  1.00  0.00    -0.107 OA 
HETATM   20  P   UNL     1      -7.852  10.971  67.110  1.00  0.00    -0.148 P  
HETATM   21  O   UNL     1      -7.655   9.262  66.926  1.00  0.00    -0.090 OA 
BRANCH  19  22
HETATM   22  C   UNL     1      -8.970  10.384  69.439  1.00  0.00    -0.151 C  
BRANCH  22  23
HETATM   23  O   UNL     1     -10.149  10.744  68.709  1.00  0.00    -0.175 OA 
BRANCH  23  24
HETATM   24  C   UNL     1     -11.051  11.455  69.430  1.00  0.00    -0.241 C  
HETATM   25  O   UNL     1     -11.546  12.524  69.099  1.00  0.00    -0.281 OA 
BRANCH  24  26
HETATM   26  O   UNL     1     -11.307  10.800  70.594  1.00  0.00    -0.298 OA 
BRANCH  26  27
HETATM   27  C   UNL     1     -12.706  10.661  70.929  1.00  0.00    -0.404 C  
HETATM   28  C   UNL     1     -12.913   9.335  71.652  1.00  0.00    -0.447 C  
HETATM   29  C   UNL     1     -13.128  11.823  71.821  1.00  0.00    -0.480 C  
ENDBRANCH  26  27
ENDBRANCH  24  26
ENDBRANCH  23  24
ENDBRANCH  22  23
ENDBRANCH  19  22
BRANCH  21  30
HETATM   30  C   UNL     1      -8.468   8.726  65.904  1.00  0.00    -0.143 C  
BRANCH  30  31
HETATM   31  O   UNL     1      -9.687   9.449  65.768  1.00  0.00    -0.267 OA 
BRANCH  31  32
HETATM   32  C   UNL     1      -9.853  10.031  64.557  1.00  0.00    -0.173 C  
HETATM   33  O   UNL     1      -9.184   9.803  63.557  1.00  0.00    -0.263 OA 
BRANCH  32  34
HETATM   34  O   UNL     1     -10.923  10.860  64.630  1.00  0.00    -0.195 OA 
BRANCH  34  35
HETATM   35  C   UNL     1     -10.941  11.965  63.706  1.00  0.00    -0.425 C  
HETATM   36  C   UNL     1     -10.333  13.170  64.420  1.00  0.00    -0.390 C  
HETATM   37  C   UNL     1     -12.370  12.281  63.278  1.00  0.00    -0.518 C  
ENDBRANCH  34  35
ENDBRANCH  32  34
ENDBRANCH  31  32
ENDBRANCH  30  31
ENDBRANCH  21  30
ENDBRANCH  16  17
ENDBRANCH   1  16
TORSDOF 14
ENDMDL
MODEL      166
REMARK 921   NORMALIZED FREE ENERGY PREDICTED BY IDOCK:   -4.83 KCAL/MOL
REMARK 922        TOTAL FREE ENERGY PREDICTED BY IDOCK:  -10.62 KCAL/MOL
REMARK 923 INTER-LIGAND FREE ENERGY PREDICTED BY IDOCK:   -9.20 KCAL/MOL
REMARK 924 INTRA-LIGAND FREE ENERGY PREDICTED BY IDOCK:   -1.41 KCAL/MOL
REMARK 927      BINDING AFFINITY PREDICTED BY RF-SCORE:    0.00 PKD
ROOT
HETATM    1  C   UNL     1      -9.954  11.242  65.034  1.00  0.00    -0.274 C  
HETATM    2  C   UNL     1     -10.555  10.768  63.713  1.00  0.00    -0.116 C  
ENDROOT
BRANCH   1   3
HETATM    3  C   UNL     1     -10.099  10.239  66.170  1.00  0.00    -0.242 C  
BRANCH   3   4
HETATM    4  N   UNL     1      -9.357   9.015  66.033  1.00  0.00    -0.224 NA 
HETATM    5  C   UNL     1      -9.838   7.814  66.456  1.00  0.00    -0.185 A  
HETATM    6  N   UNL     1     -10.301   5.261  67.027  1.00  0.00    -0.232 NA 
HETATM    7  C   UNL     1      -8.193   8.785  65.355  1.00  0.00    -0.136 A  
HETATM    8  N   UNL     1      -8.319   4.518  65.982  1.00  0.00    -0.113 NA 
HETATM    9  N   UNL     1     -10.977   7.581  67.126  1.00  0.00    -0.226 NA 
HETATM   10  C   UNL     1      -9.177   5.554  66.335  1.00  0.00    -0.150 A  
HETATM   11  N   UNL     1      -7.871   7.512  65.356  1.00  0.00    -0.109 NA 
HETATM   12  C   UNL     1     -11.130   6.271  67.366  1.00  0.00    -0.287 A  
HETATM   13  C   UNL     1      -8.906   6.891  66.023  1.00  0.00    -0.136 A  
HETATM   14  H1  UNL     1      -8.516   3.544  66.209  1.00  0.00     0.000 HD 
HETATM   15  H2  UNL     1      -7.397   4.741  66.354  1.00  0.00     0.000 HD 
ENDBRANCH   3   4
ENDBRANCH   1   3
BRANCH   1  16
HETATM   16  O   UNL     1     -10.488  12.549  65.336  1.00  0.00    -0.270 OA 
BRANCH  16  17
HETATM   17  C   UNL     1     -11.100  12.703  66.640  1.00  0.00    -0.274 C  
HETATM   18  O   UNL     1      -9.288  12.878  68.195  1.00  0.00    -0.206 OA 
HETATM   19  O   UNL     1      -9.620  14.731  66.375  1.00  0.00    -0.268 OA 
HETATM   20  P   UNL     1     -10.253  13.947  67.680  1.00  0.00    -0.247 P  
HETATM   21  O   UNL     1      -9.452  15.124  68.663  1.00  0.00    -0.191 OA 
BRANCH  19  22
HETATM   22  C   UNL     1     -10.303  15.835  65.821  1.00  0.00    -0.369 C  
BRANCH  22  23
HETATM   23  O   UNL     1      -9.433  16.955  65.617  1.00  0.00    -0.524 OA 
BRANCH  23  24
HETATM   24  C   UNL     1      -9.773  18.056  66.333  1.00  0.00    -0.321 C  
HETATM   25  O   UNL     1     -10.619  18.881  66.015  1.00  0.00    -0.457 OA 
BRANCH  24  26
HETATM   26  O   UNL     1      -9.008  18.112  67.456  1.00  0.00    -0.254 OA 
BRANCH  26  27
HETATM   27  C   UNL     1      -8.377  19.387  67.708  1.00  0.00    -0.305 C  
HETATM   28  C   UNL     1      -7.483  19.264  68.937  1.00  0.00    -0.397 C  
HETATM   29  C   UNL     1      -7.551  19.790  66.490  1.00  0.00    -0.295 C  
ENDBRANCH  26  27
ENDBRANCH  24  26
ENDBRANCH  23  24
ENDBRANCH  22  23
ENDBRANCH  19  22
BRANCH  21  30
HETATM   30  C   UNL     1     -10.245  15.559  69.748  1.00  0.00    -0.294 C  
BRANCH  30  31
HETATM   31  O   UNL     1     -11.619  15.233  69.560  1.00  0.00    -0.281 OA 
BRANCH  31  32
HETATM   32  C   UNL     1     -12.237  14.781  70.675  1.00  0.00    -0.319 C  
HETATM   33  O   UNL     1     -12.292  15.366  71.749  1.00  0.00    -0.320 OA 
BRANCH  32  34
HETATM   34  O   UNL     1     -12.834  13.600  70.376  1.00  0.00    -0.189 OA 
BRANCH  34  35
HETATM   35  C   UNL     1     -12.258  12.423  70.975  1.00  0.00    -0.100 C  
HETATM   36  C   UNL     1     -11.955  11.438  69.849  1.00  0.00    -0.434 C  
HETATM   37  C   UNL     1     -13.233  11.796  71.966  1.00  0.00    -0.460 C  
ENDBRANCH  34  35
ENDBRANCH  32  34
ENDBRANCH  31  32
ENDBRANCH  30  31
ENDBRANCH  21  30
ENDBRANCH  16  17
ENDBRANCH   1  16
TORSDOF 14
ENDMDL
MODEL      167
REMARK 921   NORMALIZED FREE ENERGY PREDICTED BY IDOCK:   -4.81 KCAL/MOL
REMARK 922        TOTAL FREE ENERGY PREDICTED BY IDOCK:  -10.59 KCAL/MOL
REMARK 923 INTER-LIGAND FREE ENERGY PREDICTED BY IDOCK:   -9.47 KCAL/MOL
REMARK 924 INTRA-LIGAND FREE ENERGY PREDICTED BY IDOCK:   -1.11 KCAL/MOL
REMARK 927      BINDING AFFINITY PREDICTED BY RF-SCORE:    0.00 PKD
ROOT
HETATM    1  C   UNL     1      -9.792  10.212  65.836  1.00  0.00    -0.245 C  
HETATM    2  C   UNL     1      -8.389  10.776  65.622  1.00  0.00    -0.144 C  
ENDROOT
BRANCH   1   3
HETATM    3  C   UNL     1     -10.729  11.160  66.572  1.00  0.00    -0.260 C  
BRANCH   3   4
HETATM    4  N   UNL     1     -11.258  12.252  65.801  1.00  0.00    -0.323 NA 
HETATM    5  C   UNL     1     -10.727  13.504  65.843  1.00  0.00    -0.277 A  
HETATM    6  N   UNL     1     -10.071  16.056  65.500  1.00  0.00    -0.461 NA 
HETATM    7  C   UNL     1     -12.207  12.231  64.818  1.00  0.00    -0.365 A  
HETATM    8  N   UNL     1     -11.665  16.387  63.792  1.00  0.00    -1.498 NA 
HETATM    9  N   UNL     1      -9.740  13.947  66.637  1.00  0.00    -0.280 NA 
HETATM   10  C   UNL     1     -11.047  15.550  64.714  1.00  0.00    -0.407 A  
HETATM   11  N   UNL     1     -12.353  13.410  64.256  1.00  0.00    -0.595 NA 
HETATM   12  C   UNL     1      -9.473  15.237  66.393  1.00  0.00    -0.298 A  
HETATM   13  C   UNL     1     -11.415  14.210  64.875  1.00  0.00    -0.366 A  
HETATM   14  H1  UNL     1     -11.396  17.364  63.675  1.00  0.00     0.000 HD 
HETATM   15  H2  UNL     1     -12.667  16.364  63.978  1.00  0.00     0.000 HD 
ENDBRANCH   3   4
ENDBRANCH   1   3
BRANCH   1  16
HETATM   16  O   UNL     1      -9.672   8.912  66.454  1.00  0.00    -0.220 OA 
BRANCH  16  17
HETATM   17  C   UNL     1     -10.626   8.613  67.503  1.00  0.00    -0.222 C  
HETATM   18  O   UNL     1     -11.123   6.281  67.287  1.00  0.00    -0.353 OA 
HETATM   19  O   UNL     1      -8.696   7.037  67.913  1.00  0.00    -0.126 OA 
HETATM   20  P   UNL     1     -10.289   7.019  68.335  1.00  0.00    -0.203 P  
HETATM   21  O   UNL     1      -9.971   5.512  69.123  1.00  0.00    -0.159 OA 
BRANCH  19  22
HETATM   22  C   UNL     1      -7.740   7.568  68.805  1.00  0.00    -0.119 C  
BRANCH  22  23
HETATM   23  O   UNL     1      -8.343   8.050  70.012  1.00  0.00    -0.120 OA 
BRANCH  23  24
HETATM   24  C   UNL     1      -7.742   9.151  70.529  1.00  0.00    -0.134 C  
HETATM   25  O   UNL     1      -7.062   9.954  69.904  1.00  0.00    -0.083 OA 
BRANCH  24  26
HETATM   26  O   UNL     1      -7.997   9.213  71.863  1.00  0.00    -0.334 OA 
BRANCH  26  27
HETATM   27  C   UNL     1      -7.595   8.052  72.622  1.00  0.00    -0.115 C  
HETATM   28  C   UNL     1      -6.079   8.068  72.790  1.00  0.00    -0.061 C  
HETATM   29  C   UNL     1      -8.279   8.078  73.985  1.00  0.00    -0.316 C  
ENDBRANCH  26  27
ENDBRANCH  24  26
ENDBRANCH  23  24
ENDBRANCH  22  23
ENDBRANCH  19  22
BRANCH  21  30
HETATM   30  C   UNL     1     -10.629   5.397  70.367  1.00  0.00    -0.252 C  
BRANCH  30  31
HETATM   31  O   UNL     1      -9.709   5.418  71.453  1.00  0.00    -0.152 OA 
BRANCH  31  32
HETATM   32  C   UNL     1     -10.275   5.191  72.661  1.00  0.00    -0.186 C  
HETATM   33  O   UNL     1     -11.470   5.270  72.916  1.00  0.00    -0.307 OA 
BRANCH  32  34
HETATM   34  O   UNL     1      -9.298   4.803  73.519  1.00  0.00    -0.125 OA 
BRANCH  34  35
HETATM   35  C   UNL     1      -9.025   3.389  73.580  1.00  0.00    -0.090 C  
HETATM   36  C   UNL     1      -7.742   3.136  72.794  1.00  0.00    -0.055 C  
HETATM   37  C   UNL     1     -10.176   2.597  72.968  1.00  0.00    -0.223 C  
ENDBRANCH  34  35
ENDBRANCH  32  34
ENDBRANCH  31  32
ENDBRANCH  30  31
ENDBRANCH  21  30
ENDBRANCH  16  17
ENDBRANCH   1  16
TORSDOF 14
ENDMDL
MODEL      168
REMARK 921   NORMALIZED FREE ENERGY PREDICTED BY IDOCK:   -4.80 KCAL/MOL
REMARK 922        TOTAL FREE ENERGY PREDICTED BY IDOCK:  -10.57 KCAL/MOL
REMARK 923 INTER-LIGAND FREE ENERGY PREDICTED BY IDOCK:   -9.24 KCAL/MOL
REMARK 924 INTRA-LIGAND FREE ENERGY PREDICTED BY IDOCK:   -1.33 KCAL/MOL
REMARK 927      BINDING AFFINITY PREDICTED BY RF-SCORE:    0.00 PKD
ROOT
HETATM    1  C   UNL     1     -11.202   9.435  71.346  1.00  0.00    -0.381 C  
HETATM    2  C   UNL     1     -11.190   8.180  72.215  1.00  0.00    -0.425 C  
ENDROOT
BRANCH   1   3
HETATM    3  C   UNL     1     -12.597   9.992  71.091  1.00  0.00    -0.381 C  
BRANCH   3   4
HETATM    4  N   UNL     1     -12.765  11.403  71.313  1.00  0.00    -0.415 NA 
HETATM    5  C   UNL     1     -12.369  12.340  70.409  1.00  0.00    -0.228 A  
HETATM    6  N   UNL     1     -11.855  14.539  69.008  1.00  0.00    -0.314 NA 
HETATM    7  C   UNL     1     -13.453  12.042  72.306  1.00  0.00    -0.134 A  
HETATM    8  N   UNL     1     -12.925  15.954  70.563  1.00  0.00    -0.713 NA 
HETATM    9  N   UNL     1     -11.699  12.138  69.264  1.00  0.00    -0.311 NA 
HETATM   10  C   UNL     1     -12.544  14.679  70.162  1.00  0.00    -0.283 A  
HETATM   11  N   UNL     1     -13.483  13.342  72.119  1.00  0.00    -0.511 NA 
HETATM   12  C   UNL     1     -11.489  13.297  68.623  1.00  0.00    -0.304 A  
HETATM   13  C   UNL     1     -12.826  13.538  70.922  1.00  0.00    -0.226 A  
HETATM   14  H1  UNL     1     -12.720  16.786  70.010  1.00  0.00     0.000 HD 
HETATM   15  H2  UNL     1     -12.551  16.108  71.499  1.00  0.00     0.000 HD 
ENDBRANCH   3   4
ENDBRANCH   1   3
BRANCH   1  16
HETATM   16  O   UNL     1     -10.452   9.166  70.143  1.00  0.00    -0.197 OA 
BRANCH  16  17
HETATM   17  C   UNL     1      -9.924   7.823  70.006  1.00  0.00    -0.187 C  
HETATM   18  O   UNL     1     -11.744   6.485  69.211  1.00  0.00    -0.250 OA 
HETATM   19  O   UNL     1     -10.799   8.412  67.712  1.00  0.00    -0.142 OA 
HETATM   20  P   UNL     1     -10.496   6.987  68.482  1.00  0.00    -0.183 P  
HETATM   21  O   UNL     1     -11.036   6.196  67.041  1.00  0.00    -0.335 OA 
BRANCH  19  22
HETATM   22  C   UNL     1      -9.811   8.986  66.883  1.00  0.00    -0.224 C  
BRANCH  22  23
HETATM   23  O   UNL     1     -10.385   9.757  65.821  1.00  0.00    -0.209 OA 
BRANCH  23  24
HETATM   24  C   UNL     1      -9.756  10.937  65.591  1.00  0.00    -0.232 C  
HETATM   25  O   UNL     1      -8.579  11.070  65.284  1.00  0.00    -0.151 OA 
BRANCH  24  26
HETATM   26  O   UNL     1     -10.637  11.956  65.776  1.00  0.00    -0.250 OA 
BRANCH  26  27
HETATM   27  C   UNL     1     -10.977  12.700  64.585  1.00  0.00    -0.313 C  
HETATM   28  C   UNL     1     -12.488  12.653  64.384  1.00  0.00    -0.509 C  
HETATM   29  C   UNL     1     -10.508  14.143  64.743  1.00  0.00    -0.432 C  
ENDBRANCH  26  27
ENDBRANCH  24  26
ENDBRANCH  23  24
ENDBRANCH  22  23
ENDBRANCH  19  22
BRANCH  21  30
HETATM   30  C   UNL     1     -10.245   5.077  66.705  1.00  0.00    -0.263 C  
BRANCH  30  31
HETATM   31  O   UNL     1      -9.694   4.455  67.861  1.00  0.00    -0.163 OA 
BRANCH  31  32
HETATM   32  C   UNL     1      -9.068   3.281  67.612  1.00  0.00    -0.174 C  
HETATM   33  O   UNL     1      -9.488   2.170  67.910  1.00  0.00    -0.198 OA 
BRANCH  32  34
HETATM   34  O   UNL     1      -7.930   3.547  66.924  1.00  0.00    -0.080 OA 
BRANCH  34  35
HETATM   35  C   UNL     1      -7.371   2.456  66.167  1.00  0.00    -0.066 C  
HETATM   36  C   UNL     1      -6.505   1.635  67.119  1.00  0.00    -0.024 C  
HETATM   37  C   UNL     1      -6.521   2.986  65.017  1.00  0.00    -0.035 C  
ENDBRANCH  34  35
ENDBRANCH  32  34
ENDBRANCH  31  32
ENDBRANCH  30  31
ENDBRANCH  21  30
ENDBRANCH  16  17
ENDBRANCH   1  16
TORSDOF 14
ENDMDL
MODEL      169
REMARK 921   NORMALIZED FREE ENERGY PREDICTED BY IDOCK:   -4.80 KCAL/MOL
REMARK 922        TOTAL FREE ENERGY PREDICTED BY IDOCK:  -10.56 KCAL/MOL
REMARK 923 INTER-LIGAND FREE ENERGY PREDICTED BY IDOCK:   -9.32 KCAL/MOL
REMARK 924 INTRA-LIGAND FREE ENERGY PREDICTED BY IDOCK:   -1.25 KCAL/MOL
REMARK 927      BINDING AFFINITY PREDICTED BY RF-SCORE:    0.00 PKD
ROOT
HETATM    1  C   UNL     1     -10.451   9.440  70.545  1.00  0.00    -0.274 C  
HETATM    2  C   UNL     1      -9.097   9.110  71.168  1.00  0.00    -0.275 C  
ENDROOT
BRANCH   1   3
HETATM    3  C   UNL     1     -11.413   8.260  70.505  1.00  0.00    -0.175 C  
BRANCH   3   4
HETATM    4  N   UNL     1     -10.814   6.959  70.375  1.00  0.00    -0.248 NA 
HETATM    5  C   UNL     1     -10.875   6.022  71.359  1.00  0.00    -0.270 A  
HETATM    6  N   UNL     1     -10.745   3.851  72.886  1.00  0.00    -0.153 NA 
HETATM    7  C   UNL     1     -10.258   6.374  69.272  1.00  0.00    -0.192 A  
HETATM    8  N   UNL     1      -9.711   2.556  71.206  1.00  0.00    -0.153 NA 
HETATM    9  N   UNL     1     -11.385   6.165  72.593  1.00  0.00    -0.272 NA 
HETATM   10  C   UNL     1     -10.263   3.760  71.626  1.00  0.00     0.007 A  
HETATM   11  N   UNL     1      -9.914   5.128  69.503  1.00  0.00    -0.211 NA 
HETATM   12  C   UNL     1     -11.281   5.024  73.288  1.00  0.00    -0.338 A  
HETATM   13  C   UNL     1     -10.316   4.889  70.801  1.00  0.00    -0.158 A  
HETATM   14  H1  UNL     1      -9.672   1.733  71.807  1.00  0.00     0.000 HD 
HETATM   15  H2  UNL     1      -8.763   2.747  70.884  1.00  0.00     0.000 HD 
ENDBRANCH   3   4
ENDBRANCH   1   3
BRANCH   1  16
HETATM   16  O   UNL     1     -10.225  10.053  69.258  1.00  0.00    -0.188 OA 
BRANCH  16  17
HETATM   17  C   UNL     1     -11.391  10.605  68.598  1.00  0.00    -0.281 C  
HETATM   18  O   UNL     1     -11.444  12.923  69.198  1.00  0.00    -0.274 OA 
HETATM   19  O   UNL     1      -9.457  11.997  67.765  1.00  0.00    -0.179 OA 
HETATM   20  P   UNL     1     -11.081  12.254  67.870  1.00  0.00    -0.285 P  
HETATM   21  O   UNL     1     -10.789  13.814  67.180  1.00  0.00    -0.279 OA 
BRANCH  19  22
HETATM   22  C   UNL     1      -8.901  11.496  66.568  1.00  0.00    -0.190 C  
BRANCH  22  23
HETATM   23  O   UNL     1      -8.419  10.156  66.722  1.00  0.00    -0.125 OA 
BRANCH  23  24
HETATM   24  C   UNL     1      -9.063   9.245  65.950  1.00  0.00    -0.197 C  
HETATM   25  O   UNL     1      -9.302   8.086  66.264  1.00  0.00    -0.195 OA 
BRANCH  24  26
HETATM   26  O   UNL     1      -9.385   9.816  64.759  1.00  0.00    -0.252 OA 
BRANCH  26  27
HETATM   27  C   UNL     1      -8.753   9.227  63.602  1.00  0.00    -0.167 C  
HETATM   28  C   UNL     1      -9.311   9.883  62.343  1.00  0.00    -0.270 C  
HETATM   29  C   UNL     1      -7.245   9.440  63.687  1.00  0.00    -0.101 C  
ENDBRANCH  26  27
ENDBRANCH  24  26
ENDBRANCH  23  24
ENDBRANCH  22  23
ENDBRANCH  19  22
BRANCH  21  30
HETATM   30  C   UNL     1     -11.762  14.180  66.226  1.00  0.00    -0.390 C  
BRANCH  30  31
HETATM   31  O   UNL     1     -11.178  14.453  64.956  1.00  0.00    -0.338 OA 
BRANCH  31  32
HETATM   32  C   UNL     1     -10.915  15.762  64.739  1.00  0.00    -0.393 C  
HETATM   33  O   UNL     1     -11.530  16.499  63.979  1.00  0.00    -1.137 OA 
BRANCH  32  34
HETATM   34  O   UNL     1      -9.894  16.127  65.555  1.00  0.00    -0.458 OA 
BRANCH  34  35
HETATM   35  C   UNL     1     -10.046  17.383  66.246  1.00  0.00    -0.322 C  
HETATM   36  C   UNL     1      -8.649  17.960  66.458  1.00  0.00    -0.279 C  
HETATM   37  C   UNL     1     -10.732  17.171  67.592  1.00  0.00    -0.302 C  
ENDBRANCH  34  35
ENDBRANCH  32  34
ENDBRANCH  31  32
ENDBRANCH  30  31
ENDBRANCH  21  30
ENDBRANCH  16  17
ENDBRANCH   1  16
TORSDOF 14
ENDMDL
MODEL      170
REMARK 921   NORMALIZED FREE ENERGY PREDICTED BY IDOCK:   -4.80 KCAL/MOL
REMARK 922        TOTAL FREE ENERGY PREDICTED BY IDOCK:  -10.56 KCAL/MOL
REMARK 923 INTER-LIGAND FREE ENERGY PREDICTED BY IDOCK:   -8.87 KCAL/MOL
REMARK 924 INTRA-LIGAND FREE ENERGY PREDICTED BY IDOCK:   -1.69 KCAL/MOL
REMARK 927      BINDING AFFINITY PREDICTED BY RF-SCORE:    0.00 PKD
ROOT
HETATM    1  C   UNL     1     -11.815   8.167  71.185  1.00  0.00    -0.279 C  
HETATM    2  C   UNL     1     -10.916   8.373  72.403  1.00  0.00    -0.425 C  
ENDROOT
BRANCH   1   3
HETATM    3  C   UNL     1     -11.959   6.710  70.768  1.00  0.00    -0.353 C  
BRANCH   3   4
HETATM    4  N   UNL     1     -10.758   6.060  70.314  1.00  0.00    -0.273 NA 
HETATM    5  C   UNL     1     -10.437   5.949  68.996  1.00  0.00    -0.265 A  
HETATM    6  N   UNL     1      -9.315   5.514  66.628  1.00  0.00    -0.136 NA 
HETATM    7  C   UNL     1      -9.694   5.610  71.045  1.00  0.00    -0.173 A  
HETATM    8  N   UNL     1      -7.342   4.622  67.565  1.00  0.00    -0.073 NA 
HETATM    9  N   UNL     1     -11.183   6.312  67.941  1.00  0.00    -0.254 NA 
HETATM   10  C   UNL     1      -8.602   5.185  67.728  1.00  0.00    -0.103 A  
HETATM   11  N   UNL     1      -8.725   5.172  70.274  1.00  0.00    -0.114 NA 
HETATM   12  C   UNL     1     -10.538   6.062  66.793  1.00  0.00    -0.291 A  
HETATM   13  C   UNL     1      -9.170   5.400  68.989  1.00  0.00    -0.120 A  
HETATM   14  H1  UNL     1      -6.927   4.465  66.647  1.00  0.00     0.000 HD 
HETATM   15  H2  UNL     1      -7.335   3.732  68.062  1.00  0.00     0.000 HD 
ENDBRANCH   3   4
ENDBRANCH   1   3
BRANCH   1  16
HETATM   16  O   UNL     1     -11.357   9.035  70.127  1.00  0.00    -0.222 OA 
BRANCH  16  17
HETATM   17  C   UNL     1     -10.034   9.603  70.292  1.00  0.00    -0.270 C  
HETATM   18  O   UNL     1      -8.742   8.798  68.444  1.00  0.00    -0.133 OA 
HETATM   19  O   UNL     1     -10.788  10.373  68.009  1.00  0.00    -0.228 OA 
HETATM   20  P   UNL     1      -9.312  10.191  68.718  1.00  0.00    -0.185 P  
HETATM   21  O   UNL     1      -8.628  10.748  67.229  1.00  0.00    -0.129 OA 
BRANCH  19  22
HETATM   22  C   UNL     1     -11.433  11.628  68.043  1.00  0.00    -0.315 C  
BRANCH  22  23
HETATM   23  O   UNL     1     -12.161  11.889  66.837  1.00  0.00    -0.599 OA 
BRANCH  23  24
HETATM   24  C   UNL     1     -11.838  13.064  66.240  1.00  0.00    -0.408 C  
HETATM   25  O   UNL     1     -12.380  14.141  66.447  1.00  0.00    -0.460 OA 
BRANCH  24  26
HETATM   26  O   UNL     1     -10.827  12.853  65.356  1.00  0.00    -0.276 OA 
BRANCH  26  27
HETATM   27  C   UNL     1     -11.045  11.779  64.414  1.00  0.00    -0.334 C  
HETATM   28  C   UNL     1     -12.198  12.156  63.490  1.00  0.00    -0.670 C  
HETATM   29  C   UNL     1      -9.772  11.549  63.607  1.00  0.00    -0.329 C  
ENDBRANCH  26  27
ENDBRANCH  24  26
ENDBRANCH  23  24
ENDBRANCH  22  23
ENDBRANCH  19  22
BRANCH  21  30
HETATM   30  C   UNL     1      -7.545  11.633  67.424  1.00  0.00    -0.139 C  
BRANCH  30  31
HETATM   31  O   UNL     1      -7.815  12.922  66.882  1.00  0.00    -0.049 OA 
BRANCH  31  32
HETATM   32  C   UNL     1      -7.698  13.932  67.775  1.00  0.00    -0.172 C  
HETATM   33  O   UNL     1      -6.650  14.464  68.119  1.00  0.00    -0.102 OA 
BRANCH  32  34
HETATM   34  O   UNL     1      -8.944  14.290  68.173  1.00  0.00    -0.174 OA 
BRANCH  34  35
HETATM   35  C   UNL     1      -9.427  15.562  67.697  1.00  0.00    -0.208 C  
HETATM   36  C   UNL     1      -8.999  15.698  66.238  1.00  0.00    -0.377 C  
HETATM   37  C   UNL     1      -8.834  16.700  68.521  1.00  0.00    -0.235 C  
ENDBRANCH  34  35
ENDBRANCH  32  34
ENDBRANCH  31  32
ENDBRANCH  30  31
ENDBRANCH  21  30
ENDBRANCH  16  17
ENDBRANCH   1  16
TORSDOF 14
ENDMDL
MODEL      171
REMARK 921   NORMALIZED FREE ENERGY PREDICTED BY IDOCK:   -4.80 KCAL/MOL
REMARK 922        TOTAL FREE ENERGY PREDICTED BY IDOCK:  -10.56 KCAL/MOL
REMARK 923 INTER-LIGAND FREE ENERGY PREDICTED BY IDOCK:   -9.13 KCAL/MOL
REMARK 924 INTRA-LIGAND FREE ENERGY PREDICTED BY IDOCK:   -1.43 KCAL/MOL
REMARK 927      BINDING AFFINITY PREDICTED BY RF-SCORE:    0.00 PKD
ROOT
HETATM    1  C   UNL     1      -8.860   9.253  67.661  1.00  0.00    -0.119 C  
HETATM    2  C   UNL     1      -9.581   8.957  66.347  1.00  0.00    -0.304 C  
ENDROOT
BRANCH   1   3
HETATM    3  C   UNL     1      -9.757   9.159  68.888  1.00  0.00    -0.162 C  
BRANCH   3   4
HETATM    4  N   UNL     1      -9.425   8.131  69.838  1.00  0.00    -0.160 NA 
HETATM    5  C   UNL     1     -10.364   7.504  70.598  1.00  0.00    -0.208 A  
HETATM    6  N   UNL     1     -11.750   5.949  72.247  1.00  0.00    -0.294 NA 
HETATM    7  C   UNL     1      -8.231   7.496  70.038  1.00  0.00    -0.130 A  
HETATM    8  N   UNL     1      -9.863   4.675  72.865  1.00  0.00    -0.139 NA 
HETATM    9  N   UNL     1     -11.675   7.782  70.670  1.00  0.00    -0.228 NA 
HETATM   10  C   UNL     1     -10.428   5.703  72.119  1.00  0.00    -0.216 A  
HETATM   11  N   UNL     1      -8.336   6.528  70.919  1.00  0.00    -0.125 NA 
HETATM   12  C   UNL     1     -12.294   6.949  71.519  1.00  0.00    -0.376 A  
HETATM   13  C   UNL     1      -9.672   6.508  71.259  1.00  0.00    -0.173 A  
HETATM   14  H1  UNL     1     -10.413   4.087  73.491  1.00  0.00     0.000 HD 
HETATM   15  H2  UNL     1      -9.098   5.072  73.409  1.00  0.00     0.000 HD 
ENDBRANCH   3   4
ENDBRANCH   1   3
BRANCH   1  16
HETATM   16  O   UNL     1      -8.176  10.518  67.533  1.00  0.00    -0.114 OA 
BRANCH  16  17
HETATM   17  C   UNL     1      -8.090  11.322  68.734  1.00  0.00    -0.130 C  
HETATM   18  O   UNL     1      -6.218  12.780  68.410  1.00  0.00    -0.064 OA 
HETATM   19  O   UNL     1      -8.313  12.990  66.852  1.00  0.00    -0.136 OA 
HETATM   20  P   UNL     1      -7.718  13.080  68.387  1.00  0.00    -0.096 P  
HETATM   21  O   UNL     1      -7.368  14.742  68.059  1.00  0.00    -0.109 OA 
BRANCH  19  22
HETATM   22  C   UNL     1      -9.654  13.347  66.598  1.00  0.00    -0.270 C  
BRANCH  22  23
HETATM   23  O   UNL     1     -10.427  12.232  66.139  1.00  0.00    -0.232 OA 
BRANCH  23  24
HETATM   24  C   UNL     1     -11.669  12.159  66.679  1.00  0.00    -0.313 C  
HETATM   25  O   UNL     1     -11.930  11.818  67.825  1.00  0.00    -0.586 OA 
BRANCH  24  26
HETATM   26  O   UNL     1     -12.587  12.507  65.738  1.00  0.00    -0.569 OA 
BRANCH  26  27
HETATM   27  C   UNL     1     -12.039  12.915  64.465  1.00  0.00    -0.413 C  
HETATM   28  C   UNL     1     -12.634  12.040  63.366  1.00  0.00    -0.592 C  
HETATM   29  C   UNL     1     -12.378  14.381  64.217  1.00  0.00    -0.402 C  
ENDBRANCH  26  27
ENDBRANCH  24  26
ENDBRANCH  23  24
ENDBRANCH  22  23
ENDBRANCH  19  22
BRANCH  21  30
HETATM   30  C   UNL     1      -7.662  15.587  69.151  1.00  0.00    -0.210 C  
BRANCH  30  31
HETATM   31  O   UNL     1      -7.711  16.955  68.759  1.00  0.00    -0.227 OA 
BRANCH  31  32
HETATM   32  C   UNL     1      -8.964  17.444  68.612  1.00  0.00    -0.255 C  
HETATM   33  O   UNL     1      -9.998  16.863  68.916  1.00  0.00    -0.255 OA 
BRANCH  32  34
HETATM   34  O   UNL     1      -8.870  18.707  68.127  1.00  0.00    -0.294 OA 
BRANCH  34  35
HETATM   35  C   UNL     1      -9.293  18.902  66.764  1.00  0.00    -0.322 C  
HETATM   36  C   UNL     1      -8.179  19.655  66.042  1.00  0.00    -0.307 C  
HETATM   37  C   UNL     1     -10.585  19.713  66.717  1.00  0.00    -0.602 C  
ENDBRANCH  34  35
ENDBRANCH  32  34
ENDBRANCH  31  32
ENDBRANCH  30  31
ENDBRANCH  21  30
ENDBRANCH  16  17
ENDBRANCH   1  16
TORSDOF 14
ENDMDL
MODEL      172
REMARK 921   NORMALIZED FREE ENERGY PREDICTED BY IDOCK:   -4.79 KCAL/MOL
REMARK 922        TOTAL FREE ENERGY PREDICTED BY IDOCK:  -10.55 KCAL/MOL
REMARK 923 INTER-LIGAND FREE ENERGY PREDICTED BY IDOCK:   -8.99 KCAL/MOL
REMARK 924 INTRA-LIGAND FREE ENERGY PREDICTED BY IDOCK:   -1.56 KCAL/MOL
REMARK 927      BINDING AFFINITY PREDICTED BY RF-SCORE:    0.00 PKD
ROOT
HETATM    1  C   UNL     1      -9.985  15.525  67.196  1.00  0.00    -0.242 C  
HETATM    2  C   UNL     1     -11.458  15.290  67.522  1.00  0.00    -0.271 C  
ENDROOT
BRANCH   1   3
HETATM    3  C   UNL     1      -9.660  15.420  65.711  1.00  0.00    -0.333 C  
BRANCH   3   4
HETATM    4  N   UNL     1     -10.671  14.820  64.883  1.00  0.00    -0.421 NA 
HETATM    5  C   UNL     1     -10.661  13.499  64.555  1.00  0.00    -0.418 A  
HETATM    6  N   UNL     1     -11.156  11.041  63.676  1.00  0.00    -0.065 NA 
HETATM    7  C   UNL     1     -11.846  15.355  64.434  1.00  0.00    -0.256 A  
HETATM    8  N   UNL     1     -13.230  11.642  62.726  1.00  0.00    -0.465 NA 
HETATM    9  N   UNL     1      -9.712  12.594  64.841  1.00  0.00    -0.028 NA 
HETATM   10  C   UNL     1     -12.086  11.991  63.434  1.00  0.00    -0.493 A  
HETATM   11  N   UNL     1     -12.572  14.468  63.793  1.00  0.00    -0.750 NA 
HETATM   12  C   UNL     1     -10.047  11.386  64.366  1.00  0.00    -0.291 A  
HETATM   13  C   UNL     1     -11.850  13.296  63.883  1.00  0.00    -0.465 A  
HETATM   14  H1  UNL     1     -13.403  10.692  62.399  1.00  0.00     0.000 HD 
HETATM   15  H2  UNL     1     -13.295  12.262  61.919  1.00  0.00     0.000 HD 
ENDBRANCH   3   4
ENDBRANCH   1   3
BRANCH   1  16
HETATM   16  O   UNL     1      -9.187  14.659  68.031  1.00  0.00    -0.187 OA 
BRANCH  16  17
HETATM   17  C   UNL     1      -8.328  13.719  67.340  1.00  0.00    -0.193 C  
HETATM   18  O   UNL     1      -7.216  12.471  69.054  1.00  0.00    -0.084 OA 
HETATM   19  O   UNL     1      -9.815  12.289  68.796  1.00  0.00    -0.136 OA 
HETATM   20  P   UNL     1      -8.339  12.055  68.102  1.00  0.00    -0.166 P  
HETATM   21  O   UNL     1      -8.349  10.482  68.821  1.00  0.00    -0.119 OA 
BRANCH  19  22
HETATM   22  C   UNL     1     -10.981  11.859  68.127  1.00  0.00    -0.227 C  
BRANCH  22  23
HETATM   23  O   UNL     1     -11.580  10.728  68.770  1.00  0.00    -0.282 OA 
BRANCH  23  24
HETATM   24  C   UNL     1     -11.670  10.840  70.119  1.00  0.00    -0.339 C  
HETATM   25  O   UNL     1     -12.154  11.787  70.725  1.00  0.00    -0.360 OA 
BRANCH  24  26
HETATM   26  O   UNL     1     -11.118   9.741  70.696  1.00  0.00    -0.279 OA 
BRANCH  26  27
HETATM   27  C   UNL     1     -12.003   8.607  70.835  1.00  0.00    -0.191 C  
HETATM   28  C   UNL     1     -11.238   7.335  70.488  1.00  0.00    -0.305 C  
HETATM   29  C   UNL     1     -12.518   8.542  72.269  1.00  0.00    -0.448 C  
ENDBRANCH  26  27
ENDBRANCH  24  26
ENDBRANCH  23  24
ENDBRANCH  22  23
ENDBRANCH  19  22
BRANCH  21  30
HETATM   30  C   UNL     1      -7.845   9.485  67.959  1.00  0.00    -0.087 C  
BRANCH  30  31
HETATM   31  O   UNL     1      -8.698   9.279  66.837  1.00  0.00    -0.125 OA 
BRANCH  31  32
HETATM   32  C   UNL     1      -8.676   8.016  66.351  1.00  0.00    -0.151 C  
HETATM   33  O   UNL     1      -8.125   7.658  65.318  1.00  0.00    -0.122 OA 
BRANCH  32  34
HETATM   34  O   UNL     1      -9.316   7.212  67.236  1.00  0.00    -0.129 OA 
BRANCH  34  35
HETATM   35  C   UNL     1      -9.147   5.793  67.050  1.00  0.00    -0.114 C  
HETATM   36  C   UNL     1     -10.500   5.220  66.640  1.00  0.00    -0.345 C  
HETATM   37  C   UNL     1      -8.674   5.138  68.344  1.00  0.00    -0.104 C  
ENDBRANCH  34  35
ENDBRANCH  32  34
ENDBRANCH  31  32
ENDBRANCH  30  31
ENDBRANCH  21  30
ENDBRANCH  16  17
ENDBRANCH   1  16
TORSDOF 14
ENDMDL
MODEL      173
REMARK 921   NORMALIZED FREE ENERGY PREDICTED BY IDOCK:   -4.78 KCAL/MOL
REMARK 922        TOTAL FREE ENERGY PREDICTED BY IDOCK:  -10.54 KCAL/MOL
REMARK 923 INTER-LIGAND FREE ENERGY PREDICTED BY IDOCK:   -8.30 KCAL/MOL
REMARK 924 INTRA-LIGAND FREE ENERGY PREDICTED BY IDOCK:   -2.24 KCAL/MOL
REMARK 927      BINDING AFFINITY PREDICTED BY RF-SCORE:    0.00 PKD
ROOT
HETATM    1  C   UNL     1      -6.593   8.937  67.523  1.00  0.00    -0.062 C  
HETATM    2  C   UNL     1      -6.058   8.720  66.109  1.00  0.00    -0.052 C  
ENDROOT
BRANCH   1   3
HETATM    3  C   UNL     1      -7.645   7.919  67.945  1.00  0.00    -0.109 C  
BRANCH   3   4
HETATM    4  N   UNL     1      -8.972   8.432  68.154  1.00  0.00    -0.139 NA 
HETATM    5  C   UNL     1      -9.476   8.678  69.394  1.00  0.00    -0.161 A  
HETATM    6  N   UNL     1     -10.906   9.382  71.520  1.00  0.00    -0.359 NA 
HETATM    7  C   UNL     1      -9.868   8.903  67.236  1.00  0.00    -0.199 A  
HETATM    8  N   UNL     1     -12.680  10.242  70.222  1.00  0.00    -0.544 NA 
HETATM    9  N   UNL     1      -8.901   8.411  70.577  1.00  0.00    -0.142 NA 
HETATM   10  C   UNL     1     -11.427   9.644  70.300  1.00  0.00    -0.233 A  
HETATM   11  N   UNL     1     -10.941   9.396  67.810  1.00  0.00    -0.155 NA 
HETATM   12  C   UNL     1      -9.688   8.802  71.589  1.00  0.00    -0.296 A  
HETATM   13  C   UNL     1     -10.697   9.281  69.163  1.00  0.00    -0.183 A  
HETATM   14  H1  UNL     1     -13.212  10.506  71.051  1.00  0.00     0.000 HD 
HETATM   15  H2  UNL     1     -13.274   9.639  69.654  1.00  0.00     0.000 HD 
ENDBRANCH   3   4
ENDBRANCH   1   3
BRANCH   1  16
HETATM   16  O   UNL     1      -7.026  10.309  67.642  1.00  0.00    -0.082 OA 
BRANCH  16  17
HETATM   17  C   UNL     1      -6.173  11.183  68.420  1.00  0.00    -0.045 C  
HETATM   18  O   UNL     1      -5.251  12.751  66.861  1.00  0.00    -0.324 OA 
HETATM   19  O   UNL     1      -7.832  12.723  67.303  1.00  0.00    -0.173 OA 
HETATM   20  P   UNL     1      -6.326  12.941  67.934  1.00  0.00    -0.154 P  
HETATM   21  O   UNL     1      -6.470  14.603  67.476  1.00  0.00    -0.258 OA 
BRANCH  19  22
HETATM   22  C   UNL     1      -8.970  12.969  68.101  1.00  0.00    -0.198 C  
BRANCH  22  23
HETATM   23  O   UNL     1     -10.078  13.438  67.324  1.00  0.00    -0.234 OA 
BRANCH  23  24
HETATM   24  C   UNL     1     -11.277  12.934  67.711  1.00  0.00    -0.280 C  
HETATM   25  O   UNL     1     -11.708  12.916  68.856  1.00  0.00    -0.289 OA 
BRANCH  24  26
HETATM   26  O   UNL     1     -11.921  12.430  66.624  1.00  0.00    -0.562 OA 
BRANCH  26  27
HETATM   27  C   UNL     1     -11.316  12.743  65.350  1.00  0.00    -0.304 C  
HETATM   28  C   UNL     1     -11.016  11.443  64.611  1.00  0.00    -0.324 C  
HETATM   29  C   UNL     1     -12.273  13.607  64.536  1.00  0.00    -0.444 C  
ENDBRANCH  26  27
ENDBRANCH  24  26
ENDBRANCH  23  24
ENDBRANCH  22  23
ENDBRANCH  19  22
BRANCH  21  30
HETATM   30  C   UNL     1      -5.961  15.484  68.454  1.00  0.00    -0.107 C  
BRANCH  30  31
HETATM   31  O   UNL     1      -6.980  15.925  69.347  1.00  0.00    -0.191 OA 
BRANCH  31  32
HETATM   32  C   UNL     1      -7.244  17.250  69.273  1.00  0.00    -0.118 C  
HETATM   33  O   UNL     1      -6.451  18.151  69.515  1.00  0.00    -0.250 OA 
BRANCH  32  34
HETATM   34  O   UNL     1      -8.515  17.402  68.827  1.00  0.00    -0.276 OA 
BRANCH  34  35
HETATM   35  C   UNL     1      -8.794  18.606  68.086  1.00  0.00    -0.311 C  
HETATM   36  C   UNL     1     -10.250  18.979  68.348  1.00  0.00    -0.450 C  
HETATM   37  C   UNL     1      -8.575  18.377  66.594  1.00  0.00    -0.289 C  
ENDBRANCH  34  35
ENDBRANCH  32  34
ENDBRANCH  31  32
ENDBRANCH  30  31
ENDBRANCH  21  30
ENDBRANCH  16  17
ENDBRANCH   1  16
TORSDOF 14
ENDMDL
MODEL      174
REMARK 921   NORMALIZED FREE ENERGY PREDICTED BY IDOCK:   -4.77 KCAL/MOL
REMARK 922        TOTAL FREE ENERGY PREDICTED BY IDOCK:  -10.51 KCAL/MOL
REMARK 923 INTER-LIGAND FREE ENERGY PREDICTED BY IDOCK:   -9.34 KCAL/MOL
REMARK 924 INTRA-LIGAND FREE ENERGY PREDICTED BY IDOCK:   -1.17 KCAL/MOL
REMARK 927      BINDING AFFINITY PREDICTED BY RF-SCORE:    0.00 PKD
ROOT
HETATM    1  C   UNL     1      -8.663  10.483  69.193  1.00  0.00    -0.147 C  
HETATM    2  C   UNL     1      -7.585   9.401  69.233  1.00  0.00    -0.081 C  
ENDROOT
BRANCH   1   3
HETATM    3  C   UNL     1     -10.034   9.968  68.777  1.00  0.00    -0.172 C  
BRANCH   3   4
HETATM    4  N   UNL     1     -11.080  10.090  69.757  1.00  0.00    -0.261 NA 
HETATM    5  C   UNL     1     -11.554   9.025  70.460  1.00  0.00    -0.175 A  
HETATM    6  N   UNL     1     -12.782   7.349  72.116  1.00  0.00    -0.176 NA 
HETATM    7  C   UNL     1     -11.648  11.220  70.275  1.00  0.00    -0.275 A  
HETATM    8  N   UNL     1     -13.979   9.069  73.200  1.00  0.00    -1.215 NA 
HETATM    9  N   UNL     1     -11.226   7.733  70.304  1.00  0.00    -0.243 NA 
HETATM   10  C   UNL     1     -13.060   8.666  72.239  1.00  0.00    -0.372 A  
HETATM   11  N   UNL     1     -12.497  10.942  71.237  1.00  0.00    -0.387 NA 
HETATM   12  C   UNL     1     -11.886   6.964  71.181  1.00  0.00    -0.349 A  
HETATM   13  C   UNL     1     -12.429   9.571  71.377  1.00  0.00    -0.362 A  
HETATM   14  H1  UNL     1     -14.438   8.410  73.828  1.00  0.00     0.000 HD 
HETATM   15  H2  UNL     1     -14.708   9.601  72.726  1.00  0.00     0.000 HD 
ENDBRANCH   3   4
ENDBRANCH   1   3
BRANCH   1  16
HETATM   16  O   UNL     1      -8.181  11.578  68.386  1.00  0.00    -0.140 OA 
BRANCH  16  17
HETATM   17  C   UNL     1      -7.053  12.316  68.917  1.00  0.00    -0.088 C  
HETATM   18  O   UNL     1      -5.738  12.952  67.020  1.00  0.00    -0.323 OA 
HETATM   19  O   UNL     1      -8.161  13.905  67.297  1.00  0.00    -0.178 OA 
HETATM   20  P   UNL     1      -6.640  13.795  67.923  1.00  0.00    -0.169 P  
HETATM   21  O   UNL     1      -6.250  15.195  66.983  1.00  0.00    -0.201 OA 
BRANCH  19  22
HETATM   22  C   UNL     1      -9.117  14.736  67.918  1.00  0.00    -0.183 C  
BRANCH  22  23
HETATM   23  O   UNL     1     -10.424  14.149  67.908  1.00  0.00    -0.233 OA 
BRANCH  23  24
HETATM   24  C   UNL     1     -11.381  14.940  67.362  1.00  0.00    -0.347 C  
HETATM   25  O   UNL     1     -11.491  16.147  67.530  1.00  0.00    -0.083 OA 
BRANCH  24  26
HETATM   26  O   UNL     1     -12.217  14.175  66.610  1.00  0.00    -0.448 OA 
BRANCH  26  27
HETATM   27  C   UNL     1     -11.745  13.873  65.278  1.00  0.00    -0.340 C  
HETATM   28  C   UNL     1     -12.486  12.647  64.755  1.00  0.00    -0.555 C  
HETATM   29  C   UNL     1     -11.997  15.073  64.371  1.00  0.00    -0.366 C  
ENDBRANCH  26  27
ENDBRANCH  24  26
ENDBRANCH  23  24
ENDBRANCH  22  23
ENDBRANCH  19  22
BRANCH  21  30
HETATM   30  C   UNL     1      -5.435  16.111  67.683  1.00  0.00    -0.142 C  
BRANCH  30  31
HETATM   31  O   UNL     1      -5.649  17.449  67.242  1.00  0.00    -0.115 OA 
BRANCH  31  32
HETATM   32  C   UNL     1      -6.425  17.549  66.138  1.00  0.00    -0.231 C  
HETATM   33  O   UNL     1      -7.637  17.377  66.099  1.00  0.00    -0.307 OA 
BRANCH  32  34
HETATM   34  O   UNL     1      -5.638  17.932  65.102  1.00  0.00    -0.060 OA 
BRANCH  34  35
HETATM   35  C   UNL     1      -6.134  19.012  64.287  1.00  0.00     0.015 C  
HETATM   36  C   UNL     1      -5.215  19.130  63.074  1.00  0.00    -0.336 C  
HETATM   37  C   UNL     1      -6.128  20.319  65.074  1.00  0.00    -0.293 C  
ENDBRANCH  34  35
ENDBRANCH  32  34
ENDBRANCH  31  32
ENDBRANCH  30  31
ENDBRANCH  21  30
ENDBRANCH  16  17
ENDBRANCH   1  16
TORSDOF 14
ENDMDL
MODEL      175
REMARK 921   NORMALIZED FREE ENERGY PREDICTED BY IDOCK:   -4.76 KCAL/MOL
REMARK 922        TOTAL FREE ENERGY PREDICTED BY IDOCK:  -10.49 KCAL/MOL
REMARK 923 INTER-LIGAND FREE ENERGY PREDICTED BY IDOCK:   -9.56 KCAL/MOL
REMARK 924 INTRA-LIGAND FREE ENERGY PREDICTED BY IDOCK:   -0.93 KCAL/MOL
REMARK 927      BINDING AFFINITY PREDICTED BY RF-SCORE:    0.00 PKD
ROOT
HETATM    1  C   UNL     1      -9.141   7.825  67.328  1.00  0.00    -0.131 C  
HETATM    2  C   UNL     1     -10.551   8.147  66.838  1.00  0.00    -0.311 C  
ENDROOT
BRANCH   1   3
HETATM    3  C   UNL     1      -9.071   6.613  68.247  1.00  0.00    -0.123 C  
BRANCH   3   4
HETATM    4  N   UNL     1      -9.146   6.883  69.657  1.00  0.00    -0.144 NA 
HETATM    5  C   UNL     1     -10.316   6.838  70.351  1.00  0.00    -0.198 A  
HETATM    6  N   UNL     1     -12.257   6.833  72.166  1.00  0.00    -0.265 NA 
HETATM    7  C   UNL     1      -8.131   7.053  70.557  1.00  0.00    -0.114 A  
HETATM    8  N   UNL     1     -10.772   7.187  73.966  1.00  0.00    -0.556 NA 
HETATM    9  N   UNL     1     -11.550   6.646  69.860  1.00  0.00    -0.363 NA 
HETATM   10  C   UNL     1     -10.990   7.003  72.606  1.00  0.00    -0.278 A  
HETATM   11  N   UNL     1      -8.582   7.169  71.785  1.00  0.00    -0.117 NA 
HETATM   12  C   UNL     1     -12.462   6.654  70.843  1.00  0.00    -0.122 A  
HETATM   13  C   UNL     1      -9.948   7.013  71.671  1.00  0.00    -0.178 A  
HETATM   14  H1  UNL     1     -11.531   7.179  74.647  1.00  0.00     0.000 HD 
HETATM   15  H2  UNL     1     -10.263   8.063  74.081  1.00  0.00     0.000 HD 
ENDBRANCH   3   4
ENDBRANCH   1   3
BRANCH   1  16
HETATM   16  O   UNL     1      -8.570   9.023  67.897  1.00  0.00    -0.124 OA 
BRANCH  16  17
HETATM   17  C   UNL     1      -9.499  10.090  68.205  1.00  0.00    -0.140 C  
HETATM   18  O   UNL     1      -8.154  11.951  68.883  1.00  0.00    -0.064 OA 
HETATM   19  O   UNL     1      -7.979  11.047  66.432  1.00  0.00    -0.156 OA 
HETATM   20  P   UNL     1      -8.939  11.719  67.590  1.00  0.00    -0.185 P  
HETATM   21  O   UNL     1      -8.410  13.261  67.008  1.00  0.00    -0.167 OA 
BRANCH  19  22
HETATM   22  C   UNL     1      -8.481  10.861  65.126  1.00  0.00    -0.038 C  
BRANCH  22  23
HETATM   23  O   UNL     1      -9.843  11.287  65.010  1.00  0.00    -0.237 OA 
BRANCH  23  24
HETATM   24  C   UNL     1     -10.161  11.803  63.796  1.00  0.00    -0.391 C  
HETATM   25  O   UNL     1     -10.033  11.229  62.722  1.00  0.00    -0.262 OA 
BRANCH  24  26
HETATM   26  O   UNL     1     -10.625  13.070  63.956  1.00  0.00    -0.412 OA 
BRANCH  26  27
HETATM   27  C   UNL     1     -12.063  13.208  63.928  1.00  0.00    -0.470 C  
HETATM   28  C   UNL     1     -12.673  11.934  63.353  1.00  0.00    -0.496 C  
HETATM   29  C   UNL     1     -12.575  13.448  65.345  1.00  0.00    -0.528 C  
ENDBRANCH  26  27
ENDBRANCH  24  26
ENDBRANCH  23  24
ENDBRANCH  22  23
ENDBRANCH  19  22
BRANCH  21  30
HETATM   30  C   UNL     1      -9.453  14.210  66.953  1.00  0.00    -0.267 C  
BRANCH  30  31
HETATM   31  O   UNL     1      -9.200  15.214  65.976  1.00  0.00    -0.301 OA 
BRANCH  31  32
HETATM   32  C   UNL     1     -10.162  16.162  65.895  1.00  0.00    -0.360 C  
HETATM   33  O   UNL     1     -10.793  16.456  64.888  1.00  0.00    -0.655 OA 
BRANCH  32  34
HETATM   34  O   UNL     1     -10.346  16.683  67.134  1.00  0.00    -0.293 OA 
BRANCH  34  35
HETATM   35  C   UNL     1      -9.727  17.959  67.390  1.00  0.00    -0.288 C  
HETATM   36  C   UNL     1     -10.778  19.036  67.136  1.00  0.00    -0.541 C  
HETATM   37  C   UNL     1      -8.533  18.168  66.464  1.00  0.00    -0.283 C  
ENDBRANCH  34  35
ENDBRANCH  32  34
ENDBRANCH  31  32
ENDBRANCH  30  31
ENDBRANCH  21  30
ENDBRANCH  16  17
ENDBRANCH   1  16
TORSDOF 14
ENDMDL
MODEL      176
REMARK 921   NORMALIZED FREE ENERGY PREDICTED BY IDOCK:   -4.75 KCAL/MOL
REMARK 922        TOTAL FREE ENERGY PREDICTED BY IDOCK:  -10.48 KCAL/MOL
REMARK 923 INTER-LIGAND FREE ENERGY PREDICTED BY IDOCK:   -8.65 KCAL/MOL
REMARK 924 INTRA-LIGAND FREE ENERGY PREDICTED BY IDOCK:   -1.83 KCAL/MOL
REMARK 927      BINDING AFFINITY PREDICTED BY RF-SCORE:    0.00 PKD
ROOT
HETATM    1  C   UNL     1     -11.290  11.659  64.644  1.00  0.00    -0.215 C  
HETATM    2  C   UNL     1     -10.452  12.023  63.420  1.00  0.00    -0.474 C  
ENDROOT
BRANCH   1   3
HETATM    3  C   UNL     1     -12.283  12.739  65.052  1.00  0.00    -0.473 C  
BRANCH   3   4
HETATM    4  N   UNL     1     -11.718  13.956  65.568  1.00  0.00    -0.337 NA 
HETATM    5  C   UNL     1     -11.649  14.225  66.901  1.00  0.00    -0.387 A  
HETATM    6  N   UNL     1     -11.214  15.215  69.328  1.00  0.00    -0.261 NA 
HETATM    7  C   UNL     1     -11.032  14.936  64.907  1.00  0.00    -0.408 A  
HETATM    8  N   UNL     1     -10.018  17.078  68.512  1.00  0.00    -0.276 NA 
HETATM    9  N   UNL     1     -12.155  13.497  67.908  1.00  0.00    -0.323 NA 
HETATM   10  C   UNL     1     -10.711  15.896  68.275  1.00  0.00    -0.291 A  
HETATM   11  N   UNL     1     -10.567  15.847  65.730  1.00  0.00    -0.348 NA 
HETATM   12  C   UNL     1     -11.885  14.066  69.091  1.00  0.00    -0.350 A  
HETATM   13  C   UNL     1     -10.927  15.400  66.985  1.00  0.00    -0.306 A  
HETATM   14  H1  UNL     1      -9.860  17.439  69.452  1.00  0.00     0.000 HD 
HETATM   15  H2  UNL     1     -10.470  17.814  67.971  1.00  0.00     0.000 HD 
ENDBRANCH   3   4
ENDBRANCH   1   3
BRANCH   1  16
HETATM   16  O   UNL     1     -10.398  11.255  65.705  1.00  0.00    -0.241 OA 
BRANCH  16  17
HETATM   17  C   UNL     1     -10.137   9.834  65.814  1.00  0.00    -0.238 C  
HETATM   18  O   UNL     1      -7.767   9.625  66.086  1.00  0.00    -0.100 OA 
HETATM   19  O   UNL     1      -9.183  10.833  67.928  1.00  0.00    -0.146 OA 
HETATM   20  P   UNL     1      -8.897   9.437  67.100  1.00  0.00    -0.127 P  
HETATM   21  O   UNL     1      -7.725   9.060  68.316  1.00  0.00    -0.094 OA 
BRANCH  19  22
HETATM   22  C   UNL     1     -10.109  10.840  68.993  1.00  0.00    -0.211 C  
BRANCH  22  23
HETATM   23  O   UNL     1     -10.768   9.576  69.137  1.00  0.00    -0.222 OA 
BRANCH  23  24
HETATM   24  C   UNL     1     -11.141   9.289  70.410  1.00  0.00    -0.255 C  
HETATM   25  O   UNL     1     -11.803  10.014  71.140  1.00  0.00    -0.339 OA 
BRANCH  24  26
HETATM   26  O   UNL     1     -10.646   8.071  70.756  1.00  0.00    -0.209 OA 
BRANCH  26  27
HETATM   27  C   UNL     1     -11.593   6.982  70.703  1.00  0.00    -0.335 C  
HETATM   28  C   UNL     1     -11.318   6.145  69.458  1.00  0.00    -0.426 C  
HETATM   29  C   UNL     1     -11.449   6.127  71.958  1.00  0.00    -0.366 C  
ENDBRANCH  26  27
ENDBRANCH  24  26
ENDBRANCH  23  24
ENDBRANCH  22  23
ENDBRANCH  19  22
BRANCH  21  30
HETATM   30  C   UNL     1      -7.751   7.701  68.695  1.00  0.00    -0.119 C  
BRANCH  30  31
HETATM   31  O   UNL     1      -8.191   6.865  67.630  1.00  0.00    -0.115 OA 
BRANCH  31  32
HETATM   32  C   UNL     1      -7.228   6.060  67.125  1.00  0.00    -0.075 C  
HETATM   33  O   UNL     1      -6.253   6.428  66.483  1.00  0.00    -0.034 OA 
BRANCH  32  34
HETATM   34  O   UNL     1      -7.500   4.787  67.506  1.00  0.00    -0.077 OA 
BRANCH  34  35
HETATM   35  C   UNL     1      -8.879   4.375  67.425  1.00  0.00    -0.108 C  
HETATM   36  C   UNL     1      -9.090   3.272  68.458  1.00  0.00    -0.210 C  
HETATM   37  C   UNL     1      -9.197   3.850  66.029  1.00  0.00    -0.158 C  
ENDBRANCH  34  35
ENDBRANCH  32  34
ENDBRANCH  31  32
ENDBRANCH  30  31
ENDBRANCH  21  30
ENDBRANCH  16  17
ENDBRANCH   1  16
TORSDOF 14
ENDMDL
MODEL      177
REMARK 921   NORMALIZED FREE ENERGY PREDICTED BY IDOCK:   -4.75 KCAL/MOL
REMARK 922        TOTAL FREE ENERGY PREDICTED BY IDOCK:  -10.47 KCAL/MOL
REMARK 923 INTER-LIGAND FREE ENERGY PREDICTED BY IDOCK:   -9.04 KCAL/MOL
REMARK 924 INTRA-LIGAND FREE ENERGY PREDICTED BY IDOCK:   -1.44 KCAL/MOL
REMARK 927      BINDING AFFINITY PREDICTED BY RF-SCORE:    0.00 PKD
ROOT
HETATM    1  C   UNL     1      -9.102  14.131  67.837  1.00  0.00    -0.189 C  
HETATM    2  C   UNL     1      -7.815  14.258  68.649  1.00  0.00    -0.140 C  
ENDROOT
BRANCH   1   3
HETATM    3  C   UNL     1     -10.168  15.152  68.211  1.00  0.00    -0.223 C  
BRANCH   3   4
HETATM    4  N   UNL     1     -10.357  16.237  67.286  1.00  0.00    -0.282 NA 
HETATM    5  C   UNL     1     -10.261  17.543  67.658  1.00  0.00    -0.343 A  
HETATM    6  N   UNL     1     -10.132  20.192  67.818  1.00  0.00    -0.411 NA 
HETATM    7  C   UNL     1     -10.487  16.197  65.926  1.00  0.00    -0.352 A  
HETATM    8  N   UNL     1     -10.398  20.489  65.492  1.00  0.00    -0.288 NA 
HETATM    9  N   UNL     1     -10.084  18.028  68.897  1.00  0.00    -0.376 NA 
HETATM   10  C   UNL     1     -10.290  19.646  66.591  1.00  0.00    -0.486 A  
HETATM   11  N   UNL     1     -10.528  17.402  65.405  1.00  0.00    -0.651 NA 
HETATM   12  C   UNL     1     -10.026  19.367  68.882  1.00  0.00    -0.445 A  
HETATM   13  C   UNL     1     -10.364  18.253  66.478  1.00  0.00    -0.392 A  
HETATM   14  H1  UNL     1     -10.343  21.504  65.574  1.00  0.00     0.000 HD 
HETATM   15  H2  UNL     1     -11.271  20.265  65.016  1.00  0.00     0.000 HD 
ENDBRANCH   3   4
ENDBRANCH   1   3
BRANCH   1  16
HETATM   16  O   UNL     1      -9.555  12.761  67.909  1.00  0.00    -0.198 OA 
BRANCH  16  17
HETATM   17  C   UNL     1      -8.711  11.775  67.266  1.00  0.00    -0.163 C  
HETATM   18  O   UNL     1      -7.309  10.889  68.993  1.00  0.00    -0.094 OA 
HETATM   19  O   UNL     1      -9.898  10.514  69.103  1.00  0.00    -0.205 OA 
HETATM   20  P   UNL     1      -8.500  10.259  68.269  1.00  0.00    -0.129 P  
HETATM   21  O   UNL     1      -8.300   8.825  69.216  1.00  0.00    -0.116 OA 
BRANCH  19  22
HETATM   22  C   UNL     1     -11.097   9.912  68.664  1.00  0.00    -0.134 C  
BRANCH  22  23
HETATM   23  O   UNL     1     -12.238  10.736  68.931  1.00  0.00    -0.447 OA 
BRANCH  23  24
HETATM   24  C   UNL     1     -12.585  10.791  70.242  1.00  0.00    -0.276 C  
HETATM   25  O   UNL     1     -12.584  11.798  70.938  1.00  0.00    -0.349 OA 
BRANCH  24  26
HETATM   26  O   UNL     1     -12.916   9.544  70.669  1.00  0.00    -0.086 OA 
BRANCH  26  27
HETATM   27  C   UNL     1     -12.771   9.320  72.089  1.00  0.00    -0.390 C  
HETATM   28  C   UNL     1     -14.069   8.735  72.635  1.00  0.00    -0.323 C  
HETATM   29  C   UNL     1     -11.612   8.358  72.332  1.00  0.00    -0.450 C  
ENDBRANCH  26  27
ENDBRANCH  24  26
ENDBRANCH  23  24
ENDBRANCH  22  23
ENDBRANCH  19  22
BRANCH  21  30
HETATM   30  C   UNL     1      -7.824   7.733  68.459  1.00  0.00    -0.120 C  
BRANCH  30  31
HETATM   31  O   UNL     1      -8.095   6.490  69.099  1.00  0.00    -0.109 OA 
BRANCH  31  32
HETATM   32  C   UNL     1      -9.130   5.805  68.561  1.00  0.00    -0.114 C  
HETATM   33  O   UNL     1     -10.090   6.298  67.984  1.00  0.00    -0.133 OA 
BRANCH  32  34
HETATM   34  O   UNL     1      -8.885   4.480  68.718  1.00  0.00    -0.095 OA 
BRANCH  34  35
HETATM   35  C   UNL     1      -9.337   3.616  67.657  1.00  0.00    -0.200 C  
HETATM   36  C   UNL     1      -9.501   2.217  68.244  1.00  0.00    -0.227 C  
HETATM   37  C   UNL     1      -8.320   3.588  66.521  1.00  0.00    -0.101 C  
ENDBRANCH  34  35
ENDBRANCH  32  34
ENDBRANCH  31  32
ENDBRANCH  30  31
ENDBRANCH  21  30
ENDBRANCH  16  17
ENDBRANCH   1  16
TORSDOF 14
ENDMDL
MODEL      178
REMARK 921   NORMALIZED FREE ENERGY PREDICTED BY IDOCK:   -4.75 KCAL/MOL
REMARK 922        TOTAL FREE ENERGY PREDICTED BY IDOCK:  -10.47 KCAL/MOL
REMARK 923 INTER-LIGAND FREE ENERGY PREDICTED BY IDOCK:   -9.20 KCAL/MOL
REMARK 924 INTRA-LIGAND FREE ENERGY PREDICTED BY IDOCK:   -1.28 KCAL/MOL
REMARK 927      BINDING AFFINITY PREDICTED BY RF-SCORE:    0.00 PKD
ROOT
HETATM    1  C   UNL     1     -10.106  13.191  66.535  1.00  0.00    -0.280 C  
HETATM    2  C   UNL     1     -10.612  14.288  65.602  1.00  0.00    -0.328 C  
ENDROOT
BRANCH   1   3
HETATM    3  C   UNL     1     -11.215  12.451  67.272  1.00  0.00    -0.303 C  
BRANCH   3   4
HETATM    4  N   UNL     1     -11.785  13.130  68.405  1.00  0.00    -0.331 NA 
HETATM    5  C   UNL     1     -12.180  12.475  69.530  1.00  0.00    -0.080 A  
HETATM    6  N   UNL     1     -13.041  11.730  71.931  1.00  0.00    -0.445 NA 
HETATM    7  C   UNL     1     -11.881  14.472  68.645  1.00  0.00    -0.320 A  
HETATM    8  N   UNL     1     -13.381  13.949  72.657  1.00  0.00    -0.545 NA 
HETATM    9  N   UNL     1     -12.204  11.149  69.737  1.00  0.00    -0.315 NA 
HETATM   10  C   UNL     1     -12.977  13.055  71.672  1.00  0.00    -0.321 A  
HETATM   11  N   UNL     1     -12.361  14.719  69.843  1.00  0.00    -0.306 NA 
HETATM   12  C   UNL     1     -12.645  10.866  70.970  1.00  0.00    -0.417 A  
HETATM   13  C   UNL     1     -12.530  13.476  70.414  1.00  0.00    -0.275 A  
HETATM   14  H1  UNL     1     -13.707  13.642  73.573  1.00  0.00     0.000 HD 
HETATM   15  H2  UNL     1     -14.107  14.542  72.255  1.00  0.00     0.000 HD 
ENDBRANCH   3   4
ENDBRANCH   1   3
BRANCH   1  16
HETATM   16  O   UNL     1      -9.104  13.758  67.406  1.00  0.00    -0.201 OA 
BRANCH  16  17
HETATM   17  C   UNL     1      -8.701  15.119  67.117  1.00  0.00    -0.216 C  
HETATM   18  O   UNL     1      -8.813  16.290  69.203  1.00  0.00    -0.249 OA 
HETATM   19  O   UNL     1      -7.097  14.335  68.902  1.00  0.00    -0.103 OA 
HETATM   20  P   UNL     1      -7.599  15.821  68.397  1.00  0.00    -0.143 P  
HETATM   21  O   UNL     1      -6.557  16.486  69.608  1.00  0.00    -0.218 OA 
BRANCH  19  22
HETATM   22  C   UNL     1      -5.919  13.773  68.366  1.00  0.00    -0.099 C  
BRANCH  22  23
HETATM   23  O   UNL     1      -6.150  13.159  67.092  1.00  0.00    -0.301 OA 
BRANCH  23  24
HETATM   24  C   UNL     1      -5.692  11.885  67.002  1.00  0.00    -0.139 C  
HETATM   25  O   UNL     1      -5.271  11.348  65.986  1.00  0.00    -0.249 OA 
BRANCH  24  26
HETATM   26  O   UNL     1      -5.794  11.287  68.219  1.00  0.00    -0.046 OA 
BRANCH  26  27
HETATM   27  C   UNL     1      -6.860  10.320  68.343  1.00  0.00    -0.061 C  
HETATM   28  C   UNL     1      -6.314   8.934  68.021  1.00  0.00    -0.056 C  
HETATM   29  C   UNL     1      -7.409  10.356  69.766  1.00  0.00    -0.157 C  
ENDBRANCH  26  27
ENDBRANCH  24  26
ENDBRANCH  23  24
ENDBRANCH  22  23
ENDBRANCH  19  22
BRANCH  21  30
HETATM   30  C   UNL     1      -5.861  17.629  69.160  1.00  0.00    -0.208 C  
BRANCH  30  31
HETATM   31  O   UNL     1      -6.197  18.783  69.924  1.00  0.00    -0.246 OA 
BRANCH  31  32
HETATM   32  C   UNL     1      -6.594  19.842  69.182  1.00  0.00    -0.342 C  
HETATM   33  O   UNL     1      -5.947  20.863  68.989  1.00  0.00    -0.347 OA 
BRANCH  32  34
HETATM   34  O   UNL     1      -7.803  19.547  68.641  1.00  0.00    -0.344 OA 
BRANCH  34  35
HETATM   35  C   UNL     1      -8.102  20.162  67.372  1.00  0.00    -0.335 C  
HETATM   36  C   UNL     1      -9.596  20.474  67.356  1.00  0.00    -0.578 C  
HETATM   37  C   UNL     1      -7.756  19.216  66.226  1.00  0.00    -0.296 C  
ENDBRANCH  34  35
ENDBRANCH  32  34
ENDBRANCH  31  32
ENDBRANCH  30  31
ENDBRANCH  21  30
ENDBRANCH  16  17
ENDBRANCH   1  16
TORSDOF 14
ENDMDL
MODEL      179
REMARK 921   NORMALIZED FREE ENERGY PREDICTED BY IDOCK:   -4.73 KCAL/MOL
REMARK 922        TOTAL FREE ENERGY PREDICTED BY IDOCK:  -10.45 KCAL/MOL
REMARK 923 INTER-LIGAND FREE ENERGY PREDICTED BY IDOCK:   -8.80 KCAL/MOL
REMARK 924 INTRA-LIGAND FREE ENERGY PREDICTED BY IDOCK:   -1.64 KCAL/MOL
REMARK 927      BINDING AFFINITY PREDICTED BY RF-SCORE:    0.00 PKD
ROOT
HETATM    1  C   UNL     1     -10.882  14.749  69.306  1.00  0.00    -0.264 C  
HETATM    2  C   UNL     1     -12.097  15.595  69.683  1.00  0.00    -0.329 C  
ENDROOT
BRANCH   1   3
HETATM    3  C   UNL     1      -9.749  15.548  68.675  1.00  0.00    -0.208 C  
BRANCH   3   4
HETATM    4  N   UNL     1     -10.121  16.443  67.612  1.00  0.00    -0.257 NA 
HETATM    5  C   UNL     1     -10.004  17.795  67.717  1.00  0.00    -0.322 A  
HETATM    6  N   UNL     1      -9.930  20.427  67.363  1.00  0.00    -0.435 NA 
HETATM    7  C   UNL     1     -10.474  16.151  66.325  1.00  0.00    -0.315 A  
HETATM    8  N   UNL     1     -10.588  20.287  65.101  1.00  0.00    -0.023 NA 
HETATM    9  N   UNL     1      -9.638  18.501  68.798  1.00  0.00    -0.348 NA 
HETATM   10  C   UNL     1     -10.273  19.662  66.302  1.00  0.00    -0.498 A  
HETATM   11  N   UNL     1     -10.638  17.238  65.606  1.00  0.00    -0.532 NA 
HETATM   12  C   UNL     1      -9.624  19.814  68.527  1.00  0.00    -0.342 A  
HETATM   13  C   UNL     1     -10.323  18.273  66.461  1.00  0.00    -0.392 A  
HETATM   14  H1  UNL     1     -10.551  21.299  64.985  1.00  0.00     0.000 HD 
HETATM   15  H2  UNL     1     -11.521  19.979  64.829  1.00  0.00     0.000 HD 
ENDBRANCH   3   4
ENDBRANCH   1   3
BRANCH   1  16
HETATM   16  O   UNL     1     -11.330  13.637  68.503  1.00  0.00    -0.254 OA 
BRANCH  16  17
HETATM   17  C   UNL     1     -11.503  12.376  69.196  1.00  0.00    -0.302 C  
HETATM   18  O   UNL     1     -12.072  10.776  67.508  1.00  0.00    -0.042 OA 
HETATM   19  O   UNL     1      -9.720  11.925  67.466  1.00  0.00    -0.178 OA 
HETATM   20  P   UNL     1     -10.772  10.963  68.292  1.00  0.00    -0.248 P  
HETATM   21  O   UNL     1     -10.081   9.626  67.439  1.00  0.00    -0.178 OA 
BRANCH  19  22
HETATM   22  C   UNL     1      -8.415  12.127  67.964  1.00  0.00    -0.170 C  
BRANCH  22  23
HETATM   23  O   UNL     1      -7.617  12.914  67.071  1.00  0.00    -0.079 OA 
BRANCH  23  24
HETATM   24  C   UNL     1      -6.523  13.470  67.650  1.00  0.00    -0.160 C  
HETATM   25  O   UNL     1      -5.454  13.686  67.096  1.00  0.00    -0.262 OA 
BRANCH  24  26
HETATM   26  O   UNL     1      -6.795  13.733  68.956  1.00  0.00    -0.106 OA 
BRANCH  26  27
HETATM   27  C   UNL     1      -5.851  14.603  69.619  1.00  0.00    -0.104 C  
HETATM   28  C   UNL     1      -6.486  15.977  69.802  1.00  0.00    -0.164 C  
HETATM   29  C   UNL     1      -5.481  14.005  70.973  1.00  0.00    -0.181 C  
ENDBRANCH  26  27
ENDBRANCH  24  26
ENDBRANCH  23  24
ENDBRANCH  22  23
ENDBRANCH  19  22
BRANCH  21  30
HETATM   30  C   UNL     1      -9.898   8.492  68.258  1.00  0.00    -0.169 C  
BRANCH  30  31
HETATM   31  O   UNL     1     -10.828   8.465  69.336  1.00  0.00    -0.191 OA 
BRANCH  31  32
HETATM   32  C   UNL     1     -10.270   8.201  70.541  1.00  0.00    -0.198 C  
HETATM   33  O   UNL     1      -9.299   7.482  70.736  1.00  0.00    -0.162 OA 
BRANCH  32  34
HETATM   34  O   UNL     1     -10.936   8.919  71.480  1.00  0.00    -0.275 OA 
BRANCH  34  35
HETATM   35  C   UNL     1     -12.326   9.189  71.212  1.00  0.00    -0.315 C  
HETATM   36  C   UNL     1     -12.683  10.495  71.915  1.00  0.00    -0.436 C  
HETATM   37  C   UNL     1     -13.200   8.057  71.741  1.00  0.00    -0.367 C  
ENDBRANCH  34  35
ENDBRANCH  32  34
ENDBRANCH  31  32
ENDBRANCH  30  31
ENDBRANCH  21  30
ENDBRANCH  16  17
ENDBRANCH   1  16
TORSDOF 14
ENDMDL
MODEL      180
REMARK 921   NORMALIZED FREE ENERGY PREDICTED BY IDOCK:   -4.72 KCAL/MOL
REMARK 922        TOTAL FREE ENERGY PREDICTED BY IDOCK:  -10.43 KCAL/MOL
REMARK 923 INTER-LIGAND FREE ENERGY PREDICTED BY IDOCK:   -8.82 KCAL/MOL
REMARK 924 INTRA-LIGAND FREE ENERGY PREDICTED BY IDOCK:   -1.61 KCAL/MOL
REMARK 927      BINDING AFFINITY PREDICTED BY RF-SCORE:    0.00 PKD
ROOT
HETATM    1  C   UNL     1      -7.566  14.371  67.929  1.00  0.00    -0.151 C  
HETATM    2  C   UNL     1      -6.188  13.950  68.437  1.00  0.00    -0.101 C  
ENDROOT
BRANCH   1   3
HETATM    3  C   UNL     1      -8.283  15.356  68.842  1.00  0.00    -0.192 C  
BRANCH   3   4
HETATM    4  N   UNL     1      -8.343  16.717  68.381  1.00  0.00    -0.213 NA 
HETATM    5  C   UNL     1      -9.185  17.120  67.391  1.00  0.00    -0.232 A  
HETATM    6  N   UNL     1     -10.635  18.435  65.594  1.00  0.00    -0.596 NA 
HETATM    7  C   UNL     1      -7.752  17.831  68.908  1.00  0.00    -0.200 A  
HETATM    8  N   UNL     1      -9.766  20.538  66.219  1.00  0.00    -0.648 NA 
HETATM    9  N   UNL     1      -9.989  16.351  66.640  1.00  0.00    -0.260 NA 
HETATM   10  C   UNL     1      -9.820  19.160  66.392  1.00  0.00    -0.381 A  
HETATM   11  N   UNL     1      -8.127  18.924  68.283  1.00  0.00    -0.307 NA 
HETATM   12  C   UNL     1     -10.684  17.096  65.768  1.00  0.00    -0.138 A  
HETATM   13  C   UNL     1      -9.042  18.493  67.346  1.00  0.00    -0.275 A  
HETATM   14  H1  UNL     1     -10.333  21.024  65.524  1.00  0.00     0.000 HD 
HETATM   15  H2  UNL     1      -8.793  20.790  66.053  1.00  0.00     0.000 HD 
ENDBRANCH   3   4
ENDBRANCH   1   3
BRANCH   1  16
HETATM   16  O   UNL     1      -8.329  13.180  67.640  1.00  0.00    -0.149 OA 
BRANCH  16  17
HETATM   17  C   UNL     1      -7.564  11.993  67.315  1.00  0.00    -0.157 C  
HETATM   18  O   UNL     1      -7.292  10.807  69.377  1.00  0.00    -0.114 OA 
HETATM   19  O   UNL     1      -9.688  11.126  68.370  1.00  0.00    -0.177 OA 
HETATM   20  P   UNL     1      -8.178  10.497  68.169  1.00  0.00    -0.122 P  
HETATM   21  O   UNL     1      -8.759   9.081  68.977  1.00  0.00    -0.134 OA 
BRANCH  19  22
HETATM   22  C   UNL     1     -10.695  10.852  67.420  1.00  0.00    -0.257 C  
BRANCH  22  23
HETATM   23  O   UNL     1     -11.827  11.715  67.575  1.00  0.00    -0.591 OA 
BRANCH  23  24
HETATM   24  C   UNL     1     -12.097  12.048  68.862  1.00  0.00    -0.145 C  
HETATM   25  O   UNL     1     -11.963  13.161  69.354  1.00  0.00    -0.307 OA 
BRANCH  24  26
HETATM   26  O   UNL     1     -12.522  10.943  69.530  1.00  0.00    -0.305 OA 
BRANCH  26  27
HETATM   27  C   UNL     1     -12.089  10.849  70.905  1.00  0.00    -0.349 C  
HETATM   28  C   UNL     1     -13.310  10.919  71.816  1.00  0.00    -0.413 C  
HETATM   29  C   UNL     1     -11.349   9.531  71.112  1.00  0.00    -0.440 C  
ENDBRANCH  26  27
ENDBRANCH  24  26
ENDBRANCH  23  24
ENDBRANCH  22  23
ENDBRANCH  19  22
BRANCH  21  30
HETATM   30  C   UNL     1      -8.292   7.886  68.387  1.00  0.00    -0.124 C  
BRANCH  30  31
HETATM   31  O   UNL     1      -8.275   6.810  69.320  1.00  0.00    -0.121 OA 
BRANCH  31  32
HETATM   32  C   UNL     1      -9.501   6.326  69.626  1.00  0.00    -0.146 C  
HETATM   33  O   UNL     1     -10.408   6.120  68.829  1.00  0.00    -0.169 OA 
BRANCH  32  34
HETATM   34  O   UNL     1      -9.527   6.053  70.954  1.00  0.00    -0.165 OA 
BRANCH  34  35
HETATM   35  C   UNL     1     -10.595   5.201  71.412  1.00  0.00    -0.137 C  
HETATM   36  C   UNL     1     -11.426   6.005  72.408  1.00  0.00    -0.357 C  
HETATM   37  C   UNL     1     -10.033   3.956  72.088  1.00  0.00    -0.243 C  
ENDBRANCH  34  35
ENDBRANCH  32  34
ENDBRANCH  31  32
ENDBRANCH  30  31
ENDBRANCH  21  30
ENDBRANCH  16  17
ENDBRANCH   1  16
TORSDOF 14
ENDMDL
MODEL      181
REMARK 921   NORMALIZED FREE ENERGY PREDICTED BY IDOCK:   -4.71 KCAL/MOL
REMARK 922        TOTAL FREE ENERGY PREDICTED BY IDOCK:  -10.41 KCAL/MOL
REMARK 923 INTER-LIGAND FREE ENERGY PREDICTED BY IDOCK:   -8.72 KCAL/MOL
REMARK 924 INTRA-LIGAND FREE ENERGY PREDICTED BY IDOCK:   -1.69 KCAL/MOL
REMARK 927      BINDING AFFINITY PREDICTED BY RF-SCORE:    0.00 PKD
ROOT
HETATM    1  C   UNL     1      -8.949   5.993  68.854  1.00  0.00    -0.123 C  
HETATM    2  C   UNL     1      -7.461   6.337  68.868  1.00  0.00    -0.087 C  
ENDROOT
BRANCH   1   3
HETATM    3  C   UNL     1      -9.685   6.502  67.622  1.00  0.00    -0.123 C  
BRANCH   3   4
HETATM    4  N   UNL     1      -9.018   6.313  66.362  1.00  0.00    -0.148 NA 
HETATM    5  C   UNL     1      -8.962   5.106  65.735  1.00  0.00    -0.152 A  
HETATM    6  N   UNL     1      -8.609   3.055  64.084  1.00  0.00    -0.089 NA 
HETATM    7  C   UNL     1      -8.495   7.250  65.516  1.00  0.00    -0.111 A  
HETATM    8  N   UNL     1      -7.602   4.385  62.415  1.00  0.00    -0.050 NA 
HETATM    9  N   UNL     1      -9.404   3.926  66.196  1.00  0.00    -0.164 NA 
HETATM   10  C   UNL     1      -8.199   4.273  63.665  1.00  0.00    -0.096 A  
HETATM   11  N   UNL     1      -8.062   6.711  64.399  1.00  0.00    -0.094 NA 
HETATM   12  C   UNL     1      -9.190   2.953  65.299  1.00  0.00    -0.139 A  
HETATM   13  C   UNL     1      -8.371   5.371  64.516  1.00  0.00    -0.138 A  
HETATM   14  H1  UNL     1      -7.477   3.586  61.795  1.00  0.00     0.000 HD 
HETATM   15  H2  UNL     1      -6.688   4.817  62.548  1.00  0.00     0.000 HD 
ENDBRANCH   3   4
ENDBRANCH   1   3
BRANCH   1  16
HETATM   16  O   UNL     1      -9.530   6.427  70.102  1.00  0.00    -0.159 OA 
BRANCH  16  17
HETATM   17  C   UNL     1     -10.957   6.676  70.091  1.00  0.00    -0.305 C  
HETATM   18  O   UNL     1     -11.523   7.330  72.324  1.00  0.00    -0.261 OA 
HETATM   19  O   UNL     1      -9.928   8.837  70.896  1.00  0.00    -0.192 OA 
HETATM   20  P   UNL     1     -11.425   8.165  71.046  1.00  0.00    -0.259 P  
HETATM   21  O   UNL     1     -11.869   9.573  71.948  1.00  0.00    -0.373 OA 
BRANCH  19  22
HETATM   22  C   UNL     1      -9.667   9.741  69.844  1.00  0.00    -0.238 C  
BRANCH  22  23
HETATM   23  O   UNL     1     -10.744   9.790  68.900  1.00  0.00    -0.216 OA 
BRANCH  23  24
HETATM   24  C   UNL     1     -10.418  10.370  67.718  1.00  0.00    -0.226 C  
HETATM   25  O   UNL     1      -9.312  10.351  67.195  1.00  0.00    -0.155 OA 
BRANCH  24  26
HETATM   26  O   UNL     1     -11.514  10.995  67.211  1.00  0.00    -0.470 OA 
BRANCH  26  27
HETATM   27  C   UNL     1     -11.251  12.240  66.527  1.00  0.00    -0.324 C  
HETATM   28  C   UNL     1     -11.324  12.005  65.022  1.00  0.00    -0.365 C  
HETATM   29  C   UNL     1     -12.286  13.277  66.952  1.00  0.00    -0.315 C  
ENDBRANCH  26  27
ENDBRANCH  24  26
ENDBRANCH  23  24
ENDBRANCH  22  23
ENDBRANCH  19  22
BRANCH  21  30
HETATM   30  C   UNL     1     -13.163  10.039  71.630  1.00  0.00    -0.419 C  
BRANCH  30  31
HETATM   31  O   UNL     1     -13.390  11.349  72.140  1.00  0.00    -0.469 OA 
BRANCH  31  32
HETATM   32  C   UNL     1     -12.940  12.341  71.337  1.00  0.00    -0.256 C  
HETATM   33  O   UNL     1     -12.256  12.191  70.333  1.00  0.00    -0.341 OA 
BRANCH  32  34
HETATM   34  O   UNL     1     -13.428  13.516  71.804  1.00  0.00    -0.385 OA 
BRANCH  34  35
HETATM   35  C   UNL     1     -12.480  14.592  71.945  1.00  0.00    -0.341 C  
HETATM   36  C   UNL     1     -12.832  15.349  73.222  1.00  0.00    -0.636 C  
HETATM   37  C   UNL     1     -12.556  15.531  70.746  1.00  0.00    -0.505 C  
ENDBRANCH  34  35
ENDBRANCH  32  34
ENDBRANCH  31  32
ENDBRANCH  30  31
ENDBRANCH  21  30
ENDBRANCH  16  17
ENDBRANCH   1  16
TORSDOF 14
ENDMDL
MODEL      182
REMARK 921   NORMALIZED FREE ENERGY PREDICTED BY IDOCK:   -4.71 KCAL/MOL
REMARK 922        TOTAL FREE ENERGY PREDICTED BY IDOCK:  -10.40 KCAL/MOL
REMARK 923 INTER-LIGAND FREE ENERGY PREDICTED BY IDOCK:   -8.56 KCAL/MOL
REMARK 924 INTRA-LIGAND FREE ENERGY PREDICTED BY IDOCK:   -1.83 KCAL/MOL
REMARK 927      BINDING AFFINITY PREDICTED BY RF-SCORE:    0.00 PKD
ROOT
HETATM    1  C   UNL     1     -11.299  12.919  66.411  1.00  0.00    -0.319 C  
HETATM    2  C   UNL     1     -11.952  12.193  65.237  1.00  0.00    -0.313 C  
ENDROOT
BRANCH   1   3
HETATM    3  C   UNL     1     -10.159  13.844  66.005  1.00  0.00    -0.313 C  
BRANCH   3   4
HETATM    4  N   UNL     1     -10.520  15.208  65.727  1.00  0.00    -0.315 NA 
HETATM    5  C   UNL     1     -10.035  16.256  66.448  1.00  0.00    -0.300 A  
HETATM    6  N   UNL     1      -9.365  18.621  67.457  1.00  0.00    -0.281 NA 
HETATM    7  C   UNL     1     -11.221  15.715  64.669  1.00  0.00    -0.369 A  
HETATM    8  N   UNL     1     -10.536  19.823  65.798  1.00  0.00    -0.503 NA 
HETATM    9  N   UNL     1      -9.262  16.206  67.544  1.00  0.00    -0.207 NA 
HETATM   10  C   UNL     1     -10.128  18.610  66.341  1.00  0.00    -0.403 A  
HETATM   11  N   UNL     1     -11.257  17.028  64.692  1.00  0.00    -0.972 NA 
HETATM   12  C   UNL     1      -8.971  17.439  67.980  1.00  0.00    -0.255 A  
HETATM   13  C   UNL     1     -10.498  17.378  65.790  1.00  0.00    -0.215 A  
HETATM   14  H1  UNL     1     -10.266  20.720  66.200  1.00  0.00     0.000 HD 
HETATM   15  H2  UNL     1     -11.553  19.806  65.737  1.00  0.00     0.000 HD 
ENDBRANCH   3   4
ENDBRANCH   1   3
BRANCH   1  16
HETATM   16  O   UNL     1     -10.930  11.940  67.406  1.00  0.00    -0.235 OA 
BRANCH  16  17
HETATM   17  C   UNL     1     -10.831  10.569  66.948  1.00  0.00    -0.187 C  
HETATM   18  O   UNL     1      -8.937  10.507  65.484  1.00  0.00    -0.168 OA 
HETATM   19  O   UNL     1      -8.598  11.057  68.022  1.00  0.00    -0.126 OA 
HETATM   20  P   UNL     1      -9.106   9.959  66.903  1.00  0.00    -0.145 P  
HETATM   21  O   UNL     1      -7.476   9.381  66.860  1.00  0.00    -0.090 OA 
BRANCH  19  22
HETATM   22  C   UNL     1      -8.561  10.702  69.387  1.00  0.00    -0.030 C  
BRANCH  22  23
HETATM   23  O   UNL     1      -9.037   9.369  69.606  1.00  0.00    -0.156 OA 
BRANCH  23  24
HETATM   24  C   UNL     1      -8.571   8.795  70.744  1.00  0.00    -0.187 C  
HETATM   25  O   UNL     1      -7.731   9.276  71.493  1.00  0.00    -0.340 OA 
BRANCH  24  26
HETATM   26  O   UNL     1      -9.170   7.587  70.912  1.00  0.00    -0.153 OA 
BRANCH  26  27
HETATM   27  C   UNL     1     -10.545   7.514  70.475  1.00  0.00    -0.225 C  
HETATM   28  C   UNL     1     -10.859   6.081  70.059  1.00  0.00    -0.429 C  
HETATM   29  C   UNL     1     -11.460   7.947  71.616  1.00  0.00    -0.304 C  
ENDBRANCH  26  27
ENDBRANCH  24  26
ENDBRANCH  23  24
ENDBRANCH  22  23
ENDBRANCH  19  22
BRANCH  21  30
HETATM   30  C   UNL     1      -7.398   7.973  66.798  1.00  0.00    -0.089 C  
BRANCH  30  31
HETATM   31  O   UNL     1      -8.611   7.360  67.224  1.00  0.00    -0.117 OA 
BRANCH  31  32
HETATM   32  C   UNL     1      -8.664   6.026  66.999  1.00  0.00    -0.110 C  
HETATM   33  O   UNL     1      -8.248   5.157  67.755  1.00  0.00    -0.099 OA 
BRANCH  32  34
HETATM   34  O   UNL     1      -9.310   5.822  65.825  1.00  0.00    -0.129 OA 
BRANCH  34  35
HETATM   35  C   UNL     1      -8.795   4.771  64.985  1.00  0.00    -0.152 C  
HETATM   36  C   UNL     1      -8.120   5.432  63.786  1.00  0.00    -0.121 C  
HETATM   37  C   UNL     1      -9.925   3.864  64.511  1.00  0.00    -0.205 C  
ENDBRANCH  34  35
ENDBRANCH  32  34
ENDBRANCH  31  32
ENDBRANCH  30  31
ENDBRANCH  21  30
ENDBRANCH  16  17
ENDBRANCH   1  16
TORSDOF 14
ENDMDL
MODEL      183
REMARK 921   NORMALIZED FREE ENERGY PREDICTED BY IDOCK:   -4.70 KCAL/MOL
REMARK 922        TOTAL FREE ENERGY PREDICTED BY IDOCK:  -10.40 KCAL/MOL
REMARK 923 INTER-LIGAND FREE ENERGY PREDICTED BY IDOCK:   -8.60 KCAL/MOL
REMARK 924 INTRA-LIGAND FREE ENERGY PREDICTED BY IDOCK:   -1.80 KCAL/MOL
REMARK 927      BINDING AFFINITY PREDICTED BY RF-SCORE:    0.00 PKD
ROOT
HETATM    1  C   UNL     1     -11.381  11.887  67.628  1.00  0.00    -0.304 C  
HETATM    2  C   UNL     1     -11.608  12.246  66.161  1.00  0.00    -0.450 C  
ENDROOT
BRANCH   1   3
HETATM    3  C   UNL     1     -10.721  12.995  68.438  1.00  0.00    -0.256 C  
BRANCH   3   4
HETATM    4  N   UNL     1     -11.596  13.780  69.267  1.00  0.00    -0.291 NA 
HETATM    5  C   UNL     1     -12.259  13.258  70.334  1.00  0.00    -0.332 A  
HETATM    6  N   UNL     1     -13.711  12.788  72.509  1.00  0.00    -0.494 NA 
HETATM    7  C   UNL     1     -11.795  15.133  69.270  1.00  0.00    -0.320 A  
HETATM    8  N   UNL     1     -14.303  15.056  72.780  1.00  0.00    -0.262 NA 
HETATM    9  N   UNL     1     -12.297  11.974  70.723  1.00  0.00    -0.362 NA 
HETATM   10  C   UNL     1     -13.621  14.067  72.081  1.00  0.00    -0.489 A  
HETATM   11  N   UNL     1     -12.587  15.506  70.249  1.00  0.00    -0.381 NA 
HETATM   12  C   UNL     1     -13.044  11.831  71.826  1.00  0.00    -0.375 A  
HETATM   13  C   UNL     1     -12.865  14.343  70.936  1.00  0.00    -0.351 A  
HETATM   14  H1  UNL     1     -14.853  14.855  73.614  1.00  0.00     0.000 HD 
HETATM   15  H2  UNL     1     -14.911  15.537  72.118  1.00  0.00     0.000 HD 
ENDBRANCH   3   4
ENDBRANCH   1   3
BRANCH   1  16
HETATM   16  O   UNL     1     -10.682  10.625  67.687  1.00  0.00    -0.226 OA 
BRANCH  16  17
HETATM   17  C   UNL     1     -10.509   9.930  66.428  1.00  0.00    -0.127 C  
HETATM   18  O   UNL     1      -8.527  10.845  65.444  1.00  0.00    -0.163 OA 
HETATM   19  O   UNL     1      -8.365   9.517  67.695  1.00  0.00    -0.123 OA 
HETATM   20  P   UNL     1      -8.767   9.482  66.097  1.00  0.00    -0.158 P  
HETATM   21  O   UNL     1      -7.119   9.058  65.784  1.00  0.00    -0.083 OA 
BRANCH  19  22
HETATM   22  C   UNL     1      -8.402   8.327  68.453  1.00  0.00    -0.132 C  
BRANCH  22  23
HETATM   23  O   UNL     1      -9.132   8.493  69.675  1.00  0.00    -0.147 OA 
BRANCH  23  24
HETATM   24  C   UNL     1      -8.622   7.800  70.723  1.00  0.00    -0.133 C  
HETATM   25  O   UNL     1      -7.434   7.697  71.001  1.00  0.00    -0.072 OA 
BRANCH  24  26
HETATM   26  O   UNL     1      -9.640   7.216  71.410  1.00  0.00    -0.162 OA 
BRANCH  26  27
HETATM   27  C   UNL     1     -10.957   7.732  71.117  1.00  0.00    -0.239 C  
HETATM   28  C   UNL     1     -11.822   6.604  70.566  1.00  0.00    -0.430 C  
HETATM   29  C   UNL     1     -11.572   8.296  72.394  1.00  0.00    -0.464 C  
ENDBRANCH  26  27
ENDBRANCH  24  26
ENDBRANCH  23  24
ENDBRANCH  22  23
ENDBRANCH  19  22
BRANCH  21  30
HETATM   30  C   UNL     1      -6.991   8.067  64.787  1.00  0.00    -0.070 C  
BRANCH  30  31
HETATM   31  O   UNL     1      -8.246   7.470  64.474  1.00  0.00    -0.122 OA 
BRANCH  31  32
HETATM   32  C   UNL     1      -8.266   6.124  64.606  1.00  0.00    -0.094 C  
HETATM   33  O   UNL     1      -8.003   5.315  63.725  1.00  0.00    -0.091 OA 
BRANCH  32  34
HETATM   34  O   UNL     1      -8.568   5.831  65.895  1.00  0.00    -0.135 OA 
BRANCH  34  35
HETATM   35  C   UNL     1      -9.749   5.035  66.112  1.00  0.00    -0.183 C  
HETATM   36  C   UNL     1     -10.680   5.833  67.019  1.00  0.00    -0.369 C  
HETATM   37  C   UNL     1      -9.385   3.710  66.775  1.00  0.00    -0.210 C  
ENDBRANCH  34  35
ENDBRANCH  32  34
ENDBRANCH  31  32
ENDBRANCH  30  31
ENDBRANCH  21  30
ENDBRANCH  16  17
ENDBRANCH   1  16
TORSDOF 14
ENDMDL
MODEL      184
REMARK 921   NORMALIZED FREE ENERGY PREDICTED BY IDOCK:   -4.70 KCAL/MOL
REMARK 922        TOTAL FREE ENERGY PREDICTED BY IDOCK:  -10.39 KCAL/MOL
REMARK 923 INTER-LIGAND FREE ENERGY PREDICTED BY IDOCK:   -8.68 KCAL/MOL
REMARK 924 INTRA-LIGAND FREE ENERGY PREDICTED BY IDOCK:   -1.70 KCAL/MOL
REMARK 927      BINDING AFFINITY PREDICTED BY RF-SCORE:    0.00 PKD
ROOT
HETATM    1  C   UNL     1     -11.025  14.440  66.603  1.00  0.00    -0.318 C  
HETATM    2  C   UNL     1     -10.873  14.770  65.119  1.00  0.00    -0.417 C  
ENDROOT
BRANCH   1   3
HETATM    3  C   UNL     1     -10.575  15.562  67.530  1.00  0.00    -0.297 C  
BRANCH   3   4
HETATM    4  N   UNL     1      -9.491  16.379  67.057  1.00  0.00    -0.225 NA 
HETATM    5  C   UNL     1      -9.600  17.726  66.904  1.00  0.00    -0.288 A  
HETATM    6  N   UNL     1      -9.247  20.327  66.489  1.00  0.00    -0.309 NA 
HETATM    7  C   UNL     1      -8.184  16.037  66.845  1.00  0.00    -0.242 A  
HETATM    8  N   UNL     1      -6.950  20.086  66.007  1.00  0.00    -0.253 NA 
HETATM    9  N   UNL     1     -10.700  18.479  67.061  1.00  0.00    -0.372 NA 
HETATM   10  C   UNL     1      -8.169  19.522  66.364  1.00  0.00    -0.333 A  
HETATM   11  N   UNL     1      -7.455  17.079  66.518  1.00  0.00    -0.263 NA 
HETATM   12  C   UNL     1     -10.429  19.773  66.837  1.00  0.00    -0.472 A  
HETATM   13  C   UNL     1      -8.327  18.147  66.574  1.00  0.00    -0.265 A  
HETATM   14  H1  UNL     1      -6.835  21.087  65.854  1.00  0.00     0.000 HD 
HETATM   15  H2  UNL     1      -6.622  19.606  65.169  1.00  0.00     0.000 HD 
ENDBRANCH   3   4
ENDBRANCH   1   3
BRANCH   1  16
HETATM   16  O   UNL     1     -10.377  13.176  66.859  1.00  0.00    -0.244 OA 
BRANCH  16  17
HETATM   17  C   UNL     1      -9.932  12.949  68.219  1.00  0.00    -0.234 C  
HETATM   18  O   UNL     1     -11.922  12.620  69.510  1.00  0.00    -0.306 OA 
HETATM   19  O   UNL     1     -11.293  10.905  67.633  1.00  0.00    -0.372 OA 
HETATM   20  P   UNL     1     -10.861  11.614  69.057  1.00  0.00    -0.136 P  
HETATM   21  O   UNL     1     -11.739  10.352  69.849  1.00  0.00    -0.258 OA 
BRANCH  19  22
HETATM   22  C   UNL     1     -10.506   9.861  67.103  1.00  0.00    -0.242 C  
BRANCH  22  23
HETATM   23  O   UNL     1     -11.282   8.687  66.837  1.00  0.00     0.363 OA 
BRANCH  23  24
HETATM   24  C   UNL     1     -10.606   7.524  67.014  1.00  0.00    -0.339 C  
HETATM   25  O   UNL     1     -11.009   6.410  66.705  1.00  0.00    -0.353 OA 
BRANCH  24  26
HETATM   26  O   UNL     1      -9.413   7.788  67.609  1.00  0.00    -0.140 OA 
BRANCH  26  27
HETATM   27  C   UNL     1      -8.314   6.950  67.187  1.00  0.00    -0.121 C  
HETATM   28  C   UNL     1      -7.136   7.836  66.795  1.00  0.00    -0.080 C  
HETATM   29  C   UNL     1      -7.921   6.020  68.330  1.00  0.00    -0.106 C  
ENDBRANCH  26  27
ENDBRANCH  24  26
ENDBRANCH  23  24
ENDBRANCH  22  23
ENDBRANCH  19  22
BRANCH  21  30
HETATM   30  C   UNL     1     -11.078   9.866  70.998  1.00  0.00    -0.331 C  
BRANCH  30  31
HETATM   31  O   UNL     1      -9.785   9.358  70.686  1.00  0.00    -0.248 OA 
BRANCH  31  32
HETATM   32  C   UNL     1      -9.341   8.412  71.545  1.00  0.00    -0.200 C  
HETATM   33  O   UNL     1      -8.686   8.618  72.559  1.00  0.00    -0.360 OA 
BRANCH  32  34
HETATM   34  O   UNL     1      -9.799   7.208  71.121  1.00  0.00    -0.179 OA 
BRANCH  34  35
HETATM   35  C   UNL     1     -10.162   6.264  72.146  1.00  0.00    -0.184 C  
HETATM   36  C   UNL     1      -9.539   4.921  71.775  1.00  0.00    -0.210 C  
HETATM   37  C   UNL     1     -11.679   6.127  72.232  1.00  0.00    -0.352 C  
ENDBRANCH  34  35
ENDBRANCH  32  34
ENDBRANCH  31  32
ENDBRANCH  30  31
ENDBRANCH  21  30
ENDBRANCH  16  17
ENDBRANCH   1  16
TORSDOF 14
ENDMDL
MODEL      185
REMARK 921   NORMALIZED FREE ENERGY PREDICTED BY IDOCK:   -4.70 KCAL/MOL
REMARK 922        TOTAL FREE ENERGY PREDICTED BY IDOCK:  -10.38 KCAL/MOL
REMARK 923 INTER-LIGAND FREE ENERGY PREDICTED BY IDOCK:   -8.68 KCAL/MOL
REMARK 924 INTRA-LIGAND FREE ENERGY PREDICTED BY IDOCK:   -1.70 KCAL/MOL
REMARK 927      BINDING AFFINITY PREDICTED BY RF-SCORE:    0.00 PKD
ROOT
HETATM    1  C   UNL     1      -7.671  14.701  68.938  1.00  0.00    -0.141 C  
HETATM    2  C   UNL     1      -8.969  15.272  69.505  1.00  0.00    -0.183 C  
ENDROOT
BRANCH   1   3
HETATM    3  C   UNL     1      -7.208  15.383  67.657  1.00  0.00    -0.182 C  
BRANCH   3   4
HETATM    4  N   UNL     1      -7.824  16.647  67.354  1.00  0.00    -0.158 NA 
HETATM    5  C   UNL     1      -8.907  16.758  66.538  1.00  0.00    -0.277 A  
HETATM    6  N   UNL     1     -11.009  17.530  65.107  1.00  0.00    -0.606 NA 
HETATM    7  C   UNL     1      -7.588  17.874  67.907  1.00  0.00    -0.221 A  
HETATM    8  N   UNL     1     -10.853  19.774  65.822  1.00  0.00    -0.393 NA 
HETATM    9  N   UNL     1      -9.500  15.783  65.830  1.00  0.00    -0.330 NA 
HETATM   10  C   UNL     1     -10.384  18.466  65.856  1.00  0.00    -0.301 A  
HETATM   11  N   UNL     1      -8.426  18.780  67.458  1.00  0.00    -0.268 NA 
HETATM   12  C   UNL     1     -10.549  16.261  65.145  1.00  0.00    -0.304 A  
HETATM   13  C   UNL     1      -9.272  18.087  66.617  1.00  0.00    -0.284 A  
HETATM   14  H1  UNL     1     -11.663  20.050  65.268  1.00  0.00     0.000 HD 
HETATM   15  H2  UNL     1     -10.075  20.374  65.550  1.00  0.00     0.000 HD 
ENDBRANCH   3   4
ENDBRANCH   1   3
BRANCH   1  16
HETATM   16  O   UNL     1      -7.815  13.270  68.818  1.00  0.00    -0.097 OA 
BRANCH  16  17
HETATM   17  C   UNL     1      -8.588  12.797  67.688  1.00  0.00    -0.181 C  
HETATM   18  O   UNL     1      -7.055  11.567  66.319  1.00  0.00    -0.010 OA 
HETATM   19  O   UNL     1      -7.620  10.710  68.728  1.00  0.00    -0.093 OA 
HETATM   20  P   UNL     1      -8.186  11.073  67.224  1.00  0.00    -0.134 P  
HETATM   21  O   UNL     1      -7.808   9.443  66.786  1.00  0.00    -0.103 OA 
BRANCH  19  22
HETATM   22  C   UNL     1      -8.482  10.127  69.681  1.00  0.00    -0.157 C  
BRANCH  22  23
HETATM   23  O   UNL     1      -9.847  10.139  69.246  1.00  0.00    -0.197 OA 
BRANCH  23  24
HETATM   24  C   UNL     1     -10.586   9.101  69.713  1.00  0.00    -0.229 C  
HETATM   25  O   UNL     1     -11.600   9.196  70.391  1.00  0.00    -0.242 OA 
BRANCH  24  26
HETATM   26  O   UNL     1     -10.008   7.932  69.327  1.00  0.00    -0.181 OA 
BRANCH  26  27
HETATM   27  C   UNL     1     -10.906   6.805  69.228  1.00  0.00    -0.264 C  
HETATM   28  C   UNL     1     -10.780   6.190  67.839  1.00  0.00    -0.374 C  
HETATM   29  C   UNL     1     -10.544   5.778  70.297  1.00  0.00    -0.369 C  
ENDBRANCH  26  27
ENDBRANCH  24  26
ENDBRANCH  23  24
ENDBRANCH  22  23
ENDBRANCH  19  22
BRANCH  21  30
HETATM   30  C   UNL     1      -8.797   8.854  65.969  1.00  0.00    -0.172 C  
BRANCH  30  31
HETATM   31  O   UNL     1      -9.935   9.699  65.828  1.00  0.00    -0.293 OA 
BRANCH  31  32
HETATM   32  C   UNL     1     -10.061  10.257  64.602  1.00  0.00    -0.247 C  
HETATM   33  O   UNL     1      -9.250  10.166  63.689  1.00  0.00    -0.245 OA 
BRANCH  32  34
HETATM   34  O   UNL     1     -11.264  10.880  64.544  1.00  0.00    -0.025 OA 
BRANCH  34  35
HETATM   35  C   UNL     1     -11.242  12.320  64.598  1.00  0.00    -0.315 C  
HETATM   36  C   UNL     1     -11.858  12.739  65.930  1.00  0.00    -0.490 C  
HETATM   37  C   UNL     1     -12.046  12.910  63.444  1.00  0.00    -0.610 C  
ENDBRANCH  34  35
ENDBRANCH  32  34
ENDBRANCH  31  32
ENDBRANCH  30  31
ENDBRANCH  21  30
ENDBRANCH  16  17
ENDBRANCH   1  16
TORSDOF 14
ENDMDL
MODEL      186
REMARK 921   NORMALIZED FREE ENERGY PREDICTED BY IDOCK:   -4.69 KCAL/MOL
REMARK 922        TOTAL FREE ENERGY PREDICTED BY IDOCK:  -10.37 KCAL/MOL
REMARK 923 INTER-LIGAND FREE ENERGY PREDICTED BY IDOCK:   -8.96 KCAL/MOL
REMARK 924 INTRA-LIGAND FREE ENERGY PREDICTED BY IDOCK:   -1.41 KCAL/MOL
REMARK 927      BINDING AFFINITY PREDICTED BY RF-SCORE:    0.00 PKD
ROOT
HETATM    1  C   UNL     1     -11.268  11.567  64.888  1.00  0.00    -0.173 C  
HETATM    2  C   UNL     1     -10.471  11.934  63.638  1.00  0.00    -0.493 C  
ENDROOT
BRANCH   1   3
HETATM    3  C   UNL     1     -12.101  12.714  65.445  1.00  0.00    -0.462 C  
BRANCH   3   4
HETATM    4  N   UNL     1     -11.529  14.028  65.323  1.00  0.00    -0.313 NA 
HETATM    5  C   UNL     1     -10.568  14.491  66.169  1.00  0.00    -0.306 A  
HETATM    6  N   UNL     1      -8.682  15.847  67.457  1.00  0.00    -0.175 NA 
HETATM    7  C   UNL     1     -11.684  14.945  64.322  1.00  0.00    -0.247 A  
HETATM    8  N   UNL     1      -8.733  17.648  65.934  1.00  0.00    -0.520 NA 
HETATM    9  N   UNL     1     -10.081  13.883  67.262  1.00  0.00    -0.240 NA 
HETATM   10  C   UNL     1      -9.196  16.401  66.337  1.00  0.00    -0.302 A  
HETATM   11  N   UNL     1     -10.914  15.994  64.498  1.00  0.00    -0.586 NA 
HETATM   12  C   UNL     1      -9.135  14.634  67.843  1.00  0.00    -0.189 A  
HETATM   13  C   UNL     1     -10.194  15.710  65.640  1.00  0.00    -0.375 A  
HETATM   14  H1  UNL     1      -8.006  18.151  66.442  1.00  0.00     0.000 HD 
HETATM   15  H2  UNL     1      -9.539  18.267  65.857  1.00  0.00     0.000 HD 
ENDBRANCH   3   4
ENDBRANCH   1   3
BRANCH   1  16
HETATM   16  O   UNL     1     -10.366  10.979  65.849  1.00  0.00    -0.249 OA 
BRANCH  16  17
HETATM   17  C   UNL     1      -9.854   9.664  65.525  1.00  0.00    -0.281 C  
HETATM   18  O   UNL     1      -7.534   9.701  66.121  1.00  0.00    -0.096 OA 
HETATM   19  O   UNL     1      -9.357   9.964  67.982  1.00  0.00    -0.131 OA 
HETATM   20  P   UNL     1      -8.718   9.009  66.802  1.00  0.00    -0.128 P  
HETATM   21  O   UNL     1      -7.644   8.390  68.008  1.00  0.00    -0.095 OA 
BRANCH  19  22
HETATM   22  C   UNL     1     -10.384   9.464  68.810  1.00  0.00    -0.209 C  
BRANCH  22  23
HETATM   23  O   UNL     1     -10.681  10.353  69.893  1.00  0.00    -0.267 OA 
BRANCH  23  24
HETATM   24  C   UNL     1     -11.814  11.079  69.719  1.00  0.00    -0.347 C  
HETATM   25  O   UNL     1     -12.396  11.249  68.655  1.00  0.00    -0.534 OA 
BRANCH  24  26
HETATM   26  O   UNL     1     -12.194  11.607  70.913  1.00  0.00    -0.364 OA 
BRANCH  26  27
HETATM   27  C   UNL     1     -12.848  12.893  70.838  1.00  0.00    -0.122 C  
HETATM   28  C   UNL     1     -13.571  13.160  72.153  1.00  0.00    -0.637 C  
HETATM   29  C   UNL     1     -11.803  13.974  70.577  1.00  0.00    -0.339 C  
ENDBRANCH  26  27
ENDBRANCH  24  26
ENDBRANCH  23  24
ENDBRANCH  22  23
ENDBRANCH  19  22
BRANCH  21  30
HETATM   30  C   UNL     1      -7.454   6.995  67.905  1.00  0.00    -0.099 C  
BRANCH  30  31
HETATM   31  O   UNL     1      -7.632   6.537  66.568  1.00  0.00    -0.087 OA 
BRANCH  31  32
HETATM   32  C   UNL     1      -8.355   5.398  66.466  1.00  0.00    -0.109 C  
HETATM   33  O   UNL     1      -8.677   4.670  67.397  1.00  0.00    -0.104 OA 
BRANCH  32  34
HETATM   34  O   UNL     1      -8.709   5.238  65.167  1.00  0.00    -0.149 OA 
BRANCH  34  35
HETATM   35  C   UNL     1      -7.630   5.101  64.222  1.00  0.00    -0.069 C  
HETATM   36  C   UNL     1      -8.040   5.835  62.948  1.00  0.00    -0.110 C  
HETATM   37  C   UNL     1      -7.373   3.629  63.915  1.00  0.00    -0.055 C  
ENDBRANCH  34  35
ENDBRANCH  32  34
ENDBRANCH  31  32
ENDBRANCH  30  31
ENDBRANCH  21  30
ENDBRANCH  16  17
ENDBRANCH   1  16
TORSDOF 14
ENDMDL
MODEL      187
REMARK 921   NORMALIZED FREE ENERGY PREDICTED BY IDOCK:   -4.67 KCAL/MOL
REMARK 922        TOTAL FREE ENERGY PREDICTED BY IDOCK:  -10.34 KCAL/MOL
REMARK 923 INTER-LIGAND FREE ENERGY PREDICTED BY IDOCK:   -8.49 KCAL/MOL
REMARK 924 INTRA-LIGAND FREE ENERGY PREDICTED BY IDOCK:   -1.85 KCAL/MOL
REMARK 927      BINDING AFFINITY PREDICTED BY RF-SCORE:    0.00 PKD
ROOT
HETATM    1  C   UNL     1     -11.128  15.507  69.266  1.00  0.00    -0.285 C  
HETATM    2  C   UNL     1     -12.073  15.274  70.443  1.00  0.00    -0.388 C  
ENDROOT
BRANCH   1   3
HETATM    3  C   UNL     1     -11.020  16.967  68.845  1.00  0.00    -0.207 C  
BRANCH   3   4
HETATM    4  N   UNL     1     -10.178  17.238  67.711  1.00  0.00    -0.317 NA 
HETATM    5  C   UNL     1      -9.063  18.014  67.795  1.00  0.00    -0.262 A  
HETATM    6  N   UNL     1      -6.805  19.361  67.410  1.00  0.00    -0.205 NA 
HETATM    7  C   UNL     1     -10.212  16.686  66.462  1.00  0.00    -0.310 A  
HETATM    8  N   UNL     1      -6.585  18.638  65.175  1.00  0.00    -0.507 NA 
HETATM    9  N   UNL     1      -8.628  18.706  68.859  1.00  0.00    -0.231 NA 
HETATM   10  C   UNL     1      -7.281  18.630  66.378  1.00  0.00    -0.241 A  
HETATM   11  N   UNL     1      -9.209  17.098  65.719  1.00  0.00    -0.519 NA 
HETATM   12  C   UNL     1      -7.486  19.349  68.577  1.00  0.00    -0.331 A  
HETATM   13  C   UNL     1      -8.470  17.912  66.552  1.00  0.00    -0.258 A  
HETATM   14  H1  UNL     1      -5.718  19.160  65.048  1.00  0.00     0.000 HD 
HETATM   15  H2  UNL     1      -7.233  18.934  64.446  1.00  0.00     0.000 HD 
ENDBRANCH   3   4
ENDBRANCH   1   3
BRANCH   1  16
HETATM   16  O   UNL     1     -11.505  14.617  68.193  1.00  0.00    -0.293 OA 
BRANCH  16  17
HETATM   17  C   UNL     1     -11.936  13.291  68.586  1.00  0.00    -0.310 C  
HETATM   18  O   UNL     1     -12.116  12.036  66.554  1.00  0.00    -0.617 OA 
HETATM   19  O   UNL     1      -9.778  12.925  67.328  1.00  0.00    -0.212 OA 
HETATM   20  P   UNL     1     -11.072  11.963  67.670  1.00  0.00    -0.300 P  
HETATM   21  O   UNL     1     -10.255  10.708  66.805  1.00  0.00    -0.215 OA 
BRANCH  19  22
HETATM   22  C   UNL     1      -8.650  12.911  68.175  1.00  0.00    -0.188 C  
BRANCH  22  23
HETATM   23  O   UNL     1      -7.424  12.947  67.435  1.00  0.00    -0.148 OA 
BRANCH  23  24
HETATM   24  C   UNL     1      -6.876  11.726  67.212  1.00  0.00    -0.134 C  
HETATM   25  O   UNL     1      -6.224  11.405  66.228  1.00  0.00    -0.114 OA 
BRANCH  24  26
HETATM   26  O   UNL     1      -7.183  10.903  68.250  1.00  0.00    -0.079 OA 
BRANCH  26  27
HETATM   27  C   UNL     1      -6.062  10.203  68.834  1.00  0.00    -0.043 C  
HETATM   28  C   UNL     1      -6.031  10.480  70.334  1.00  0.00    -0.112 C  
HETATM   29  C   UNL     1      -6.210   8.708  68.574  1.00  0.00    -0.053 C  
ENDBRANCH  26  27
ENDBRANCH  24  26
ENDBRANCH  23  24
ENDBRANCH  22  23
ENDBRANCH  19  22
BRANCH  21  30
HETATM   30  C   UNL     1     -10.371   9.449  67.432  1.00  0.00    -0.263 C  
BRANCH  30  31
HETATM   31  O   UNL     1     -10.553   9.576  68.839  1.00  0.00    -0.215 OA 
BRANCH  31  32
HETATM   32  C   UNL     1      -9.890   8.649  69.568  1.00  0.00    -0.187 C  
HETATM   33  O   UNL     1      -9.404   8.826  70.678  1.00  0.00    -0.167 OA 
BRANCH  32  34
HETATM   34  O   UNL     1      -9.912   7.479  68.883  1.00  0.00    -0.160 OA 
BRANCH  34  35
HETATM   35  C   UNL     1      -9.313   6.343  69.537  1.00  0.00    -0.143 C  
HETATM   36  C   UNL     1      -8.387   5.670  68.527  1.00  0.00    -0.106 C  
HETATM   37  C   UNL     1     -10.387   5.362  69.994  1.00  0.00    -0.366 C  
ENDBRANCH  34  35
ENDBRANCH  32  34
ENDBRANCH  31  32
ENDBRANCH  30  31
ENDBRANCH  21  30
ENDBRANCH  16  17
ENDBRANCH   1  16
TORSDOF 14
ENDMDL
MODEL      188
REMARK 921   NORMALIZED FREE ENERGY PREDICTED BY IDOCK:   -4.65 KCAL/MOL
REMARK 922        TOTAL FREE ENERGY PREDICTED BY IDOCK:  -10.30 KCAL/MOL
REMARK 923 INTER-LIGAND FREE ENERGY PREDICTED BY IDOCK:   -9.41 KCAL/MOL
REMARK 924 INTRA-LIGAND FREE ENERGY PREDICTED BY IDOCK:   -0.90 KCAL/MOL
REMARK 927      BINDING AFFINITY PREDICTED BY RF-SCORE:    0.00 PKD
ROOT
HETATM    1  C   UNL     1     -10.939  15.552  65.966  1.00  0.00    -0.251 C  
HETATM    2  C   UNL     1     -11.523  14.892  64.719  1.00  0.00    -0.410 C  
ENDROOT
BRANCH   1   3
HETATM    3  C   UNL     1     -10.445  16.974  65.734  1.00  0.00    -0.251 C  
BRANCH   3   4
HETATM    4  N   UNL     1      -9.826  17.620  66.860  1.00  0.00    -0.293 NA 
HETATM    5  C   UNL     1      -8.532  18.038  66.845  1.00  0.00    -0.249 A  
HETATM    6  N   UNL     1      -6.137  19.084  67.331  1.00  0.00    -0.178 NA 
HETATM    7  C   UNL     1     -10.399  18.071  68.016  1.00  0.00    -0.387 A  
HETATM    8  N   UNL     1      -6.783  19.957  69.425  1.00  0.00    -0.337 NA 
HETATM    9  N   UNL     1      -7.622  17.846  65.876  1.00  0.00    -0.534 NA 
HETATM   10  C   UNL     1      -7.099  19.263  68.263  1.00  0.00    -0.280 A  
HETATM   11  N   UNL     1      -9.537  18.714  68.769  1.00  0.00    -0.355 NA 
HETATM   12  C   UNL     1      -6.451  18.409  66.203  1.00  0.00    -0.225 A  
HETATM   13  C   UNL     1      -8.369  18.720  68.035  1.00  0.00    -0.289 A  
HETATM   14  H1  UNL     1      -5.859  20.353  69.591  1.00  0.00     0.000 HD 
HETATM   15  H2  UNL     1      -7.007  19.353  70.216  1.00  0.00     0.000 HD 
ENDBRANCH   3   4
ENDBRANCH   1   3
BRANCH   1  16
HETATM   16  O   UNL     1      -9.941  14.671  66.525  1.00  0.00    -0.262 OA 
BRANCH  16  17
HETATM   17  C   UNL     1     -10.099  14.333  67.925  1.00  0.00    -0.233 C  
HETATM   18  O   UNL     1     -12.358  13.573  68.161  1.00  0.00    -0.213 OA 
HETATM   19  O   UNL     1     -10.681  12.216  66.677  1.00  0.00    -0.233 OA 
HETATM   20  P   UNL     1     -11.045  12.787  68.179  1.00  0.00    -0.298 P  
HETATM   21  O   UNL     1     -11.939  11.326  68.420  1.00  0.00    -0.555 OA 
BRANCH  19  22
HETATM   22  C   UNL     1      -9.569  11.366  66.500  1.00  0.00    -0.198 C  
BRANCH  22  23
HETATM   23  O   UNL     1      -9.413  10.966  65.133  1.00  0.00    -0.204 OA 
BRANCH  23  24
HETATM   24  C   UNL     1      -9.362   9.622  64.952  1.00  0.00    -0.242 C  
HETATM   25  O   UNL     1      -9.650   8.778  65.790  1.00  0.00    -0.219 OA 
BRANCH  24  26
HETATM   26  O   UNL     1      -8.920   9.358  63.694  1.00  0.00    -0.218 OA 
BRANCH  26  27
HETATM   27  C   UNL     1      -7.588   8.806  63.612  1.00  0.00    -0.124 C  
HETATM   28  C   UNL     1      -6.730   9.412  64.718  1.00  0.00    -0.087 C  
HETATM   29  C   UNL     1      -7.660   7.290  63.767  1.00  0.00    -0.110 C  
ENDBRANCH  26  27
ENDBRANCH  24  26
ENDBRANCH  23  24
ENDBRANCH  22  23
ENDBRANCH  19  22
BRANCH  21  30
HETATM   30  C   UNL     1     -11.768  10.789  69.715  1.00  0.00    -0.324 C  
BRANCH  30  31
HETATM   31  O   UNL     1     -11.177   9.494  69.674  1.00  0.00    -0.206 OA 
BRANCH  31  32
HETATM   32  C   UNL     1     -10.037   9.384  70.395  1.00  0.00    -0.255 C  
HETATM   33  O   UNL     1      -8.900   9.508  69.958  1.00  0.00    -0.186 OA 
BRANCH  32  34
HETATM   34  O   UNL     1     -10.377   9.174  71.691  1.00  0.00    -0.334 OA 
BRANCH  34  35
HETATM   35  C   UNL     1     -10.120   7.857  72.215  1.00  0.00    -0.236 C  
HETATM   36  C   UNL     1     -11.470   7.201  72.489  1.00  0.00    -0.297 C  
HETATM   37  C   UNL     1      -9.312   7.944  73.506  1.00  0.00    -0.333 C  
ENDBRANCH  34  35
ENDBRANCH  32  34
ENDBRANCH  31  32
ENDBRANCH  30  31
ENDBRANCH  21  30
ENDBRANCH  16  17
ENDBRANCH   1  16
TORSDOF 14
ENDMDL
MODEL      189
REMARK 921   NORMALIZED FREE ENERGY PREDICTED BY IDOCK:   -4.65 KCAL/MOL
REMARK 922        TOTAL FREE ENERGY PREDICTED BY IDOCK:  -10.29 KCAL/MOL
REMARK 923 INTER-LIGAND FREE ENERGY PREDICTED BY IDOCK:   -9.42 KCAL/MOL
REMARK 924 INTRA-LIGAND FREE ENERGY PREDICTED BY IDOCK:   -0.87 KCAL/MOL
REMARK 927      BINDING AFFINITY PREDICTED BY RF-SCORE:    0.00 PKD
ROOT
HETATM    1  C   UNL     1      -9.175  16.597  68.765  1.00  0.00    -0.253 C  
HETATM    2  C   UNL     1     -10.417  17.220  69.398  1.00  0.00    -0.142 C  
ENDROOT
BRANCH   1   3
HETATM    3  C   UNL     1      -7.919  17.445  68.913  1.00  0.00    -0.187 C  
BRANCH   3   4
HETATM    4  N   UNL     1      -7.796  18.558  68.010  1.00  0.00    -0.267 NA 
HETATM    5  C   UNL     1      -6.988  18.529  66.916  1.00  0.00    -0.197 A  
HETATM    6  N   UNL     1      -5.654  18.985  64.663  1.00  0.00    -0.239 NA 
HETATM    7  C   UNL     1      -8.529  19.711  67.960  1.00  0.00    -0.312 A  
HETATM    8  N   UNL     1      -6.695  21.071  64.299  1.00  0.00    -0.500 NA 
HETATM    9  N   UNL     1      -6.134  17.558  66.557  1.00  0.00    -0.194 NA 
HETATM   10  C   UNL     1      -6.543  19.921  65.065  1.00  0.00    -0.270 A  
HETATM   11  N   UNL     1      -8.205  20.449  66.923  1.00  0.00    -0.288 NA 
HETATM   12  C   UNL     1      -5.511  17.869  65.411  1.00  0.00    -0.055 A  
HETATM   13  C   UNL     1      -7.257  19.708  66.249  1.00  0.00    -0.263 A  
HETATM   14  H1  UNL     1      -6.175  21.226  63.436  1.00  0.00     0.000 HD 
HETATM   15  H2  UNL     1      -6.527  21.871  64.908  1.00  0.00     0.000 HD 
ENDBRANCH   3   4
ENDBRANCH   1   3
BRANCH   1  16
HETATM   16  O   UNL     1      -9.485  16.246  67.400  1.00  0.00    -0.224 OA 
BRANCH  16  17
HETATM   17  C   UNL     1      -8.760  15.118  66.850  1.00  0.00    -0.259 C  
HETATM   18  O   UNL     1      -8.481  13.576  68.661  1.00  0.00    -0.124 OA 
HETATM   19  O   UNL     1     -10.886  14.128  67.786  1.00  0.00    -0.248 OA 
HETATM   20  P   UNL     1      -9.400  13.508  67.439  1.00  0.00    -0.249 P  
HETATM   21  O   UNL     1     -10.004  11.985  67.995  1.00  0.00    -0.185 OA 
BRANCH  19  22
HETATM   22  C   UNL     1     -11.919  14.053  66.828  1.00  0.00    -0.444 C  
BRANCH  22  23
HETATM   23  O   UNL     1     -11.728  14.987  65.759  1.00  0.00    -0.251 OA 
BRANCH  23  24
HETATM   24  C   UNL     1     -11.856  14.446  64.521  1.00  0.00    -0.449 C  
HETATM   25  O   UNL     1     -12.780  14.651  63.745  1.00  0.00    -0.778 OA 
BRANCH  24  26
HETATM   26  O   UNL     1     -10.803  13.619  64.283  1.00  0.00    -0.388 OA 
BRANCH  26  27
HETATM   27  C   UNL     1     -11.100  12.459  63.476  1.00  0.00    -0.458 C  
HETATM   28  C   UNL     1      -9.879  11.546  63.450  1.00  0.00    -0.422 C  
HETATM   29  C   UNL     1     -12.298  11.725  64.070  1.00  0.00    -0.341 C  
ENDBRANCH  26  27
ENDBRANCH  24  26
ENDBRANCH  23  24
ENDBRANCH  22  23
ENDBRANCH  19  22
BRANCH  21  30
HETATM   30  C   UNL     1      -9.583  10.905  67.191  1.00  0.00    -0.165 C  
BRANCH  30  31
HETATM   31  O   UNL     1     -10.628   9.958  66.992  1.00  0.00    -0.238 OA 
BRANCH  31  32
HETATM   32  C   UNL     1     -10.195   8.694  66.774  1.00  0.00    -0.291 C  
HETATM   33  O   UNL     1     -10.885   7.684  66.819  1.00  0.00    -0.274 OA 
BRANCH  32  34
HETATM   34  O   UNL     1      -8.882   8.751  66.439  1.00  0.00    -0.133 OA 
BRANCH  34  35
HETATM   35  C   UNL     1      -8.508   8.112  65.203  1.00  0.00    -0.116 C  
HETATM   36  C   UNL     1      -7.861   6.776  65.555  1.00  0.00    -0.112 C  
HETATM   37  C   UNL     1      -7.522   8.981  64.430  1.00  0.00    -0.105 C  
ENDBRANCH  34  35
ENDBRANCH  32  34
ENDBRANCH  31  32
ENDBRANCH  30  31
ENDBRANCH  21  30
ENDBRANCH  16  17
ENDBRANCH   1  16
TORSDOF 14
ENDMDL
MODEL      190
REMARK 921   NORMALIZED FREE ENERGY PREDICTED BY IDOCK:   -4.64 KCAL/MOL
REMARK 922        TOTAL FREE ENERGY PREDICTED BY IDOCK:  -10.28 KCAL/MOL
REMARK 923 INTER-LIGAND FREE ENERGY PREDICTED BY IDOCK:   -8.71 KCAL/MOL
REMARK 924 INTRA-LIGAND FREE ENERGY PREDICTED BY IDOCK:   -1.57 KCAL/MOL
REMARK 927      BINDING AFFINITY PREDICTED BY RF-SCORE:    0.00 PKD
ROOT
HETATM    1  C   UNL     1      -6.969  13.803  67.943  1.00  0.00    -0.155 C  
HETATM    2  C   UNL     1      -5.513  13.418  68.196  1.00  0.00    -0.106 C  
ENDROOT
BRANCH   1   3
HETATM    3  C   UNL     1      -7.377  15.120  68.589  1.00  0.00    -0.121 C  
BRANCH   3   4
HETATM    4  N   UNL     1      -7.975  16.094  67.715  1.00  0.00    -0.140 NA 
HETATM    5  C   UNL     1      -7.928  17.431  67.967  1.00  0.00    -0.224 A  
HETATM    6  N   UNL     1      -8.080  20.084  67.933  1.00  0.00    -0.290 NA 
HETATM    7  C   UNL     1      -8.515  15.920  66.472  1.00  0.00    -0.313 A  
HETATM    8  N   UNL     1      -9.090  20.143  65.802  1.00  0.00    -0.502 NA 
HETATM    9  N   UNL     1      -7.435  18.040  69.056  1.00  0.00    -0.221 NA 
HETATM   10  C   UNL     1      -8.544  19.417  66.853  1.00  0.00    -0.298 A  
HETATM   11  N   UNL     1      -8.863  17.063  65.927  1.00  0.00    -0.532 NA 
HETATM   12  C   UNL     1      -7.549  19.372  68.951  1.00  0.00    -0.363 A  
HETATM   13  C   UNL     1      -8.479  18.019  66.845  1.00  0.00    -0.249 A  
HETATM   14  H1  UNL     1      -9.137  21.162  65.807  1.00  0.00     0.000 HD 
HETATM   15  H2  UNL     1     -10.034  19.792  65.642  1.00  0.00     0.000 HD 
ENDBRANCH   3   4
ENDBRANCH   1   3
BRANCH   1  16
HETATM   16  O   UNL     1      -7.808  12.687  68.313  1.00  0.00    -0.131 OA 
BRANCH  16  17
HETATM   17  C   UNL     1      -7.223  11.370  68.163  1.00  0.00    -0.082 C  
HETATM   18  O   UNL     1      -7.736  10.194  70.185  1.00  0.00    -0.165 OA 
HETATM   19  O   UNL     1      -9.674  10.945  68.593  1.00  0.00    -0.172 OA 
HETATM   20  P   UNL     1      -8.313  10.035  68.777  1.00  0.00    -0.137 P  
HETATM   21  O   UNL     1      -9.343   8.772  69.357  1.00  0.00    -0.154 OA 
BRANCH  19  22
HETATM   22  C   UNL     1     -10.427  10.849  67.403  1.00  0.00    -0.224 C  
BRANCH  22  23
HETATM   23  O   UNL     1     -10.535  12.112  66.735  1.00  0.00    -0.215 OA 
BRANCH  23  24
HETATM   24  C   UNL     1     -11.800  12.598  66.673  1.00  0.00    -0.380 C  
HETATM   25  O   UNL     1     -12.467  12.725  65.655  1.00  0.00    -0.586 OA 
BRANCH  24  26
HETATM   26  O   UNL     1     -12.207  12.944  67.924  1.00  0.00    -0.234 OA 
BRANCH  26  27
HETATM   27  C   UNL     1     -11.414  13.964  68.570  1.00  0.00    -0.311 C  
HETATM   28  C   UNL     1     -11.524  15.258  67.772  1.00  0.00    -0.312 C  
HETATM   29  C   UNL     1     -11.924  14.173  69.992  1.00  0.00    -0.404 C  
ENDBRANCH  26  27
ENDBRANCH  24  26
ENDBRANCH  23  24
ENDBRANCH  22  23
ENDBRANCH  19  22
BRANCH  21  30
HETATM   30  C   UNL     1      -8.971   7.499  68.873  1.00  0.00    -0.134 C  
BRANCH  30  31
HETATM   31  O   UNL     1      -8.135   6.808  69.796  1.00  0.00    -0.121 OA 
BRANCH  31  32
HETATM   32  C   UNL     1      -8.626   6.761  71.056  1.00  0.00    -0.136 C  
HETATM   33  O   UNL     1      -8.165   7.352  72.025  1.00  0.00    -0.100 OA 
BRANCH  32  34
HETATM   34  O   UNL     1      -9.746   5.998  71.045  1.00  0.00    -0.173 OA 
BRANCH  34  35
HETATM   35  C   UNL     1     -10.815   6.416  71.916  1.00  0.00    -0.240 C  
HETATM   36  C   UNL     1     -11.098   5.267  72.879  1.00  0.00    -0.365 C  
HETATM   37  C   UNL     1     -12.067   6.738  71.108  1.00  0.00    -0.422 C  
ENDBRANCH  34  35
ENDBRANCH  32  34
ENDBRANCH  31  32
ENDBRANCH  30  31
ENDBRANCH  21  30
ENDBRANCH  16  17
ENDBRANCH   1  16
TORSDOF 14
ENDMDL
MODEL      191
REMARK 921   NORMALIZED FREE ENERGY PREDICTED BY IDOCK:   -4.64 KCAL/MOL
REMARK 922        TOTAL FREE ENERGY PREDICTED BY IDOCK:  -10.27 KCAL/MOL
REMARK 923 INTER-LIGAND FREE ENERGY PREDICTED BY IDOCK:   -8.84 KCAL/MOL
REMARK 924 INTRA-LIGAND FREE ENERGY PREDICTED BY IDOCK:   -1.43 KCAL/MOL
REMARK 927      BINDING AFFINITY PREDICTED BY RF-SCORE:    0.00 PKD
ROOT
HETATM    1  C   UNL     1     -11.071  16.512  65.683  1.00  0.00     0.089 C  
HETATM    2  C   UNL     1     -11.296  15.812  64.344  1.00  0.00    -0.274 C  
ENDROOT
BRANCH   1   3
HETATM    3  C   UNL     1     -10.539  17.933  65.552  1.00  0.00    -0.014 C  
BRANCH   3   4
HETATM    4  N   UNL     1      -9.837  18.454  66.695  1.00  0.00    -0.334 NA 
HETATM    5  C   UNL     1      -8.489  18.638  66.705  1.00  0.00    -0.286 A  
HETATM    6  N   UNL     1      -5.958  19.245  67.242  1.00  0.00    -0.179 NA 
HETATM    7  C   UNL     1     -10.343  18.990  67.845  1.00  0.00    -0.405 A  
HETATM    8  N   UNL     1      -6.479  20.204  69.333  1.00  0.00    -0.315 NA 
HETATM    9  N   UNL     1      -7.610  18.296  65.751  1.00  0.00    -0.534 NA 
HETATM   10  C   UNL     1      -6.890  19.583  68.160  1.00  0.00    -0.271 A  
HETATM   11  N   UNL     1      -9.395  19.468  68.619  1.00  0.00    -0.374 NA 
HETATM   12  C   UNL     1      -6.364  18.643  66.102  1.00  0.00    -0.199 A  
HETATM   13  C   UNL     1      -8.231  19.273  67.905  1.00  0.00    -0.305 A  
HETATM   14  H1  UNL     1      -5.503  20.431  69.519  1.00  0.00     0.000 HD 
HETATM   15  H2  UNL     1      -6.820  19.644  70.114  1.00  0.00     0.000 HD 
ENDBRANCH   3   4
ENDBRANCH   1   3
BRANCH   1  16
HETATM   16  O   UNL     1     -10.257  15.658  66.515  1.00  0.00    -0.264 OA 
BRANCH  16  17
HETATM   17  C   UNL     1     -10.916  15.067  67.662  1.00  0.00    -0.305 C  
HETATM   18  O   UNL     1     -12.635  13.657  66.774  1.00  0.00    -0.269 OA 
HETATM   19  O   UNL     1     -10.122  13.103  66.289  1.00  0.00    -0.272 OA 
HETATM   20  P   UNL     1     -11.299  13.294  67.426  1.00  0.00    -0.340 P  
HETATM   21  O   UNL     1     -11.662  11.617  67.204  1.00  0.00    -0.566 OA 
BRANCH  19  22
HETATM   22  C   UNL     1      -8.841  12.652  66.674  1.00  0.00    -0.126 C  
BRANCH  22  23
HETATM   23  O   UNL     1      -8.525  13.024  68.021  1.00  0.00    -0.162 OA 
BRANCH  23  24
HETATM   24  C   UNL     1      -7.262  13.492  68.183  1.00  0.00    -0.117 C  
HETATM   25  O   UNL     1      -6.602  14.074  67.333  1.00  0.00    -0.278 OA 
BRANCH  24  26
HETATM   26  O   UNL     1      -6.834  13.194  69.439  1.00  0.00    -0.070 OA 
BRANCH  26  27
HETATM   27  C   UNL     1      -6.019  12.006  69.546  1.00  0.00    -0.100 C  
HETATM   28  C   UNL     1      -6.895  10.842  69.995  1.00  0.00    -0.126 C  
HETATM   29  C   UNL     1      -5.388  11.703  68.191  1.00  0.00    -0.043 C  
ENDBRANCH  26  27
ENDBRANCH  24  26
ENDBRANCH  23  24
ENDBRANCH  22  23
ENDBRANCH  19  22
BRANCH  21  30
HETATM   30  C   UNL     1     -11.934  10.952  68.419  1.00  0.00    -0.007 C  
BRANCH  30  31
HETATM   31  O   UNL     1     -11.637  11.771  69.546  1.00  0.00    -0.287 OA 
BRANCH  31  32
HETATM   32  C   UNL     1     -12.457  11.575  70.604  1.00  0.00    -0.314 C  
HETATM   33  O   UNL     1     -13.153  10.586  70.794  1.00  0.00    -0.364 OA 
BRANCH  32  34
HETATM   34  O   UNL     1     -12.326  12.633  71.441  1.00  0.00    -0.188 OA 
BRANCH  34  35
HETATM   35  C   UNL     1     -13.213  13.745  71.211  1.00  0.00    -0.261 C  
HETATM   36  C   UNL     1     -12.349  14.984  70.994  1.00  0.00    -0.394 C  
HETATM   37  C   UNL     1     -14.130  13.954  72.412  1.00  0.00    -0.586 C  
ENDBRANCH  34  35
ENDBRANCH  32  34
ENDBRANCH  31  32
ENDBRANCH  30  31
ENDBRANCH  21  30
ENDBRANCH  16  17
ENDBRANCH   1  16
TORSDOF 14
ENDMDL
MODEL      192
REMARK 921   NORMALIZED FREE ENERGY PREDICTED BY IDOCK:   -4.63 KCAL/MOL
REMARK 922        TOTAL FREE ENERGY PREDICTED BY IDOCK:  -10.26 KCAL/MOL
REMARK 923 INTER-LIGAND FREE ENERGY PREDICTED BY IDOCK:   -8.54 KCAL/MOL
REMARK 924 INTRA-LIGAND FREE ENERGY PREDICTED BY IDOCK:   -1.72 KCAL/MOL
REMARK 927      BINDING AFFINITY PREDICTED BY RF-SCORE:    0.00 PKD
ROOT
HETATM    1  C   UNL     1     -11.122  10.902  69.461  1.00  0.00    -0.268 C  
HETATM    2  C   UNL     1     -11.708  10.533  70.823  1.00  0.00    -0.454 C  
ENDROOT
BRANCH   1   3
HETATM    3  C   UNL     1     -12.055  11.741  68.598  1.00  0.00    -0.102 C  
BRANCH   3   4
HETATM    4  N   UNL     1     -11.498  12.953  68.058  1.00  0.00    -0.297 NA 
HETATM    5  C   UNL     1     -11.682  13.332  66.764  1.00  0.00    -0.385 A  
HETATM    6  N   UNL     1     -11.772  14.555  64.407  1.00  0.00    -0.393 NA 
HETATM    7  C   UNL     1     -10.872  13.978  68.710  1.00  0.00    -0.263 A  
HETATM    8  N   UNL     1     -10.647  16.473  65.197  1.00  0.00    -0.674 NA 
HETATM    9  N   UNL     1     -12.292  12.639  65.790  1.00  0.00    -0.619 NA 
HETATM   10  C   UNL     1     -11.186  15.213  65.432  1.00  0.00    -0.338 A  
HETATM   11  N   UNL     1     -10.598  14.975  67.901  1.00  0.00    -0.254 NA 
HETATM   12  C   UNL     1     -12.295  13.332  64.642  1.00  0.00    -0.391 A  
HETATM   13  C   UNL     1     -11.122  14.591  66.684  1.00  0.00    -0.333 A  
HETATM   14  H1  UNL     1     -10.694  16.926  64.285  1.00  0.00     0.000 HD 
HETATM   15  H2  UNL     1      -9.667  16.446  65.478  1.00  0.00     0.000 HD 
ENDBRANCH   3   4
ENDBRANCH   1   3
BRANCH   1  16
HETATM   16  O   UNL     1     -10.662   9.693  68.819  1.00  0.00    -0.221 OA 
BRANCH  16  17
HETATM   17  C   UNL     1      -9.939   8.759  69.658  1.00  0.00    -0.191 C  
HETATM   18  O   UNL     1     -11.494   7.015  70.183  1.00  0.00    -0.290 OA 
HETATM   19  O   UNL     1     -10.744   7.383  67.701  1.00  0.00    -0.237 OA 
HETATM   20  P   UNL     1     -10.288   7.013  69.240  1.00  0.00    -0.213 P  
HETATM   21  O   UNL     1     -10.617   5.361  68.846  1.00  0.00    -0.202 OA 
BRANCH  19  22
HETATM   22  C   UNL     1      -9.800   7.320  66.654  1.00  0.00    -0.187 C  
BRANCH  22  23
HETATM   23  O   UNL     1      -8.986   8.497  66.596  1.00  0.00    -0.134 OA 
BRANCH  23  24
HETATM   24  C   UNL     1      -9.281   9.323  65.560  1.00  0.00    -0.231 C  
HETATM   25  O   UNL     1     -10.176  10.158  65.547  1.00  0.00    -0.286 OA 
BRANCH  24  26
HETATM   26  O   UNL     1      -8.438   9.062  64.527  1.00  0.00    -0.167 OA 
BRANCH  26  27
HETATM   27  C   UNL     1      -7.766  10.215  63.973  1.00  0.00    -0.136 C  
HETATM   28  C   UNL     1      -6.265  10.073  64.201  1.00  0.00    -0.132 C  
HETATM   29  C   UNL     1      -8.069  10.307  62.481  1.00  0.00    -0.169 C  
ENDBRANCH  26  27
ENDBRANCH  24  26
ENDBRANCH  23  24
ENDBRANCH  22  23
ENDBRANCH  19  22
BRANCH  21  30
HETATM   30  C   UNL     1      -9.654   4.472  69.370  1.00  0.00    -0.194 C  
BRANCH  30  31
HETATM   31  O   UNL     1      -8.478   4.438  68.567  1.00  0.00    -0.091 OA 
BRANCH  31  32
HETATM   32  C   UNL     1      -8.488   3.478  67.613  1.00  0.00    -0.096 C  
HETATM   33  O   UNL     1      -8.666   2.282  67.804  1.00  0.00    -0.091 OA 
BRANCH  32  34
HETATM   34  O   UNL     1      -8.328   4.080  66.409  1.00  0.00    -0.104 OA 
BRANCH  34  35
HETATM   35  C   UNL     1      -8.712   3.310  65.253  1.00  0.00    -0.119 C  
HETATM   36  C   UNL     1      -7.542   3.340  64.273  1.00  0.00    -0.076 C  
HETATM   37  C   UNL     1      -9.953   3.911  64.600  1.00  0.00    -0.206 C  
ENDBRANCH  34  35
ENDBRANCH  32  34
ENDBRANCH  31  32
ENDBRANCH  30  31
ENDBRANCH  21  30
ENDBRANCH  16  17
ENDBRANCH   1  16
TORSDOF 14
ENDMDL
MODEL      193
REMARK 921   NORMALIZED FREE ENERGY PREDICTED BY IDOCK:   -4.63 KCAL/MOL
REMARK 922        TOTAL FREE ENERGY PREDICTED BY IDOCK:  -10.26 KCAL/MOL
REMARK 923 INTER-LIGAND FREE ENERGY PREDICTED BY IDOCK:   -8.96 KCAL/MOL
REMARK 924 INTRA-LIGAND FREE ENERGY PREDICTED BY IDOCK:   -1.29 KCAL/MOL
REMARK 927      BINDING AFFINITY PREDICTED BY RF-SCORE:    0.00 PKD
ROOT
HETATM    1  C   UNL     1     -11.614  11.227  69.828  1.00  0.00    -0.333 C  
HETATM    2  C   UNL     1     -12.630  11.460  70.944  1.00  0.00    -0.453 C  
ENDROOT
BRANCH   1   3
HETATM    3  C   UNL     1     -12.146  11.543  68.437  1.00  0.00    -0.049 C  
BRANCH   3   4
HETATM    4  N   UNL     1     -11.214  11.387  67.352  1.00  0.00    -0.310 NA 
HETATM    5  C   UNL     1     -11.429  11.920  66.118  1.00  0.00    -0.288 A  
HETATM    6  N   UNL     1     -11.311  12.770  63.604  1.00  0.00    -0.457 NA 
HETATM    7  C   UNL     1      -9.949  10.869  67.371  1.00  0.00    -0.186 A  
HETATM    8  N   UNL     1      -9.128  11.939  63.273  1.00  0.00    -0.599 NA 
HETATM    9  N   UNL     1     -12.526  12.561  65.686  1.00  0.00    -0.611 NA 
HETATM   10  C   UNL     1     -10.227  12.133  64.100  1.00  0.00    -0.343 A  
HETATM   11  N   UNL     1      -9.354  10.995  66.207  1.00  0.00    -0.178 NA 
HETATM   12  C   UNL     1     -12.376  12.957  64.414  1.00  0.00    -0.398 A  
HETATM   13  C   UNL     1     -10.263  11.672  65.421  1.00  0.00    -0.263 A  
HETATM   14  H1  UNL     1      -9.102  12.275  62.311  1.00  0.00     0.000 HD 
HETATM   15  H2  UNL     1      -8.928  10.939  63.255  1.00  0.00     0.000 HD 
ENDBRANCH   3   4
ENDBRANCH   1   3
BRANCH   1  16
HETATM   16  O   UNL     1     -11.086   9.890  69.962  1.00  0.00    -0.251 OA 
BRANCH  16  17
HETATM   17  C   UNL     1     -10.732   9.474  71.304  1.00  0.00    -0.316 C  
HETATM   18  O   UNL     1     -12.627   8.270  72.135  1.00  0.00    -0.328 OA 
HETATM   19  O   UNL     1     -11.290   7.333  70.087  1.00  0.00    -0.266 OA 
HETATM   20  P   UNL     1     -11.258   7.762  71.678  1.00  0.00    -0.270 P  
HETATM   21  O   UNL     1     -11.755   6.144  72.033  1.00  0.00    -0.312 OA 
BRANCH  19  22
HETATM   22  C   UNL     1     -10.158   6.729  69.500  1.00  0.00    -0.178 C  
BRANCH  22  23
HETATM   23  O   UNL     1     -10.495   5.522  68.805  1.00  0.00    -0.209 OA 
BRANCH  23  24
HETATM   24  C   UNL     1     -10.706   5.690  67.476  1.00  0.00    -0.187 C  
HETATM   25  O   UNL     1     -11.077   6.724  66.937  1.00  0.00    -0.397 OA 
BRANCH  24  26
HETATM   26  O   UNL     1     -10.458   4.518  66.833  1.00  0.00    -0.118 OA 
BRANCH  26  27
HETATM   27  C   UNL     1      -9.148   4.408  66.234  1.00  0.00    -0.126 C  
HETATM   28  C   UNL     1      -8.305   3.441  67.058  1.00  0.00    -0.096 C  
HETATM   29  C   UNL     1      -9.289   3.902  64.802  1.00  0.00    -0.157 C  
ENDBRANCH  26  27
ENDBRANCH  24  26
ENDBRANCH  23  24
ENDBRANCH  22  23
ENDBRANCH  19  22
BRANCH  21  30
HETATM   30  C   UNL     1     -11.092   5.603  73.156  1.00  0.00    -0.270 C  
BRANCH  30  31
HETATM   31  O   UNL     1     -11.494   4.261  73.409  1.00  0.00    -0.280 OA 
BRANCH  31  32
HETATM   32  C   UNL     1     -10.546   3.337  73.125  1.00  0.00    -0.167 C  
HETATM   33  O   UNL     1     -10.143   2.469  73.888  1.00  0.00    -0.100 OA 
BRANCH  32  34
HETATM   34  O   UNL     1     -10.169   3.504  71.833  1.00  0.00    -0.141 OA 
BRANCH  34  35
HETATM   35  C   UNL     1      -8.945   2.856  71.435  1.00  0.00    -0.095 C  
HETATM   36  C   UNL     1      -7.959   3.947  71.028  1.00  0.00    -0.063 C  
HETATM   37  C   UNL     1      -9.197   1.917  70.260  1.00  0.00    -0.171 C  
ENDBRANCH  34  35
ENDBRANCH  32  34
ENDBRANCH  31  32
ENDBRANCH  30  31
ENDBRANCH  21  30
ENDBRANCH  16  17
ENDBRANCH   1  16
TORSDOF 14
ENDMDL
MODEL      194
REMARK 921   NORMALIZED FREE ENERGY PREDICTED BY IDOCK:   -4.62 KCAL/MOL
REMARK 922        TOTAL FREE ENERGY PREDICTED BY IDOCK:  -10.25 KCAL/MOL
REMARK 923 INTER-LIGAND FREE ENERGY PREDICTED BY IDOCK:   -9.41 KCAL/MOL
REMARK 924 INTRA-LIGAND FREE ENERGY PREDICTED BY IDOCK:   -0.84 KCAL/MOL
REMARK 927      BINDING AFFINITY PREDICTED BY RF-SCORE:    0.00 PKD
ROOT
HETATM    1  C   UNL     1      -9.932  15.075  69.423  1.00  0.00    -0.183 C  
HETATM    2  C   UNL     1     -11.393  15.484  69.251  1.00  0.00    -0.330 C  
ENDROOT
BRANCH   1   3
HETATM    3  C   UNL     1      -8.973  15.821  68.504  1.00  0.00    -0.194 C  
BRANCH   3   4
HETATM    4  N   UNL     1      -9.578  16.599  67.457  1.00  0.00    -0.240 NA 
HETATM    5  C   UNL     1      -9.720  17.950  67.536  1.00  0.00    -0.278 A  
HETATM    6  N   UNL     1     -10.183  20.537  67.143  1.00  0.00    -0.304 NA 
HETATM    7  C   UNL     1      -9.945  16.212  66.199  1.00  0.00    -0.335 A  
HETATM    8  N   UNL     1     -10.939  20.214  64.931  1.00  0.00     0.147 NA 
HETATM    9  N   UNL     1      -9.434  18.742  68.581  1.00  0.00    -0.359 NA 
HETATM   10  C   UNL     1     -10.436  19.694  66.117  1.00  0.00    -0.524 A  
HETATM   11  N   UNL     1     -10.362  17.227  65.478  1.00  0.00    -0.642 NA 
HETATM   12  C   UNL     1      -9.693  20.025  68.293  1.00  0.00    -0.317 A  
HETATM   13  C   UNL     1     -10.203  18.325  66.297  1.00  0.00    -0.401 A  
HETATM   14  H1  UNL     1     -11.108  21.211  64.800  1.00  0.00     0.000 HD 
HETATM   15  H2  UNL     1     -11.809  19.725  64.724  1.00  0.00     0.000 HD 
ENDBRANCH   3   4
ENDBRANCH   1   3
BRANCH   1  16
HETATM   16  O   UNL     1      -9.843  13.638  69.316  1.00  0.00     0.183 OA 
BRANCH  16  17
HETATM   17  C   UNL     1     -10.632  13.025  68.268  1.00  0.00    -0.247 C  
HETATM   18  O   UNL     1      -9.259  13.071  66.306  1.00  0.00    -0.185 OA 
HETATM   19  O   UNL     1      -8.519  11.649  68.376  1.00  0.00    -0.151 OA 
HETATM   20  P   UNL     1      -9.654  11.899  67.208  1.00  0.00    -0.183 P  
HETATM   21  O   UNL     1      -8.729  10.835  66.206  1.00  0.00    -0.157 OA 
BRANCH  19  22
HETATM   22  C   UNL     1      -8.635  10.540  69.241  1.00  0.00    -0.126 C  
BRANCH  22  23
HETATM   23  O   UNL     1      -9.955   9.984  69.224  1.00  0.00    -0.189 OA 
BRANCH  23  24
HETATM   24  C   UNL     1     -10.184   9.071  70.201  1.00  0.00    -0.197 C  
HETATM   25  O   UNL     1      -9.837   9.175  71.370  1.00  0.00    -0.298 OA 
BRANCH  24  26
HETATM   26  O   UNL     1     -10.844   8.006  69.672  1.00  0.00    -0.240 OA 
BRANCH  26  27
HETATM   27  C   UNL     1     -10.427   6.715  70.165  1.00  0.00    -0.210 C  
HETATM   28  C   UNL     1     -11.466   6.202  71.157  1.00  0.00    -0.314 C  
HETATM   29  C   UNL     1     -10.290   5.748  68.993  1.00  0.00    -0.313 C  
ENDBRANCH  26  27
ENDBRANCH  24  26
ENDBRANCH  23  24
ENDBRANCH  22  23
ENDBRANCH  19  22
BRANCH  21  30
HETATM   30  C   UNL     1      -9.537   9.955  65.454  1.00  0.00    -0.285 C  
BRANCH  30  31
HETATM   31  O   UNL     1     -10.609  10.642  64.815  1.00  0.00    -0.291 OA 
BRANCH  31  32
HETATM   32  C   UNL     1     -10.292  11.157  63.605  1.00  0.00    -0.389 C  
HETATM   33  O   UNL     1      -9.898  10.520  62.637  1.00  0.00    -0.260 OA 
BRANCH  32  34
HETATM   34  O   UNL     1     -10.546  12.489  63.635  1.00  0.00    -0.429 OA 
BRANCH  34  35
HETATM   35  C   UNL     1     -11.876  12.896  63.256  1.00  0.00    -0.398 C  
HETATM   36  C   UNL     1     -12.239  14.117  64.096  1.00  0.00    -0.423 C  
HETATM   37  C   UNL     1     -12.872  11.770  63.516  1.00  0.00    -0.347 C  
ENDBRANCH  34  35
ENDBRANCH  32  34
ENDBRANCH  31  32
ENDBRANCH  30  31
ENDBRANCH  21  30
ENDBRANCH  16  17
ENDBRANCH   1  16
TORSDOF 14
ENDMDL
MODEL      195
REMARK 921   NORMALIZED FREE ENERGY PREDICTED BY IDOCK:   -4.62 KCAL/MOL
REMARK 922        TOTAL FREE ENERGY PREDICTED BY IDOCK:  -10.24 KCAL/MOL
REMARK 923 INTER-LIGAND FREE ENERGY PREDICTED BY IDOCK:   -8.53 KCAL/MOL
REMARK 924 INTRA-LIGAND FREE ENERGY PREDICTED BY IDOCK:   -1.71 KCAL/MOL
REMARK 927      BINDING AFFINITY PREDICTED BY RF-SCORE:    0.00 PKD
ROOT
HETATM    1  C   UNL     1      -7.529  11.132  67.428  1.00  0.00    -0.109 C  
HETATM    2  C   UNL     1      -6.158  11.802  67.378  1.00  0.00    -0.108 C  
ENDROOT
BRANCH   1   3
HETATM    3  C   UNL     1      -8.685  12.073  67.116  1.00  0.00    -0.183 C  
BRANCH   3   4
HETATM    4  N   UNL     1      -9.540  11.686  66.026  1.00  0.00    -0.223 NA 
HETATM    5  C   UNL     1     -10.730  12.297  65.774  1.00  0.00    -0.263 A  
HETATM    6  N   UNL     1     -13.053  13.154  64.811  1.00  0.00    -0.680 NA 
HETATM    7  C   UNL     1      -9.286  10.822  64.998  1.00  0.00    -0.223 A  
HETATM    8  N   UNL     1     -12.962  11.733  62.929  1.00  0.00    -0.784 NA 
HETATM    9  N   UNL     1     -11.333  13.243  66.510  1.00  0.00    -0.312 NA 
HETATM   10  C   UNL     1     -12.390  12.214  64.101  1.00  0.00    -0.409 A  
HETATM   11  N   UNL     1     -10.266  10.804  64.123  1.00  0.00    -0.353 NA 
HETATM   12  C   UNL     1     -12.491  13.618  65.948  1.00  0.00    -0.452 A  
HETATM   13  C   UNL     1     -11.165  11.742  64.587  1.00  0.00    -0.286 A  
HETATM   14  H1  UNL     1     -13.854  12.077  62.575  1.00  0.00     0.000 HD 
HETATM   15  H2  UNL     1     -13.034  10.720  63.014  1.00  0.00     0.000 HD 
ENDBRANCH   3   4
ENDBRANCH   1   3
BRANCH   1  16
HETATM   16  O   UNL     1      -7.658  10.449  68.694  1.00  0.00    -0.083 OA 
BRANCH  16  17
HETATM   17  C   UNL     1      -8.949   9.853  68.970  1.00  0.00    -0.160 C  
HETATM   18  O   UNL     1      -9.272   8.186  67.281  1.00  0.00    -0.134 OA 
HETATM   19  O   UNL     1      -7.322   7.922  69.008  1.00  0.00    -0.083 OA 
HETATM   20  P   UNL     1      -8.949   8.034  68.769  1.00  0.00    -0.139 P  
HETATM   21  O   UNL     1      -8.949   6.314  68.580  1.00  0.00    -0.124 OA 
BRANCH  19  22
HETATM   22  C   UNL     1      -6.819   7.660  70.301  1.00  0.00    -0.047 C  
BRANCH  22  23
HETATM   23  O   UNL     1      -7.870   7.446  71.251  1.00  0.00    -0.093 OA 
BRANCH  23  24
HETATM   24  C   UNL     1      -7.469   6.832  72.392  1.00  0.00    -0.088 C  
HETATM   25  O   UNL     1      -6.403   7.015  72.964  1.00  0.00    -0.057 OA 
BRANCH  24  26
HETATM   26  O   UNL     1      -8.432   5.959  72.792  1.00  0.00    -0.122 OA 
BRANCH  26  27
HETATM   27  C   UNL     1      -7.963   4.635  73.127  1.00  0.00    -0.100 C  
HETATM   28  C   UNL     1      -8.441   4.279  74.530  1.00  0.00    -0.092 C  
HETATM   29  C   UNL     1      -8.508   3.635  72.111  1.00  0.00    -0.091 C  
ENDBRANCH  26  27
ENDBRANCH  24  26
ENDBRANCH  23  24
ENDBRANCH  22  23
ENDBRANCH  19  22
BRANCH  21  30
HETATM   30  C   UNL     1     -10.052   5.697  69.207  1.00  0.00    -0.214 C  
BRANCH  30  31
HETATM   31  O   UNL     1     -11.081   6.635  69.506  1.00  0.00    -0.286 OA 
BRANCH  31  32
HETATM   32  C   UNL     1     -11.641   6.470  70.727  1.00  0.00    -0.377 C  
HETATM   33  O   UNL     1     -11.166   5.820  71.649  1.00  0.00    -0.259 OA 
BRANCH  32  34
HETATM   34  O   UNL     1     -12.785   7.198  70.767  1.00  0.00    -0.260 OA 
BRANCH  34  35
HETATM   35  C   UNL     1     -12.897   8.154  71.839  1.00  0.00    -0.335 C  
HETATM   36  C   UNL     1     -14.383   8.422  72.061  1.00  0.00    -0.555 C  
HETATM   37  C   UNL     1     -12.183   9.451  71.473  1.00  0.00    -0.448 C  
ENDBRANCH  34  35
ENDBRANCH  32  34
ENDBRANCH  31  32
ENDBRANCH  30  31
ENDBRANCH  21  30
ENDBRANCH  16  17
ENDBRANCH   1  16
TORSDOF 14
ENDMDL
MODEL      196
REMARK 921   NORMALIZED FREE ENERGY PREDICTED BY IDOCK:   -4.62 KCAL/MOL
REMARK 922        TOTAL FREE ENERGY PREDICTED BY IDOCK:  -10.24 KCAL/MOL
REMARK 923 INTER-LIGAND FREE ENERGY PREDICTED BY IDOCK:   -9.17 KCAL/MOL
REMARK 924 INTRA-LIGAND FREE ENERGY PREDICTED BY IDOCK:   -1.07 KCAL/MOL
REMARK 927      BINDING AFFINITY PREDICTED BY RF-SCORE:    0.00 PKD
ROOT
HETATM    1  C   UNL     1      -9.289  11.811  68.181  1.00  0.00    -0.190 C  
HETATM    2  C   UNL     1      -8.085  11.126  67.539  1.00  0.00    -0.119 C  
ENDROOT
BRANCH   1   3
HETATM    3  C   UNL     1     -10.605  11.077  67.957  1.00  0.00    -0.204 C  
BRANCH   3   4
HETATM    4  N   UNL     1     -10.840   9.931  68.793  1.00  0.00    -0.221 NA 
HETATM    5  C   UNL     1     -10.774   8.655  68.323  1.00  0.00    -0.052 A  
HETATM    6  N   UNL     1     -10.717   6.023  67.964  1.00  0.00    -0.271 NA 
HETATM    7  C   UNL     1     -10.993   9.871  70.150  1.00  0.00    -0.301 A  
HETATM    8  N   UNL     1     -11.033   5.558  70.256  1.00  0.00    -0.223 NA 
HETATM    9  N   UNL     1     -10.589   8.261  67.054  1.00  0.00    -0.310 NA 
HETATM   10  C   UNL     1     -10.881   6.479  69.226  1.00  0.00    -0.307 A  
HETATM   11  N   UNL     1     -11.077   8.632  70.577  1.00  0.00    -0.242 NA 
HETATM   12  C   UNL     1     -10.569   6.923  66.968  1.00  0.00    -0.333 A  
HETATM   13  C   UNL     1     -10.918   7.861  69.444  1.00  0.00    -0.020 A  
HETATM   14  H1  UNL     1     -11.005   4.551  70.097  1.00  0.00     0.000 HD 
HETATM   15  H2  UNL     1     -11.907   5.771  70.734  1.00  0.00     0.000 HD 
ENDBRANCH   3   4
ENDBRANCH   1   3
BRANCH   1  16
HETATM   16  O   UNL     1      -9.311  13.191  67.755  1.00  0.00    -0.190 OA 
BRANCH  16  17
HETATM   17  C   UNL     1      -8.500  14.110  68.527  1.00  0.00    -0.157 C  
HETATM   18  O   UNL     1      -6.342  14.107  67.490  1.00  0.00    -0.289 OA 
HETATM   19  O   UNL     1      -8.418  15.000  66.166  1.00  0.00     0.045 OA 
HETATM   20  P   UNL     1      -7.440  15.173  67.481  1.00  0.00    -0.205 P  
HETATM   21  O   UNL     1      -6.438  16.179  66.493  1.00  0.00    -0.176 OA 
BRANCH  19  22
HETATM   22  C   UNL     1      -9.424  15.955  65.909  1.00  0.00    -0.337 C  
BRANCH  22  23
HETATM   23  O   UNL     1     -10.737  15.390  66.007  1.00  0.00    -0.307 OA 
BRANCH  23  24
HETATM   24  C   UNL     1     -11.346  15.195  64.811  1.00  0.00    -0.395 C  
HETATM   25  O   UNL     1     -11.335  15.976  63.869  1.00  0.00    -0.556 OA 
BRANCH  24  26
HETATM   26  O   UNL     1     -11.992  13.999  64.828  1.00  0.00    -0.374 OA 
BRANCH  26  27
HETATM   27  C   UNL     1     -11.470  13.003  63.922  1.00  0.00    -0.435 C  
HETATM   28  C   UNL     1     -10.443  12.150  64.658  1.00  0.00    -0.336 C  
HETATM   29  C   UNL     1     -12.616  12.133  63.415  1.00  0.00    -0.584 C  
ENDBRANCH  26  27
ENDBRANCH  24  26
ENDBRANCH  23  24
ENDBRANCH  22  23
ENDBRANCH  19  22
BRANCH  21  30
HETATM   30  C   UNL     1      -5.954  17.311  67.182  1.00  0.00    -0.149 C  
BRANCH  30  31
HETATM   31  O   UNL     1      -6.924  17.834  68.084  1.00  0.00    -0.201 OA 
BRANCH  31  32
HETATM   32  C   UNL     1      -6.623  19.060  68.571  1.00  0.00    -0.251 C  
HETATM   33  O   UNL     1      -6.151  19.293  69.676  1.00  0.00    -0.252 OA 
BRANCH  32  34
HETATM   34  O   UNL     1      -6.876  19.973  67.601  1.00  0.00    -0.229 OA 
BRANCH  34  35
HETATM   35  C   UNL     1      -8.261  20.303  67.379  1.00  0.00    -0.338 C  
HETATM   36  C   UNL     1      -9.066  19.697  68.525  1.00  0.00    -0.368 C  
HETATM   37  C   UNL     1      -8.738  19.731  66.048  1.00  0.00    -0.296 C  
ENDBRANCH  34  35
ENDBRANCH  32  34
ENDBRANCH  31  32
ENDBRANCH  30  31
ENDBRANCH  21  30
ENDBRANCH  16  17
ENDBRANCH   1  16
TORSDOF 14
ENDMDL
MODEL      197
REMARK 921   NORMALIZED FREE ENERGY PREDICTED BY IDOCK:   -4.60 KCAL/MOL
REMARK 922        TOTAL FREE ENERGY PREDICTED BY IDOCK:  -10.21 KCAL/MOL
REMARK 923 INTER-LIGAND FREE ENERGY PREDICTED BY IDOCK:   -8.55 KCAL/MOL
REMARK 924 INTRA-LIGAND FREE ENERGY PREDICTED BY IDOCK:   -1.66 KCAL/MOL
REMARK 927      BINDING AFFINITY PREDICTED BY RF-SCORE:    0.00 PKD
ROOT
HETATM    1  C   UNL     1     -11.398  13.108  68.484  1.00  0.00    -0.286 C  
HETATM    2  C   UNL     1     -11.904  12.317  67.280  1.00  0.00    -0.330 C  
ENDROOT
BRANCH   1   3
HETATM    3  C   UNL     1     -11.864  14.557  68.508  1.00  0.00    -0.320 C  
BRANCH   3   4
HETATM    4  N   UNL     1     -11.900  15.190  69.799  1.00  0.00    -0.313 NA 
HETATM    5  C   UNL     1     -12.487  14.611  70.882  1.00  0.00    -0.336 A  
HETATM    6  N   UNL     1     -13.410  13.937  73.281  1.00  0.00    -0.366 NA 
HETATM    7  C   UNL     1     -11.262  16.321  70.222  1.00  0.00    -0.333 A  
HETATM    8  N   UNL     1     -12.481  15.834  74.332  1.00  0.00    -0.722 NA 
HETATM    9  N   UNL     1     -13.183  13.464  70.919  1.00  0.00    -0.039 NA 
HETATM   10  C   UNL     1     -12.685  15.074  73.187  1.00  0.00    -0.486 A  
HETATM   11  N   UNL     1     -11.442  16.532  71.506  1.00  0.00    -0.232 NA 
HETATM   12  C   UNL     1     -13.604  13.201  72.165  1.00  0.00    -0.544 A  
HETATM   13  C   UNL     1     -12.189  15.455  71.935  1.00  0.00    -0.379 A  
HETATM   14  H1  UNL     1     -12.842  15.557  75.244  1.00  0.00     0.000 HD 
HETATM   15  H2  UNL     1     -12.819  16.777  74.141  1.00  0.00     0.000 HD 
ENDBRANCH   3   4
ENDBRANCH   1   3
BRANCH   1  16
HETATM   16  O   UNL     1      -9.964  12.954  68.562  1.00  0.00    -0.223 OA 
BRANCH  16  17
HETATM   17  C   UNL     1      -9.356  12.111  67.553  1.00  0.00    -0.181 C  
HETATM   18  O   UNL     1      -7.201  11.517  68.412  1.00  0.00    -0.077 OA 
HETATM   19  O   UNL     1      -9.361  10.708  69.652  1.00  0.00    -0.076 OA 
HETATM   20  P   UNL     1      -8.472  10.677  68.265  1.00  0.00    -0.139 P  
HETATM   21  O   UNL     1      -7.636   9.319  68.937  1.00  0.00    -0.074 OA 
BRANCH  19  22
HETATM   22  C   UNL     1     -10.514   9.902  69.764  1.00  0.00    -0.261 C  
BRANCH  22  23
HETATM   23  O   UNL     1     -10.662   9.360  71.082  1.00  0.00    -0.298 OA 
BRANCH  23  24
HETATM   24  C   UNL     1     -11.951   9.229  71.485  1.00  0.00    -0.368 C  
HETATM   25  O   UNL     1     -12.910   9.822  71.011  1.00  0.00    -0.323 OA 
BRANCH  24  26
HETATM   26  O   UNL     1     -12.008   8.345  72.517  1.00  0.00    -0.393 OA 
BRANCH  26  27
HETATM   27  C   UNL     1     -11.035   7.279  72.470  1.00  0.00    -0.282 C  
HETATM   28  C   UNL     1     -10.724   6.827  73.892  1.00  0.00    -0.141 C  
HETATM   29  C   UNL     1     -11.598   6.118  71.656  1.00  0.00    -0.317 C  
ENDBRANCH  26  27
ENDBRANCH  24  26
ENDBRANCH  23  24
ENDBRANCH  22  23
ENDBRANCH  19  22
BRANCH  21  30
HETATM   30  C   UNL     1      -7.384   8.308  67.985  1.00  0.00    -0.096 C  
BRANCH  30  31
HETATM   31  O   UNL     1      -8.063   7.099  68.309  1.00  0.00    -0.121 OA 
BRANCH  31  32
HETATM   32  C   UNL     1      -7.242   6.054  68.562  1.00  0.00    -0.084 C  
HETATM   33  O   UNL     1      -6.886   5.211  67.748  1.00  0.00    -0.057 OA 
BRANCH  32  34
HETATM   34  O   UNL     1      -6.835   6.140  69.853  1.00  0.00    -0.053 OA 
BRANCH  34  35
HETATM   35  C   UNL     1      -7.870   6.321  70.839  1.00  0.00    -0.107 C  
HETATM   36  C   UNL     1      -7.308   7.227  71.931  1.00  0.00    -0.080 C  
HETATM   37  C   UNL     1      -8.279   4.979  71.436  1.00  0.00    -0.113 C  
ENDBRANCH  34  35
ENDBRANCH  32  34
ENDBRANCH  31  32
ENDBRANCH  30  31
ENDBRANCH  21  30
ENDBRANCH  16  17
ENDBRANCH   1  16
TORSDOF 14
ENDMDL
MODEL      198
REMARK 921   NORMALIZED FREE ENERGY PREDICTED BY IDOCK:   -4.57 KCAL/MOL
REMARK 922        TOTAL FREE ENERGY PREDICTED BY IDOCK:  -10.15 KCAL/MOL
REMARK 923 INTER-LIGAND FREE ENERGY PREDICTED BY IDOCK:   -9.08 KCAL/MOL
REMARK 924 INTRA-LIGAND FREE ENERGY PREDICTED BY IDOCK:   -1.07 KCAL/MOL
REMARK 927      BINDING AFFINITY PREDICTED BY RF-SCORE:    0.00 PKD
ROOT
HETATM    1  C   UNL     1      -9.721   9.821  65.254  1.00  0.00    -0.300 C  
HETATM    2  C   UNL     1      -8.676   9.654  64.153  1.00  0.00    -0.238 C  
ENDROOT
BRANCH   1   3
HETATM    3  C   UNL     1      -9.698  11.190  65.921  1.00  0.00    -0.229 C  
BRANCH   3   4
HETATM    4  N   UNL     1     -10.466  12.221  65.276  1.00  0.00    -0.274 NA 
HETATM    5  C   UNL     1     -10.193  13.545  65.432  1.00  0.00    -0.302 A  
HETATM    6  N   UNL     1     -10.070  16.198  65.334  1.00  0.00    -0.521 NA 
HETATM    7  C   UNL     1     -11.433  12.102  64.318  1.00  0.00    -0.367 A  
HETATM    8  N   UNL     1     -11.769  16.360  63.705  1.00  0.00    -1.498 NA 
HETATM    9  N   UNL     1      -9.280  14.100  66.245  1.00  0.00    -0.184 NA 
HETATM   10  C   UNL     1     -10.959  15.582  64.523  1.00  0.00    -0.206 A  
HETATM   11  N   UNL     1     -11.833  13.275  63.882  1.00  0.00    -0.454 NA 
HETATM   12  C   UNL     1      -9.285  15.435  66.126  1.00  0.00    -0.327 A  
HETATM   13  C   UNL     1     -11.047  14.185  64.556  1.00  0.00    -0.330 A  
HETATM   14  H1  UNL     1     -11.705  17.378  63.681  1.00  0.00     0.000 HD 
HETATM   15  H2  UNL     1     -12.738  16.118  63.910  1.00  0.00     0.000 HD 
ENDBRANCH   3   4
ENDBRANCH   1   3
BRANCH   1  16
HETATM   16  O   UNL     1      -9.591   8.719  66.179  1.00  0.00    -0.237 OA 
BRANCH  16  17
HETATM   17  C   UNL     1      -9.052   9.040  67.484  1.00  0.00    -0.132 C  
HETATM   18  O   UNL     1     -10.881   9.935  68.744  1.00  0.00    -0.219 OA 
HETATM   19  O   UNL     1     -10.952   7.443  67.944  1.00  0.00    -0.118 OA 
HETATM   20  P   UNL     1     -10.178   8.581  68.851  1.00  0.00    -0.192 P  
HETATM   21  O   UNL     1     -11.242   8.145  70.143  1.00  0.00    -0.232 OA 
BRANCH  19  22
HETATM   22  C   UNL     1     -10.531   6.097  67.997  1.00  0.00    -0.228 C  
BRANCH  22  23
HETATM   23  O   UNL     1     -10.634   5.453  66.721  1.00  0.00    -0.270 OA 
BRANCH  23  24
HETATM   24  C   UNL     1      -9.589   4.640  66.426  1.00  0.00    -0.183 C  
HETATM   25  O   UNL     1      -9.667   3.450  66.151  1.00  0.00    -0.104 OA 
BRANCH  24  26
HETATM   26  O   UNL     1      -8.433   5.352  66.505  1.00  0.00    -0.112 OA 
BRANCH  26  27
HETATM   27  C   UNL     1      -7.334   4.673  67.150  1.00  0.00    -0.077 C  
HETATM   28  C   UNL     1      -6.179   5.653  67.326  1.00  0.00    -0.030 C  
HETATM   29  C   UNL     1      -7.793   4.145  68.506  1.00  0.00    -0.073 C  
ENDBRANCH  26  27
ENDBRANCH  24  26
ENDBRANCH  23  24
ENDBRANCH  22  23
ENDBRANCH  19  22
BRANCH  21  30
HETATM   30  C   UNL     1     -10.588   8.089  71.393  1.00  0.00    -0.216 C  
BRANCH  30  31
HETATM   31  O   UNL     1     -10.919   6.902  72.107  1.00  0.00    -0.224 OA 
BRANCH  31  32
HETATM   32  C   UNL     1     -10.036   5.891  71.937  1.00  0.00    -0.171 C  
HETATM   33  O   UNL     1      -8.847   6.017  71.671  1.00  0.00    -0.138 OA 
BRANCH  32  34
HETATM   34  O   UNL     1     -10.682   4.722  72.173  1.00  0.00    -0.174 OA 
BRANCH  34  35
HETATM   35  C   UNL     1     -10.245   3.969  73.321  1.00  0.00    -0.148 C  
HETATM   36  C   UNL     1     -11.278   2.875  73.572  1.00  0.00    -0.301 C  
HETATM   37  C   UNL     1     -10.137   4.875  74.544  1.00  0.00    -0.273 C  
ENDBRANCH  34  35
ENDBRANCH  32  34
ENDBRANCH  31  32
ENDBRANCH  30  31
ENDBRANCH  21  30
ENDBRANCH  16  17
ENDBRANCH   1  16
TORSDOF 14
ENDMDL
MODEL      199
REMARK 921   NORMALIZED FREE ENERGY PREDICTED BY IDOCK:   -4.56 KCAL/MOL
REMARK 922        TOTAL FREE ENERGY PREDICTED BY IDOCK:  -10.13 KCAL/MOL
REMARK 923 INTER-LIGAND FREE ENERGY PREDICTED BY IDOCK:   -8.74 KCAL/MOL
REMARK 924 INTRA-LIGAND FREE ENERGY PREDICTED BY IDOCK:   -1.39 KCAL/MOL
REMARK 927      BINDING AFFINITY PREDICTED BY RF-SCORE:    0.00 PKD
ROOT
HETATM    1  C   UNL     1      -8.491   9.859  67.790  1.00  0.00    -0.118 C  
HETATM    2  C   UNL     1      -7.649   8.762  68.438  1.00  0.00    -0.095 C  
ENDROOT
BRANCH   1   3
HETATM    3  C   UNL     1      -9.428   9.353  66.702  1.00  0.00    -0.177 C  
BRANCH   3   4
HETATM    4  N   UNL     1      -9.844   7.980  66.813  1.00  0.00    -0.235 NA 
HETATM    5  C   UNL     1      -9.220   6.969  66.151  1.00  0.00    -0.077 A  
HETATM    6  N   UNL     1      -8.357   4.656  65.167  1.00  0.00    -0.121 NA 
HETATM    7  C   UNL     1     -10.758   7.424  67.665  1.00  0.00    -0.207 A  
HETATM    8  N   UNL     1      -9.860   3.379  66.462  1.00  0.00    -0.404 NA 
HETATM    9  N   UNL     1      -8.230   7.070  65.251  1.00  0.00    -0.137 NA 
HETATM   10  C   UNL     1      -9.341   4.614  66.093  1.00  0.00    -0.153 A  
HETATM   11  N   UNL     1     -10.793   6.116  67.555  1.00  0.00    -0.311 NA 
HETATM   12  C   UNL     1      -7.856   5.860  64.814  1.00  0.00    -0.113 A  
HETATM   13  C   UNL     1      -9.817   5.818  66.626  1.00  0.00    -0.165 A  
HETATM   14  H1  UNL     1      -9.514   2.502  66.074  1.00  0.00     0.000 HD 
HETATM   15  H2  UNL     1     -10.867   3.408  66.305  1.00  0.00     0.000 HD 
ENDBRANCH   3   4
ENDBRANCH   1   3
BRANCH   1  16
HETATM   16  O   UNL     1      -7.609  10.916  67.355  1.00  0.00    -0.095 OA 
BRANCH  16  17
HETATM   17  C   UNL     1      -6.992  11.706  68.402  1.00  0.00    -0.079 C  
HETATM   18  O   UNL     1      -5.961  13.563  67.297  1.00  0.00    -0.339 OA 
HETATM   19  O   UNL     1      -8.565  13.297  67.231  1.00  0.00    -0.194 OA 
HETATM   20  P   UNL     1      -7.221  13.505  68.162  1.00  0.00    -0.158 P  
HETATM   21  O   UNL     1      -7.438  15.207  67.937  1.00  0.00    -0.114 OA 
BRANCH  19  22
HETATM   22  C   UNL     1      -9.844  13.334  67.827  1.00  0.00    -0.224 C  
BRANCH  22  23
HETATM   23  O   UNL     1     -10.806  12.584  67.076  1.00  0.00    -0.244 OA 
BRANCH  23  24
HETATM   24  C   UNL     1     -11.949  13.263  66.806  1.00  0.00    -0.382 C  
HETATM   25  O   UNL     1     -12.336  14.268  67.387  1.00  0.00    -0.311 OA 
BRANCH  24  26
HETATM   26  O   UNL     1     -12.611  12.639  65.795  1.00  0.00    -0.575 OA 
BRANCH  26  27
HETATM   27  C   UNL     1     -11.963  12.698  64.505  1.00  0.00    -0.399 C  
HETATM   28  C   UNL     1     -12.656  11.726  63.557  1.00  0.00    -0.485 C  
HETATM   29  C   UNL     1     -12.051  14.121  63.963  1.00  0.00    -0.382 C  
ENDBRANCH  26  27
ENDBRANCH  24  26
ENDBRANCH  23  24
ENDBRANCH  22  23
ENDBRANCH  19  22
BRANCH  21  30
HETATM   30  C   UNL     1      -7.195  15.948  69.113  1.00  0.00    -0.196 C  
BRANCH  30  31
HETATM   31  O   UNL     1      -7.648  17.293  68.991  1.00  0.00    -0.245 OA 
BRANCH  31  32
HETATM   32  C   UNL     1      -8.904  17.411  68.501  1.00  0.00    -0.277 C  
HETATM   33  O   UNL     1      -9.926  17.025  69.053  1.00  0.00    -0.274 OA 
BRANCH  32  34
HETATM   34  O   UNL     1      -8.836  18.083  67.325  1.00  0.00    -0.242 OA 
BRANCH  34  35
HETATM   35  C   UNL     1      -8.584  19.499  67.411  1.00  0.00    -0.304 C  
HETATM   36  C   UNL     1      -9.893  20.218  67.096  1.00  0.00    -0.606 C  
HETATM   37  C   UNL     1      -7.510  19.913  66.411  1.00  0.00    -0.303 C  
ENDBRANCH  34  35
ENDBRANCH  32  34
ENDBRANCH  31  32
ENDBRANCH  30  31
ENDBRANCH  21  30
ENDBRANCH  16  17
ENDBRANCH   1  16
TORSDOF 14
ENDMDL
MODEL      200
REMARK 921   NORMALIZED FREE ENERGY PREDICTED BY IDOCK:   -4.54 KCAL/MOL
REMARK 922        TOTAL FREE ENERGY PREDICTED BY IDOCK:  -10.09 KCAL/MOL
REMARK 923 INTER-LIGAND FREE ENERGY PREDICTED BY IDOCK:   -8.25 KCAL/MOL
REMARK 924 INTRA-LIGAND FREE ENERGY PREDICTED BY IDOCK:   -1.83 KCAL/MOL
REMARK 927      BINDING AFFINITY PREDICTED BY RF-SCORE:    0.00 PKD
ROOT
HETATM    1  C   UNL     1      -8.167   8.008  67.529  1.00  0.00    -0.123 C  
HETATM    2  C   UNL     1      -7.349   7.060  66.655  1.00  0.00    -0.080 C  
ENDROOT
BRANCH   1   3
HETATM    3  C   UNL     1      -9.651   7.670  67.581  1.00  0.00    -0.145 C  
BRANCH   3   4
HETATM    4  N   UNL     1     -10.349   8.065  68.775  1.00  0.00    -0.210 NA 
HETATM    5  C   UNL     1     -10.643   7.192  69.776  1.00  0.00    -0.234 A  
HETATM    6  N   UNL     1     -11.401   5.962  72.005  1.00  0.00    -0.281 NA 
HETATM    7  C   UNL     1     -10.681   9.320  69.202  1.00  0.00    -0.183 A  
HETATM    8  N   UNL     1     -12.135   7.957  73.029  1.00  0.00    -0.642 NA 
HETATM    9  N   UNL     1     -10.440   5.865  69.788  1.00  0.00    -0.244 NA 
HETATM   10  C   UNL     1     -11.565   7.302  71.944  1.00  0.00    -0.277 A  
HETATM   11  N   UNL     1     -11.217   9.301  70.401  1.00  0.00    -0.246 NA 
HETATM   12  C   UNL     1     -10.845   5.331  70.948  1.00  0.00    -0.049 A  
HETATM   13  C   UNL     1     -11.177   7.976  70.779  1.00  0.00    -0.265 A  
HETATM   14  H1  UNL     1     -12.417   7.467  73.877  1.00  0.00     0.000 HD 
HETATM   15  H2  UNL     1     -12.946   8.473  72.686  1.00  0.00     0.000 HD 
ENDBRANCH   3   4
ENDBRANCH   1   3
BRANCH   1  16
HETATM   16  O   UNL     1      -7.892   9.364  67.115  1.00  0.00    -0.098 OA 
BRANCH  16  17
HETATM   17  C   UNL     1      -6.852  10.058  67.848  1.00  0.00    -0.075 C  
HETATM   18  O   UNL     1      -5.838  11.557  66.280  1.00  0.00    -0.153 OA 
HETATM   19  O   UNL     1      -8.347  11.886  66.955  1.00  0.00    -0.169 OA 
HETATM   20  P   UNL     1      -6.777  11.843  67.454  1.00  0.00    -0.144 P  
HETATM   21  O   UNL     1      -6.705  13.531  67.083  1.00  0.00    -0.165 OA 
BRANCH  19  22
HETATM   22  C   UNL     1      -9.362  12.252  67.864  1.00  0.00    -0.190 C  
BRANCH  22  23
HETATM   23  O   UNL     1     -10.132  13.363  67.388  1.00  0.00    -0.232 OA 
BRANCH  23  24
HETATM   24  C   UNL     1     -11.471  13.143  67.374  1.00  0.00    -0.332 C  
HETATM   25  O   UNL     1     -12.029  12.170  66.885  1.00  0.00    -0.603 OA 
BRANCH  24  26
HETATM   26  O   UNL     1     -12.101  14.188  67.974  1.00  0.00    -0.351 OA 
BRANCH  26  27
HETATM   27  C   UNL     1     -11.542  14.600  69.241  1.00  0.00    -0.302 C  
HETATM   28  C   UNL     1     -11.598  16.120  69.338  1.00  0.00    -0.261 C  
HETATM   29  C   UNL     1     -12.343  13.966  70.374  1.00  0.00    -0.433 C  
ENDBRANCH  26  27
ENDBRANCH  24  26
ENDBRANCH  23  24
ENDBRANCH  22  23
ENDBRANCH  19  22
BRANCH  21  30
HETATM   30  C   UNL     1      -5.987  14.271  68.047  1.00  0.00    -0.145 C  
BRANCH  30  31
HETATM   31  O   UNL     1      -6.658  15.481  68.387  1.00  0.00    -0.109 OA 
BRANCH  31  32
HETATM   32  C   UNL     1      -7.090  16.192  67.320  1.00  0.00    -0.196 C  
HETATM   33  O   UNL     1      -6.404  16.544  66.370  1.00  0.00    -0.225 OA 
BRANCH  32  34
HETATM   34  O   UNL     1      -8.425  16.391  67.460  1.00  0.00    -0.166 OA 
BRANCH  34  35
HETATM   35  C   UNL     1      -9.050  17.243  66.480  1.00  0.00    -0.265 C  
HETATM   36  C   UNL     1      -9.523  18.502  67.203  1.00  0.00    -0.294 C  
HETATM   37  C   UNL     1     -10.238  16.535  65.838  1.00  0.00    -0.368 C  
ENDBRANCH  34  35
ENDBRANCH  32  34
ENDBRANCH  31  32
ENDBRANCH  30  31
ENDBRANCH  21  30
ENDBRANCH  16  17
ENDBRANCH   1  16
TORSDOF 14
ENDMDL
MODEL      201
REMARK 921   NORMALIZED FREE ENERGY PREDICTED BY IDOCK:   -4.53 KCAL/MOL
REMARK 922        TOTAL FREE ENERGY PREDICTED BY IDOCK:  -10.09 KCAL/MOL
REMARK 923 INTER-LIGAND FREE ENERGY PREDICTED BY IDOCK:   -9.19 KCAL/MOL
REMARK 924 INTRA-LIGAND FREE ENERGY PREDICTED BY IDOCK:   -0.89 KCAL/MOL
REMARK 927      BINDING AFFINITY PREDICTED BY RF-SCORE:    0.00 PKD
ROOT
HETATM    1  C   UNL     1     -10.216   8.974  69.742  1.00  0.00    -0.205 C  
HETATM    2  C   UNL     1      -9.222   9.197  70.880  1.00  0.00    -0.326 C  
ENDROOT
BRANCH   1   3
HETATM    3  C   UNL     1     -10.767   7.555  69.677  1.00  0.00    -0.230 C  
BRANCH   3   4
HETATM    4  N   UNL     1      -9.940   6.528  70.250  1.00  0.00    -0.174 NA 
HETATM    5  C   UNL     1     -10.316   5.808  71.342  1.00  0.00    -0.224 A  
HETATM    6  N   UNL     1     -10.568   4.102  73.363  1.00  0.00    -0.180 NA 
HETATM    7  C   UNL     1      -8.785   5.982  69.765  1.00  0.00    -0.130 A  
HETATM    8  N   UNL     1      -8.572   2.960  72.837  1.00  0.00    -0.078 NA 
HETATM    9  N   UNL     1     -11.412   5.982  72.097  1.00  0.00    -0.302 NA 
HETATM   10  C   UNL     1      -9.492   3.963  72.557  1.00  0.00    -0.124 A  
HETATM   11  N   UNL     1      -8.368   4.982  70.509  1.00  0.00    -0.099 NA 
HETATM   12  C   UNL     1     -11.459   5.078  73.085  1.00  0.00    -0.282 A  
HETATM   13  C   UNL     1      -9.332   4.850  71.486  1.00  0.00    -0.149 A  
HETATM   14  H1  UNL     1      -8.688   2.313  73.617  1.00  0.00     0.000 HD 
HETATM   15  H2  UNL     1      -7.657   3.399  72.935  1.00  0.00     0.000 HD 
ENDBRANCH   3   4
ENDBRANCH   1   3
BRANCH   1  16
HETATM   16  O   UNL     1      -9.610   9.422  68.511  1.00  0.00    -0.145 OA 
BRANCH  16  17
HETATM   17  C   UNL     1      -8.831  10.641  68.589  1.00  0.00    -0.151 C  
HETATM   18  O   UNL     1      -8.416  11.297  66.324  1.00  0.00    -0.170 OA 
HETATM   19  O   UNL     1     -10.871  11.261  67.236  1.00  0.00    -0.235 OA 
HETATM   20  P   UNL     1      -9.357  11.899  67.369  1.00  0.00    -0.186 P  
HETATM   21  O   UNL     1      -9.854  13.090  66.216  1.00  0.00    -0.269 OA 
BRANCH  19  22
HETATM   22  C   UNL     1     -11.919  11.769  68.033  1.00  0.00    -0.125 C  
BRANCH  22  23
HETATM   23  O   UNL     1     -11.430  12.585  69.104  1.00  0.00    -0.270 OA 
BRANCH  23  24
HETATM   24  C   UNL     1     -12.080  13.768  69.240  1.00  0.00    -0.329 C  
HETATM   25  O   UNL     1     -12.394  14.519  68.325  1.00  0.00    -0.163 OA 
BRANCH  24  26
HETATM   26  O   UNL     1     -12.311  14.002  70.559  1.00  0.00    -0.324 OA 
BRANCH  26  27
HETATM   27  C   UNL     1     -12.853  15.305  70.868  1.00  0.00    -0.449 C  
HETATM   28  C   UNL     1     -14.229  15.133  71.501  1.00  0.00    -0.647 C  
HETATM   29  C   UNL     1     -11.914  16.026  71.830  1.00  0.00    -0.606 C  
ENDBRANCH  26  27
ENDBRANCH  24  26
ENDBRANCH  23  24
ENDBRANCH  22  23
ENDBRANCH  19  22
BRANCH  21  30
HETATM   30  C   UNL     1      -9.386  14.384  66.532  1.00  0.00    -0.278 C  
BRANCH  30  31
HETATM   31  O   UNL     1     -10.184  15.395  65.924  1.00  0.00    -0.296 OA 
BRANCH  31  32
HETATM   32  C   UNL     1      -9.725  16.653  66.120  1.00  0.00    -0.303 C  
HETATM   33  O   UNL     1     -10.167  17.665  65.592  1.00  0.00    -0.593 OA 
BRANCH  32  34
HETATM   34  O   UNL     1      -8.737  16.601  67.047  1.00  0.00    -0.185 OA 
BRANCH  34  35
HETATM   35  C   UNL     1      -8.968  17.327  68.270  1.00  0.00    -0.262 C  
HETATM   36  C   UNL     1     -10.474  17.348  68.514  1.00  0.00    -0.370 C  
HETATM   37  C   UNL     1      -8.440  18.754  68.152  1.00  0.00    -0.335 C  
ENDBRANCH  34  35
ENDBRANCH  32  34
ENDBRANCH  31  32
ENDBRANCH  30  31
ENDBRANCH  21  30
ENDBRANCH  16  17
ENDBRANCH   1  16
TORSDOF 14
ENDMDL
MODEL      202
REMARK 921   NORMALIZED FREE ENERGY PREDICTED BY IDOCK:   -4.51 KCAL/MOL
REMARK 922        TOTAL FREE ENERGY PREDICTED BY IDOCK:  -10.04 KCAL/MOL
REMARK 923 INTER-LIGAND FREE ENERGY PREDICTED BY IDOCK:   -9.12 KCAL/MOL
REMARK 924 INTRA-LIGAND FREE ENERGY PREDICTED BY IDOCK:   -0.92 KCAL/MOL
REMARK 927      BINDING AFFINITY PREDICTED BY RF-SCORE:    0.00 PKD
ROOT
HETATM    1  C   UNL     1     -11.112  13.235  66.760  1.00  0.00    -0.292 C  
HETATM    2  C   UNL     1     -12.156  12.724  65.770  1.00  0.00    -0.505 C  
ENDROOT
BRANCH   1   3
HETATM    3  C   UNL     1     -10.046  14.120  66.126  1.00  0.00    -0.313 C  
BRANCH   3   4
HETATM    4  N   UNL     1     -10.468  15.438  65.735  1.00  0.00    -0.330 NA 
HETATM    5  C   UNL     1     -10.109  16.557  66.420  1.00  0.00    -0.312 A  
HETATM    6  N   UNL     1      -9.669  19.017  67.322  1.00  0.00    -0.307 NA 
HETATM    7  C   UNL     1     -11.115  15.832  64.597  1.00  0.00    -0.361 A  
HETATM    8  N   UNL     1     -10.779  20.037  65.507  1.00  0.00    -0.321 NA 
HETATM    9  N   UNL     1      -9.422  16.624  67.572  1.00  0.00    -0.227 NA 
HETATM   10  C   UNL     1     -10.340  18.889  66.156  1.00  0.00    -0.460 A  
HETATM   11  N   UNL     1     -11.235  17.138  64.533  1.00  0.00    -1.012 NA 
HETATM   12  C   UNL     1      -9.244  17.898  67.947  1.00  0.00    -0.263 A  
HETATM   13  C   UNL     1     -10.588  17.604  65.659  1.00  0.00    -0.135 A  
HETATM   14  H1  UNL     1     -10.598  20.972  65.868  1.00  0.00     0.000 HD 
HETATM   15  H2  UNL     1     -11.786  19.948  65.371  1.00  0.00     0.000 HD 
ENDBRANCH   3   4
ENDBRANCH   1   3
BRANCH   1  16
HETATM   16  O   UNL     1     -10.578  12.107  67.485  1.00  0.00    -0.208 OA 
BRANCH  16  17
HETATM   17  C   UNL     1     -10.968  10.796  67.005  1.00  0.00    -0.227 C  
HETATM   18  O   UNL     1      -9.279  10.146  65.438  1.00  0.00    -0.173 OA 
HETATM   19  O   UNL     1      -8.652  10.474  67.959  1.00  0.00    -0.118 OA 
HETATM   20  P   UNL     1      -9.554   9.645  66.857  1.00  0.00    -0.189 P  
HETATM   21  O   UNL     1      -8.217   8.555  66.717  1.00  0.00    -0.103 OA 
BRANCH  19  22
HETATM   22  C   UNL     1      -8.672  10.087  69.316  1.00  0.00    -0.177 C  
BRANCH  22  23
HETATM   23  O   UNL     1      -9.465   8.913  69.526  1.00  0.00    -0.155 OA 
BRANCH  23  24
HETATM   24  C   UNL     1     -10.267   8.975  70.619  1.00  0.00    -0.229 C  
HETATM   25  O   UNL     1     -11.457   8.694  70.647  1.00  0.00    -0.269 OA 
BRANCH  24  26
HETATM   26  O   UNL     1      -9.542   9.419  71.679  1.00  0.00    -0.260 OA 
BRANCH  26  27
HETATM   27  C   UNL     1      -9.240   8.423  72.681  1.00  0.00    -0.254 C  
HETATM   28  C   UNL     1     -10.530   7.717  73.083  1.00  0.00    -0.433 C  
HETATM   29  C   UNL     1      -8.242   7.421  72.110  1.00  0.00    -0.109 C  
ENDBRANCH  26  27
ENDBRANCH  24  26
ENDBRANCH  23  24
ENDBRANCH  22  23
ENDBRANCH  19  22
BRANCH  21  30
HETATM   30  C   UNL     1      -8.621   7.205  66.634  1.00  0.00    -0.124 C  
BRANCH  30  31
HETATM   31  O   UNL     1      -9.929   7.013  67.162  1.00  0.00    -0.159 OA 
BRANCH  31  32
HETATM   32  C   UNL     1     -10.371   5.736  67.093  1.00  0.00    -0.240 C  
HETATM   33  O   UNL     1     -10.312   5.011  66.108  1.00  0.00    -0.243 OA 
BRANCH  32  34
HETATM   34  O   UNL     1     -10.833   5.383  68.319  1.00  0.00    -0.090 OA 
BRANCH  34  35
HETATM   35  C   UNL     1      -9.874   5.403  69.394  1.00  0.00    -0.184 C  
HETATM   36  C   UNL     1      -8.850   4.307  69.115  1.00  0.00    -0.134 C  
HETATM   37  C   UNL     1     -10.564   5.144  70.729  1.00  0.00    -0.205 C  
ENDBRANCH  34  35
ENDBRANCH  32  34
ENDBRANCH  31  32
ENDBRANCH  30  31
ENDBRANCH  21  30
ENDBRANCH  16  17
ENDBRANCH   1  16
TORSDOF 14
ENDMDL
MODEL      203
REMARK 921   NORMALIZED FREE ENERGY PREDICTED BY IDOCK:   -4.50 KCAL/MOL
REMARK 922        TOTAL FREE ENERGY PREDICTED BY IDOCK:  -10.02 KCAL/MOL
REMARK 923 INTER-LIGAND FREE ENERGY PREDICTED BY IDOCK:   -9.38 KCAL/MOL
REMARK 924 INTRA-LIGAND FREE ENERGY PREDICTED BY IDOCK:   -0.65 KCAL/MOL
REMARK 927      BINDING AFFINITY PREDICTED BY RF-SCORE:    0.00 PKD
ROOT
HETATM    1  C   UNL     1     -10.081  14.649  68.703  1.00  0.00    -0.238 C  
HETATM    2  C   UNL     1     -11.459  15.099  68.220  1.00  0.00    -0.350 C  
ENDROOT
BRANCH   1   3
HETATM    3  C   UNL     1      -9.253  15.765  69.325  1.00  0.00    -0.266 C  
BRANCH   3   4
HETATM    4  N   UNL     1      -8.555  16.623  68.405  1.00  0.00    -0.212 NA 
HETATM    5  C   UNL     1      -9.002  17.866  68.080  1.00  0.00    -0.267 A  
HETATM    6  N   UNL     1      -9.372  20.331  67.159  1.00  0.00    -0.387 NA 
HETATM    7  C   UNL     1      -7.318  16.463  67.848  1.00  0.00    -0.133 A  
HETATM    8  N   UNL     1      -7.307  20.370  66.018  1.00  0.00    -0.468 NA 
HETATM    9  N   UNL     1     -10.155  18.444  68.454  1.00  0.00    -0.376 NA 
HETATM   10  C   UNL     1      -8.219  19.707  66.830  1.00  0.00    -0.304 A  
HETATM   11  N   UNL     1      -6.962  17.511  67.142  1.00  0.00    -0.164 NA 
HETATM   12  C   UNL     1     -10.254  19.682  67.950  1.00  0.00    -0.448 A  
HETATM   13  C   UNL     1      -8.000  18.406  67.299  1.00  0.00    -0.236 A  
HETATM   14  H1  UNL     1      -7.467  21.318  65.677  1.00  0.00     0.000 HD 
HETATM   15  H2  UNL     1      -7.127  19.777  65.208  1.00  0.00     0.000 HD 
ENDBRANCH   3   4
ENDBRANCH   1   3
BRANCH   1  16
HETATM   16  O   UNL     1      -9.418  13.964  67.618  1.00  0.00    -0.201 OA 
BRANCH  16  17
HETATM   17  C   UNL     1      -8.653  12.788  67.977  1.00  0.00    -0.186 C  
HETATM   18  O   UNL     1     -10.251  11.186  68.763  1.00  0.00    -0.195 OA 
HETATM   19  O   UNL     1     -10.326  11.977  66.268  1.00  0.00    -0.214 OA 
HETATM   20  P   UNL     1      -9.459  11.230  67.454  1.00  0.00    -0.167 P  
HETATM   21  O   UNL     1     -10.220   9.757  66.960  1.00  0.00    -0.203 OA 
BRANCH  19  22
HETATM   22  C   UNL     1      -9.821  12.018  64.950  1.00  0.00    -0.175 C  
BRANCH  22  23
HETATM   23  O   UNL     1     -10.395  13.089  64.191  1.00  0.00    -0.419 OA 
BRANCH  23  24
HETATM   24  C   UNL     1     -11.586  12.783  63.617  1.00  0.00    -0.506 C  
HETATM   25  O   UNL     1     -12.038  11.656  63.469  1.00  0.00    -0.441 OA 
BRANCH  24  26
HETATM   26  O   UNL     1     -12.193  13.930  63.212  1.00  0.00    -0.629 OA 
BRANCH  26  27
HETATM   27  C   UNL     1     -12.476  14.882  64.261  1.00  0.00    -0.157 C  
HETATM   28  C   UNL     1     -12.854  14.125  65.530  1.00  0.00    -0.404 C  
HETATM   29  C   UNL     1     -11.241  15.743  64.507  1.00  0.00    -0.334 C  
ENDBRANCH  26  27
ENDBRANCH  24  26
ENDBRANCH  23  24
ENDBRANCH  22  23
ENDBRANCH  19  22
BRANCH  21  30
HETATM   30  C   UNL     1      -9.331   8.661  66.949  1.00  0.00    -0.170 C  
BRANCH  30  31
HETATM   31  O   UNL     1      -8.893   8.326  68.261  1.00  0.00    -0.139 OA 
BRANCH  31  32
HETATM   32  C   UNL     1      -9.792   7.613  68.979  1.00  0.00    -0.168 C  
HETATM   33  O   UNL     1     -10.561   8.069  69.815  1.00  0.00    -0.234 OA 
BRANCH  32  34
HETATM   34  O   UNL     1      -9.732   6.322  68.566  1.00  0.00    -0.127 OA 
BRANCH  34  35
HETATM   35  C   UNL     1      -8.843   5.457  69.299  1.00  0.00    -0.101 C  
HETATM   36  C   UNL     1      -7.809   4.921  68.313  1.00  0.00    -0.082 C  
HETATM   37  C   UNL     1      -9.617   4.300  69.921  1.00  0.00    -0.279 C  
ENDBRANCH  34  35
ENDBRANCH  32  34
ENDBRANCH  31  32
ENDBRANCH  30  31
ENDBRANCH  21  30
ENDBRANCH  16  17
ENDBRANCH   1  16
TORSDOF 14
ENDMDL
MODEL      204
REMARK 921   NORMALIZED FREE ENERGY PREDICTED BY IDOCK:   -4.50 KCAL/MOL
REMARK 922        TOTAL FREE ENERGY PREDICTED BY IDOCK:  -10.02 KCAL/MOL
REMARK 923 INTER-LIGAND FREE ENERGY PREDICTED BY IDOCK:   -7.39 KCAL/MOL
REMARK 924 INTRA-LIGAND FREE ENERGY PREDICTED BY IDOCK:   -2.63 KCAL/MOL
REMARK 927      BINDING AFFINITY PREDICTED BY RF-SCORE:    0.00 PKD
ROOT
HETATM    1  C   UNL     1     -12.164  11.890  68.773  1.00  0.00     0.051 C  
HETATM    2  C   UNL     1     -11.864  13.321  68.330  1.00  0.00    -0.395 C  
ENDROOT
BRANCH   1   3
HETATM    3  C   UNL     1     -11.727  11.584  70.199  1.00  0.00    -0.309 C  
BRANCH   3   4
HETATM    4  N   UNL     1     -12.133  10.309  70.725  1.00  0.00    -0.324 NA 
HETATM    5  C   UNL     1     -11.240   9.354  71.105  1.00  0.00    -0.357 A  
HETATM    6  N   UNL     1      -9.969   7.213  72.031  1.00  0.00    -0.163 NA 
HETATM    7  C   UNL     1     -13.380   9.885  71.089  1.00  0.00    -0.301 A  
HETATM    8  N   UNL     1     -11.959   6.158  72.735  1.00  0.00    -0.513 NA 
HETATM    9  N   UNL     1      -9.905   9.386  70.971  1.00  0.00    -0.277 NA 
HETATM   10  C   UNL     1     -11.315   7.244  72.156  1.00  0.00    -0.265 A  
HETATM   11  N   UNL     1     -13.349   8.691  71.638  1.00  0.00    -0.349 NA 
HETATM   12  C   UNL     1      -9.349   8.272  71.468  1.00  0.00    -0.180 A  
HETATM   13  C   UNL     1     -12.010   8.359  71.673  1.00  0.00    -0.307 A  
HETATM   14  H1  UNL     1     -11.452   5.346  73.087  1.00  0.00     0.000 HD 
HETATM   15  H2  UNL     1     -12.656   5.822  72.071  1.00  0.00     0.000 HD 
ENDBRANCH   3   4
ENDBRANCH   1   3
BRANCH   1  16
HETATM   16  O   UNL     1     -11.622  10.984  67.789  1.00  0.00    -0.510 OA 
BRANCH  16  17
HETATM   17  C   UNL     1     -10.665  11.548  66.859  1.00  0.00    -0.263 C  
HETATM   18  O   UNL     1      -8.650  11.873  68.112  1.00  0.00    -0.152 OA 
HETATM   19  O   UNL     1      -9.563   9.449  67.727  1.00  0.00    -0.132 OA 
HETATM   20  P   UNL     1      -8.991  10.834  67.042  1.00  0.00    -0.143 P  
HETATM   21  O   UNL     1      -7.407  10.158  67.214  1.00  0.00    -0.089 OA 
BRANCH  19  22
HETATM   22  C   UNL     1      -9.826   8.322  66.919  1.00  0.00    -0.247 C  
BRANCH  22  23
HETATM   23  O   UNL     1     -11.018   7.638  67.325  1.00  0.00    -0.245 OA 
BRANCH  23  24
HETATM   24  C   UNL     1     -10.790   6.491  68.013  1.00  0.00    -0.295 C  
HETATM   25  O   UNL     1     -11.412   6.114  68.997  1.00  0.00    -0.340 OA 
BRANCH  24  26
HETATM   26  O   UNL     1      -9.744   5.832  67.448  1.00  0.00    -0.115 OA 
BRANCH  26  27
HETATM   27  C   UNL     1     -10.025   4.481  67.020  1.00  0.00    -0.179 C  
HETATM   28  C   UNL     1     -10.032   4.435  65.496  1.00  0.00    -0.242 C  
HETATM   29  C   UNL     1      -8.957   3.544  67.574  1.00  0.00    -0.170 C  
ENDBRANCH  26  27
ENDBRANCH  24  26
ENDBRANCH  23  24
ENDBRANCH  22  23
ENDBRANCH  19  22
BRANCH  21  30
HETATM   30  C   UNL     1      -6.586  10.400  66.091  1.00  0.00    -0.112 C  
BRANCH  30  31
HETATM   31  O   UNL     1      -7.145   9.852  64.902  1.00  0.00    -0.119 OA 
BRANCH  31  32
HETATM   32  C   UNL     1      -6.233   9.308  64.062  1.00  0.00    -0.089 C  
HETATM   33  O   UNL     1      -5.875   9.783  62.992  1.00  0.00    -0.097 OA 
BRANCH  32  34
HETATM   34  O   UNL     1      -5.745   8.184  64.642  1.00  0.00    -0.044 OA 
BRANCH  34  35
HETATM   35  C   UNL     1      -6.687   7.115  64.859  1.00  0.00    -0.047 C  
HETATM   36  C   UNL     1      -6.436   6.560  66.258  1.00  0.00    -0.043 C  
HETATM   37  C   UNL     1      -6.495   6.015  63.820  1.00  0.00    -0.029 C  
ENDBRANCH  34  35
ENDBRANCH  32  34
ENDBRANCH  31  32
ENDBRANCH  30  31
ENDBRANCH  21  30
ENDBRANCH  16  17
ENDBRANCH   1  16
TORSDOF 14
ENDMDL
MODEL      205
REMARK 921   NORMALIZED FREE ENERGY PREDICTED BY IDOCK:   -4.49 KCAL/MOL
REMARK 922        TOTAL FREE ENERGY PREDICTED BY IDOCK:  -10.01 KCAL/MOL
REMARK 923 INTER-LIGAND FREE ENERGY PREDICTED BY IDOCK:   -8.87 KCAL/MOL
REMARK 924 INTRA-LIGAND FREE ENERGY PREDICTED BY IDOCK:   -1.14 KCAL/MOL
REMARK 927      BINDING AFFINITY PREDICTED BY RF-SCORE:    0.00 PKD
ROOT
HETATM    1  C   UNL     1      -8.182   8.130  69.027  1.00  0.00    -0.127 C  
HETATM    2  C   UNL     1      -7.403   6.824  68.888  1.00  0.00    -0.094 C  
ENDROOT
BRANCH   1   3
HETATM    3  C   UNL     1      -7.298   9.364  69.143  1.00  0.00    -0.071 C  
BRANCH   3   4
HETATM    4  N   UNL     1      -7.667  10.487  68.323  1.00  0.00    -0.098 NA 
HETATM    5  C   UNL     1      -8.428  10.358  67.203  1.00  0.00    -0.126 A  
HETATM    6  N   UNL     1      -9.900  10.685  65.015  1.00  0.00    -0.268 NA 
HETATM    7  C   UNL     1      -7.499  11.821  68.565  1.00  0.00    -0.110 A  
HETATM    8  N   UNL     1      -9.762  13.039  65.099  1.00  0.00    -0.508 NA 
HETATM    9  N   UNL     1      -8.861   9.221  66.636  1.00  0.00    -0.126 NA 
HETATM   10  C   UNL     1      -9.452  11.797  65.639  1.00  0.00    -0.192 A  
HETATM   11  N   UNL     1      -8.067  12.560  67.639  1.00  0.00    -0.158 NA 
HETATM   12  C   UNL     1      -9.596   9.480  65.545  1.00  0.00    -0.279 A  
HETATM   13  C   UNL     1      -8.672  11.654  66.793  1.00  0.00    -0.189 A  
HETATM   14  H1  UNL     1     -10.330  13.143  64.259  1.00  0.00     0.000 HD 
HETATM   15  H2  UNL     1      -8.885  13.534  64.941  1.00  0.00     0.000 HD 
ENDBRANCH   3   4
ENDBRANCH   1   3
BRANCH   1  16
HETATM   16  O   UNL     1      -9.127   7.985  70.109  1.00  0.00    -0.149 OA 
BRANCH  16  17
HETATM   17  C   UNL     1      -9.396   9.177  70.887  1.00  0.00    -0.269 C  
HETATM   18  O   UNL     1     -10.978  10.445  69.613  1.00  0.00    -0.239 OA 
HETATM   19  O   UNL     1     -11.654   8.098  70.556  1.00  0.00    -0.238 OA 
HETATM   20  P   UNL     1     -11.167   9.635  70.897  1.00  0.00    -0.393 P  
HETATM   21  O   UNL     1     -12.842  10.067  70.908  1.00  0.00    -0.344 OA 
BRANCH  19  22
HETATM   22  C   UNL     1     -11.997   7.221  71.608  1.00  0.00    -0.308 C  
BRANCH  22  23
HETATM   23  O   UNL     1     -11.385   5.935  71.453  1.00  0.00    -0.261 OA 
BRANCH  23  24
HETATM   24  C   UNL     1     -10.724   5.501  72.556  1.00  0.00    -0.240 C  
HETATM   25  O   UNL     1     -10.554   6.142  73.584  1.00  0.00    -0.254 OA 
BRANCH  24  26
HETATM   26  O   UNL     1     -10.259   4.243  72.332  1.00  0.00    -0.176 OA 
BRANCH  26  27
HETATM   27  C   UNL     1     -10.064   3.438  73.515  1.00  0.00    -0.120 C  
HETATM   28  C   UNL     1     -11.205   2.434  73.627  1.00  0.00    -0.317 C  
HETATM   29  C   UNL     1      -8.726   2.711  73.415  1.00  0.00    -0.078 C  
ENDBRANCH  26  27
ENDBRANCH  24  26
ENDBRANCH  23  24
ENDBRANCH  22  23
ENDBRANCH  19  22
BRANCH  21  30
HETATM   30  C   UNL     1     -13.167  10.965  71.949  1.00  0.00    -0.403 C  
BRANCH  30  31
HETATM   31  O   UNL     1     -12.544  12.232  71.764  1.00  0.00    -0.176 OA 
BRANCH  31  32
HETATM   32  C   UNL     1     -13.405  13.276  71.768  1.00  0.00    -0.393 C  
HETATM   33  O   UNL     1     -14.226  13.522  72.642  1.00  0.00    -0.751 OA 
BRANCH  32  34
HETATM   34  O   UNL     1     -13.155  14.032  70.670  1.00  0.00    -0.260 OA 
BRANCH  34  35
HETATM   35  C   UNL     1     -11.838  14.609  70.575  1.00  0.00    -0.304 C  
HETATM   36  C   UNL     1     -11.795  15.810  71.516  1.00  0.00    -0.514 C  
HETATM   37  C   UNL     1     -11.553  15.056  69.146  1.00  0.00    -0.333 C  
ENDBRANCH  34  35
ENDBRANCH  32  34
ENDBRANCH  31  32
ENDBRANCH  30  31
ENDBRANCH  21  30
ENDBRANCH  16  17
ENDBRANCH   1  16
TORSDOF 14
ENDMDL
MODEL      206
REMARK 921   NORMALIZED FREE ENERGY PREDICTED BY IDOCK:   -4.49 KCAL/MOL
REMARK 922        TOTAL FREE ENERGY PREDICTED BY IDOCK:  -10.01 KCAL/MOL
REMARK 923 INTER-LIGAND FREE ENERGY PREDICTED BY IDOCK:   -8.37 KCAL/MOL
REMARK 924 INTRA-LIGAND FREE ENERGY PREDICTED BY IDOCK:   -1.65 KCAL/MOL
REMARK 927      BINDING AFFINITY PREDICTED BY RF-SCORE:    0.00 PKD
ROOT
HETATM    1  C   UNL     1     -10.558  14.627  65.191  1.00  0.00    -0.421 C  
HETATM    2  C   UNL     1     -10.960  16.050  64.809  1.00  0.00    -0.373 C  
ENDROOT
BRANCH   1   3
HETATM    3  C   UNL     1     -11.733  13.742  65.586  1.00  0.00    -0.347 C  
BRANCH   3   4
HETATM    4  N   UNL     1     -11.916  13.525  66.996  1.00  0.00    -0.398 NA 
HETATM    5  C   UNL     1     -11.744  12.307  67.579  1.00  0.00    -0.332 A  
HETATM    6  N   UNL     1     -11.491  10.224  69.208  1.00  0.00    -0.197 NA 
HETATM    7  C   UNL     1     -12.110  14.442  67.990  1.00  0.00    -0.231 A  
HETATM    8  N   UNL     1     -11.851  11.515  71.150  1.00  0.00    -0.131 NA 
HETATM    9  N   UNL     1     -11.489  11.139  66.969  1.00  0.00    -0.439 NA 
HETATM   10  C   UNL     1     -11.730  11.430  69.768  1.00  0.00    -0.344 A  
HETATM   11  N   UNL     1     -12.122  13.879  69.177  1.00  0.00    -0.356 NA 
HETATM   12  C   UNL     1     -11.373  10.148  67.865  1.00  0.00    -0.032 A  
HETATM   13  C   UNL     1     -11.871  12.545  68.933  1.00  0.00    -0.301 A  
HETATM   14  H1  UNL     1     -11.748  10.703  71.758  1.00  0.00     0.000 HD 
HETATM   15  H2  UNL     1     -12.754  11.941  71.355  1.00  0.00     0.000 HD 
ENDBRANCH   3   4
ENDBRANCH   1   3
BRANCH   1  16
HETATM   16  O   UNL     1      -9.518  14.697  66.190  1.00  0.00    -0.296 OA 
BRANCH  16  17
HETATM   17  C   UNL     1      -8.814  15.959  66.292  1.00  0.00    -0.351 C  
HETATM   18  O   UNL     1      -9.331  16.821  68.466  1.00  0.00    -0.229 OA 
HETATM   19  O   UNL     1      -7.977  14.591  68.241  1.00  0.00    -0.122 OA 
HETATM   20  P   UNL     1      -8.036  16.208  67.929  1.00  0.00    -0.149 P  
HETATM   21  O   UNL     1      -7.299  16.443  69.476  1.00  0.00    -0.209 OA 
BRANCH  19  22
HETATM   22  C   UNL     1      -6.811  13.858  67.931  1.00  0.00    -0.160 C  
BRANCH  22  23
HETATM   23  O   UNL     1      -7.096  12.725  67.102  1.00  0.00    -0.116 OA 
BRANCH  23  24
HETATM   24  C   UNL     1      -7.497  11.625  67.788  1.00  0.00    -0.111 C  
HETATM   25  O   UNL     1      -8.113  11.629  68.845  1.00  0.00    -0.108 OA 
BRANCH  24  26
HETATM   26  O   UNL     1      -7.088  10.511  67.124  1.00  0.00    -0.086 OA 
BRANCH  26  27
HETATM   27  C   UNL     1      -7.389  10.490  65.712  1.00  0.00    -0.137 C  
HETATM   28  C   UNL     1      -6.131  10.107  64.941  1.00  0.00    -0.125 C  
HETATM   29  C   UNL     1      -8.500   9.478  65.449  1.00  0.00    -0.157 C  
ENDBRANCH  26  27
ENDBRANCH  24  26
ENDBRANCH  23  24
ENDBRANCH  22  23
ENDBRANCH  19  22
BRANCH  21  30
HETATM   30  C   UNL     1      -6.310  17.451  69.462  1.00  0.00    -0.233 C  
BRANCH  30  31
HETATM   31  O   UNL     1      -6.887  18.753  69.426  1.00  0.00    -0.270 OA 
BRANCH  31  32
HETATM   32  C   UNL     1      -6.119  19.680  68.808  1.00  0.00    -0.246 C  
HETATM   33  O   UNL     1      -5.700  20.713  69.313  1.00  0.00    -0.330 OA 
BRANCH  32  34
HETATM   34  O   UNL     1      -5.847  19.235  67.556  1.00  0.00    -0.184 OA 
BRANCH  34  35
HETATM   35  C   UNL     1      -6.680  19.750  66.499  1.00  0.00    -0.201 C  
HETATM   36  C   UNL     1      -5.910  20.875  65.814  1.00  0.00    -0.277 C  
HETATM   37  C   UNL     1      -7.991  20.286  67.066  1.00  0.00    -0.366 C  
ENDBRANCH  34  35
ENDBRANCH  32  34
ENDBRANCH  31  32
ENDBRANCH  30  31
ENDBRANCH  21  30
ENDBRANCH  16  17
ENDBRANCH   1  16
TORSDOF 14
ENDMDL
MODEL      207
REMARK 921   NORMALIZED FREE ENERGY PREDICTED BY IDOCK:   -4.49 KCAL/MOL
REMARK 922        TOTAL FREE ENERGY PREDICTED BY IDOCK:  -10.01 KCAL/MOL
REMARK 923 INTER-LIGAND FREE ENERGY PREDICTED BY IDOCK:   -8.84 KCAL/MOL
REMARK 924 INTRA-LIGAND FREE ENERGY PREDICTED BY IDOCK:   -1.17 KCAL/MOL
REMARK 927      BINDING AFFINITY PREDICTED BY RF-SCORE:    0.00 PKD
ROOT
HETATM    1  C   UNL     1      -9.587   9.967  66.562  1.00  0.00    -0.187 C  
HETATM    2  C   UNL     1      -8.641  10.758  65.659  1.00  0.00    -0.185 C  
ENDROOT
BRANCH   1   3
HETATM    3  C   UNL     1     -10.800  10.762  67.026  1.00  0.00    -0.252 C  
BRANCH   3   4
HETATM    4  N   UNL     1     -10.903  12.108  66.530  1.00  0.00    -0.258 NA 
HETATM    5  C   UNL     1     -11.448  12.403  65.318  1.00  0.00    -0.344 A  
HETATM    6  N   UNL     1     -12.444  13.527  63.126  1.00  0.00    -0.712 NA 
HETATM    7  C   UNL     1     -10.661  13.286  67.179  1.00  0.00    -0.258 A  
HETATM    8  N   UNL     1     -12.107  15.722  63.924  1.00  0.00    -1.125 NA 
HETATM    9  N   UNL     1     -11.869  11.540  64.380  1.00  0.00    -0.077 NA 
HETATM   10  C   UNL     1     -12.021  14.348  64.113  1.00  0.00    -0.346 A  
HETATM   11  N   UNL     1     -10.973  14.324  66.437  1.00  0.00    -0.307 NA 
HETATM   12  C   UNL     1     -12.358  12.192  63.317  1.00  0.00    -0.436 A  
HETATM   13  C   UNL     1     -11.489  13.783  65.278  1.00  0.00    -0.312 A  
HETATM   14  H1  UNL     1     -12.495  16.134  63.076  1.00  0.00     0.000 HD 
HETATM   15  H2  UNL     1     -11.174  16.111  64.056  1.00  0.00     0.000 HD 
ENDBRANCH   3   4
ENDBRANCH   1   3
BRANCH   1  16
HETATM   16  O   UNL     1      -8.817   9.393  67.640  1.00  0.00    -0.116 OA 
BRANCH  16  17
HETATM   17  C   UNL     1      -8.905   7.955  67.793  1.00  0.00    -0.122 C  
HETATM   18  O   UNL     1      -6.691   7.220  68.331  1.00  0.00    -0.050 OA 
HETATM   19  O   UNL     1      -7.977   8.786  69.990  1.00  0.00    -0.097 OA 
HETATM   20  P   UNL     1      -7.936   7.332  69.214  1.00  0.00    -0.121 P  
HETATM   21  O   UNL     1      -7.020   6.742  70.558  1.00  0.00    -0.060 OA 
BRANCH  19  22
HETATM   22  C   UNL     1      -8.985   9.044  70.944  1.00  0.00    -0.243 C  
BRANCH  22  23
HETATM   23  O   UNL     1     -10.005   8.038  70.930  1.00  0.00    -0.185 OA 
BRANCH  23  24
HETATM   24  C   UNL     1     -10.414   7.648  72.163  1.00  0.00    -0.221 C  
HETATM   25  O   UNL     1      -9.951   6.715  72.806  1.00  0.00    -0.168 OA 
BRANCH  24  26
HETATM   26  O   UNL     1     -11.437   8.446  72.568  1.00  0.00    -0.380 OA 
BRANCH  26  27
HETATM   27  C   UNL     1     -12.629   8.380  71.753  1.00  0.00    -0.342 C  
HETATM   28  C   UNL     1     -13.097   6.931  71.673  1.00  0.00    -0.338 C  
HETATM   29  C   UNL     1     -13.713   9.254  72.375  1.00  0.00    -0.517 C  
ENDBRANCH  26  27
ENDBRANCH  24  26
ENDBRANCH  23  24
ENDBRANCH  22  23
ENDBRANCH  19  22
BRANCH  21  30
HETATM   30  C   UNL     1      -7.400   5.440  70.947  1.00  0.00    -0.078 C  
BRANCH  30  31
HETATM   31  O   UNL     1      -8.691   5.098  70.453  1.00  0.00    -0.110 OA 
BRANCH  31  32
HETATM   32  C   UNL     1      -8.923   3.767  70.388  1.00  0.00    -0.096 C  
HETATM   33  O   UNL     1      -8.169   2.933  69.905  1.00  0.00    -0.044 OA 
BRANCH  32  34
HETATM   34  O   UNL     1     -10.105   3.514  71.004  1.00  0.00    -0.071 OA 
BRANCH  34  35
HETATM   35  C   UNL     1     -10.028   2.956  72.331  1.00  0.00    -0.165 C  
HETATM   36  C   UNL     1     -10.521   1.514  72.250  1.00  0.00    -0.219 C  
HETATM   37  C   UNL     1     -10.901   3.751  73.296  1.00  0.00    -0.293 C  
ENDBRANCH  34  35
ENDBRANCH  32  34
ENDBRANCH  31  32
ENDBRANCH  30  31
ENDBRANCH  21  30
ENDBRANCH  16  17
ENDBRANCH   1  16
TORSDOF 14
ENDMDL
MODEL      208
REMARK 921   NORMALIZED FREE ENERGY PREDICTED BY IDOCK:   -4.48 KCAL/MOL
REMARK 922        TOTAL FREE ENERGY PREDICTED BY IDOCK:   -9.99 KCAL/MOL
REMARK 923 INTER-LIGAND FREE ENERGY PREDICTED BY IDOCK:   -8.30 KCAL/MOL
REMARK 924 INTRA-LIGAND FREE ENERGY PREDICTED BY IDOCK:   -1.69 KCAL/MOL
REMARK 927      BINDING AFFINITY PREDICTED BY RF-SCORE:    0.00 PKD
ROOT
HETATM    1  C   UNL     1     -11.810  12.828  66.550  1.00  0.00    -0.405 C  
HETATM    2  C   UNL     1     -12.492  13.432  65.324  1.00  0.00    -0.532 C  
ENDROOT
BRANCH   1   3
HETATM    3  C   UNL     1     -11.066  13.845  67.404  1.00  0.00    -0.298 C  
BRANCH   3   4
HETATM    4  N   UNL     1     -11.728  14.264  68.610  1.00  0.00    -0.326 NA 
HETATM    5  C   UNL     1     -12.086  13.391  69.591  1.00  0.00    -0.289 A  
HETATM    6  N   UNL     1     -12.931  12.168  71.793  1.00  0.00    -0.380 NA 
HETATM    7  C   UNL     1     -11.960  15.530  69.070  1.00  0.00    -0.301 A  
HETATM    8  N   UNL     1     -13.504  14.188  72.869  1.00  0.00    -0.667 NA 
HETATM    9  N   UNL     1     -11.986  12.053  69.569  1.00  0.00    -0.301 NA 
HETATM   10  C   UNL     1     -12.990  13.518  71.766  1.00  0.00    -0.348 A  
HETATM   11  N   UNL     1     -12.492  15.522  70.271  1.00  0.00    -0.401 NA 
HETATM   12  C   UNL     1     -12.429  11.523  70.718  1.00  0.00    -0.349 A  
HETATM   13  C   UNL     1     -12.554  14.189  70.617  1.00  0.00    -0.351 A  
HETATM   14  H1  UNL     1     -13.821  13.700  73.706  1.00  0.00     0.000 HD 
HETATM   15  H2  UNL     1     -14.273  14.774  72.544  1.00  0.00     0.000 HD 
ENDBRANCH   3   4
ENDBRANCH   1   3
BRANCH   1  16
HETATM   16  O   UNL     1     -10.993  11.719  66.118  1.00  0.00    -0.288 OA 
BRANCH  16  17
HETATM   17  C   UNL     1      -9.561  11.939  66.125  1.00  0.00    -0.234 C  
HETATM   18  O   UNL     1      -8.873  11.680  68.404  1.00  0.00    -0.162 OA 
HETATM   19  O   UNL     1      -9.867   9.634  67.108  1.00  0.00    -0.168 OA 
HETATM   20  P   UNL     1      -8.667  10.759  67.200  1.00  0.00    -0.133 P  
HETATM   21  O   UNL     1      -7.820   9.643  68.216  1.00  0.00    -0.085 OA 
BRANCH  19  22
HETATM   22  C   UNL     1      -9.800   8.614  66.135  1.00  0.00    -0.198 C  
BRANCH  22  23
HETATM   23  O   UNL     1      -9.926   7.310  66.717  1.00  0.00    -0.209 OA 
BRANCH  23  24
HETATM   24  C   UNL     1      -8.911   6.465  66.406  1.00  0.00    -0.153 C  
HETATM   25  O   UNL     1      -7.718   6.713  66.515  1.00  0.00    -0.098 OA 
BRANCH  24  26
HETATM   26  O   UNL     1      -9.429   5.301  65.933  1.00  0.00    -0.158 OA 
BRANCH  26  27
HETATM   27  C   UNL     1      -8.814   4.099  66.448  1.00  0.00    -0.118 C  
HETATM   28  C   UNL     1      -9.524   3.689  67.734  1.00  0.00    -0.231 C  
HETATM   29  C   UNL     1      -8.925   2.990  65.405  1.00  0.00    -0.143 C  
ENDBRANCH  26  27
ENDBRANCH  24  26
ENDBRANCH  23  24
ENDBRANCH  22  23
ENDBRANCH  19  22
BRANCH  21  30
HETATM   30  C   UNL     1      -6.438   9.592  67.936  1.00  0.00    -0.062 C  
BRANCH  30  31
HETATM   31  O   UNL     1      -5.670   9.357  69.113  1.00  0.00    -0.036 OA 
BRANCH  31  32
HETATM   32  C   UNL     1      -5.937  10.214  70.125  1.00  0.00    -0.066 C  
HETATM   33  O   UNL     1      -6.667   9.986  71.081  1.00  0.00    -0.338 OA 
BRANCH  32  34
HETATM   34  O   UNL     1      -5.208  11.341  69.927  1.00  0.00    -0.052 OA 
BRANCH  34  35
HETATM   35  C   UNL     1      -5.948  12.574  69.836  1.00  0.00    -0.144 C  
HETATM   36  C   UNL     1      -5.515  13.274  68.551  1.00  0.00    -0.078 C  
HETATM   37  C   UNL     1      -5.653  13.464  71.038  1.00  0.00    -0.202 C  
ENDBRANCH  34  35
ENDBRANCH  32  34
ENDBRANCH  31  32
ENDBRANCH  30  31
ENDBRANCH  21  30
ENDBRANCH  16  17
ENDBRANCH   1  16
TORSDOF 14
ENDMDL
MODEL      209
REMARK 921   NORMALIZED FREE ENERGY PREDICTED BY IDOCK:   -4.48 KCAL/MOL
REMARK 922        TOTAL FREE ENERGY PREDICTED BY IDOCK:   -9.99 KCAL/MOL
REMARK 923 INTER-LIGAND FREE ENERGY PREDICTED BY IDOCK:   -8.78 KCAL/MOL
REMARK 924 INTRA-LIGAND FREE ENERGY PREDICTED BY IDOCK:   -1.21 KCAL/MOL
REMARK 927      BINDING AFFINITY PREDICTED BY RF-SCORE:    0.00 PKD
ROOT
HETATM    1  C   UNL     1      -9.823  10.117  68.957  1.00  0.00    -0.205 C  
HETATM    2  C   UNL     1     -10.437   9.253  67.858  1.00  0.00    -0.290 C  
ENDROOT
BRANCH   1   3
HETATM    3  C   UNL     1     -10.682  10.221  70.209  1.00  0.00    -0.250 C  
BRANCH   3   4
HETATM    4  N   UNL     1     -10.850   9.009  70.964  1.00  0.00    -0.252 NA 
HETATM    5  C   UNL     1     -12.074   8.499  71.270  1.00  0.00    -0.286 A  
HETATM    6  N   UNL     1     -14.157   7.059  72.075  1.00  0.00    -0.200 NA 
HETATM    7  C   UNL     1      -9.908   8.097  71.351  1.00  0.00    -0.174 A  
HETATM    8  N   UNL     1     -12.811   5.310  72.908  1.00  0.00    -0.083 NA 
HETATM    9  N   UNL     1     -13.273   9.052  71.027  1.00  0.00    -0.095 NA 
HETATM   10  C   UNL     1     -12.925   6.543  72.277  1.00  0.00     0.155 A  
HETATM   11  N   UNL     1     -10.451   7.052  71.931  1.00  0.00    -0.200 NA 
HETATM   12  C   UNL     1     -14.262   8.258  71.460  1.00  0.00    -0.403 A  
HETATM   13  C   UNL     1     -11.809   7.282  71.866  1.00  0.00    -0.297 A  
HETATM   14  H1  UNL     1     -13.623   4.772  73.207  1.00  0.00     0.000 HD 
HETATM   15  H2  UNL     1     -12.207   5.434  73.720  1.00  0.00     0.000 HD 
ENDBRANCH   3   4
ENDBRANCH   1   3
BRANCH   1  16
HETATM   16  O   UNL     1      -9.464  11.394  68.387  1.00  0.00    -0.183 OA 
BRANCH  16  17
HETATM   17  C   UNL     1     -10.329  11.891  67.337  1.00  0.00    -0.207 C  
HETATM   18  O   UNL     1     -11.807  13.452  68.394  1.00  0.00    -0.337 OA 
HETATM   19  O   UNL     1      -9.238  13.951  68.307  1.00  0.00    -0.199 OA 
HETATM   20  P   UNL     1     -10.624  13.693  67.454  1.00  0.00    -0.261 P  
HETATM   21  O   UNL     1     -10.902  15.397  67.563  1.00  0.00    -0.292 OA 
BRANCH  19  22
HETATM   22  C   UNL     1      -8.053  14.310  67.629  1.00  0.00    -0.179 C  
BRANCH  22  23
HETATM   23  O   UNL     1      -7.781  15.712  67.732  1.00  0.00    -0.128 OA 
BRANCH  23  24
HETATM   24  C   UNL     1      -6.486  16.043  67.499  1.00  0.00    -0.177 C  
HETATM   25  O   UNL     1      -5.546  15.260  67.453  1.00  0.00    -0.338 OA 
BRANCH  24  26
HETATM   26  O   UNL     1      -6.390  17.391  67.345  1.00  0.00    -0.133 OA 
BRANCH  26  27
HETATM   27  C   UNL     1      -6.872  17.903  66.084  1.00  0.00    -0.289 C  
HETATM   28  C   UNL     1      -8.201  18.614  66.312  1.00  0.00    -0.258 C  
HETATM   29  C   UNL     1      -5.845  18.871  65.507  1.00  0.00    -0.237 C  
ENDBRANCH  26  27
ENDBRANCH  24  26
ENDBRANCH  23  24
ENDBRANCH  22  23
ENDBRANCH  19  22
BRANCH  21  30
HETATM   30  C   UNL     1     -11.403  15.946  66.363  1.00  0.00     0.222 C  
BRANCH  30  31
HETATM   31  O   UNL     1     -12.058  14.964  65.567  1.00  0.00    -0.195 OA 
BRANCH  31  32
HETATM   32  C   UNL     1     -12.054  15.234  64.241  1.00  0.00    -0.208 C  
HETATM   33  O   UNL     1     -11.822  16.323  63.735  1.00  0.00    -0.955 OA 
BRANCH  32  34
HETATM   34  O   UNL     1     -12.292  14.077  63.575  1.00  0.00    -0.748 OA 
BRANCH  34  35
HETATM   35  C   UNL     1     -11.894  12.862  64.240  1.00  0.00    -0.395 C  
HETATM   36  C   UNL     1     -10.509  12.486  63.719  1.00  0.00    -0.451 C  
HETATM   37  C   UNL     1     -12.884  11.741  63.942  1.00  0.00    -0.252 C  
ENDBRANCH  34  35
ENDBRANCH  32  34
ENDBRANCH  31  32
ENDBRANCH  30  31
ENDBRANCH  21  30
ENDBRANCH  16  17
ENDBRANCH   1  16
TORSDOF 14
ENDMDL
MODEL      210
REMARK 921   NORMALIZED FREE ENERGY PREDICTED BY IDOCK:   -4.48 KCAL/MOL
REMARK 922        TOTAL FREE ENERGY PREDICTED BY IDOCK:   -9.99 KCAL/MOL
REMARK 923 INTER-LIGAND FREE ENERGY PREDICTED BY IDOCK:   -9.82 KCAL/MOL
REMARK 924 INTRA-LIGAND FREE ENERGY PREDICTED BY IDOCK:   -0.17 KCAL/MOL
REMARK 927      BINDING AFFINITY PREDICTED BY RF-SCORE:    0.00 PKD
ROOT
HETATM    1  C   UNL     1     -12.168  12.564  69.794  1.00  0.00    -0.132 C  
HETATM    2  C   UNL     1     -12.676  13.996  69.951  1.00  0.00    -0.059 C  
ENDROOT
BRANCH   1   3
HETATM    3  C   UNL     1     -12.304  11.722  71.055  1.00  0.00    -0.282 C  
BRANCH   3   4
HETATM    4  N   UNL     1     -11.742  10.400  70.997  1.00  0.00    -0.353 NA 
HETATM    5  C   UNL     1     -12.481   9.278  71.214  1.00  0.00    -0.316 A  
HETATM    6  N   UNL     1     -13.440   6.815  71.480  1.00  0.00    -0.186 NA 
HETATM    7  C   UNL     1     -10.501  10.009  70.579  1.00  0.00    -0.198 A  
HETATM    8  N   UNL     1     -11.406   5.799  70.849  1.00  0.00    -0.142 NA 
HETATM    9  N   UNL     1     -13.766   9.209  71.596  1.00  0.00    -0.387 NA 
HETATM   10  C   UNL     1     -12.156   6.946  71.078  1.00  0.00    -0.380 A  
HETATM   11  N   UNL     1     -10.382   8.701  70.559  1.00  0.00    -0.196 NA 
HETATM   12  C   UNL     1     -14.165   7.933  71.700  1.00  0.00    -0.459 A  
HETATM   13  C   UNL     1     -11.624   8.233  70.932  1.00  0.00    -0.262 A  
HETATM   14  H1  UNL     1     -11.793   4.862  70.955  1.00  0.00     0.000 HD 
HETATM   15  H2  UNL     1     -10.571   5.855  71.432  1.00  0.00     0.000 HD 
ENDBRANCH   3   4
ENDBRANCH   1   3
BRANCH   1  16
HETATM   16  O   UNL     1     -10.826  12.611  69.264  1.00  0.00    -0.132 OA 
BRANCH  16  17
HETATM   17  C   UNL     1     -10.573  11.800  68.090  1.00  0.00    -0.203 C  
HETATM   18  O   UNL     1     -12.391  12.237  66.593  1.00  0.00    -0.471 OA 
HETATM   19  O   UNL     1     -10.736  14.166  67.222  1.00  0.00    -0.275 OA 
HETATM   20  P   UNL     1     -10.929  12.684  66.528  1.00  0.00    -0.293 P  
HETATM   21  O   UNL     1     -11.265  13.519  65.050  1.00  0.00    -0.306 OA 
BRANCH  19  22
HETATM   22  C   UNL     1      -9.482  14.811  67.162  1.00  0.00    -0.227 C  
BRANCH  22  23
HETATM   23  O   UNL     1      -9.310  15.533  65.937  1.00  0.00    -0.338 OA 
BRANCH  23  24
HETATM   24  C   UNL     1      -8.950  16.830  66.106  1.00  0.00    -0.260 C  
HETATM   25  O   UNL     1      -7.866  17.314  65.806  1.00  0.00    -0.495 OA 
BRANCH  24  26
HETATM   26  O   UNL     1      -9.978  17.508  66.681  1.00  0.00    -0.286 OA 
BRANCH  26  27
HETATM   27  C   UNL     1      -9.737  18.914  66.913  1.00  0.00    -0.318 C  
HETATM   28  C   UNL     1     -10.518  19.727  65.886  1.00  0.00    -0.587 C  
HETATM   29  C   UNL     1     -10.183  19.275  68.326  1.00  0.00    -0.513 C  
ENDBRANCH  26  27
ENDBRANCH  24  26
ENDBRANCH  23  24
ENDBRANCH  22  23
ENDBRANCH  19  22
BRANCH  21  30
HETATM   30  C   UNL     1     -10.669  12.903  63.928  1.00  0.00    -0.357 C  
BRANCH  30  31
HETATM   31  O   UNL     1      -9.610  12.029  64.308  1.00  0.00    -0.119 OA 
BRANCH  31  32
HETATM   32  C   UNL     1      -9.471  10.949  63.506  1.00  0.00    -0.294 C  
HETATM   33  O   UNL     1      -9.091  10.967  62.342  1.00  0.00    -0.288 OA 
BRANCH  32  34
HETATM   34  O   UNL     1      -9.766   9.843  64.233  1.00  0.00    -0.252 OA 
BRANCH  34  35
HETATM   35  C   UNL     1      -8.646   9.105  64.759  1.00  0.00    -0.184 C  
HETATM   36  C   UNL     1      -7.978   8.390  63.588  1.00  0.00    -0.159 C  
HETATM   37  C   UNL     1      -9.116   8.086  65.792  1.00  0.00    -0.109 C  
ENDBRANCH  34  35
ENDBRANCH  32  34
ENDBRANCH  31  32
ENDBRANCH  30  31
ENDBRANCH  21  30
ENDBRANCH  16  17
ENDBRANCH   1  16
TORSDOF 14
ENDMDL
MODEL      211
REMARK 921   NORMALIZED FREE ENERGY PREDICTED BY IDOCK:   -4.48 KCAL/MOL
REMARK 922        TOTAL FREE ENERGY PREDICTED BY IDOCK:   -9.99 KCAL/MOL
REMARK 923 INTER-LIGAND FREE ENERGY PREDICTED BY IDOCK:   -8.82 KCAL/MOL
REMARK 924 INTRA-LIGAND FREE ENERGY PREDICTED BY IDOCK:   -1.17 KCAL/MOL
REMARK 927      BINDING AFFINITY PREDICTED BY RF-SCORE:    0.00 PKD
ROOT
HETATM    1  C   UNL     1     -10.894  16.090  65.893  1.00  0.00    -0.207 C  
HETATM    2  C   UNL     1     -11.198  15.367  64.582  1.00  0.00    -0.374 C  
ENDROOT
BRANCH   1   3
HETATM    3  C   UNL     1     -10.443  17.533  65.709  1.00  0.00    -0.207 C  
BRANCH   3   4
HETATM    4  N   UNL     1      -9.744  18.124  66.818  1.00  0.00    -0.309 NA 
HETATM    5  C   UNL     1      -8.409  18.382  66.791  1.00  0.00    -0.259 A  
HETATM    6  N   UNL     1      -5.903  19.139  67.247  1.00  0.00    -0.174 NA 
HETATM    7  C   UNL     1     -10.253  18.667  67.965  1.00  0.00    -0.385 A  
HETATM    8  N   UNL     1      -6.428  20.131  69.323  1.00  0.00    -0.317 NA 
HETATM    9  N   UNL     1      -7.534  18.059  65.825  1.00  0.00    -0.547 NA 
HETATM   10  C   UNL     1      -6.831  19.454  68.178  1.00  0.00    -0.267 A  
HETATM   11  N   UNL     1      -9.314  19.217  68.701  1.00  0.00    -0.377 NA 
HETATM   12  C   UNL     1      -6.301  18.483  66.136  1.00  0.00    -0.199 A  
HETATM   13  C   UNL     1      -8.158  19.065  67.965  1.00  0.00    -0.295 A  
HETATM   14  H1  UNL     1      -5.461  20.415  69.478  1.00  0.00     0.000 HD 
HETATM   15  H2  UNL     1      -6.719  19.577  70.127  1.00  0.00     0.000 HD 
ENDBRANCH   3   4
ENDBRANCH   1   3
BRANCH   1  16
HETATM   16  O   UNL     1      -9.972  15.283  66.657  1.00  0.00    -0.241 OA 
BRANCH  16  17
HETATM   17  C   UNL     1     -10.329  15.039  68.039  1.00  0.00    -0.236 C  
HETATM   18  O   UNL     1     -12.498  14.027  67.984  1.00  0.00    -0.110 OA 
HETATM   19  O   UNL     1     -10.455  12.775  66.929  1.00  0.00    -0.239 OA 
HETATM   20  P   UNL     1     -11.130  13.414  68.290  1.00  0.00    -0.296 P  
HETATM   21  O   UNL     1     -11.888  11.877  68.527  1.00  0.00    -0.308 OA 
BRANCH  19  22
HETATM   22  C   UNL     1      -9.243  12.058  67.018  1.00  0.00    -0.195 C  
BRANCH  22  23
HETATM   23  O   UNL     1      -8.576  12.285  68.265  1.00  0.00    -0.174 OA 
BRANCH  23  24
HETATM   24  C   UNL     1      -7.339  12.828  68.140  1.00  0.00    -0.118 C  
HETATM   25  O   UNL     1      -7.050  13.792  67.445  1.00  0.00    -0.171 OA 
BRANCH  24  26
HETATM   26  O   UNL     1      -6.461  12.117  68.897  1.00  0.00    -0.075 OA 
BRANCH  26  27
HETATM   27  C   UNL     1      -5.711  11.108  68.187  1.00  0.00    -0.045 C  
HETATM   28  C   UNL     1      -6.455   9.780  68.279  1.00  0.00    -0.056 C  
HETATM   29  C   UNL     1      -5.556  11.528  66.729  1.00  0.00    -0.138 C  
ENDBRANCH  26  27
ENDBRANCH  24  26
ENDBRANCH  23  24
ENDBRANCH  22  23
ENDBRANCH  19  22
BRANCH  21  30
HETATM   30  C   UNL     1     -11.883  11.470  69.879  1.00  0.00    -0.355 C  
BRANCH  30  31
HETATM   31  O   UNL     1     -11.645  10.071  70.007  1.00  0.00    -0.249 OA 
BRANCH  31  32
HETATM   32  C   UNL     1     -12.232   9.507  71.088  1.00  0.00    -0.338 C  
HETATM   33  O   UNL     1     -12.737  10.113  72.024  1.00  0.00    -0.397 OA 
BRANCH  32  34
HETATM   34  O   UNL     1     -12.217   8.162  70.921  1.00  0.00    -0.233 OA 
BRANCH  34  35
HETATM   35  C   UNL     1     -10.926   7.557  70.713  1.00  0.00    -0.252 C  
HETATM   36  C   UNL     1     -11.120   6.375  69.768  1.00  0.00    -0.459 C  
HETATM   37  C   UNL     1     -10.343   7.074  72.037  1.00  0.00    -0.220 C  
ENDBRANCH  34  35
ENDBRANCH  32  34
ENDBRANCH  31  32
ENDBRANCH  30  31
ENDBRANCH  21  30
ENDBRANCH  16  17
ENDBRANCH   1  16
TORSDOF 14
ENDMDL
MODEL      212
REMARK 921   NORMALIZED FREE ENERGY PREDICTED BY IDOCK:   -4.48 KCAL/MOL
REMARK 922        TOTAL FREE ENERGY PREDICTED BY IDOCK:   -9.98 KCAL/MOL
REMARK 923 INTER-LIGAND FREE ENERGY PREDICTED BY IDOCK:   -8.15 KCAL/MOL
REMARK 924 INTRA-LIGAND FREE ENERGY PREDICTED BY IDOCK:   -1.83 KCAL/MOL
REMARK 927      BINDING AFFINITY PREDICTED BY RF-SCORE:    0.00 PKD
ROOT
HETATM    1  C   UNL     1      -9.347  10.438  66.428  1.00  0.00    -0.164 C  
HETATM    2  C   UNL     1      -8.000  10.479  67.146  1.00  0.00    -0.116 C  
ENDROOT
BRANCH   1   3
HETATM    3  C   UNL     1     -10.409  11.326  67.064  1.00  0.00    -0.227 C  
BRANCH   3   4
HETATM    4  N   UNL     1     -10.543  12.647  66.511  1.00  0.00    -0.251 NA 
HETATM    5  C   UNL     1     -11.219  12.893  65.356  1.00  0.00    -0.283 A  
HETATM    6  N   UNL     1     -12.440  13.929  63.235  1.00  0.00    -0.731 NA 
HETATM    7  C   UNL     1     -10.206  13.850  67.064  1.00  0.00    -0.254 A  
HETATM    8  N   UNL     1     -11.972  16.153  63.871  1.00  0.00    -1.332 NA 
HETATM    9  N   UNL     1     -11.762  11.995  64.520  1.00  0.00    -0.329 NA 
HETATM   10  C   UNL     1     -11.890  14.788  64.122  1.00  0.00    -0.214 A  
HETATM   11  N   UNL     1     -10.582  14.857  66.309  1.00  0.00    -0.299 NA 
HETATM   12  C   UNL     1     -12.358  12.604  63.485  1.00  0.00    -0.496 A  
HETATM   13  C   UNL     1     -11.238  14.270  65.247  1.00  0.00    -0.337 A  
HETATM   14  H1  UNL     1     -12.447  16.530  63.052  1.00  0.00     0.000 HD 
HETATM   15  H2  UNL     1     -11.022  16.524  63.875  1.00  0.00     0.000 HD 
ENDBRANCH   3   4
ENDBRANCH   1   3
BRANCH   1  16
HETATM   16  O   UNL     1      -9.748   9.059  66.286  1.00  0.00    -0.235 OA 
BRANCH  16  17
HETATM   17  C   UNL     1     -10.109   8.369  67.508  1.00  0.00    -0.218 C  
HETATM   18  O   UNL     1     -11.411   6.477  66.828  1.00  0.00    -0.272 OA 
HETATM   19  O   UNL     1      -8.894   6.642  66.124  1.00  0.00    -0.147 OA 
HETATM   20  P   UNL     1      -9.979   6.550  67.362  1.00  0.00    -0.181 P  
HETATM   21  O   UNL     1      -9.855   4.830  67.224  1.00  0.00    -0.169 OA 
BRANCH  19  22
HETATM   22  C   UNL     1      -7.511   6.599  66.399  1.00  0.00    -0.085 C  
BRANCH  22  23
HETATM   23  O   UNL     1      -7.246   6.536  67.806  1.00  0.00    -0.085 OA 
BRANCH  23  24
HETATM   24  C   UNL     1      -6.325   7.434  68.236  1.00  0.00    -0.040 C  
HETATM   25  O   UNL     1      -5.527   8.034  67.527  1.00  0.00    -0.035 OA 
BRANCH  24  26
HETATM   26  O   UNL     1      -6.412   7.551  69.588  1.00  0.00    -0.034 OA 
BRANCH  26  27
HETATM   27  C   UNL     1      -7.092   8.734  70.062  1.00  0.00    -0.047 C  
HETATM   28  C   UNL     1      -8.367   8.317  70.787  1.00  0.00    -0.127 C  
HETATM   29  C   UNL     1      -6.171   9.499  71.007  1.00  0.00    -0.079 C  
ENDBRANCH  26  27
ENDBRANCH  24  26
ENDBRANCH  23  24
ENDBRANCH  22  23
ENDBRANCH  19  22
BRANCH  21  30
HETATM   30  C   UNL     1      -9.822   4.184  68.479  1.00  0.00    -0.015 C  
BRANCH  30  31
HETATM   31  O   UNL     1      -9.336   5.046  69.503  1.00  0.00    -0.111 OA 
BRANCH  31  32
HETATM   32  C   UNL     1      -9.205   4.451  70.711  1.00  0.00    -0.138 C  
HETATM   33  O   UNL     1      -8.176   3.958  71.157  1.00  0.00    -0.069 OA 
BRANCH  32  34
HETATM   34  O   UNL     1     -10.391   4.550  71.360  1.00  0.00    -0.152 OA 
BRANCH  34  35
HETATM   35  C   UNL     1     -10.470   5.545  72.400  1.00  0.00    -0.214 C  
HETATM   36  C   UNL     1     -11.147   4.897  73.604  1.00  0.00    -0.370 C  
HETATM   37  C   UNL     1     -11.284   6.745  71.928  1.00  0.00    -0.294 C  
ENDBRANCH  34  35
ENDBRANCH  32  34
ENDBRANCH  31  32
ENDBRANCH  30  31
ENDBRANCH  21  30
ENDBRANCH  16  17
ENDBRANCH   1  16
TORSDOF 14
ENDMDL
MODEL      213
REMARK 921   NORMALIZED FREE ENERGY PREDICTED BY IDOCK:   -4.47 KCAL/MOL
REMARK 922        TOTAL FREE ENERGY PREDICTED BY IDOCK:   -9.97 KCAL/MOL
REMARK 923 INTER-LIGAND FREE ENERGY PREDICTED BY IDOCK:   -8.19 KCAL/MOL
REMARK 924 INTRA-LIGAND FREE ENERGY PREDICTED BY IDOCK:   -1.79 KCAL/MOL
REMARK 927      BINDING AFFINITY PREDICTED BY RF-SCORE:    0.00 PKD
ROOT
HETATM    1  C   UNL     1     -11.220  12.971  66.783  1.00  0.00    -0.298 C  
HETATM    2  C   UNL     1     -11.386  13.790  65.504  1.00  0.00    -0.313 C  
ENDROOT
BRANCH   1   3
HETATM    3  C   UNL     1     -10.627  13.758  67.944  1.00  0.00    -0.252 C  
BRANCH   3   4
HETATM    4  N   UNL     1     -11.542  14.130  68.989  1.00  0.00    -0.282 NA 
HETATM    5  C   UNL     1     -12.048  13.231  69.876  1.00  0.00    -0.308 A  
HETATM    6  N   UNL     1     -13.261  11.944  71.859  1.00  0.00    -0.449 NA 
HETATM    7  C   UNL     1     -11.928  15.378  69.391  1.00  0.00    -0.327 A  
HETATM    8  N   UNL     1     -14.146  13.922  72.794  1.00  0.00    -0.597 NA 
HETATM    9  N   UNL     1     -11.877  11.899  69.876  1.00  0.00    -0.340 NA 
HETATM   10  C   UNL     1     -13.383  13.290  71.819  1.00  0.00    -0.393 A  
HETATM   11  N   UNL     1     -12.694  15.332  70.457  1.00  0.00    -0.395 NA 
HETATM   12  C   UNL     1     -12.517  11.336  70.910  1.00  0.00    -0.394 A  
HETATM   13  C   UNL     1     -12.757  13.993  70.783  1.00  0.00    -0.326 A  
HETATM   14  H1  UNL     1     -14.602  13.410  73.549  1.00  0.00     0.000 HD 
HETATM   15  H2  UNL     1     -14.861  14.471  72.318  1.00  0.00     0.000 HD 
ENDBRANCH   3   4
ENDBRANCH   1   3
BRANCH   1  16
HETATM   16  O   UNL     1     -10.493  11.766  66.463  1.00  0.00    -0.218 OA 
BRANCH  16  17
HETATM   17  C   UNL     1      -9.110  11.720  66.892  1.00  0.00    -0.192 C  
HETATM   18  O   UNL     1      -9.156  10.952  69.160  1.00  0.00    -0.142 OA 
HETATM   19  O   UNL     1      -9.973   9.373  67.237  1.00  0.00    -0.171 OA 
HETATM   20  P   UNL     1      -8.723  10.231  67.882  1.00  0.00    -0.122 P  
HETATM   21  O   UNL     1      -8.355   8.822  68.817  1.00  0.00    -0.121 OA 
BRANCH  19  22
HETATM   22  C   UNL     1      -9.751   8.541  66.119  1.00  0.00    -0.189 C  
BRANCH  22  23
HETATM   23  O   UNL     1      -9.881   7.153  66.450  1.00  0.00    -0.150 OA 
BRANCH  23  24
HETATM   24  C   UNL     1      -8.888   6.371  65.955  1.00  0.00    -0.131 C  
HETATM   25  O   UNL     1      -7.707   6.682  65.876  1.00  0.00    -0.084 OA 
BRANCH  24  26
HETATM   26  O   UNL     1      -9.417   5.190  65.537  1.00  0.00    -0.152 OA 
BRANCH  26  27
HETATM   27  C   UNL     1      -8.795   4.008  66.089  1.00  0.00    -0.120 C  
HETATM   28  C   UNL     1      -9.451   3.681  67.426  1.00  0.00    -0.238 C  
HETATM   29  C   UNL     1      -8.969   2.847  65.115  1.00  0.00    -0.134 C  
ENDBRANCH  26  27
ENDBRANCH  24  26
ENDBRANCH  23  24
ENDBRANCH  22  23
ENDBRANCH  19  22
BRANCH  21  30
HETATM   30  C   UNL     1      -6.969   8.572  68.904  1.00  0.00    -0.062 C  
BRANCH  30  31
HETATM   31  O   UNL     1      -6.437   8.988  70.158  1.00  0.00    -0.040 OA 
BRANCH  31  32
HETATM   32  C   UNL     1      -6.765   8.181  71.193  1.00  0.00    -0.044 C  
HETATM   33  O   UNL     1      -6.260   7.093  71.439  1.00  0.00    -0.037 OA 
BRANCH  32  34
HETATM   34  O   UNL     1      -7.703   8.814  71.941  1.00  0.00    -0.265 OA 
BRANCH  34  35
HETATM   35  C   UNL     1      -8.861   8.038  72.306  1.00  0.00    -0.166 C  
HETATM   36  C   UNL     1     -10.095   8.829  71.883  1.00  0.00    -0.409 C  
HETATM   37  C   UNL     1      -8.888   7.797  73.812  1.00  0.00    -0.326 C  
ENDBRANCH  34  35
ENDBRANCH  32  34
ENDBRANCH  31  32
ENDBRANCH  30  31
ENDBRANCH  21  30
ENDBRANCH  16  17
ENDBRANCH   1  16
TORSDOF 14
ENDMDL
MODEL      214
REMARK 921   NORMALIZED FREE ENERGY PREDICTED BY IDOCK:   -4.47 KCAL/MOL
REMARK 922        TOTAL FREE ENERGY PREDICTED BY IDOCK:   -9.97 KCAL/MOL
REMARK 923 INTER-LIGAND FREE ENERGY PREDICTED BY IDOCK:   -7.76 KCAL/MOL
REMARK 924 INTRA-LIGAND FREE ENERGY PREDICTED BY IDOCK:   -2.21 KCAL/MOL
REMARK 927      BINDING AFFINITY PREDICTED BY RF-SCORE:    0.00 PKD
ROOT
HETATM    1  C   UNL     1      -7.540   7.649  69.567  1.00  0.00    -0.098 C  
HETATM    2  C   UNL     1      -6.155   7.289  69.033  1.00  0.00    -0.027 C  
ENDROOT
BRANCH   1   3
HETATM    3  C   UNL     1      -8.475   6.454  69.702  1.00  0.00    -0.130 C  
BRANCH   3   4
HETATM    4  N   UNL     1      -9.405   6.253  68.623  1.00  0.00    -0.123 NA 
HETATM    5  C   UNL     1      -9.183   5.358  67.622  1.00  0.00    -0.112 A  
HETATM    6  N   UNL     1      -9.288   3.755  65.506  1.00  0.00    -0.153 NA 
HETATM    7  C   UNL     1     -10.673   6.741  68.477  1.00  0.00    -0.231 A  
HETATM    8  N   UNL     1     -11.475   4.422  64.927  1.00  0.00    -1.068 NA 
HETATM    9  N   UNL     1      -8.081   4.620  67.416  1.00  0.00    -0.101 NA 
HETATM   10  C   UNL     1     -10.377   4.508  65.775  1.00  0.00    -0.258 A  
HETATM   11  N   UNL     1     -11.264   6.249  67.412  1.00  0.00    -0.268 NA 
HETATM   12  C   UNL     1      -8.224   3.841  66.334  1.00  0.00    -0.100 A  
HETATM   13  C   UNL     1     -10.348   5.364  66.882  1.00  0.00    -0.260 A  
HETATM   14  H1  UNL     1     -11.497   3.798  64.121  1.00  0.00     0.000 HD 
HETATM   15  H2  UNL     1     -11.682   5.364  64.594  1.00  0.00     0.000 HD 
ENDBRANCH   3   4
ENDBRANCH   1   3
BRANCH   1  16
HETATM   16  O   UNL     1      -8.075   8.721  68.762  1.00  0.00    -0.111 OA 
BRANCH  16  17
HETATM   17  C   UNL     1      -8.387   9.951  69.462  1.00  0.00    -0.168 C  
HETATM   18  O   UNL     1      -6.278  10.918  70.053  1.00  0.00    -0.101 OA 
HETATM   19  O   UNL     1      -6.926  10.659  67.529  1.00  0.00    -0.080 OA 
HETATM   20  P   UNL     1      -7.292  11.337  68.986  1.00  0.00    -0.062 P  
HETATM   21  O   UNL     1      -6.257  12.648  68.536  1.00  0.00    -0.061 OA 
BRANCH  19  22
HETATM   22  C   UNL     1      -7.671  11.012  66.384  1.00  0.00    -0.146 C  
BRANCH  22  23
HETATM   23  O   UNL     1      -8.993  11.448  66.719  1.00  0.00    -0.165 OA 
BRANCH  23  24
HETATM   24  C   UNL     1      -9.979  10.768  66.082  1.00  0.00    -0.232 C  
HETATM   25  O   UNL     1     -10.156   9.558  66.130  1.00  0.00    -0.284 OA 
BRANCH  24  26
HETATM   26  O   UNL     1     -10.731  11.642  65.362  1.00  0.00    -0.276 OA 
BRANCH  26  27
HETATM   27  C   UNL     1     -11.015  11.237  64.004  1.00  0.00    -0.303 C  
HETATM   28  C   UNL     1     -12.220  12.020  63.494  1.00  0.00    -0.653 C  
HETATM   29  C   UNL     1      -9.795  11.514  63.131  1.00  0.00    -0.413 C  
ENDBRANCH  26  27
ENDBRANCH  24  26
ENDBRANCH  23  24
ENDBRANCH  22  23
ENDBRANCH  19  22
BRANCH  21  30
HETATM   30  C   UNL     1      -6.782  13.907  68.900  1.00  0.00    -0.106 C  
BRANCH  30  31
HETATM   31  O   UNL     1      -8.006  14.181  68.226  1.00  0.00    -0.123 OA 
BRANCH  31  32
HETATM   32  C   UNL     1      -8.493  15.424  68.450  1.00  0.00    -0.160 C  
HETATM   33  O   UNL     1      -7.920  16.317  69.061  1.00  0.00    -0.222 OA 
BRANCH  32  34
HETATM   34  O   UNL     1      -9.695  15.524  67.829  1.00  0.00    -0.211 OA 
BRANCH  34  35
HETATM   35  C   UNL     1     -10.627  14.450  68.063  1.00  0.00    -0.241 C  
HETATM   36  C   UNL     1     -11.656  14.483  66.937  1.00  0.00    -0.399 C  
HETATM   37  C   UNL     1     -11.322  14.631  69.409  1.00  0.00    -0.314 C  
ENDBRANCH  34  35
ENDBRANCH  32  34
ENDBRANCH  31  32
ENDBRANCH  30  31
ENDBRANCH  21  30
ENDBRANCH  16  17
ENDBRANCH   1  16
TORSDOF 14
ENDMDL
MODEL      215
REMARK 921   NORMALIZED FREE ENERGY PREDICTED BY IDOCK:   -4.47 KCAL/MOL
REMARK 922        TOTAL FREE ENERGY PREDICTED BY IDOCK:   -9.97 KCAL/MOL
REMARK 923 INTER-LIGAND FREE ENERGY PREDICTED BY IDOCK:   -8.91 KCAL/MOL
REMARK 924 INTRA-LIGAND FREE ENERGY PREDICTED BY IDOCK:   -1.06 KCAL/MOL
REMARK 927      BINDING AFFINITY PREDICTED BY RF-SCORE:    0.00 PKD
ROOT
HETATM    1  C   UNL     1      -9.831   8.376  66.835  1.00  0.00    -0.245 C  
HETATM    2  C   UNL     1     -10.361   7.220  67.680  1.00  0.00    -0.290 C  
ENDROOT
BRANCH   1   3
HETATM    3  C   UNL     1      -8.347   8.653  67.035  1.00  0.00    -0.106 C  
BRANCH   3   4
HETATM    4  N   UNL     1      -7.875   8.624  68.393  1.00  0.00    -0.104 NA 
HETATM    5  C   UNL     1      -7.030   7.662  68.855  1.00  0.00    -0.070 A  
HETATM    6  N   UNL     1      -5.375   6.109  70.237  1.00  0.00    -0.013 NA 
HETATM    7  C   UNL     1      -8.018   9.563  69.375  1.00  0.00    -0.099 A  
HETATM    8  N   UNL     1      -5.441   7.492  72.148  1.00  0.00    -0.036 NA 
HETATM    9  N   UNL     1      -6.590   6.578  68.198  1.00  0.00    -0.056 NA 
HETATM   10  C   UNL     1      -5.835   7.227  70.841  1.00  0.00    -0.031 A  
HETATM   11  N   UNL     1      -7.353   9.240  70.460  1.00  0.00    -0.102 NA 
HETATM   12  C   UNL     1      -5.760   5.858  68.966  1.00  0.00    -0.012 A  
HETATM   13  C   UNL     1      -6.711   8.062  70.138  1.00  0.00    -0.037 A  
HETATM   14  H1  UNL     1      -4.803   6.884  72.660  1.00  0.00     0.000 HD 
HETATM   15  H2  UNL     1      -6.286   7.596  72.709  1.00  0.00     0.000 HD 
ENDBRANCH   3   4
ENDBRANCH   1   3
BRANCH   1  16
HETATM   16  O   UNL     1     -10.675   9.526  67.053  1.00  0.00    -0.231 OA 
BRANCH  16  17
HETATM   17  C   UNL     1     -10.061  10.820  66.832  1.00  0.00    -0.212 C  
HETATM   18  O   UNL     1     -11.718  12.146  65.722  1.00  0.00    -0.385 OA 
HETATM   19  O   UNL     1     -12.147  11.312  68.166  1.00  0.00    -0.635 OA 
HETATM   20  P   UNL     1     -11.202  12.212  67.160  1.00  0.00    -0.349 P  
HETATM   21  O   UNL     1     -12.280  13.529  67.472  1.00  0.00    -0.325 OA 
BRANCH  19  22
HETATM   22  C   UNL     1     -11.911  11.333  69.557  1.00  0.00    -0.357 C  
BRANCH  22  23
HETATM   23  O   UNL     1     -11.967  12.662  70.090  1.00  0.00    -0.346 OA 
BRANCH  23  24
HETATM   24  C   UNL     1     -12.801  12.798  71.151  1.00  0.00    -0.226 C  
HETATM   25  O   UNL     1     -13.222  11.886  71.849  1.00  0.00    -0.482 OA 
BRANCH  24  26
HETATM   26  O   UNL     1     -13.113  14.112  71.308  1.00  0.00    -0.334 OA 
BRANCH  26  27
HETATM   27  C   UNL     1     -12.304  14.828  72.267  1.00  0.00    -0.320 C  
HETATM   28  C   UNL     1     -11.921  16.182  71.680  1.00  0.00    -0.528 C  
HETATM   29  C   UNL     1     -13.097  15.015  73.556  1.00  0.00    -0.445 C  
ENDBRANCH  26  27
ENDBRANCH  24  26
ENDBRANCH  23  24
ENDBRANCH  22  23
ENDBRANCH  19  22
BRANCH  21  30
HETATM   30  C   UNL     1     -11.606  14.758  67.639  1.00  0.00    -0.354 C  
BRANCH  30  31
HETATM   31  O   UNL     1     -11.436  15.438  66.399  1.00  0.00    -0.175 OA 
BRANCH  31  32
HETATM   32  C   UNL     1     -10.176  15.879  66.178  1.00  0.00    -0.324 C  
HETATM   33  O   UNL     1      -9.175  15.176  66.110  1.00  0.00    -0.295 OA 
BRANCH  32  34
HETATM   34  O   UNL     1     -10.226  17.220  65.985  1.00  0.00    -0.397 OA 
BRANCH  34  35
HETATM   35  C   UNL     1     -10.450  18.027  67.158  1.00  0.00    -0.367 C  
HETATM   36  C   UNL     1     -11.016  19.365  66.692  1.00  0.00    -0.339 C  
HETATM   37  C   UNL     1      -9.143  18.249  67.912  1.00  0.00    -0.288 C  
ENDBRANCH  34  35
ENDBRANCH  32  34
ENDBRANCH  31  32
ENDBRANCH  30  31
ENDBRANCH  21  30
ENDBRANCH  16  17
ENDBRANCH   1  16
TORSDOF 14
ENDMDL
MODEL      216
REMARK 921   NORMALIZED FREE ENERGY PREDICTED BY IDOCK:   -4.44 KCAL/MOL
REMARK 922        TOTAL FREE ENERGY PREDICTED BY IDOCK:   -9.91 KCAL/MOL
REMARK 923 INTER-LIGAND FREE ENERGY PREDICTED BY IDOCK:   -9.65 KCAL/MOL
REMARK 924 INTRA-LIGAND FREE ENERGY PREDICTED BY IDOCK:   -0.26 KCAL/MOL
REMARK 927      BINDING AFFINITY PREDICTED BY RF-SCORE:    0.00 PKD
ROOT
HETATM    1  C   UNL     1      -9.637   8.314  71.448  1.00  0.00    -0.177 C  
HETATM    2  C   UNL     1      -8.472   7.902  70.551  1.00  0.00    -0.126 C  
ENDROOT
BRANCH   1   3
HETATM    3  C   UNL     1     -10.640   7.197  71.705  1.00  0.00    -0.206 C  
BRANCH   3   4
HETATM    4  N   UNL     1     -10.246   6.203  72.667  1.00  0.00    -0.179 NA 
HETATM    5  C   UNL     1      -9.988   4.912  72.323  1.00  0.00    -0.179 A  
HETATM    6  N   UNL     1      -9.320   2.342  72.205  1.00  0.00    -0.087 NA 
HETATM    7  C   UNL     1      -9.907   6.363  73.981  1.00  0.00    -0.258 A  
HETATM    8  N   UNL     1      -8.696   2.251  74.479  1.00  0.00    -0.068 NA 
HETATM    9  N   UNL     1     -10.141   4.341  71.118  1.00  0.00    -0.150 NA 
HETATM   10  C   UNL     1      -9.168   2.975  73.390  1.00  0.00    -0.085 A  
HETATM   11  N   UNL     1      -9.490   5.238  74.517  1.00  0.00    -0.132 NA 
HETATM   12  C   UNL     1      -9.777   3.051  71.150  1.00  0.00    -0.122 A  
HETATM   13  C   UNL     1      -9.515   4.328  73.482  1.00  0.00    -0.113 A  
HETATM   14  H1  UNL     1      -8.443   1.266  74.413  1.00  0.00     0.000 HD 
HETATM   15  H2  UNL     1      -9.380   2.344  75.230  1.00  0.00     0.000 HD 
ENDBRANCH   3   4
ENDBRANCH   1   3
BRANCH   1  16
HETATM   16  O   UNL     1     -10.228   9.515  70.907  1.00  0.00    -0.292 OA 
BRANCH  16  17
HETATM   17  C   UNL     1      -9.575  10.081  69.744  1.00  0.00    -0.216 C  
HETATM   18  O   UNL     1     -10.749   9.208  67.848  1.00  0.00    -0.230 OA 
HETATM   19  O   UNL     1     -11.993  10.779  69.533  1.00  0.00    -0.300 OA 
HETATM   20  P   UNL     1     -10.759  10.613  68.454  1.00  0.00    -0.266 P  
HETATM   21  O   UNL     1     -11.877  11.116  67.234  1.00  0.00    -0.525 OA 
BRANCH  19  22
HETATM   22  C   UNL     1     -12.248  12.038  70.118  1.00  0.00    -0.231 C  
BRANCH  22  23
HETATM   23  O   UNL     1     -12.652  11.920  71.488  1.00  0.00    -0.291 OA 
BRANCH  23  24
HETATM   24  C   UNL     1     -13.201  13.049  72.002  1.00  0.00    -0.444 C  
HETATM   25  O   UNL     1     -14.252  13.111  72.625  1.00  0.00    -0.677 OA 
BRANCH  24  26
HETATM   26  O   UNL     1     -12.407  14.110  71.697  1.00  0.00    -0.325 OA 
BRANCH  26  27
HETATM   27  C   UNL     1     -12.633  15.296  72.490  1.00  0.00    -0.359 C  
HETATM   28  C   UNL     1     -12.323  14.984  73.950  1.00  0.00    -0.658 C  
HETATM   29  C   UNL     1     -11.731  16.418  71.985  1.00  0.00    -0.434 C  
ENDBRANCH  26  27
ENDBRANCH  24  26
ENDBRANCH  23  24
ENDBRANCH  22  23
ENDBRANCH  19  22
BRANCH  21  30
HETATM   30  C   UNL     1     -11.301  12.001  66.297  1.00  0.00    -0.357 C  
BRANCH  30  31
HETATM   31  O   UNL     1     -12.088  13.175  66.128  1.00  0.00    -0.407 OA 
BRANCH  31  32
HETATM   32  C   UNL     1     -11.636  14.248  66.818  1.00  0.00    -0.391 C  
HETATM   33  O   UNL     1     -12.111  14.678  67.861  1.00  0.00    -0.304 OA 
BRANCH  32  34
HETATM   34  O   UNL     1     -10.534  14.722  66.186  1.00  0.00    -0.285 OA 
BRANCH  34  35
HETATM   35  C   UNL     1      -9.287  14.598  66.896  1.00  0.00    -0.243 C  
HETATM   36  C   UNL     1      -9.605  14.627  68.389  1.00  0.00    -0.217 C  
HETATM   37  C   UNL     1      -8.353  15.751  66.541  1.00  0.00    -0.313 C  
ENDBRANCH  34  35
ENDBRANCH  32  34
ENDBRANCH  31  32
ENDBRANCH  30  31
ENDBRANCH  21  30
ENDBRANCH  16  17
ENDBRANCH   1  16
TORSDOF 14
ENDMDL
MODEL      217
REMARK 921   NORMALIZED FREE ENERGY PREDICTED BY IDOCK:   -4.43 KCAL/MOL
REMARK 922        TOTAL FREE ENERGY PREDICTED BY IDOCK:   -9.90 KCAL/MOL
REMARK 923 INTER-LIGAND FREE ENERGY PREDICTED BY IDOCK:   -8.75 KCAL/MOL
REMARK 924 INTRA-LIGAND FREE ENERGY PREDICTED BY IDOCK:   -1.15 KCAL/MOL
REMARK 927      BINDING AFFINITY PREDICTED BY RF-SCORE:    0.00 PKD
ROOT
HETATM    1  C   UNL     1     -11.436  14.091  65.758  1.00  0.00    -0.318 C  
HETATM    2  C   UNL     1     -12.419  13.955  64.597  1.00  0.00    -0.361 C  
ENDROOT
BRANCH   1   3
HETATM    3  C   UNL     1     -10.485  15.272  65.623  1.00  0.00    -0.358 C  
BRANCH   3   4
HETATM    4  N   UNL     1     -10.359  16.120  66.778  1.00  0.00    -0.287 NA 
HETATM    5  C   UNL     1     -10.351  17.478  66.694  1.00  0.00    -0.319 A  
HETATM    6  N   UNL     1     -10.340  20.102  67.109  1.00  0.00    -0.405 NA 
HETATM    7  C   UNL     1     -10.394  15.781  68.102  1.00  0.00    -0.242 A  
HETATM    8  N   UNL     1     -10.339  19.877  69.457  1.00  0.00    -0.555 NA 
HETATM    9  N   UNL     1     -10.357  18.227  65.581  1.00  0.00    -0.597 NA 
HETATM   10  C   UNL     1     -10.354  19.297  68.195  1.00  0.00    -0.397 A  
HETATM   11  N   UNL     1     -10.360  16.841  68.877  1.00  0.00    -0.297 NA 
HETATM   12  C   UNL     1     -10.355  19.533  65.884  1.00  0.00    -0.470 A  
HETATM   13  C   UNL     1     -10.357  17.911  68.005  1.00  0.00    -0.387 A  
HETATM   14  H1  UNL     1     -10.338  20.888  69.595  1.00  0.00     0.000 HD 
HETATM   15  H2  UNL     1      -9.540  19.496  69.963  1.00  0.00     0.000 HD 
ENDBRANCH   3   4
ENDBRANCH   1   3
BRANCH   1  16
HETATM   16  O   UNL     1     -10.770  12.824  65.944  1.00  0.00    -0.264 OA 
BRANCH  16  17
HETATM   17  C   UNL     1     -10.417  12.481  67.307  1.00  0.00    -0.220 C  
HETATM   18  O   UNL     1     -12.157  11.033  68.088  1.00  0.00    -0.610 OA 
HETATM   19  O   UNL     1     -10.618  10.265  66.113  1.00  0.00    -0.161 OA 
HETATM   20  P   UNL     1     -10.712  10.717  67.695  1.00  0.00    -0.298 P  
HETATM   21  O   UNL     1     -10.991   9.050  68.062  1.00  0.00    -0.101 OA 
BRANCH  19  22
HETATM   22  C   UNL     1      -9.389   9.819  65.583  1.00  0.00    -0.227 C  
BRANCH  22  23
HETATM   23  O   UNL     1      -9.134   8.446  65.904  1.00  0.00    -0.186 OA 
BRANCH  23  24
HETATM   24  C   UNL     1      -8.019   7.940  65.320  1.00  0.00    -0.126 C  
HETATM   25  O   UNL     1      -7.093   7.393  65.905  1.00  0.00    -0.063 OA 
BRANCH  24  26
HETATM   26  O   UNL     1      -8.082   8.152  63.979  1.00  0.00    -0.157 OA 
BRANCH  26  27
HETATM   27  C   UNL     1      -6.805   8.216  63.305  1.00  0.00    -0.084 C  
HETATM   28  C   UNL     1      -6.663   7.001  62.396  1.00  0.00    -0.052 C  
HETATM   29  C   UNL     1      -6.731   9.502  62.487  1.00  0.00    -0.096 C  
ENDBRANCH  26  27
ENDBRANCH  24  26
ENDBRANCH  23  24
ENDBRANCH  22  23
ENDBRANCH  19  22
BRANCH  21  30
HETATM   30  C   UNL     1     -10.306   8.625  69.221  1.00  0.00    -0.221 C  
BRANCH  30  31
HETATM   31  O   UNL     1      -8.949   8.295  68.938  1.00  0.00    -0.143 OA 
BRANCH  31  32
HETATM   32  C   UNL     1      -8.534   7.135  69.499  1.00  0.00    -0.134 C  
HETATM   33  O   UNL     1      -7.870   6.270  68.943  1.00  0.00    -0.102 OA 
BRANCH  32  34
HETATM   34  O   UNL     1      -8.931   7.129  70.796  1.00  0.00    -0.151 OA 
BRANCH  34  35
HETATM   35  C   UNL     1      -7.888   7.239  71.784  1.00  0.00    -0.091 C  
HETATM   36  C   UNL     1      -7.874   5.939  72.583  1.00  0.00    -0.101 C  
HETATM   37  C   UNL     1      -8.156   8.419  72.713  1.00  0.00    -0.168 C  
ENDBRANCH  34  35
ENDBRANCH  32  34
ENDBRANCH  31  32
ENDBRANCH  30  31
ENDBRANCH  21  30
ENDBRANCH  16  17
ENDBRANCH   1  16
TORSDOF 14
ENDMDL
MODEL      218
REMARK 921   NORMALIZED FREE ENERGY PREDICTED BY IDOCK:   -4.42 KCAL/MOL
REMARK 922        TOTAL FREE ENERGY PREDICTED BY IDOCK:   -9.87 KCAL/MOL
REMARK 923 INTER-LIGAND FREE ENERGY PREDICTED BY IDOCK:   -8.20 KCAL/MOL
REMARK 924 INTRA-LIGAND FREE ENERGY PREDICTED BY IDOCK:   -1.67 KCAL/MOL
REMARK 927      BINDING AFFINITY PREDICTED BY RF-SCORE:    0.00 PKD
ROOT
HETATM    1  C   UNL     1      -8.328   8.745  65.729  1.00  0.00    -0.134 C  
HETATM    2  C   UNL     1      -8.813   9.648  64.596  1.00  0.00    -0.253 C  
ENDROOT
BRANCH   1   3
HETATM    3  C   UNL     1      -8.891   7.331  65.670  1.00  0.00    -0.014 C  
BRANCH   3   4
HETATM    4  N   UNL     1      -7.950   6.266  65.894  1.00  0.00    -0.111 NA 
HETATM    5  C   UNL     1      -8.289   5.109  66.525  1.00  0.00    -0.108 A  
HETATM    6  N   UNL     1      -8.415   2.687  67.611  1.00  0.00    -0.083 NA 
HETATM    7  C   UNL     1      -6.680   6.123  65.411  1.00  0.00    -0.047 A  
HETATM    8  N   UNL     1      -6.212   2.130  66.977  1.00  0.00    -0.023 NA 
HETATM    9  N   UNL     1      -9.461   4.810  67.108  1.00  0.00    -0.139 NA 
HETATM   10  C   UNL     1      -7.265   3.037  66.993  1.00  0.00    -0.058 A  
HETATM   11  N   UNL     1      -6.162   4.961  65.737  1.00  0.00    -0.033 NA 
HETATM   12  C   UNL     1      -9.436   3.572  67.622  1.00  0.00    -0.183 A  
HETATM   13  C   UNL     1      -7.170   4.308  66.415  1.00  0.00    -0.075 A  
HETATM   14  H1  UNL     1      -6.281   1.204  67.398  1.00  0.00     0.000 HD 
HETATM   15  H2  UNL     1      -5.400   2.593  67.384  1.00  0.00     0.000 HD 
ENDBRANCH   3   4
ENDBRANCH   1   3
BRANCH   1  16
HETATM   16  O   UNL     1      -8.568   9.416  66.984  1.00  0.00    -0.126 OA 
BRANCH  16  17
HETATM   17  C   UNL     1      -9.440   8.734  67.918  1.00  0.00    -0.142 C  
HETATM   18  O   UNL     1      -9.268   9.946  69.976  1.00  0.00    -0.226 OA 
HETATM   19  O   UNL     1     -10.284  11.113  67.863  1.00  0.00    -0.173 OA 
HETATM   20  P   UNL     1     -10.408   9.887  68.957  1.00  0.00    -0.234 P  
HETATM   21  O   UNL     1     -11.324  10.977  69.940  1.00  0.00    -0.268 OA 
BRANCH  19  22
HETATM   22  C   UNL     1     -11.304  11.307  66.908  1.00  0.00    -0.155 C  
BRANCH  22  23
HETATM   23  O   UNL     1     -12.003  12.540  67.114  1.00  0.00    -0.484 OA 
BRANCH  23  24
HETATM   24  C   UNL     1     -12.404  13.147  65.968  1.00  0.00    -0.359 C  
HETATM   25  O   UNL     1     -12.857  12.581  64.982  1.00  0.00    -0.742 OA 
BRANCH  24  26
HETATM   26  O   UNL     1     -12.205  14.487  66.080  1.00  0.00    -0.348 OA 
BRANCH  26  27
HETATM   27  C   UNL     1     -10.890  14.879  66.532  1.00  0.00    -0.322 C  
HETATM   28  C   UNL     1     -10.092  15.404  65.343  1.00  0.00    -0.394 C  
HETATM   29  C   UNL     1     -11.025  15.961  67.598  1.00  0.00    -0.298 C  
ENDBRANCH  26  27
ENDBRANCH  24  26
ENDBRANCH  23  24
ENDBRANCH  22  23
ENDBRANCH  19  22
BRANCH  21  30
HETATM   30  C   UNL     1     -12.431  10.355  70.558  1.00  0.00    -0.317 C  
BRANCH  30  31
HETATM   31  O   UNL     1     -12.119   9.035  70.993  1.00  0.00    -0.293 OA 
BRANCH  31  32
HETATM   32  C   UNL     1     -12.646   8.711  72.196  1.00  0.00    -0.391 C  
HETATM   33  O   UNL     1     -13.810   8.880  72.535  1.00  0.00    -0.456 OA 
BRANCH  32  34
HETATM   34  O   UNL     1     -11.677   8.113  72.934  1.00  0.00    -0.373 OA 
BRANCH  34  35
HETATM   35  C   UNL     1     -10.538   7.612  72.208  1.00  0.00    -0.246 C  
HETATM   36  C   UNL     1     -10.624   6.088  72.216  1.00  0.00    -0.256 C  
HETATM   37  C   UNL     1      -9.241   8.064  72.871  1.00  0.00    -0.332 C  
ENDBRANCH  34  35
ENDBRANCH  32  34
ENDBRANCH  31  32
ENDBRANCH  30  31
ENDBRANCH  21  30
ENDBRANCH  16  17
ENDBRANCH   1  16
TORSDOF 14
ENDMDL
MODEL      219
REMARK 921   NORMALIZED FREE ENERGY PREDICTED BY IDOCK:   -4.41 KCAL/MOL
REMARK 922        TOTAL FREE ENERGY PREDICTED BY IDOCK:   -9.86 KCAL/MOL
REMARK 923 INTER-LIGAND FREE ENERGY PREDICTED BY IDOCK:   -9.73 KCAL/MOL
REMARK 924 INTRA-LIGAND FREE ENERGY PREDICTED BY IDOCK:   -0.13 KCAL/MOL
REMARK 927      BINDING AFFINITY PREDICTED BY RF-SCORE:    0.00 PKD
ROOT
HETATM    1  C   UNL     1     -11.496   9.718  69.278  1.00  0.00     0.072 C  
HETATM    2  C   UNL     1     -12.005   9.957  70.698  1.00  0.00    -0.361 C  
ENDROOT
BRANCH   1   3
HETATM    3  C   UNL     1     -10.046   9.260  69.214  1.00  0.00    -0.200 C  
BRANCH   3   4
HETATM    4  N   UNL     1      -9.635   8.628  67.990  1.00  0.00    -0.147 NA 
HETATM    5  C   UNL     1      -8.456   8.918  67.374  1.00  0.00    -0.115 A  
HETATM    6  N   UNL     1      -6.305   9.049  65.820  1.00  0.00    -0.059 NA 
HETATM    7  C   UNL     1     -10.202   7.572  67.334  1.00  0.00    -0.249 A  
HETATM    8  N   UNL     1      -7.019   7.277  64.435  1.00  0.00    -0.050 NA 
HETATM    9  N   UNL     1      -7.564   9.859  67.720  1.00  0.00    -0.090 NA 
HETATM   10  C   UNL     1      -7.229   8.106  65.531  1.00  0.00    -0.071 A  
HETATM   11  N   UNL     1      -9.481   7.195  66.302  1.00  0.00    -0.118 NA 
HETATM   12  C   UNL     1      -6.513   9.850  66.888  1.00  0.00    -0.066 A  
HETATM   13  C   UNL     1      -8.374   8.016  66.331  1.00  0.00    -0.124 A  
HETATM   14  H1  UNL     1      -6.185   7.342  63.853  1.00  0.00     0.000 HD 
HETATM   15  H2  UNL     1      -7.830   7.364  63.823  1.00  0.00     0.000 HD 
ENDBRANCH   3   4
ENDBRANCH   1   3
BRANCH   1  16
HETATM   16  O   UNL     1     -11.772  10.896  68.490  1.00  0.00    -0.382 OA 
BRANCH  16  17
HETATM   17  C   UNL     1     -10.800  11.222  67.466  1.00  0.00    -0.245 C  
HETATM   18  O   UNL     1     -12.069  11.929  65.562  1.00  0.00    -0.410 OA 
HETATM   19  O   UNL     1     -12.152  13.332  67.771  1.00  0.00    -0.331 OA 
HETATM   20  P   UNL     1     -11.224  12.744  66.543  1.00  0.00    -0.342 P  
HETATM   21  O   UNL     1     -11.624  14.183  65.670  1.00  0.00    -0.325 OA 
BRANCH  19  22
HETATM   22  C   UNL     1     -11.586  14.209  68.721  1.00  0.00    -0.327 C  
BRANCH  22  23
HETATM   23  O   UNL     1     -12.580  14.788  69.575  1.00  0.00    -0.157 OA 
BRANCH  23  24
HETATM   24  C   UNL     1     -12.748  14.132  70.751  1.00  0.00    -0.344 C  
HETATM   25  O   UNL     1     -12.237  13.062  71.050  1.00  0.00    -0.319 OA 
BRANCH  24  26
HETATM   26  O   UNL     1     -13.595  14.845  71.542  1.00  0.00    -0.369 OA 
BRANCH  26  27
HETATM   27  C   UNL     1     -12.958  15.643  72.564  1.00  0.00    -0.452 C  
HETATM   28  C   UNL     1     -12.419  14.720  73.651  1.00  0.00    -0.503 C  
HETATM   29  C   UNL     1     -11.822  16.447  71.940  1.00  0.00    -0.433 C  
ENDBRANCH  26  27
ENDBRANCH  24  26
ENDBRANCH  23  24
ENDBRANCH  22  23
ENDBRANCH  19  22
BRANCH  21  30
HETATM   30  C   UNL     1     -10.524  14.716  64.963  1.00  0.00    -0.421 C  
BRANCH  30  31
HETATM   31  O   UNL     1     -10.010  15.886  65.592  1.00  0.00    -0.329 OA 
BRANCH  31  32
HETATM   32  C   UNL     1     -10.676  17.020  65.276  1.00  0.00    -0.096 C  
HETATM   33  O   UNL     1     -11.376  17.186  64.285  1.00  0.00    -1.126 OA 
BRANCH  32  34
HETATM   34  O   UNL     1     -10.482  17.915  66.276  1.00  0.00    -0.368 OA 
BRANCH  34  35
HETATM   35  C   UNL     1      -9.497  18.939  66.037  1.00  0.00    -0.081 C  
HETATM   36  C   UNL     1      -8.254  18.578  66.845  1.00  0.00    -0.266 C  
HETATM   37  C   UNL     1     -10.025  20.301  66.475  1.00  0.00    -0.528 C  
ENDBRANCH  34  35
ENDBRANCH  32  34
ENDBRANCH  31  32
ENDBRANCH  30  31
ENDBRANCH  21  30
ENDBRANCH  16  17
ENDBRANCH   1  16
TORSDOF 14
ENDMDL
MODEL      220
REMARK 921   NORMALIZED FREE ENERGY PREDICTED BY IDOCK:   -4.41 KCAL/MOL
REMARK 922        TOTAL FREE ENERGY PREDICTED BY IDOCK:   -9.86 KCAL/MOL
REMARK 923 INTER-LIGAND FREE ENERGY PREDICTED BY IDOCK:   -8.12 KCAL/MOL
REMARK 924 INTRA-LIGAND FREE ENERGY PREDICTED BY IDOCK:   -1.74 KCAL/MOL
REMARK 927      BINDING AFFINITY PREDICTED BY RF-SCORE:    0.00 PKD
ROOT
HETATM    1  C   UNL     1      -6.316  13.835  67.781  1.00  0.00    -0.162 C  
HETATM    2  C   UNL     1      -6.473  12.589  66.912  1.00  0.00     0.262 C  
ENDROOT
BRANCH   1   3
HETATM    3  C   UNL     1      -7.059  13.756  69.108  1.00  0.00    -0.053 C  
BRANCH   3   4
HETATM    4  N   UNL     1      -8.323  14.438  69.167  1.00  0.00    -0.016 NA 
HETATM    5  C   UNL     1      -9.507  13.809  68.935  1.00  0.00     0.089 A  
HETATM    6  N   UNL     1     -12.048  13.088  68.644  1.00  0.00    -0.241 NA 
HETATM    7  C   UNL     1      -8.599  15.705  69.600  1.00  0.00    -0.079 A  
HETATM    8  N   UNL     1     -12.873  15.201  69.296  1.00  0.00    -0.266 NA 
HETATM    9  N   UNL     1      -9.694  12.542  68.535  1.00  0.00    -0.175 NA 
HETATM   10  C   UNL     1     -11.800  14.349  69.063  1.00  0.00    -0.323 A  
HETATM   11  N   UNL     1      -9.890  15.945  69.615  1.00  0.00    -0.265 NA 
HETATM   12  C   UNL     1     -11.001  12.265  68.420  1.00  0.00    -0.236 A  
HETATM   13  C   UNL     1     -10.470  14.757  69.222  1.00  0.00    -0.224 A  
HETATM   14  H1  UNL     1     -13.842  14.904  69.181  1.00  0.00     0.000 HD 
HETATM   15  H2  UNL     1     -12.736  16.034  68.725  1.00  0.00     0.000 HD 
ENDBRANCH   3   4
ENDBRANCH   1   3
BRANCH   1  16
HETATM   16  O   UNL     1      -6.658  14.991  66.988  1.00  0.00    -0.207 OA 
BRANCH  16  17
HETATM   17  C   UNL     1      -5.995  16.229  67.343  1.00  0.00    -0.158 C  
HETATM   18  O   UNL     1      -5.228  17.174  65.280  1.00  0.00     0.215 OA 
HETATM   19  O   UNL     1      -7.797  16.906  65.710  1.00  0.00    -0.328 OA 
HETATM   20  P   UNL     1      -6.381  17.598  66.192  1.00  0.00    -0.180 P  
HETATM   21  O   UNL     1      -6.747  18.893  65.104  1.00  0.00    -0.483 OA 
BRANCH  19  22
HETATM   22  C   UNL     1      -9.005  17.261  66.348  1.00  0.00    -0.252 C  
BRANCH  22  23
HETATM   23  O   UNL     1      -9.951  16.185  66.340  1.00  0.00    -0.266 OA 
BRANCH  23  24
HETATM   24  C   UNL     1     -10.551  15.985  65.139  1.00  0.00    -0.370 C  
HETATM   25  O   UNL     1     -11.050  16.855  64.438  1.00  0.00    -1.128 OA 
BRANCH  24  26
HETATM   26  O   UNL     1     -10.529  14.658  64.844  1.00  0.00    -0.414 OA 
BRANCH  26  27
HETATM   27  C   UNL     1     -11.711  14.154  64.185  1.00  0.00    -0.282 C  
HETATM   28  C   UNL     1     -11.371  12.839  63.493  1.00  0.00    -0.480 C  
HETATM   29  C   UNL     1     -12.812  13.939  65.219  1.00  0.00    -0.437 C  
ENDBRANCH  26  27
ENDBRANCH  24  26
ENDBRANCH  23  24
ENDBRANCH  22  23
ENDBRANCH  19  22
BRANCH  21  30
HETATM   30  C   UNL     1      -6.437  20.160  65.642  1.00  0.00    -0.240 C  
BRANCH  30  31
HETATM   31  O   UNL     1      -5.744  20.052  66.882  1.00  0.00    -0.172 OA 
BRANCH  31  32
HETATM   32  C   UNL     1      -6.514  20.293  67.968  1.00  0.00    -0.277 C  
HETATM   33  O   UNL     1      -7.715  20.529  67.954  1.00  0.00    -0.231 OA 
BRANCH  32  34
HETATM   34  O   UNL     1      -5.737  20.165  69.072  1.00  0.00    -0.238 OA 
BRANCH  34  35
HETATM   35  C   UNL     1      -6.184  19.220  70.063  1.00  0.00    -0.203 C  
HETATM   36  C   UNL     1      -6.346  19.977  71.378  1.00  0.00    -0.055 C  
HETATM   37  C   UNL     1      -5.163  18.099  70.230  1.00  0.00    -0.246 C  
ENDBRANCH  34  35
ENDBRANCH  32  34
ENDBRANCH  31  32
ENDBRANCH  30  31
ENDBRANCH  21  30
ENDBRANCH  16  17
ENDBRANCH   1  16
TORSDOF 14
ENDMDL
MODEL      221
REMARK 921   NORMALIZED FREE ENERGY PREDICTED BY IDOCK:   -4.41 KCAL/MOL
REMARK 922        TOTAL FREE ENERGY PREDICTED BY IDOCK:   -9.86 KCAL/MOL
REMARK 923 INTER-LIGAND FREE ENERGY PREDICTED BY IDOCK:   -9.02 KCAL/MOL
REMARK 924 INTRA-LIGAND FREE ENERGY PREDICTED BY IDOCK:   -0.84 KCAL/MOL
REMARK 927      BINDING AFFINITY PREDICTED BY RF-SCORE:    0.00 PKD
ROOT
HETATM    1  C   UNL     1     -11.325  14.578  69.560  1.00  0.00    -0.275 C  
HETATM    2  C   UNL     1     -12.639  15.080  68.965  1.00  0.00     0.219 C  
ENDROOT
BRANCH   1   3
HETATM    3  C   UNL     1     -10.334  15.688  69.883  1.00  0.00    -0.315 C  
BRANCH   3   4
HETATM    4  N   UNL     1      -9.368  15.992  68.861  1.00  0.00    -0.218 NA 
HETATM    5  C   UNL     1      -9.545  16.998  67.961  1.00  0.00    -0.260 A  
HETATM    6  N   UNL     1      -9.350  18.827  66.044  1.00  0.00    -0.475 NA 
HETATM    7  C   UNL     1      -8.104  15.499  68.696  1.00  0.00    -0.159 A  
HETATM    8  N   UNL     1      -7.156  18.186  65.456  1.00  0.00    -0.526 NA 
HETATM    9  N   UNL     1     -10.628  17.775  67.808  1.00  0.00    -0.397 NA 
HETATM   10  C   UNL     1      -8.281  18.027  66.256  1.00  0.00    -0.208 A  
HETATM   11  N   UNL     1      -7.473  16.096  67.711  1.00  0.00    -0.127 NA 
HETATM   12  C   UNL     1     -10.439  18.668  66.826  1.00  0.00    -0.408 A  
HETATM   13  C   UNL     1      -8.357  17.052  67.258  1.00  0.00    -0.186 A  
HETATM   14  H1  UNL     1      -7.100  18.896  64.726  1.00  0.00     0.000 HD 
HETATM   15  H2  UNL     1      -6.955  17.284  65.024  1.00  0.00     0.000 HD 
ENDBRANCH   3   4
ENDBRANCH   1   3
BRANCH   1  16
HETATM   16  O   UNL     1     -10.793  13.554  68.692  1.00  0.00    -0.248 OA 
BRANCH  16  17
HETATM   17  C   UNL     1     -10.471  12.289  69.320  1.00  0.00     0.191 C  
HETATM   18  O   UNL     1     -12.307  10.832  68.832  1.00  0.00    -0.433 OA 
HETATM   19  O   UNL     1     -10.811  11.733  66.881  1.00  0.00    -0.244 OA 
HETATM   20  P   UNL     1     -10.884  10.849  68.270  1.00  0.00    -0.273 P  
HETATM   21  O   UNL     1     -11.275   9.487  67.276  1.00  0.00     0.010 OA 
BRANCH  19  22
HETATM   22  C   UNL     1      -9.611  11.778  66.140  1.00  0.00    -0.232 C  
BRANCH  22  23
HETATM   23  O   UNL     1      -9.547  12.932  65.293  1.00  0.00    -0.053 OA 
BRANCH  23  24
HETATM   24  C   UNL     1     -10.154  12.769  64.090  1.00  0.00    -0.234 C  
HETATM   25  O   UNL     1      -9.957  11.846  63.311  1.00  0.00    -0.426 OA 
BRANCH  24  26
HETATM   26  O   UNL     1     -11.004  13.808  63.874  1.00  0.00    -0.092 OA 
BRANCH  26  27
HETATM   27  C   UNL     1     -12.408  13.491  63.999  1.00  0.00    -0.330 C  
HETATM   28  C   UNL     1     -12.604  11.998  63.759  1.00  0.00    -0.567 C  
HETATM   29  C   UNL     1     -12.888  13.871  65.396  1.00  0.00    -0.466 C  
ENDBRANCH  26  27
ENDBRANCH  24  26
ENDBRANCH  23  24
ENDBRANCH  22  23
ENDBRANCH  19  22
BRANCH  21  30
HETATM   30  C   UNL     1     -10.625   8.305  67.692  1.00  0.00    -0.194 C  
BRANCH  30  31
HETATM   31  O   UNL     1     -10.089   8.433  69.005  1.00  0.00    -0.192 OA 
BRANCH  31  32
HETATM   32  C   UNL     1     -10.559   7.520  69.886  1.00  0.00    -0.237 C  
HETATM   33  O   UNL     1     -11.420   6.680  69.654  1.00  0.00    -0.338 OA 
BRANCH  32  34
HETATM   34  O   UNL     1      -9.870   7.658  71.045  1.00  0.00    -0.175 OA 
BRANCH  34  35
HETATM   35  C   UNL     1     -10.551   8.337  72.118  1.00  0.00    -0.310 C  
HETATM   36  C   UNL     1     -10.652   7.361  73.287  1.00  0.00    -0.442 C  
HETATM   37  C   UNL     1     -11.946   8.766  71.677  1.00  0.00    -0.399 C  
ENDBRANCH  34  35
ENDBRANCH  32  34
ENDBRANCH  31  32
ENDBRANCH  30  31
ENDBRANCH  21  30
ENDBRANCH  16  17
ENDBRANCH   1  16
TORSDOF 14
ENDMDL
MODEL      222
REMARK 921   NORMALIZED FREE ENERGY PREDICTED BY IDOCK:   -4.41 KCAL/MOL
REMARK 922        TOTAL FREE ENERGY PREDICTED BY IDOCK:   -9.85 KCAL/MOL
REMARK 923 INTER-LIGAND FREE ENERGY PREDICTED BY IDOCK:   -8.18 KCAL/MOL
REMARK 924 INTRA-LIGAND FREE ENERGY PREDICTED BY IDOCK:   -1.67 KCAL/MOL
REMARK 927      BINDING AFFINITY PREDICTED BY RF-SCORE:    0.00 PKD
ROOT
HETATM    1  C   UNL     1      -8.589  10.773  68.591  1.00  0.00    -0.151 C  
HETATM    2  C   UNL     1      -7.305  11.160  69.322  1.00  0.00    -0.097 C  
ENDROOT
BRANCH   1   3
HETATM    3  C   UNL     1      -9.227  11.921  67.821  1.00  0.00    -0.184 C  
BRANCH   3   4
HETATM    4  N   UNL     1      -9.910  11.566  66.606  1.00  0.00    -0.199 NA 
HETATM    5  C   UNL     1     -10.965  12.276  66.123  1.00  0.00    -0.293 A  
HETATM    6  N   UNL     1     -12.976  13.308  64.726  1.00  0.00    -0.718 NA 
HETATM    7  C   UNL     1      -9.568  10.632  65.668  1.00  0.00    -0.218 A  
HETATM    8  N   UNL     1     -12.700  11.794  62.937  1.00  0.00    -0.778 NA 
HETATM    9  N   UNL     1     -11.588  13.312  66.707  1.00  0.00    -0.346 NA 
HETATM   10  C   UNL     1     -12.299  12.274  64.178  1.00  0.00    -0.451 A  
HETATM   11  N   UNL     1     -10.372  10.667  64.630  1.00  0.00    -0.334 NA 
HETATM   12  C   UNL     1     -12.581  13.770  65.932  1.00  0.00    -0.447 A  
HETATM   13  C   UNL     1     -11.237  11.709  64.894  1.00  0.00    -0.222 A  
HETATM   14  H1  UNL     1     -13.473  12.206  62.415  1.00  0.00     0.000 HD 
HETATM   15  H2  UNL     1     -12.892  10.798  63.038  1.00  0.00     0.000 HD 
ENDBRANCH   3   4
ENDBRANCH   1   3
BRANCH   1  16
HETATM   16  O   UNL     1      -9.477  10.135  69.533  1.00  0.00    -0.211 OA 
BRANCH  16  17
HETATM   17  C   UNL     1     -10.371   9.132  68.992  1.00  0.00    -0.215 C  
HETATM   18  O   UNL     1      -9.006   7.707  67.635  1.00  0.00    -0.127 OA 
HETATM   19  O   UNL     1      -8.594   7.823  70.218  1.00  0.00    -0.135 OA 
HETATM   20  P   UNL     1      -9.644   7.453  69.002  1.00  0.00    -0.150 P  
HETATM   21  O   UNL     1      -8.957   5.865  69.013  1.00  0.00    -0.121 OA 
BRANCH  19  22
HETATM   22  C   UNL     1      -8.947   7.549  71.557  1.00  0.00    -0.131 C  
BRANCH  22  23
HETATM   23  O   UNL     1     -10.300   7.093  71.671  1.00  0.00    -0.198 OA 
BRANCH  23  24
HETATM   24  C   UNL     1     -10.532   6.317  72.760  1.00  0.00    -0.214 C  
HETATM   25  O   UNL     1     -10.591   6.711  73.917  1.00  0.00    -0.331 OA 
BRANCH  24  26
HETATM   26  O   UNL     1     -10.670   5.023  72.366  1.00  0.00    -0.215 OA 
BRANCH  26  27
HETATM   27  C   UNL     1      -9.936   4.058  73.151  1.00  0.00    -0.141 C  
HETATM   28  C   UNL     1     -10.512   2.670  72.896  1.00  0.00    -0.236 C  
HETATM   29  C   UNL     1      -8.463   4.102  72.756  1.00  0.00    -0.100 C  
ENDBRANCH  26  27
ENDBRANCH  24  26
ENDBRANCH  23  24
ENDBRANCH  22  23
ENDBRANCH  19  22
BRANCH  21  30
HETATM   30  C   UNL     1      -9.926   4.851  68.862  1.00  0.00    -0.149 C  
BRANCH  30  31
HETATM   31  O   UNL     1      -9.537   3.892  67.884  1.00  0.00    -0.178 OA 
BRANCH  31  32
HETATM   32  C   UNL     1      -9.875   4.226  66.617  1.00  0.00    -0.214 C  
HETATM   33  O   UNL     1     -10.654   5.114  66.296  1.00  0.00    -0.292 OA 
BRANCH  32  34
HETATM   34  O   UNL     1      -9.156   3.449  65.770  1.00  0.00    -0.141 OA 
BRANCH  34  35
HETATM   35  C   UNL     1      -8.020   4.072  65.138  1.00  0.00    -0.093 C  
HETATM   36  C   UNL     1      -8.386   4.317  63.677  1.00  0.00    -0.100 C  
HETATM   37  C   UNL     1      -6.798   3.164  65.223  1.00  0.00    -0.048 C  
ENDBRANCH  34  35
ENDBRANCH  32  34
ENDBRANCH  31  32
ENDBRANCH  30  31
ENDBRANCH  21  30
ENDBRANCH  16  17
ENDBRANCH   1  16
TORSDOF 14
ENDMDL
MODEL      223
REMARK 921   NORMALIZED FREE ENERGY PREDICTED BY IDOCK:   -4.40 KCAL/MOL
REMARK 922        TOTAL FREE ENERGY PREDICTED BY IDOCK:   -9.83 KCAL/MOL
REMARK 923 INTER-LIGAND FREE ENERGY PREDICTED BY IDOCK:   -7.86 KCAL/MOL
REMARK 924 INTRA-LIGAND FREE ENERGY PREDICTED BY IDOCK:   -1.98 KCAL/MOL
REMARK 927      BINDING AFFINITY PREDICTED BY RF-SCORE:    0.00 PKD
ROOT
HETATM    1  C   UNL     1      -8.027   9.529  66.379  1.00  0.00    -0.111 C  
HETATM    2  C   UNL     1      -8.195  10.872  65.674  1.00  0.00    -0.083 C  
ENDROOT
BRANCH   1   3
HETATM    3  C   UNL     1      -9.046   8.480  65.955  1.00  0.00    -0.194 C  
BRANCH   3   4
HETATM    4  N   UNL     1      -8.514   7.284  65.360  1.00  0.00    -0.123 NA 
HETATM    5  C   UNL     1      -8.883   6.037  65.764  1.00  0.00    -0.135 A  
HETATM    6  N   UNL     1      -9.280   3.432  66.103  1.00  0.00    -0.163 NA 
HETATM    7  C   UNL     1      -7.731   7.150  64.248  1.00  0.00    -0.117 A  
HETATM    8  N   UNL     1      -7.931   2.840  64.260  1.00  0.00    -0.081 NA 
HETATM    9  N   UNL     1      -9.682   5.715  66.793  1.00  0.00    -0.144 NA 
HETATM   10  C   UNL     1      -8.498   3.817  65.069  1.00  0.00    -0.108 A  
HETATM   11  N   UNL     1      -7.534   5.889  63.940  1.00  0.00    -0.068 NA 
HETATM   12  C   UNL     1      -9.829   4.386  66.885  1.00  0.00    -0.207 A  
HETATM   13  C   UNL     1      -8.269   5.183  64.869  1.00  0.00    -0.136 A  
HETATM   14  H1  UNL     1      -8.098   1.844  64.405  1.00  0.00     0.000 HD 
HETATM   15  H2  UNL     1      -6.922   2.986  64.260  1.00  0.00     0.000 HD 
ENDBRANCH   3   4
ENDBRANCH   1   3
BRANCH   1  16
HETATM   16  O   UNL     1      -7.987   9.762  67.803  1.00  0.00    -0.101 OA 
BRANCH  16  17
HETATM   17  C   UNL     1      -8.462   8.680  68.642  1.00  0.00    -0.130 C  
HETATM   18  O   UNL     1      -8.606   9.585  70.855  1.00  0.00    -0.259 OA 
HETATM   19  O   UNL     1     -10.145  10.535  68.961  1.00  0.00    -0.197 OA 
HETATM   20  P   UNL     1      -9.713   9.224  69.862  1.00  0.00    -0.232 P  
HETATM   21  O   UNL     1     -10.895   9.738  71.015  1.00  0.00    -0.326 OA 
BRANCH  19  22
HETATM   22  C   UNL     1     -11.232  10.444  68.066  1.00  0.00    -0.272 C  
BRANCH  22  23
HETATM   23  O   UNL     1     -12.161  11.521  68.241  1.00  0.00    -0.580 OA 
BRANCH  23  24
HETATM   24  C   UNL     1     -11.781  12.680  67.647  1.00  0.00    -0.361 C  
HETATM   25  O   UNL     1     -11.858  13.795  68.146  1.00  0.00    -0.343 OA 
BRANCH  24  26
HETATM   26  O   UNL     1     -11.319  12.412  66.397  1.00  0.00    -0.304 OA 
BRANCH  26  27
HETATM   27  C   UNL     1     -11.807  13.288  65.358  1.00  0.00    -0.359 C  
HETATM   28  C   UNL     1     -10.635  14.071  64.777  1.00  0.00    -0.441 C  
HETATM   29  C   UNL     1     -12.479  12.454  64.271  1.00  0.00    -0.529 C  
ENDBRANCH  26  27
ENDBRANCH  24  26
ENDBRANCH  23  24
ENDBRANCH  22  23
ENDBRANCH  19  22
BRANCH  21  30
HETATM   30  C   UNL     1     -11.634   8.663  71.554  1.00  0.00    -0.302 C  
BRANCH  30  31
HETATM   31  O   UNL     1     -11.253   7.419  70.974  1.00  0.00    -0.253 OA 
BRANCH  31  32
HETATM   32  C   UNL     1     -11.114   6.413  71.868  1.00  0.00    -0.268 C  
HETATM   33  O   UNL     1     -12.029   5.787  72.388  1.00  0.00    -0.275 OA 
BRANCH  32  34
HETATM   34  O   UNL     1      -9.789   6.180  72.037  1.00  0.00    -0.157 OA 
BRANCH  34  35
HETATM   35  C   UNL     1      -9.390   5.649  73.316  1.00  0.00    -0.135 C  
HETATM   36  C   UNL     1      -9.329   6.817  74.298  1.00  0.00    -0.261 C  
HETATM   37  C   UNL     1      -8.023   4.982  73.215  1.00  0.00    -0.104 C  
ENDBRANCH  34  35
ENDBRANCH  32  34
ENDBRANCH  31  32
ENDBRANCH  30  31
ENDBRANCH  21  30
ENDBRANCH  16  17
ENDBRANCH   1  16
TORSDOF 14
ENDMDL
MODEL      224
REMARK 921   NORMALIZED FREE ENERGY PREDICTED BY IDOCK:   -4.38 KCAL/MOL
REMARK 922        TOTAL FREE ENERGY PREDICTED BY IDOCK:   -9.80 KCAL/MOL
REMARK 923 INTER-LIGAND FREE ENERGY PREDICTED BY IDOCK:   -8.14 KCAL/MOL
REMARK 924 INTRA-LIGAND FREE ENERGY PREDICTED BY IDOCK:   -1.66 KCAL/MOL
REMARK 927      BINDING AFFINITY PREDICTED BY RF-SCORE:    0.00 PKD
ROOT
HETATM    1  C   UNL     1      -7.490   8.410  68.676  1.00  0.00    -0.093 C  
HETATM    2  C   UNL     1      -6.251   7.753  68.071  1.00  0.00    -0.046 C  
ENDROOT
BRANCH   1   3
HETATM    3  C   UNL     1      -8.726   7.521  68.661  1.00  0.00    -0.128 C  
BRANCH   3   4
HETATM    4  N   UNL     1      -9.055   6.873  69.903  1.00  0.00    -0.145 NA 
HETATM    5  C   UNL     1     -10.293   6.947  70.463  1.00  0.00    -0.204 A  
HETATM    6  N   UNL     1     -12.492   6.710  71.935  1.00  0.00    -0.333 NA 
HETATM    7  C   UNL     1      -8.317   5.983  70.631  1.00  0.00    -0.125 A  
HETATM    8  N   UNL     1     -11.498   5.181  73.433  1.00  0.00    -0.498 NA 
HETATM    9  N   UNL     1     -11.339   7.674  70.039  1.00  0.00    -0.138 NA 
HETATM   10  C   UNL     1     -11.411   5.986  72.303  1.00  0.00    -0.312 A  
HETATM   11  N   UNL     1      -8.991   5.514  71.656  1.00  0.00    -0.136 NA 
HETATM   12  C   UNL     1     -12.401   7.490  70.836  1.00  0.00    -0.167 A  
HETATM   13  C   UNL     1     -10.238   6.094  71.547  1.00  0.00    -0.203 A  
HETATM   14  H1  UNL     1     -12.353   5.102  73.984  1.00  0.00     0.000 HD 
HETATM   15  H2  UNL     1     -10.748   5.456  74.066  1.00  0.00     0.000 HD 
ENDBRANCH   3   4
ENDBRANCH   1   3
BRANCH   1  16
HETATM   16  O   UNL     1      -7.684   9.691  68.039  1.00  0.00    -0.086 OA 
BRANCH  16  17
HETATM   17  C   UNL     1      -7.825  10.830  68.924  1.00  0.00    -0.136 C  
HETATM   18  O   UNL     1      -6.259  12.463  68.139  1.00  0.00    -0.055 OA 
HETATM   19  O   UNL     1      -8.262  11.747  66.613  1.00  0.00    -0.171 OA 
HETATM   20  P   UNL     1      -7.785  12.429  68.035  1.00  0.00    -0.160 P  
HETATM   21  O   UNL     1      -7.748  13.941  67.195  1.00  0.00    -0.127 OA 
BRANCH  19  22
HETATM   22  C   UNL     1      -9.631  11.726  66.269  1.00  0.00    -0.225 C  
BRANCH  22  23
HETATM   23  O   UNL     1     -10.469  12.031  67.390  1.00  0.00    -0.211 OA 
BRANCH  23  24
HETATM   24  C   UNL     1     -11.276  11.009  67.771  1.00  0.00    -0.308 C  
HETATM   25  O   UNL     1     -11.149   9.838  67.439  1.00  0.00    -0.210 OA 
BRANCH  24  26
HETATM   26  O   UNL     1     -12.265  11.494  68.568  1.00  0.00    -0.524 OA 
BRANCH  26  27
HETATM   27  C   UNL     1     -11.831  12.014  69.843  1.00  0.00    -0.331 C  
HETATM   28  C   UNL     1     -12.265  13.471  69.960  1.00  0.00    -0.381 C  
HETATM   29  C   UNL     1     -12.451  11.184  70.963  1.00  0.00    -0.506 C  
ENDBRANCH  26  27
ENDBRANCH  24  26
ENDBRANCH  23  24
ENDBRANCH  22  23
ENDBRANCH  19  22
BRANCH  21  30
HETATM   30  C   UNL     1      -8.263  15.005  67.966  1.00  0.00    -0.137 C  
BRANCH  30  31
HETATM   31  O   UNL     1      -8.764  16.056  67.145  1.00  0.00    -0.174 OA 
BRANCH  31  32
HETATM   32  C   UNL     1      -7.871  17.044  66.906  1.00  0.00    -0.213 C  
HETATM   33  O   UNL     1      -6.654  16.920  66.896  1.00  0.00    -0.176 OA 
BRANCH  32  34
HETATM   34  O   UNL     1      -8.562  18.176  66.621  1.00  0.00    -0.253 OA 
BRANCH  34  35
HETATM   35  C   UNL     1      -9.236  18.810  67.726  1.00  0.00    -0.289 C  
HETATM   36  C   UNL     1     -10.200  19.840  67.145  1.00  0.00    -0.574 C  
HETATM   37  C   UNL     1      -8.229  19.497  68.642  1.00  0.00    -0.369 C  
ENDBRANCH  34  35
ENDBRANCH  32  34
ENDBRANCH  31  32
ENDBRANCH  30  31
ENDBRANCH  21  30
ENDBRANCH  16  17
ENDBRANCH   1  16
TORSDOF 14
ENDMDL
MODEL      225
REMARK 921   NORMALIZED FREE ENERGY PREDICTED BY IDOCK:   -4.37 KCAL/MOL
REMARK 922        TOTAL FREE ENERGY PREDICTED BY IDOCK:   -9.78 KCAL/MOL
REMARK 923 INTER-LIGAND FREE ENERGY PREDICTED BY IDOCK:   -7.62 KCAL/MOL
REMARK 924 INTRA-LIGAND FREE ENERGY PREDICTED BY IDOCK:   -2.16 KCAL/MOL
REMARK 927      BINDING AFFINITY PREDICTED BY RF-SCORE:    0.00 PKD
ROOT
HETATM    1  C   UNL     1      -9.653   5.547  70.576  1.00  0.00    -0.173 C  
HETATM    2  C   UNL     1      -8.407   5.356  71.437  1.00  0.00    -0.122 C  
ENDROOT
BRANCH   1   3
HETATM    3  C   UNL     1      -9.831   4.478  69.506  1.00  0.00    -0.207 C  
BRANCH   3   4
HETATM    4  N   UNL     1      -9.813   4.937  68.143  1.00  0.00    -0.152 NA 
HETATM    5  C   UNL     1      -8.663   5.058  67.425  1.00  0.00    -0.103 A  
HETATM    6  N   UNL     1      -6.780   5.416  65.586  1.00  0.00    -0.051 NA 
HETATM    7  C   UNL     1     -10.862   5.162  67.297  1.00  0.00     0.236 A  
HETATM    8  N   UNL     1      -8.334   5.912  63.881  1.00  0.00    -0.299 NA 
HETATM    9  N   UNL     1      -7.406   4.880  67.860  1.00  0.00    -0.070 NA 
HETATM   10  C   UNL     1      -8.067   5.564  65.200  1.00  0.00    -0.124 A  
HETATM   11  N   UNL     1     -10.455   5.468  66.086  1.00  0.00    -0.142 NA 
HETATM   12  C   UNL     1      -6.526   5.076  66.868  1.00  0.00    -0.041 A  
HETATM   13  C   UNL     1      -9.079   5.384  66.149  1.00  0.00    -0.151 A  
HETATM   14  H1  UNL     1      -7.596   6.043  63.190  1.00  0.00     0.000 HD 
HETATM   15  H2  UNL     1      -8.897   6.762  63.895  1.00  0.00     0.000 HD 
ENDBRANCH   3   4
ENDBRANCH   1   3
BRANCH   1  16
HETATM   16  O   UNL     1      -9.650   6.895  70.059  1.00  0.00    -0.158 OA 
BRANCH  16  17
HETATM   17  C   UNL     1     -10.866   7.658  70.257  1.00  0.00    -0.246 C  
HETATM   18  O   UNL     1     -10.168   9.788  71.100  1.00  0.00    -0.212 OA 
HETATM   19  O   UNL     1      -9.471   9.057  68.684  1.00  0.00    -0.145 OA 
HETATM   20  P   UNL     1     -10.705   9.400  69.721  1.00  0.00    -0.226 P  
HETATM   21  O   UNL     1     -10.555  11.047  69.214  1.00  0.00    -0.219 OA 
BRANCH  19  22
HETATM   22  C   UNL     1      -9.749   8.790  67.327  1.00  0.00    -0.183 C  
BRANCH  22  23
HETATM   23  O   UNL     1      -8.617   9.050  66.488  1.00  0.00    -0.116 OA 
BRANCH  23  24
HETATM   24  C   UNL     1      -8.933   9.286  65.189  1.00  0.00    -0.209 C  
HETATM   25  O   UNL     1      -8.245   8.989  64.222  1.00  0.00    -0.147 OA 
BRANCH  24  26
HETATM   26  O   UNL     1     -10.132   9.925  65.131  1.00  0.00    -0.309 OA 
BRANCH  26  27
HETATM   27  C   UNL     1     -10.093  11.259  64.578  1.00  0.00    -0.295 C  
HETATM   28  C   UNL     1     -11.490  11.641  64.104  1.00  0.00    -0.364 C  
HETATM   29  C   UNL     1      -9.611  12.234  65.648  1.00  0.00    -0.148 C  
ENDBRANCH  26  27
ENDBRANCH  24  26
ENDBRANCH  23  24
ENDBRANCH  22  23
ENDBRANCH  19  22
BRANCH  21  30
HETATM   30  C   UNL     1     -11.804  11.680  69.036  1.00  0.00    -0.328 C  
BRANCH  30  31
HETATM   31  O   UNL     1     -12.148  12.488  70.157  1.00  0.00    -0.340 OA 
BRANCH  31  32
HETATM   32  C   UNL     1     -11.997  13.817  69.947  1.00  0.00    -0.347 C  
HETATM   33  O   UNL     1     -12.161  14.395  68.880  1.00  0.00    -0.311 OA 
BRANCH  32  34
HETATM   34  O   UNL     1     -11.695  14.399  71.134  1.00  0.00    -0.289 OA 
BRANCH  34  35
HETATM   35  C   UNL     1     -12.782  15.047  71.824  1.00  0.00    -0.339 C  
HETATM   36  C   UNL     1     -12.172  16.013  72.835  1.00  0.00    -0.621 C  
HETATM   37  C   UNL     1     -13.647  14.018  72.543  1.00  0.00    -0.670 C  
ENDBRANCH  34  35
ENDBRANCH  32  34
ENDBRANCH  31  32
ENDBRANCH  30  31
ENDBRANCH  21  30
ENDBRANCH  16  17
ENDBRANCH   1  16
TORSDOF 14
ENDMDL
MODEL      226
REMARK 921   NORMALIZED FREE ENERGY PREDICTED BY IDOCK:   -4.35 KCAL/MOL
REMARK 922        TOTAL FREE ENERGY PREDICTED BY IDOCK:   -9.75 KCAL/MOL
REMARK 923 INTER-LIGAND FREE ENERGY PREDICTED BY IDOCK:   -8.60 KCAL/MOL
REMARK 924 INTRA-LIGAND FREE ENERGY PREDICTED BY IDOCK:   -1.16 KCAL/MOL
REMARK 927      BINDING AFFINITY PREDICTED BY RF-SCORE:    0.00 PKD
ROOT
HETATM    1  C   UNL     1      -8.936  10.529  65.173  1.00  0.00    -0.191 C  
HETATM    2  C   UNL     1     -10.126   9.765  65.748  1.00  0.00    -0.308 C  
ENDROOT
BRANCH   1   3
HETATM    3  C   UNL     1      -7.633   9.740  65.188  1.00  0.00    -0.125 C  
BRANCH   3   4
HETATM    4  N   UNL     1      -7.611   8.540  64.395  1.00  0.00    -0.110 NA 
HETATM    5  C   UNL     1      -7.429   7.306  64.938  1.00  0.00    -0.091 A  
HETATM    6  N   UNL     1      -7.182   4.712  65.460  1.00  0.00    -0.070 NA 
HETATM    7  C   UNL     1      -7.915   8.376  63.073  1.00  0.00    -0.161 A  
HETATM    8  N   UNL     1      -7.615   4.075  63.230  1.00  0.00    -0.057 NA 
HETATM    9  N   UNL     1      -7.154   7.009  66.218  1.00  0.00    -0.072 NA 
HETATM   10  C   UNL     1      -7.478   5.070  64.190  1.00  0.00    -0.064 A  
HETATM   11  N   UNL     1      -7.892   7.111  62.721  1.00  0.00    -0.131 NA 
HETATM   12  C   UNL     1      -7.052   5.683  66.389  1.00  0.00    -0.072 A  
HETATM   13  C   UNL     1      -7.611   6.429  63.887  1.00  0.00    -0.099 A  
HETATM   14  H1  UNL     1      -7.519   3.084  63.451  1.00  0.00     0.000 HD 
HETATM   15  H2  UNL     1      -6.966   4.286  62.472  1.00  0.00     0.000 HD 
ENDBRANCH   3   4
ENDBRANCH   1   3
BRANCH   1  16
HETATM   16  O   UNL     1      -8.851  11.809  65.836  1.00  0.00    -0.133 OA 
BRANCH  16  17
HETATM   17  C   UNL     1      -9.246  11.835  67.229  1.00  0.00    -0.173 C  
HETATM   18  O   UNL     1      -7.712  13.319  68.315  1.00  0.00    -0.124 OA 
HETATM   19  O   UNL     1      -9.339  14.246  66.485  1.00  0.00    -0.276 OA 
HETATM   20  P   UNL     1      -9.186  13.514  67.953  1.00  0.00    -0.227 P  
HETATM   21  O   UNL     1      -9.129  15.102  68.639  1.00  0.00    -0.179 OA 
BRANCH  19  22
HETATM   22  C   UNL     1     -10.616  14.623  66.018  1.00  0.00    -0.309 C  
BRANCH  22  23
HETATM   23  O   UNL     1     -11.108  15.789  66.689  1.00  0.00    -0.241 OA 
BRANCH  23  24
HETATM   24  C   UNL     1     -10.717  16.959  66.122  1.00  0.00    -0.109 C  
HETATM   25  O   UNL     1     -10.618  17.172  64.921  1.00  0.00    -0.620 OA 
BRANCH  24  26
HETATM   26  O   UNL     1     -10.432  17.856  67.103  1.00  0.00    -0.360 OA 
BRANCH  26  27
HETATM   27  C   UNL     1      -9.388  18.803  66.787  1.00  0.00    -0.318 C  
HETATM   28  C   UNL     1     -10.002  20.192  66.653  1.00  0.00    -0.595 C  
HETATM   29  C   UNL     1      -8.343  18.791  67.898  1.00  0.00    -0.300 C  
ENDBRANCH  26  27
ENDBRANCH  24  26
ENDBRANCH  23  24
ENDBRANCH  22  23
ENDBRANCH  19  22
BRANCH  21  30
HETATM   30  C   UNL     1      -9.865  15.204  69.839  1.00  0.00    -0.054 C  
BRANCH  30  31
HETATM   31  O   UNL     1     -11.114  15.857  69.637  1.00  0.00    -0.269 OA 
BRANCH  31  32
HETATM   32  C   UNL     1     -12.192  15.090  69.924  1.00  0.00    -0.309 C  
HETATM   33  O   UNL     1     -12.516  14.065  69.337  1.00  0.00    -0.283 OA 
BRANCH  32  34
HETATM   34  O   UNL     1     -12.810  15.620  71.008  1.00  0.00    -0.467 OA 
BRANCH  34  35
HETATM   35  C   UNL     1     -12.522  14.998  72.276  1.00  0.00    -0.349 C  
HETATM   36  C   UNL     1     -13.615  13.966  72.539  1.00  0.00    -0.680 C  
HETATM   37  C   UNL     1     -12.510  16.039  73.390  1.00  0.00    -0.668 C  
ENDBRANCH  34  35
ENDBRANCH  32  34
ENDBRANCH  31  32
ENDBRANCH  30  31
ENDBRANCH  21  30
ENDBRANCH  16  17
ENDBRANCH   1  16
TORSDOF 14
ENDMDL
MODEL      227
REMARK 921   NORMALIZED FREE ENERGY PREDICTED BY IDOCK:   -4.33 KCAL/MOL
REMARK 922        TOTAL FREE ENERGY PREDICTED BY IDOCK:   -9.71 KCAL/MOL
REMARK 923 INTER-LIGAND FREE ENERGY PREDICTED BY IDOCK:   -8.68 KCAL/MOL
REMARK 924 INTRA-LIGAND FREE ENERGY PREDICTED BY IDOCK:   -1.03 KCAL/MOL
REMARK 927      BINDING AFFINITY PREDICTED BY RF-SCORE:    0.00 PKD
ROOT
HETATM    1  C   UNL     1      -9.669   9.815  65.059  1.00  0.00    -0.233 C  
HETATM    2  C   UNL     1      -8.486   9.829  64.094  1.00  0.00    -0.182 C  
ENDROOT
BRANCH   1   3
HETATM    3  C   UNL     1      -9.817  11.098  65.868  1.00  0.00    -0.232 C  
BRANCH   3   4
HETATM    4  N   UNL     1     -10.547  12.164  65.236  1.00  0.00    -0.271 NA 
HETATM    5  C   UNL     1     -10.287  13.477  65.483  1.00  0.00    -0.300 A  
HETATM    6  N   UNL     1     -10.166  16.130  65.541  1.00  0.00    -0.498 NA 
HETATM    7  C   UNL     1     -11.454  12.100  64.215  1.00  0.00    -0.367 A  
HETATM    8  N   UNL     1     -11.763  16.386  63.823  1.00  0.00    -1.498 NA 
HETATM    9  N   UNL     1      -9.427  13.985  66.379  1.00  0.00    -0.279 NA 
HETATM   10  C   UNL     1     -11.002  15.562  64.644  1.00  0.00    -0.322 A  
HETATM   11  N   UNL     1     -11.830  13.295  63.822  1.00  0.00    -0.468 NA 
HETATM   12  C   UNL     1      -9.428  15.324  66.336  1.00  0.00    -0.298 A  
HETATM   13  C   UNL     1     -11.088  14.166  64.593  1.00  0.00    -0.371 A  
HETATM   14  H1  UNL     1     -11.700  17.403  63.860  1.00  0.00     0.000 HD 
HETATM   15  H2  UNL     1     -12.742  16.132  63.954  1.00  0.00     0.000 HD 
ENDBRANCH   3   4
ENDBRANCH   1   3
BRANCH   1  16
HETATM   16  O   UNL     1      -9.587   8.622  65.867  1.00  0.00    -0.220 OA 
BRANCH  16  17
HETATM   17  C   UNL     1      -9.145   8.805  67.235  1.00  0.00    -0.132 C  
HETATM   18  O   UNL     1     -11.119   9.293  68.499  1.00  0.00    -0.047 OA 
HETATM   19  O   UNL     1     -10.859   6.954  67.350  1.00  0.00    -0.287 OA 
HETATM   20  P   UNL     1     -10.265   8.025  68.453  1.00  0.00    -0.181 P  
HETATM   21  O   UNL     1     -11.323   7.287  69.606  1.00  0.00    -0.144 OA 
BRANCH  19  22
HETATM   22  C   UNL     1     -10.283   5.671  67.237  1.00  0.00    -0.206 C  
BRANCH  22  23
HETATM   23  O   UNL     1     -10.305   5.192  65.886  1.00  0.00    -0.183 OA 
BRANCH  23  24
HETATM   24  C   UNL     1      -9.149   4.601  65.490  1.00  0.00    -0.146 C  
HETATM   25  O   UNL     1      -8.179   4.383  66.203  1.00  0.00    -0.102 OA 
BRANCH  24  26
HETATM   26  O   UNL     1      -9.231   4.306  64.166  1.00  0.00    -0.146 OA 
BRANCH  26  27
HETATM   27  C   UNL     1     -10.282   3.383  63.803  1.00  0.00    -0.214 C  
HETATM   28  C   UNL     1     -10.640   3.591  62.336  1.00  0.00    -0.188 C  
HETATM   29  C   UNL     1      -9.800   1.955  64.035  1.00  0.00    -0.110 C  
ENDBRANCH  26  27
ENDBRANCH  24  26
ENDBRANCH  23  24
ENDBRANCH  22  23
ENDBRANCH  19  22
BRANCH  21  30
HETATM   30  C   UNL     1     -10.719   7.120  70.872  1.00  0.00    -0.231 C  
BRANCH  30  31
HETATM   31  O   UNL     1     -10.420   5.752  71.136  1.00  0.00    -0.219 OA 
BRANCH  31  32
HETATM   32  C   UNL     1      -9.180   5.373  70.748  1.00  0.00    -0.149 C  
HETATM   33  O   UNL     1      -8.258   6.128  70.466  1.00  0.00    -0.110 OA 
BRANCH  32  34
HETATM   34  O   UNL     1      -9.122   4.019  70.786  1.00  0.00    -0.093 OA 
BRANCH  34  35
HETATM   35  C   UNL     1      -8.314   3.442  71.831  1.00  0.00    -0.066 C  
HETATM   36  C   UNL     1      -8.851   2.040  72.104  1.00  0.00    -0.099 C  
HETATM   37  C   UNL     1      -8.398   4.287  73.098  1.00  0.00    -0.091 C  
ENDBRANCH  34  35
ENDBRANCH  32  34
ENDBRANCH  31  32
ENDBRANCH  30  31
ENDBRANCH  21  30
ENDBRANCH  16  17
ENDBRANCH   1  16
TORSDOF 14
ENDMDL
MODEL      228
REMARK 921   NORMALIZED FREE ENERGY PREDICTED BY IDOCK:   -4.29 KCAL/MOL
REMARK 922        TOTAL FREE ENERGY PREDICTED BY IDOCK:   -9.65 KCAL/MOL
REMARK 923 INTER-LIGAND FREE ENERGY PREDICTED BY IDOCK:   -8.24 KCAL/MOL
REMARK 924 INTRA-LIGAND FREE ENERGY PREDICTED BY IDOCK:   -1.41 KCAL/MOL
REMARK 927      BINDING AFFINITY PREDICTED BY RF-SCORE:    0.00 PKD
ROOT
HETATM    1  C   UNL     1     -12.020   9.345  70.601  1.00  0.00    -0.170 C  
HETATM    2  C   UNL     1     -13.148   9.855  71.495  1.00  0.00    -0.516 C  
ENDROOT
BRANCH   1   3
HETATM    3  C   UNL     1     -11.676   7.878  70.822  1.00  0.00    -0.218 C  
BRANCH   3   4
HETATM    4  N   UNL     1     -10.525   7.614  71.643  1.00  0.00    -0.197 NA 
HETATM    5  C   UNL     1      -9.325   7.236  71.124  1.00  0.00    -0.156 A  
HETATM    6  N   UNL     1      -6.800   6.551  70.659  1.00  0.00    -0.061 NA 
HETATM    7  C   UNL     1     -10.353   7.835  72.981  1.00  0.00    -0.347 A  
HETATM    8  N   UNL     1      -6.169   6.783  72.921  1.00  0.00    -0.057 NA 
HETATM    9  N   UNL     1      -9.041   6.959  69.842  1.00  0.00    -0.145 NA 
HETATM   10  C   UNL     1      -7.141   6.860  71.930  1.00  0.00    -0.074 A  
HETATM   11  N   UNL     1      -9.124   7.575  73.363  1.00  0.00    -0.189 NA 
HETATM   12  C   UNL     1      -7.749   6.629  69.700  1.00  0.00    -0.107 A  
HETATM   13  C   UNL     1      -8.465   7.221  72.204  1.00  0.00    -0.105 A  
HETATM   14  H1  UNL     1      -5.204   6.520  72.721  1.00  0.00     0.000 HD 
HETATM   15  H2  UNL     1      -6.516   6.154  73.645  1.00  0.00     0.000 HD 
ENDBRANCH   3   4
ENDBRANCH   1   3
BRANCH   1  16
HETATM   16  O   UNL     1     -10.891  10.236  70.735  1.00  0.00    -0.269 OA 
BRANCH  16  17
HETATM   17  C   UNL     1     -10.134  10.495  69.528  1.00  0.00    -0.178 C  
HETATM   18  O   UNL     1     -11.657  10.142  67.714  1.00  0.00    -0.239 OA 
HETATM   19  O   UNL     1     -12.094  12.083  69.417  1.00  0.00    -0.274 OA 
HETATM   20  P   UNL     1     -11.084  11.442  68.283  1.00  0.00    -0.301 P  
HETATM   21  O   UNL     1     -11.982  12.337  67.106  1.00  0.00    -0.564 OA 
BRANCH  19  22
HETATM   22  C   UNL     1     -11.805  13.344  69.981  1.00  0.00    -0.294 C  
BRANCH  22  23
HETATM   23  O   UNL     1     -10.741  14.009  69.289  1.00  0.00    -0.210 OA 
BRANCH  23  24
HETATM   24  C   UNL     1     -11.068  15.241  68.826  1.00  0.00    -0.270 C  
HETATM   25  O   UNL     1     -12.113  15.836  69.054  1.00  0.00    -0.349 OA 
BRANCH  24  26
HETATM   26  O   UNL     1     -10.056  15.708  68.047  1.00  0.00    -0.221 OA 
BRANCH  26  27
HETATM   27  C   UNL     1      -8.731  15.290  68.443  1.00  0.00    -0.170 C  
HETATM   28  C   UNL     1      -7.997  14.747  67.222  1.00  0.00    -0.232 C  
HETATM   29  C   UNL     1      -7.980  16.483  69.026  1.00  0.00    -0.225 C  
ENDBRANCH  26  27
ENDBRANCH  24  26
ENDBRANCH  23  24
ENDBRANCH  22  23
ENDBRANCH  19  22
BRANCH  21  30
HETATM   30  C   UNL     1     -11.157  12.921  66.120  1.00  0.00    -0.286 C  
BRANCH  30  31
HETATM   31  O   UNL     1     -10.120  12.036  65.710  1.00  0.00    -0.227 OA 
BRANCH  31  32
HETATM   32  C   UNL     1     -10.307  11.497  64.483  1.00  0.00    -0.302 C  
HETATM   33  O   UNL     1     -10.624  12.112  63.473  1.00  0.00    -0.414 OA 
BRANCH  32  34
HETATM   34  O   UNL     1     -10.022  10.173  64.556  1.00  0.00    -0.326 OA 
BRANCH  34  35
HETATM   35  C   UNL     1      -8.888   9.807  65.365  1.00  0.00    -0.169 C  
HETATM   36  C   UNL     1      -7.694   9.634  64.430  1.00  0.00    -0.128 C  
HETATM   37  C   UNL     1      -9.161   8.502  66.107  1.00  0.00    -0.245 C  
ENDBRANCH  34  35
ENDBRANCH  32  34
ENDBRANCH  31  32
ENDBRANCH  30  31
ENDBRANCH  21  30
ENDBRANCH  16  17
ENDBRANCH   1  16
TORSDOF 14
ENDMDL
MODEL      229
REMARK 921   NORMALIZED FREE ENERGY PREDICTED BY IDOCK:   -4.28 KCAL/MOL
REMARK 922        TOTAL FREE ENERGY PREDICTED BY IDOCK:   -9.63 KCAL/MOL
REMARK 923 INTER-LIGAND FREE ENERGY PREDICTED BY IDOCK:   -7.74 KCAL/MOL
REMARK 924 INTRA-LIGAND FREE ENERGY PREDICTED BY IDOCK:   -1.89 KCAL/MOL
REMARK 927      BINDING AFFINITY PREDICTED BY RF-SCORE:    0.00 PKD
ROOT
HETATM    1  C   UNL     1      -8.615   5.038  70.420  1.00  0.00    -0.108 C  
HETATM    2  C   UNL     1      -7.616   5.744  69.505  1.00  0.00    -0.087 C  
ENDROOT
BRANCH   1   3
HETATM    3  C   UNL     1      -9.710   4.288  69.673  1.00  0.00    -0.214 C  
BRANCH   3   4
HETATM    4  N   UNL     1      -9.888   4.641  68.290  1.00  0.00    -0.133 NA 
HETATM    5  C   UNL     1      -9.592   3.787  67.272  1.00  0.00    -0.169 A  
HETATM    6  N   UNL     1      -9.250   2.534  64.954  1.00  0.00    -0.137 NA 
HETATM    7  C   UNL     1     -10.499   5.738  67.752  1.00  0.00    -0.226 A  
HETATM    8  N   UNL     1     -10.208   4.288  63.699  1.00  0.00    -0.395 NA 
HETATM    9  N   UNL     1      -9.022   2.575  67.362  1.00  0.00    -0.145 NA 
HETATM   10  C   UNL     1      -9.838   3.751  64.926  1.00  0.00    -0.183 A  
HETATM   11  N   UNL     1     -10.572   5.664  66.443  1.00  0.00    -0.232 NA 
HETATM   12  C   UNL     1      -8.894   2.017  66.150  1.00  0.00    -0.117 A  
HETATM   13  C   UNL     1     -10.027   4.435  66.133  1.00  0.00    -0.238 A  
HETATM   14  H1  UNL     1     -10.070   3.789  62.820  1.00  0.00     0.000 HD 
HETATM   15  H2  UNL     1      -9.756   5.198  63.611  1.00  0.00     0.000 HD 
ENDBRANCH   3   4
ENDBRANCH   1   3
BRANCH   1  16
HETATM   16  O   UNL     1      -9.114   5.997  71.378  1.00  0.00    -0.143 OA 
BRANCH  16  17
HETATM   17  C   UNL     1     -10.550   6.182  71.409  1.00  0.00    -0.243 C  
HETATM   18  O   UNL     1     -10.965   7.781  73.143  1.00  0.00    -0.396 OA 
HETATM   19  O   UNL     1      -9.608   8.492  71.018  1.00  0.00    -0.168 OA 
HETATM   20  P   UNL     1     -11.036   7.933  71.622  1.00  0.00    -0.268 P  
HETATM   21  O   UNL     1     -11.497   9.588  71.822  1.00  0.00    -0.384 OA 
BRANCH  19  22
HETATM   22  C   UNL     1      -9.503   8.812  69.648  1.00  0.00    -0.170 C  
BRANCH  22  23
HETATM   23  O   UNL     1      -9.009  10.141  69.446  1.00  0.00    -0.177 OA 
BRANCH  23  24
HETATM   24  C   UNL     1      -7.669  10.209  69.243  1.00  0.00    -0.126 C  
HETATM   25  O   UNL     1      -6.858  10.725  70.001  1.00  0.00    -0.154 OA 
BRANCH  24  26
HETATM   26  O   UNL     1      -7.368   9.630  68.050  1.00  0.00    -0.081 OA 
BRANCH  26  27
HETATM   27  C   UNL     1      -7.557  10.472  66.891  1.00  0.00    -0.110 C  
HETATM   28  C   UNL     1      -6.199  10.757  66.259  1.00  0.00    -0.130 C  
HETATM   29  C   UNL     1      -8.467   9.761  65.895  1.00  0.00    -0.136 C  
ENDBRANCH  26  27
ENDBRANCH  24  26
ENDBRANCH  23  24
ENDBRANCH  22  23
ENDBRANCH  19  22
BRANCH  21  30
HETATM   30  C   UNL     1     -12.843   9.827  71.469  1.00  0.00    -0.405 C  
BRANCH  30  31
HETATM   31  O   UNL     1     -13.049  11.176  71.062  1.00  0.00    -0.292 OA 
BRANCH  31  32
HETATM   32  C   UNL     1     -12.310  11.549  69.991  1.00  0.00    -0.213 C  
HETATM   33  O   UNL     1     -12.216  10.932  68.938  1.00  0.00    -0.494 OA 
BRANCH  32  34
HETATM   34  O   UNL     1     -11.745  12.750  70.267  1.00  0.00    -0.246 OA 
BRANCH  34  35
HETATM   35  C   UNL     1     -12.261  13.882  69.540  1.00  0.00    -0.306 C  
HETATM   36  C   UNL     1     -11.226  14.259  68.484  1.00  0.00    -0.289 C  
HETATM   37  C   UNL     1     -12.498  15.058  70.481  1.00  0.00    -0.425 C  
ENDBRANCH  34  35
ENDBRANCH  32  34
ENDBRANCH  31  32
ENDBRANCH  30  31
ENDBRANCH  21  30
ENDBRANCH  16  17
ENDBRANCH   1  16
TORSDOF 14
ENDMDL
MODEL      230
REMARK 921   NORMALIZED FREE ENERGY PREDICTED BY IDOCK:   -4.27 KCAL/MOL
REMARK 922        TOTAL FREE ENERGY PREDICTED BY IDOCK:   -9.60 KCAL/MOL
REMARK 923 INTER-LIGAND FREE ENERGY PREDICTED BY IDOCK:   -7.48 KCAL/MOL
REMARK 924 INTRA-LIGAND FREE ENERGY PREDICTED BY IDOCK:   -2.13 KCAL/MOL
REMARK 927      BINDING AFFINITY PREDICTED BY RF-SCORE:    0.00 PKD
ROOT
HETATM    1  C   UNL     1      -9.420   5.363  70.677  1.00  0.00    -0.166 C  
HETATM    2  C   UNL     1      -8.011   5.868  70.373  1.00  0.00    -0.106 C  
ENDROOT
BRANCH   1   3
HETATM    3  C   UNL     1     -10.222   4.993  69.437  1.00  0.00    -0.198 C  
BRANCH   3   4
HETATM    4  N   UNL     1      -9.592   5.262  68.172  1.00  0.00    -0.123 NA 
HETATM    5  C   UNL     1      -9.737   6.446  67.517  1.00  0.00    -0.121 A  
HETATM    6  N   UNL     1      -9.627   8.533  65.877  1.00  0.00    -0.158 NA 
HETATM    7  C   UNL     1      -8.657   4.523  67.502  1.00  0.00    -0.103 A  
HETATM    8  N   UNL     1      -8.038   7.518  64.458  1.00  0.00    -0.252 NA 
HETATM    9  N   UNL     1     -10.526   7.476  67.859  1.00  0.00    -0.210 NA 
HETATM   10  C   UNL     1      -8.839   7.472  65.593  1.00  0.00    -0.038 A  
HETATM   11  N   UNL     1      -8.226   5.142  66.427  1.00  0.00    -0.108 NA 
HETATM   12  C   UNL     1     -10.403   8.483  66.982  1.00  0.00    -0.309 A  
HETATM   13  C   UNL     1      -8.879   6.357  66.439  1.00  0.00    -0.141 A  
HETATM   14  H1  UNL     1      -8.009   8.330  63.842  1.00  0.00     0.000 HD 
HETATM   15  H2  UNL     1      -8.266   6.706  63.886  1.00  0.00     0.000 HD 
ENDBRANCH   3   4
ENDBRANCH   1   3
BRANCH   1  16
HETATM   16  O   UNL     1     -10.075   6.325  71.532  1.00  0.00    -0.187 OA 
BRANCH  16  17
HETATM   17  C   UNL     1     -11.325   6.869  71.040  1.00  0.00    -0.299 C  
HETATM   18  O   UNL     1     -12.203   8.200  72.826  1.00  0.00    -0.300 OA 
HETATM   19  O   UNL     1      -9.949   8.885  71.684  1.00  0.00    -0.282 OA 
HETATM   20  P   UNL     1     -11.566   8.623  71.501  1.00  0.00    -0.353 P  
HETATM   21  O   UNL     1     -11.794  10.282  71.936  1.00  0.00    -0.086 OA 
BRANCH  19  22
HETATM   22  C   UNL     1      -9.195   9.396  70.606  1.00  0.00    -0.242 C  
BRANCH  22  23
HETATM   23  O   UNL     1      -7.857   9.728  70.999  1.00  0.00    -0.267 OA 
BRANCH  23  24
HETATM   24  C   UNL     1      -7.101  10.249  70.000  1.00  0.00    -0.158 C  
HETATM   25  O   UNL     1      -5.935  10.608  70.101  1.00  0.00    -0.071 OA 
BRANCH  24  26
HETATM   26  O   UNL     1      -7.851  10.331  68.869  1.00  0.00    -0.090 OA 
BRANCH  26  27
HETATM   27  C   UNL     1      -7.302  11.165  67.825  1.00  0.00    -0.093 C  
HETATM   28  C   UNL     1      -6.664  10.276  66.763  1.00  0.00    -0.083 C  
HETATM   29  C   UNL     1      -8.418  12.005  67.212  1.00  0.00    -0.175 C  
ENDBRANCH  26  27
ENDBRANCH  24  26
ENDBRANCH  23  24
ENDBRANCH  22  23
ENDBRANCH  19  22
BRANCH  21  30
HETATM   30  C   UNL     1     -12.784  10.919  71.157  1.00  0.00    -0.429 C  
BRANCH  30  31
HETATM   31  O   UNL     1     -12.296  12.118  70.564  1.00  0.00    -0.332 OA 
BRANCH  31  32
HETATM   32  C   UNL     1     -12.241  12.083  69.212  1.00  0.00    -0.077 C  
HETATM   33  O   UNL     1     -12.233  11.070  68.524  1.00  0.00    -0.582 OA 
BRANCH  32  34
HETATM   34  O   UNL     1     -12.259  13.360  68.756  1.00  0.00    -0.295 OA 
BRANCH  34  35
HETATM   35  C   UNL     1     -11.467  13.631  67.583  1.00  0.00    -0.325 C  
HETATM   36  C   UNL     1     -10.587  14.839  67.894  1.00  0.00    -0.248 C  
HETATM   37  C   UNL     1     -12.367  13.935  66.390  1.00  0.00    -0.468 C  
ENDBRANCH  34  35
ENDBRANCH  32  34
ENDBRANCH  31  32
ENDBRANCH  30  31
ENDBRANCH  21  30
ENDBRANCH  16  17
ENDBRANCH   1  16
TORSDOF 14
ENDMDL
MODEL      231
REMARK 921   NORMALIZED FREE ENERGY PREDICTED BY IDOCK:   -4.27 KCAL/MOL
REMARK 922        TOTAL FREE ENERGY PREDICTED BY IDOCK:   -9.60 KCAL/MOL
REMARK 923 INTER-LIGAND FREE ENERGY PREDICTED BY IDOCK:   -8.09 KCAL/MOL
REMARK 924 INTRA-LIGAND FREE ENERGY PREDICTED BY IDOCK:   -1.52 KCAL/MOL
REMARK 927      BINDING AFFINITY PREDICTED BY RF-SCORE:    0.00 PKD
ROOT
HETATM    1  C   UNL     1      -7.595   9.623  65.361  1.00  0.00    -0.111 C  
HETATM    2  C   UNL     1      -6.087   9.815  65.515  1.00  0.00    -0.072 C  
ENDROOT
BRANCH   1   3
HETATM    3  C   UNL     1      -8.423  10.739  65.983  1.00  0.00    -0.169 C  
BRANCH   3   4
HETATM    4  N   UNL     1      -9.486  11.267  65.171  1.00  0.00    -0.222 NA 
HETATM    5  C   UNL     1     -10.052  12.482  65.403  1.00  0.00    -0.267 A  
HETATM    6  N   UNL     1     -11.439  14.748  65.361  1.00  0.00    -0.347 NA 
HETATM    7  C   UNL     1      -9.991  10.786  63.995  1.00  0.00    -0.342 A  
HETATM    8  N   UNL     1     -12.547  14.202  63.351  1.00  0.00    -1.023 NA 
HETATM    9  N   UNL     1      -9.808  13.315  66.427  1.00  0.00    -0.276 NA 
HETATM   10  C   UNL     1     -11.630  13.879  64.343  1.00  0.00    -0.382 A  
HETATM   11  N   UNL     1     -10.885  11.599  63.480  1.00  0.00    -0.417 NA 
HETATM   12  C   UNL     1     -10.544  14.430  66.322  1.00  0.00    -0.292 A  
HETATM   13  C   UNL     1     -10.914  12.676  64.342  1.00  0.00    -0.351 A  
HETATM   14  H1  UNL     1     -13.068  15.078  63.352  1.00  0.00     0.000 HD 
HETATM   15  H2  UNL     1     -13.224  13.441  63.297  1.00  0.00     0.000 HD 
ENDBRANCH   3   4
ENDBRANCH   1   3
BRANCH   1  16
HETATM   16  O   UNL     1      -7.939   8.304  65.839  1.00  0.00    -0.089 OA 
BRANCH  16  17
HETATM   17  C   UNL     1      -9.004   8.237  66.819  1.00  0.00    -0.147 C  
HETATM   18  O   UNL     1      -8.746   6.127  67.920  1.00  0.00    -0.114 OA 
HETATM   19  O   UNL     1      -6.880   7.949  68.152  1.00  0.00    -0.064 OA 
HETATM   20  P   UNL     1      -8.454   7.543  68.420  1.00  0.00    -0.124 P  
HETATM   21  O   UNL     1      -7.935   6.888  69.934  1.00  0.00    -0.115 OA 
BRANCH  19  22
HETATM   22  C   UNL     1      -6.376   9.171  68.645  1.00  0.00    -0.049 C  
BRANCH  22  23
HETATM   23  O   UNL     1      -7.421  10.025  69.127  1.00  0.00    -0.078 OA 
BRANCH  23  24
HETATM   24  C   UNL     1      -6.979  11.180  69.685  1.00  0.00    -0.088 C  
HETATM   25  O   UNL     1      -6.237  11.265  70.655  1.00  0.00    -0.334 OA 
BRANCH  24  26
HETATM   26  O   UNL     1      -7.508  12.234  69.009  1.00  0.00    -0.058 OA 
BRANCH  26  27
HETATM   27  C   UNL     1      -6.642  13.383  68.884  1.00  0.00    -0.107 C  
HETATM   28  C   UNL     1      -5.978  13.357  67.511  1.00  0.00    -0.050 C  
HETATM   29  C   UNL     1      -7.466  14.656  69.050  1.00  0.00    -0.136 C  
ENDBRANCH  26  27
ENDBRANCH  24  26
ENDBRANCH  23  24
ENDBRANCH  22  23
ENDBRANCH  19  22
BRANCH  21  30
HETATM   30  C   UNL     1      -8.830   7.173  70.988  1.00  0.00    -0.145 C  
BRANCH  30  31
HETATM   31  O   UNL     1     -10.181   7.200  70.538  1.00  0.00    -0.195 OA 
BRANCH  31  32
HETATM   32  C   UNL     1     -10.904   8.237  71.021  1.00  0.00    -0.233 C  
HETATM   33  O   UNL     1     -10.691   9.422  70.798  1.00  0.00    -0.255 OA 
BRANCH  32  34
HETATM   34  O   UNL     1     -11.936   7.732  71.742  1.00  0.00    -0.275 OA 
BRANCH  34  35
HETATM   35  C   UNL     1     -13.241   8.269  71.453  1.00  0.00    -0.217 C  
HETATM   36  C   UNL     1     -13.530   9.354  72.486  1.00  0.00    -0.437 C  
HETATM   37  C   UNL     1     -14.299   7.174  71.539  1.00  0.00    -0.503 C  
ENDBRANCH  34  35
ENDBRANCH  32  34
ENDBRANCH  31  32
ENDBRANCH  30  31
ENDBRANCH  21  30
ENDBRANCH  16  17
ENDBRANCH   1  16
TORSDOF 14
ENDMDL
MODEL      232
REMARK 921   NORMALIZED FREE ENERGY PREDICTED BY IDOCK:   -4.27 KCAL/MOL
REMARK 922        TOTAL FREE ENERGY PREDICTED BY IDOCK:   -9.60 KCAL/MOL
REMARK 923 INTER-LIGAND FREE ENERGY PREDICTED BY IDOCK:   -9.03 KCAL/MOL
REMARK 924 INTRA-LIGAND FREE ENERGY PREDICTED BY IDOCK:   -0.57 KCAL/MOL
REMARK 927      BINDING AFFINITY PREDICTED BY RF-SCORE:    0.00 PKD
ROOT
HETATM    1  C   UNL     1     -11.292  13.322  66.619  1.00  0.00    -0.321 C  
HETATM    2  C   UNL     1     -11.894  12.927  65.272  1.00  0.00    -0.429 C  
ENDROOT
BRANCH   1   3
HETATM    3  C   UNL     1     -10.645  14.701  66.622  1.00  0.00    -0.289 C  
BRANCH   3   4
HETATM    4  N   UNL     1     -10.856  15.496  67.802  1.00  0.00    -0.301 NA 
HETATM    5  C   UNL     1     -11.478  15.011  68.911  1.00  0.00    -0.314 A  
HETATM    6  N   UNL     1     -12.540  14.575  71.307  1.00  0.00    -0.322 NA 
HETATM    7  C   UNL     1     -10.369  16.737  68.102  1.00  0.00    -0.318 A  
HETATM    8  N   UNL     1     -11.894  16.687  72.138  1.00  0.00    -0.597 NA 
HETATM    9  N   UNL     1     -12.061  13.812  69.062  1.00  0.00    -0.350 NA 
HETATM   10  C   UNL     1     -11.922  15.760  71.103  1.00  0.00    -0.423 A  
HETATM   11  N   UNL     1     -10.681  17.100  69.325  1.00  0.00    -0.245 NA 
HETATM   12  C   UNL     1     -12.563  13.677  70.298  1.00  0.00    -0.186 A  
HETATM   13  C   UNL     1     -11.356  16.018  69.849  1.00  0.00    -0.340 A  
HETATM   14  H1  UNL     1     -12.306  16.499  73.052  1.00  0.00     0.000 HD 
HETATM   15  H2  UNL     1     -12.303  17.553  71.788  1.00  0.00     0.000 HD 
ENDBRANCH   3   4
ENDBRANCH   1   3
BRANCH   1  16
HETATM   16  O   UNL     1     -10.411  12.263  67.054  1.00  0.00    -0.215 OA 
BRANCH  16  17
HETATM   17  C   UNL     1     -10.798  10.917  66.683  1.00  0.00    -0.197 C  
HETATM   18  O   UNL     1      -9.351  10.298  64.878  1.00  0.00    -0.207 OA 
HETATM   19  O   UNL     1      -8.343  10.753  67.252  1.00  0.00    -0.122 OA 
HETATM   20  P   UNL     1      -9.363   9.837  66.337  1.00  0.00    -0.197 P  
HETATM   21  O   UNL     1      -8.006   8.814  66.011  1.00  0.00    -0.102 OA 
BRANCH  19  22
HETATM   22  C   UNL     1      -8.119  10.417  68.604  1.00  0.00    -0.118 C  
BRANCH  22  23
HETATM   23  O   UNL     1      -8.857   9.253  68.995  1.00  0.00    -0.131 OA 
BRANCH  23  24
HETATM   24  C   UNL     1      -9.374   9.320  70.248  1.00  0.00    -0.239 C  
HETATM   25  O   UNL     1      -8.728   9.442  71.280  1.00  0.00    -0.295 OA 
BRANCH  24  26
HETATM   26  O   UNL     1     -10.727   9.210  70.179  1.00  0.00    -0.216 OA 
BRANCH  26  27
HETATM   27  C   UNL     1     -11.413   9.232  71.451  1.00  0.00    -0.369 C  
HETATM   28  C   UNL     1     -12.462  10.338  71.430  1.00  0.00    -0.528 C  
HETATM   29  C   UNL     1     -12.073   7.878  71.691  1.00  0.00    -0.333 C  
ENDBRANCH  26  27
ENDBRANCH  24  26
ENDBRANCH  23  24
ENDBRANCH  22  23
ENDBRANCH  19  22
BRANCH  21  30
HETATM   30  C   UNL     1      -8.339   7.442  66.034  1.00  0.00    -0.143 C  
BRANCH  30  31
HETATM   31  O   UNL     1      -9.661   7.229  66.519  1.00  0.00    -0.180 OA 
BRANCH  31  32
HETATM   32  C   UNL     1      -9.952   5.934  66.777  1.00  0.00    -0.175 C  
HETATM   33  O   UNL     1     -11.003   5.369  66.501  1.00  0.00    -0.239 OA 
BRANCH  32  34
HETATM   34  O   UNL     1      -8.859   5.359  67.337  1.00  0.00    -0.108 OA 
BRANCH  34  35
HETATM   35  C   UNL     1      -9.010   4.875  68.686  1.00  0.00    -0.105 C  
HETATM   36  C   UNL     1      -9.543   3.447  68.603  1.00  0.00    -0.127 C  
HETATM   37  C   UNL     1      -9.988   5.752  69.461  1.00  0.00    -0.250 C  
ENDBRANCH  34  35
ENDBRANCH  32  34
ENDBRANCH  31  32
ENDBRANCH  30  31
ENDBRANCH  21  30
ENDBRANCH  16  17
ENDBRANCH   1  16
TORSDOF 14
ENDMDL
MODEL      233
REMARK 921   NORMALIZED FREE ENERGY PREDICTED BY IDOCK:   -4.26 KCAL/MOL
REMARK 922        TOTAL FREE ENERGY PREDICTED BY IDOCK:   -9.59 KCAL/MOL
REMARK 923 INTER-LIGAND FREE ENERGY PREDICTED BY IDOCK:   -8.91 KCAL/MOL
REMARK 924 INTRA-LIGAND FREE ENERGY PREDICTED BY IDOCK:   -0.68 KCAL/MOL
REMARK 927      BINDING AFFINITY PREDICTED BY RF-SCORE:    0.00 PKD
ROOT
HETATM    1  C   UNL     1      -9.147  12.439  68.409  1.00  0.00    -0.141 C  
HETATM    2  C   UNL     1      -7.825  11.755  68.069  1.00  0.00    -0.134 C  
ENDROOT
BRANCH   1   3
HETATM    3  C   UNL     1     -10.374  11.585  68.115  1.00  0.00    -0.195 C  
BRANCH   3   4
HETATM    4  N   UNL     1     -10.535  10.408  68.926  1.00  0.00    -0.198 NA 
HETATM    5  C   UNL     1     -10.542   9.152  68.402  1.00  0.00    -0.172 A  
HETATM    6  N   UNL     1     -10.570   6.537  67.936  1.00  0.00    -0.221 NA 
HETATM    7  C   UNL     1     -10.539  10.295  70.288  1.00  0.00    -0.204 A  
HETATM    8  N   UNL     1     -10.640   5.982  70.228  1.00  0.00    -0.249 NA 
HETATM    9  N   UNL     1     -10.505   8.808  67.106  1.00  0.00    -0.292 NA 
HETATM   10  C   UNL     1     -10.587   6.942  69.225  1.00  0.00    -0.226 A  
HETATM   11  N   UNL     1     -10.597   9.040  70.673  1.00  0.00    -0.219 NA 
HETATM   12  C   UNL     1     -10.517   7.475  66.965  1.00  0.00    -0.338 A  
HETATM   13  C   UNL     1     -10.576   8.315  69.500  1.00  0.00    -0.213 A  
HETATM   14  H1  UNL     1     -10.647   4.982  70.028  1.00  0.00     0.000 HD 
HETATM   15  H2  UNL     1     -11.453   6.186  70.808  1.00  0.00     0.000 HD 
ENDBRANCH   3   4
ENDBRANCH   1   3
BRANCH   1  16
HETATM   16  O   UNL     1      -9.170  13.733  67.771  1.00  0.00    -0.190 OA 
BRANCH  16  17
HETATM   17  C   UNL     1      -8.062  14.616  68.075  1.00  0.00    -0.135 C  
HETATM   18  O   UNL     1      -8.287  16.481  66.590  1.00  0.00    -0.204 OA 
HETATM   19  O   UNL     1     -10.126  16.032  68.399  1.00  0.00    -0.221 OA 
HETATM   20  P   UNL     1      -8.545  16.380  68.095  1.00  0.00    -0.205 P  
HETATM   21  O   UNL     1      -9.000  18.049  68.115  1.00  0.00    -0.268 OA 
BRANCH  19  22
HETATM   22  C   UNL     1     -10.597  16.012  69.730  1.00  0.00    -0.323 C  
BRANCH  22  23
HETATM   23  O   UNL     1     -11.261  14.782  70.044  1.00  0.00    -0.253 OA 
BRANCH  23  24
HETATM   24  C   UNL     1     -12.512  14.940  70.543  1.00  0.00    -0.363 C  
HETATM   25  O   UNL     1     -12.985  15.987  70.964  1.00  0.00    -0.414 OA 
BRANCH  24  26
HETATM   26  O   UNL     1     -13.156  13.743  70.521  1.00  0.00    -0.140 OA 
BRANCH  26  27
HETATM   27  C   UNL     1     -13.646  13.282  71.799  1.00  0.00    -0.288 C  
HETATM   28  C   UNL     1     -13.234  11.827  71.994  1.00  0.00    -0.460 C  
HETATM   29  C   UNL     1     -13.058  14.152  72.907  1.00  0.00    -0.544 C  
ENDBRANCH  26  27
ENDBRANCH  24  26
ENDBRANCH  23  24
ENDBRANCH  22  23
ENDBRANCH  19  22
BRANCH  21  30
HETATM   30  C   UNL     1      -8.056  18.864  68.776  1.00  0.00    -0.319 C  
BRANCH  30  31
HETATM   31  O   UNL     1      -7.587  19.914  67.935  1.00  0.00    -0.290 OA 
BRANCH  31  32
HETATM   32  C   UNL     1      -6.362  20.383  68.269  1.00  0.00    -0.311 C  
HETATM   33  O   UNL     1      -5.974  20.622  69.405  1.00  0.00    -0.351 OA 
BRANCH  32  34
HETATM   34  O   UNL     1      -5.625  20.483  67.135  1.00  0.00    -0.163 OA 
BRANCH  34  35
HETATM   35  C   UNL     1      -6.112  19.755  65.990  1.00  0.00    -0.175 C  
HETATM   36  C   UNL     1      -5.272  18.487  65.862  1.00  0.00    -0.189 C  
HETATM   37  C   UNL     1      -5.978  20.598  64.726  1.00  0.00    -0.305 C  
ENDBRANCH  34  35
ENDBRANCH  32  34
ENDBRANCH  31  32
ENDBRANCH  30  31
ENDBRANCH  21  30
ENDBRANCH  16  17
ENDBRANCH   1  16
TORSDOF 14
ENDMDL
MODEL      234
REMARK 921   NORMALIZED FREE ENERGY PREDICTED BY IDOCK:   -4.26 KCAL/MOL
REMARK 922        TOTAL FREE ENERGY PREDICTED BY IDOCK:   -9.58 KCAL/MOL
REMARK 923 INTER-LIGAND FREE ENERGY PREDICTED BY IDOCK:   -8.43 KCAL/MOL
REMARK 924 INTRA-LIGAND FREE ENERGY PREDICTED BY IDOCK:   -1.15 KCAL/MOL
REMARK 927      BINDING AFFINITY PREDICTED BY RF-SCORE:    0.00 PKD
ROOT
HETATM    1  C   UNL     1      -8.612  10.622  65.622  1.00  0.00    -0.182 C  
HETATM    2  C   UNL     1      -9.761  10.226  64.698  1.00  0.00    -0.398 C  
ENDROOT
BRANCH   1   3
HETATM    3  C   UNL     1      -7.465   9.620  65.640  1.00  0.00    -0.101 C  
BRANCH   3   4
HETATM    4  N   UNL     1      -7.589   8.500  64.746  1.00  0.00    -0.095 NA 
HETATM    5  C   UNL     1      -8.067   7.291  65.147  1.00  0.00    -0.128 A  
HETATM    6  N   UNL     1      -8.965   4.800  65.367  1.00  0.00    -0.145 NA 
HETATM    7  C   UNL     1      -7.434   8.461  63.389  1.00  0.00    -0.114 A  
HETATM    8  N   UNL     1      -8.765   4.370  63.056  1.00  0.00    -0.110 NA 
HETATM    9  N   UNL     1      -8.394   6.915  66.394  1.00  0.00    -0.119 NA 
HETATM   10  C   UNL     1      -8.638   5.240  64.132  1.00  0.00    -0.069 A  
HETATM   11  N   UNL     1      -7.739   7.281  62.898  1.00  0.00    -0.121 NA 
HETATM   12  C   UNL     1      -8.840   5.651  66.409  1.00  0.00    -0.129 A  
HETATM   13  C   UNL     1      -8.158   6.547  63.987  1.00  0.00    -0.029 A  
HETATM   14  H1  UNL     1      -9.114   3.418  63.161  1.00  0.00     0.000 HD 
HETATM   15  H2  UNL     1      -7.858   4.316  62.594  1.00  0.00     0.000 HD 
ENDBRANCH   3   4
ENDBRANCH   1   3
BRANCH   1  16
HETATM   16  O   UNL     1      -9.154  10.912  66.928  1.00  0.00    -0.151 OA 
BRANCH  16  17
HETATM   17  C   UNL     1      -9.981   9.880  67.520  1.00  0.00    -0.185 C  
HETATM   18  O   UNL     1      -9.561   9.978  69.876  1.00  0.00    -0.226 OA 
HETATM   19  O   UNL     1     -10.684  12.014  68.672  1.00  0.00    -0.223 OA 
HETATM   20  P   UNL     1     -10.786  10.419  69.072  1.00  0.00    -0.264 P  
HETATM   21  O   UNL     1     -11.548  10.928  70.540  1.00  0.00    -0.322 OA 
BRANCH  19  22
HETATM   22  C   UNL     1     -11.770  12.647  68.029  1.00  0.00    -0.350 C  
BRANCH  22  23
HETATM   23  O   UNL     1     -11.803  12.360  66.626  1.00  0.00    -0.492 OA 
BRANCH  23  24
HETATM   24  C   UNL     1     -11.947  13.457  65.840  1.00  0.00    -0.409 C  
HETATM   25  O   UNL     1     -12.180  13.448  64.639  1.00  0.00    -0.389 OA 
BRANCH  24  26
HETATM   26  O   UNL     1     -11.772  14.573  66.596  1.00  0.00    -0.372 OA 
BRANCH  26  27
HETATM   27  C   UNL     1     -10.710  15.451  66.162  1.00  0.00    -0.314 C  
HETATM   28  C   UNL     1     -10.461  16.500  67.240  1.00  0.00    -0.304 C  
HETATM   29  C   UNL     1      -9.447  14.632  65.916  1.00  0.00    -0.238 C  
ENDBRANCH  26  27
ENDBRANCH  24  26
ENDBRANCH  23  24
ENDBRANCH  22  23
ENDBRANCH  19  22
BRANCH  21  30
HETATM   30  C   UNL     1     -12.632  10.102  70.907  1.00  0.00    -0.360 C  
BRANCH  30  31
HETATM   31  O   UNL     1     -12.199   8.960  71.639  1.00  0.00    -0.304 OA 
BRANCH  31  32
HETATM   32  C   UNL     1     -13.123   7.974  71.723  1.00  0.00    -0.336 C  
HETATM   33  O   UNL     1     -14.336   8.126  71.672  1.00  0.00    -0.426 OA 
BRANCH  32  34
HETATM   34  O   UNL     1     -12.468   6.790  71.811  1.00  0.00    -0.353 OA 
BRANCH  34  35
HETATM   35  C   UNL     1     -11.288   6.649  70.995  1.00  0.00    -0.315 C  
HETATM   36  C   UNL     1     -11.742   6.226  69.601  1.00  0.00    -0.084 C  
HETATM   37  C   UNL     1     -10.357   5.593  71.582  1.00  0.00    -0.270 C  
ENDBRANCH  34  35
ENDBRANCH  32  34
ENDBRANCH  31  32
ENDBRANCH  30  31
ENDBRANCH  21  30
ENDBRANCH  16  17
ENDBRANCH   1  16
TORSDOF 14
ENDMDL
MODEL      235
REMARK 921   NORMALIZED FREE ENERGY PREDICTED BY IDOCK:   -4.25 KCAL/MOL
REMARK 922        TOTAL FREE ENERGY PREDICTED BY IDOCK:   -9.57 KCAL/MOL
REMARK 923 INTER-LIGAND FREE ENERGY PREDICTED BY IDOCK:   -8.02 KCAL/MOL
REMARK 924 INTRA-LIGAND FREE ENERGY PREDICTED BY IDOCK:   -1.56 KCAL/MOL
REMARK 927      BINDING AFFINITY PREDICTED BY RF-SCORE:    0.00 PKD
ROOT
HETATM    1  C   UNL     1     -11.464  15.037  67.415  1.00  0.00    -0.317 C  
HETATM    2  C   UNL     1     -11.261  14.571  65.975  1.00  0.00    -0.337 C  
ENDROOT
BRANCH   1   3
HETATM    3  C   UNL     1     -10.224  15.665  68.038  1.00  0.00    -0.227 C  
BRANCH   3   4
HETATM    4  N   UNL     1      -9.501  16.593  67.211  1.00  0.00    -0.230 NA 
HETATM    5  C   UNL     1      -9.760  17.929  67.208  1.00  0.00    -0.289 A  
HETATM    6  N   UNL     1      -9.800  20.563  66.858  1.00  0.00    -0.431 NA 
HETATM    7  C   UNL     1      -8.385  16.380  66.450  1.00  0.00    -0.328 A  
HETATM    8  N   UNL     1      -7.910  20.549  65.446  1.00  0.00    -0.371 NA 
HETATM    9  N   UNL     1     -10.742  18.572  67.859  1.00  0.00    -0.353 NA 
HETATM   10  C   UNL     1      -8.821  19.864  66.241  1.00  0.00    -0.345 A  
HETATM   11  N   UNL     1      -7.938  17.495  65.919  1.00  0.00    -0.552 NA 
HETATM   12  C   UNL     1     -10.682  19.891  67.630  1.00  0.00    -0.260 A  
HETATM   13  C   UNL     1      -8.778  18.475  66.405  1.00  0.00    -0.260 A  
HETATM   14  H1  UNL     1      -7.941  21.561  65.327  1.00  0.00     0.000 HD 
HETATM   15  H2  UNL     1      -7.932  20.129  64.518  1.00  0.00     0.000 HD 
ENDBRANCH   3   4
ENDBRANCH   1   3
BRANCH   1  16
HETATM   16  O   UNL     1     -12.008  13.939  68.179  1.00  0.00    -0.355 OA 
BRANCH  16  17
HETATM   17  C   UNL     1     -11.089  13.264  69.073  1.00  0.00    -0.244 C  
HETATM   18  O   UNL     1     -12.430  11.778  70.387  1.00  0.00    -0.270 OA 
HETATM   19  O   UNL     1     -12.236  11.408  67.802  1.00  0.00    -0.537 OA 
HETATM   20  P   UNL     1     -11.452  11.480  69.250  1.00  0.00    -0.354 P  
HETATM   21  O   UNL     1     -11.794   9.792  69.417  1.00  0.00     0.104 OA 
BRANCH  19  22
HETATM   22  C   UNL     1     -11.532  11.028  66.640  1.00  0.00     0.244 C  
BRANCH  22  23
HETATM   23  O   UNL     1     -10.209  10.570  66.942  1.00  0.00    -0.210 OA 
BRANCH  23  24
HETATM   24  C   UNL     1      -9.305  10.803  65.957  1.00  0.00    -0.186 C  
HETATM   25  O   UNL     1      -9.458  10.543  64.772  1.00  0.00    -0.212 OA 
BRANCH  24  26
HETATM   26  O   UNL     1      -8.186  11.355  66.499  1.00  0.00    -0.166 OA 
BRANCH  26  27
HETATM   27  C   UNL     1      -6.947  10.697  66.157  1.00  0.00    -0.135 C  
HETATM   28  C   UNL     1      -5.801  11.385  66.892  1.00  0.00    -0.121 C  
HETATM   29  C   UNL     1      -7.028   9.228  66.558  1.00  0.00    -0.081 C  
ENDBRANCH  26  27
ENDBRANCH  24  26
ENDBRANCH  23  24
ENDBRANCH  22  23
ENDBRANCH  19  22
BRANCH  21  30
HETATM   30  C   UNL     1     -10.708   9.066  69.953  1.00  0.00    -0.229 C  
BRANCH  30  31
HETATM   31  O   UNL     1      -9.693   9.930  70.454  1.00  0.00    -0.234 OA 
BRANCH  31  32
HETATM   32  C   UNL     1      -8.446   9.622  70.030  1.00  0.00    -0.204 C  
HETATM   33  O   UNL     1      -7.470  10.360  70.084  1.00  0.00    -0.151 OA 
BRANCH  32  34
HETATM   34  O   UNL     1      -8.454   8.338  69.593  1.00  0.00    -0.122 OA 
BRANCH  34  35
HETATM   35  C   UNL     1      -7.654   7.403  70.342  1.00  0.00    -0.091 C  
HETATM   36  C   UNL     1      -6.356   7.188  69.570  1.00  0.00    -0.035 C  
HETATM   37  C   UNL     1      -8.392   6.077  70.500  1.00  0.00    -0.128 C  
ENDBRANCH  34  35
ENDBRANCH  32  34
ENDBRANCH  31  32
ENDBRANCH  30  31
ENDBRANCH  21  30
ENDBRANCH  16  17
ENDBRANCH   1  16
TORSDOF 14
ENDMDL
MODEL      236
REMARK 921   NORMALIZED FREE ENERGY PREDICTED BY IDOCK:   -4.25 KCAL/MOL
REMARK 922        TOTAL FREE ENERGY PREDICTED BY IDOCK:   -9.57 KCAL/MOL
REMARK 923 INTER-LIGAND FREE ENERGY PREDICTED BY IDOCK:   -8.51 KCAL/MOL
REMARK 924 INTRA-LIGAND FREE ENERGY PREDICTED BY IDOCK:   -1.06 KCAL/MOL
REMARK 927      BINDING AFFINITY PREDICTED BY RF-SCORE:    0.00 PKD
ROOT
HETATM    1  C   UNL     1      -8.367  14.541  67.229  1.00  0.00    -0.212 C  
HETATM    2  C   UNL     1      -8.269  14.900  68.710  1.00  0.00    -0.161 C  
ENDROOT
BRANCH   1   3
HETATM    3  C   UNL     1      -9.075  15.594  66.387  1.00  0.00    -0.320 C  
BRANCH   3   4
HETATM    4  N   UNL     1      -8.444  16.885  66.326  1.00  0.00    -0.363 NA 
HETATM    5  C   UNL     1      -9.066  18.025  66.733  1.00  0.00    -0.273 A  
HETATM    6  N   UNL     1      -9.764  20.493  67.427  1.00  0.00    -0.455 NA 
HETATM    7  C   UNL     1      -7.144  17.195  66.040  1.00  0.00    -0.085 A  
HETATM    8  N   UNL     1      -7.626  21.381  66.971  1.00  0.00    -0.772 NA 
HETATM    9  N   UNL     1     -10.337  18.160  67.144  1.00  0.00    -0.365 NA 
HETATM   10  C   UNL     1      -8.490  20.293  67.023  1.00  0.00    -0.319 A  
HETATM   11  N   UNL     1      -6.905  18.478  66.192  1.00  0.00    -0.232 NA 
HETATM   12  C   UNL     1     -10.598  19.431  67.477  1.00  0.00    -0.474 A  
HETATM   13  C   UNL     1      -8.096  19.004  66.648  1.00  0.00    -0.274 A  
HETATM   14  H1  UNL     1      -7.913  22.321  67.244  1.00  0.00     0.000 HD 
HETATM   15  H2  UNL     1      -7.256  21.435  66.022  1.00  0.00     0.000 HD 
ENDBRANCH   3   4
ENDBRANCH   1   3
BRANCH   1  16
HETATM   16  O   UNL     1      -8.940  13.221  67.116  1.00  0.00    -0.212 OA 
BRANCH  16  17
HETATM   17  C   UNL     1      -8.625  12.293  68.184  1.00  0.00    -0.181 C  
HETATM   18  O   UNL     1     -10.732  11.559  69.053  1.00  0.00    -0.208 OA 
HETATM   19  O   UNL     1     -10.071  10.976  66.587  1.00  0.00    -0.206 OA 
HETATM   20  P   UNL     1      -9.710  10.820  68.187  1.00  0.00    -0.170 P  
HETATM   21  O   UNL     1     -10.734   9.426  68.191  1.00  0.00    -0.224 OA 
BRANCH  19  22
HETATM   22  C   UNL     1      -9.317  10.271  65.625  1.00  0.00    -0.192 C  
BRANCH  22  23
HETATM   23  O   UNL     1      -9.678   8.886  65.572  1.00  0.00    -0.147 OA 
BRANCH  23  24
HETATM   24  C   UNL     1      -8.638   8.035  65.761  1.00  0.00    -0.153 C  
HETATM   25  O   UNL     1      -8.593   6.869  65.391  1.00  0.00    -0.131 OA 
BRANCH  24  26
HETATM   26  O   UNL     1      -7.656   8.677  66.449  1.00  0.00    -0.089 OA 
BRANCH  26  27
HETATM   27  C   UNL     1      -6.498   7.873  66.763  1.00  0.00    -0.055 C  
HETATM   28  C   UNL     1      -5.295   8.416  65.999  1.00  0.00    -0.031 C  
HETATM   29  C   UNL     1      -6.240   7.926  68.265  1.00  0.00    -0.045 C  
ENDBRANCH  26  27
ENDBRANCH  24  26
ENDBRANCH  23  24
ENDBRANCH  22  23
ENDBRANCH  19  22
BRANCH  21  30
HETATM   30  C   UNL     1     -10.204   8.361  68.952  1.00  0.00    -0.210 C  
BRANCH  30  31
HETATM   31  O   UNL     1     -11.160   7.847  69.875  1.00  0.00    -0.222 OA 
BRANCH  31  32
HETATM   32  C   UNL     1     -10.862   8.092  71.172  1.00  0.00    -0.238 C  
HETATM   33  O   UNL     1     -10.252   9.066  71.594  1.00  0.00    -0.317 OA 
BRANCH  32  34
HETATM   34  O   UNL     1     -11.408   7.104  71.923  1.00  0.00    -0.247 OA 
BRANCH  34  35
HETATM   35  C   UNL     1     -10.490   6.300  72.689  1.00  0.00    -0.211 C  
HETATM   36  C   UNL     1     -11.108   4.913  72.838  1.00  0.00    -0.329 C  
HETATM   37  C   UNL     1     -10.260   6.918  74.065  1.00  0.00    -0.384 C  
ENDBRANCH  34  35
ENDBRANCH  32  34
ENDBRANCH  31  32
ENDBRANCH  30  31
ENDBRANCH  21  30
ENDBRANCH  16  17
ENDBRANCH   1  16
TORSDOF 14
ENDMDL
MODEL      237
REMARK 921   NORMALIZED FREE ENERGY PREDICTED BY IDOCK:   -4.24 KCAL/MOL
REMARK 922        TOTAL FREE ENERGY PREDICTED BY IDOCK:   -9.56 KCAL/MOL
REMARK 923 INTER-LIGAND FREE ENERGY PREDICTED BY IDOCK:   -8.55 KCAL/MOL
REMARK 924 INTRA-LIGAND FREE ENERGY PREDICTED BY IDOCK:   -1.01 KCAL/MOL
REMARK 927      BINDING AFFINITY PREDICTED BY RF-SCORE:    0.00 PKD
ROOT
HETATM    1  C   UNL     1      -9.269  11.196  67.775  1.00  0.00    -0.153 C  
HETATM    2  C   UNL     1     -10.308  10.608  66.823  1.00  0.00    -0.299 C  
ENDROOT
BRANCH   1   3
HETATM    3  C   UNL     1      -9.063  10.375  69.042  1.00  0.00    -0.187 C  
BRANCH   3   4
HETATM    4  N   UNL     1      -8.907   8.957  68.859  1.00  0.00    -0.136 NA 
HETATM    5  C   UNL     1      -9.368   8.047  69.759  1.00  0.00    -0.159 A  
HETATM    6  N   UNL     1     -10.104   5.885  71.117  1.00  0.00    -0.192 NA 
HETATM    7  C   UNL     1      -8.460   8.274  67.763  1.00  0.00    -0.131 A  
HETATM    8  N   UNL     1      -9.379   4.402  69.430  1.00  0.00    -0.140 NA 
HETATM    9  N   UNL     1      -9.928   8.292  70.955  1.00  0.00    -0.187 NA 
HETATM   10  C   UNL     1      -9.552   5.700  69.897  1.00  0.00    -0.161 A  
HETATM   11  N   UNL     1      -8.563   6.975  67.923  1.00  0.00    -0.127 NA 
HETATM   12  C   UNL     1     -10.271   7.148  71.564  1.00  0.00    -0.197 A  
HETATM   13  C   UNL     1      -9.152   6.821  69.161  1.00  0.00    -0.138 A  
HETATM   14  H1  UNL     1      -9.671   3.585  69.966  1.00  0.00     0.000 HD 
HETATM   15  H2  UNL     1      -8.392   4.285  69.203  1.00  0.00     0.000 HD 
ENDBRANCH   3   4
ENDBRANCH   1   3
BRANCH   1  16
HETATM   16  O   UNL     1      -9.606  12.577  68.023  1.00  0.00    -0.200 OA 
BRANCH  16  17
HETATM   17  C   UNL     1      -8.966  13.555  67.166  1.00  0.00    -0.227 C  
HETATM   18  O   UNL     1     -10.263  13.607  65.154  1.00  0.00    -0.338 OA 
HETATM   19  O   UNL     1     -11.343  14.369  67.415  1.00  0.00    -0.307 OA 
HETATM   20  P   UNL     1     -10.164  14.626  66.292  1.00  0.00    -0.322 P  
HETATM   21  O   UNL     1     -11.297  15.639  65.465  1.00  0.00    -0.189 OA 
BRANCH  19  22
HETATM   22  C   UNL     1     -11.499  15.273  68.487  1.00  0.00    -0.342 C  
BRANCH  22  23
HETATM   23  O   UNL     1     -11.174  14.671  69.746  1.00  0.00    -0.260 OA 
BRANCH  23  24
HETATM   24  C   UNL     1     -12.187  13.957  70.297  1.00  0.00    -0.358 C  
HETATM   25  O   UNL     1     -13.264  14.411  70.662  1.00  0.00    -0.322 OA 
BRANCH  24  26
HETATM   26  O   UNL     1     -11.811  12.655  70.399  1.00  0.00    -0.291 OA 
BRANCH  26  27
HETATM   27  C   UNL     1     -12.896  11.704  70.475  1.00  0.00     0.037 C  
HETATM   28  C   UNL     1     -12.533  10.470  69.656  1.00  0.00    -0.062 C  
HETATM   29  C   UNL     1     -13.131  11.322  71.933  1.00  0.00    -0.510 C  
ENDBRANCH  26  27
ENDBRANCH  24  26
ENDBRANCH  23  24
ENDBRANCH  22  23
ENDBRANCH  19  22
BRANCH  21  30
HETATM   30  C   UNL     1     -10.705  16.813  64.952  1.00  0.00    -0.018 C  
BRANCH  30  31
HETATM   31  O   UNL     1      -9.760  17.367  65.862  1.00  0.00    -0.507 OA 
BRANCH  31  32
HETATM   32  C   UNL     1      -9.817  18.715  65.964  1.00  0.00    -0.184 C  
HETATM   33  O   UNL     1     -10.779  19.414  65.673  1.00  0.00    -0.468 OA 
BRANCH  32  34
HETATM   34  O   UNL     1      -8.648  19.147  66.500  1.00  0.00    -0.299 OA 
BRANCH  34  35
HETATM   35  C   UNL     1      -8.730  19.760  67.802  1.00  0.00    -0.325 C  
HETATM   36  C   UNL     1      -7.407  19.497  68.516  1.00  0.00    -0.368 C  
HETATM   37  C   UNL     1      -9.882  19.160  68.603  1.00  0.00    -0.485 C  
ENDBRANCH  34  35
ENDBRANCH  32  34
ENDBRANCH  31  32
ENDBRANCH  30  31
ENDBRANCH  21  30
ENDBRANCH  16  17
ENDBRANCH   1  16
TORSDOF 14
ENDMDL
MODEL      238
REMARK 921   NORMALIZED FREE ENERGY PREDICTED BY IDOCK:   -4.24 KCAL/MOL
REMARK 922        TOTAL FREE ENERGY PREDICTED BY IDOCK:   -9.55 KCAL/MOL
REMARK 923 INTER-LIGAND FREE ENERGY PREDICTED BY IDOCK:   -7.83 KCAL/MOL
REMARK 924 INTRA-LIGAND FREE ENERGY PREDICTED BY IDOCK:   -1.71 KCAL/MOL
REMARK 927      BINDING AFFINITY PREDICTED BY RF-SCORE:    0.00 PKD
ROOT
HETATM    1  C   UNL     1      -7.538  13.714  67.612  1.00  0.00    -0.179 C  
HETATM    2  C   UNL     1      -6.067  13.323  67.482  1.00  0.00    -0.098 C  
ENDROOT
BRANCH   1   3
HETATM    3  C   UNL     1      -7.858  14.490  68.883  1.00  0.00    -0.134 C  
BRANCH   3   4
HETATM    4  N   UNL     1      -8.731  15.622  68.730  1.00  0.00    -0.182 NA 
HETATM    5  C   UNL     1      -8.281  16.906  68.765  1.00  0.00    -0.244 A  
HETATM    6  N   UNL     1      -7.947  19.541  68.689  1.00  0.00    -0.358 NA 
HETATM    7  C   UNL     1     -10.051  15.650  68.375  1.00  0.00    -0.214 A  
HETATM    8  N   UNL     1     -10.199  19.955  68.122  1.00  0.00    -0.439 NA 
HETATM    9  N   UNL     1      -7.034  17.326  69.032  1.00  0.00    -0.234 NA 
HETATM   10  C   UNL     1      -9.178  19.058  68.410  1.00  0.00    -0.352 A  
HETATM   11  N   UNL     1     -10.489  16.879  68.226  1.00  0.00    -0.333 NA 
HETATM   12  C   UNL     1      -6.958  18.663  68.967  1.00  0.00    -0.281 A  
HETATM   13  C   UNL     1      -9.383  17.673  68.445  1.00  0.00    -0.289 A  
HETATM   14  H1  UNL     1     -10.050  20.963  68.095  1.00  0.00     0.000 HD 
HETATM   15  H2  UNL     1     -10.962  19.774  68.774  1.00  0.00     0.000 HD 
ENDBRANCH   3   4
ENDBRANCH   1   3
BRANCH   1  16
HETATM   16  O   UNL     1      -8.343  12.530  67.432  1.00  0.00    -0.164 OA 
BRANCH  16  17
HETATM   17  C   UNL     1      -7.652  11.262  67.551  1.00  0.00    -0.110 C  
HETATM   18  O   UNL     1      -7.239  10.962  69.890  1.00  0.00    -0.118 OA 
HETATM   19  O   UNL     1      -9.702  11.020  69.004  1.00  0.00    -0.196 OA 
HETATM   20  P   UNL     1      -8.239  10.263  68.967  1.00  0.00    -0.157 P  
HETATM   21  O   UNL     1      -8.794   9.318  70.305  1.00  0.00    -0.183 OA 
BRANCH  19  22
HETATM   22  C   UNL     1     -10.798  10.464  68.311  1.00  0.00    -0.254 C  
BRANCH  22  23
HETATM   23  O   UNL     1     -12.044  11.030  68.736  1.00  0.00    -0.518 OA 
BRANCH  23  24
HETATM   24  C   UNL     1     -12.377  10.733  70.017  1.00  0.00    -0.298 C  
HETATM   25  O   UNL     1     -11.963   9.777  70.659  1.00  0.00    -0.277 OA 
BRANCH  24  26
HETATM   26  O   UNL     1     -13.264  11.658  70.473  1.00  0.00     0.207 OA 
BRANCH  26  27
HETATM   27  C   UNL     1     -12.717  12.645  71.375  1.00  0.00    -0.247 C  
HETATM   28  C   UNL     1     -12.284  13.866  70.571  1.00  0.00    -0.443 C  
HETATM   29  C   UNL     1     -13.778  13.033  72.400  1.00  0.00    -0.593 C  
ENDBRANCH  26  27
ENDBRANCH  24  26
ENDBRANCH  23  24
ENDBRANCH  22  23
ENDBRANCH  19  22
BRANCH  21  30
HETATM   30  C   UNL     1      -8.422   7.960  70.205  1.00  0.00    -0.129 C  
BRANCH  30  31
HETATM   31  O   UNL     1      -8.770   7.411  68.937  1.00  0.00    -0.132 OA 
BRANCH  31  32
HETATM   32  C   UNL     1      -8.070   6.302  68.604  1.00  0.00    -0.109 C  
HETATM   33  O   UNL     1      -6.939   6.029  68.987  1.00  0.00    -0.063 OA 
BRANCH  32  34
HETATM   34  O   UNL     1      -8.860   5.522  67.826  1.00  0.00    -0.108 OA 
BRANCH  34  35
HETATM   35  C   UNL     1      -9.459   6.159  66.681  1.00  0.00    -0.151 C  
HETATM   36  C   UNL     1     -10.607   5.270  66.210  1.00  0.00    -0.308 C  
HETATM   37  C   UNL     1      -8.434   6.321  65.563  1.00  0.00    -0.145 C  
ENDBRANCH  34  35
ENDBRANCH  32  34
ENDBRANCH  31  32
ENDBRANCH  30  31
ENDBRANCH  21  30
ENDBRANCH  16  17
ENDBRANCH   1  16
TORSDOF 14
ENDMDL
MODEL      239
REMARK 921   NORMALIZED FREE ENERGY PREDICTED BY IDOCK:   -4.22 KCAL/MOL
REMARK 922        TOTAL FREE ENERGY PREDICTED BY IDOCK:   -9.51 KCAL/MOL
REMARK 923 INTER-LIGAND FREE ENERGY PREDICTED BY IDOCK:   -8.22 KCAL/MOL
REMARK 924 INTRA-LIGAND FREE ENERGY PREDICTED BY IDOCK:   -1.30 KCAL/MOL
REMARK 927      BINDING AFFINITY PREDICTED BY RF-SCORE:    0.00 PKD
ROOT
HETATM    1  C   UNL     1     -11.916  12.904  67.950  1.00  0.00    -0.282 C  
HETATM    2  C   UNL     1     -11.730  14.244  67.243  1.00  0.00    -0.422 C  
ENDROOT
BRANCH   1   3
HETATM    3  C   UNL     1     -11.410  12.892  69.387  1.00  0.00    -0.201 C  
BRANCH   3   4
HETATM    4  N   UNL     1     -12.251  12.231  70.349  1.00  0.00    -0.329 NA 
HETATM    5  C   UNL     1     -12.118  10.912  70.655  1.00  0.00    -0.371 A  
HETATM    6  N   UNL     1     -12.257   8.455  71.656  1.00  0.00    -0.301 NA 
HETATM    7  C   UNL     1     -13.163  12.773  71.211  1.00  0.00    -0.054 A  
HETATM    8  N   UNL     1     -13.898   9.041  73.248  1.00  0.00    -1.163 NA 
HETATM    9  N   UNL     1     -11.298  10.019  70.080  1.00  0.00    -0.266 NA 
HETATM   10  C   UNL     1     -13.047   9.402  72.210  1.00  0.00    -0.428 A  
HETATM   11  N   UNL     1     -13.661  11.869  72.024  1.00  0.00    -0.249 NA 
HETATM   12  C   UNL     1     -11.431   8.813  70.649  1.00  0.00    -0.231 A  
HETATM   13  C   UNL     1     -12.996  10.704  71.700  1.00  0.00    -0.477 A  
HETATM   14  H1  UNL     1     -13.935   8.092  73.619  1.00  0.00     0.000 HD 
HETATM   15  H2  UNL     1     -14.845   9.302  72.975  1.00  0.00     0.000 HD 
ENDBRANCH   3   4
ENDBRANCH   1   3
BRANCH   1  16
HETATM   16  O   UNL     1     -11.346  11.867  67.123  1.00  0.00    -0.300 OA 
BRANCH  16  17
HETATM   17  C   UNL     1     -10.125  12.207  66.422  1.00  0.00    -0.220 C  
HETATM   18  O   UNL     1      -8.392  12.167  68.074  1.00  0.00    -0.150 OA 
HETATM   19  O   UNL     1      -9.664   9.958  67.473  1.00  0.00    -0.153 OA 
HETATM   20  P   UNL     1      -8.700  11.185  66.942  1.00  0.00    -0.162 P  
HETATM   21  O   UNL     1      -7.351  10.218  67.433  1.00  0.00    -0.091 OA 
BRANCH  19  22
HETATM   22  C   UNL     1      -9.969   8.882  66.613  1.00  0.00    -0.276 C  
BRANCH  22  23
HETATM   23  O   UNL     1     -10.626   7.813  67.304  1.00  0.00    -0.295 OA 
BRANCH  23  24
HETATM   24  C   UNL     1     -10.125   6.584  67.025  1.00  0.00    -0.179 C  
HETATM   25  O   UNL     1      -9.422   6.301  66.064  1.00  0.00    -0.109 OA 
BRANCH  24  26
HETATM   26  O   UNL     1     -10.545   5.705  67.974  1.00  0.00    -0.221 OA 
BRANCH  26  27
HETATM   27  C   UNL     1      -9.547   5.326  68.948  1.00  0.00    -0.137 C  
HETATM   28  C   UNL     1      -8.586   6.492  69.153  1.00  0.00    -0.129 C  
HETATM   29  C   UNL     1     -10.236   4.970  70.262  1.00  0.00    -0.328 C  
ENDBRANCH  26  27
ENDBRANCH  24  26
ENDBRANCH  23  24
ENDBRANCH  22  23
ENDBRANCH  19  22
BRANCH  21  30
HETATM   30  C   UNL     1      -6.283  10.264  66.512  1.00  0.00    -0.073 C  
BRANCH  30  31
HETATM   31  O   UNL     1      -6.737  10.558  65.194  1.00  0.00    -0.107 OA 
BRANCH  31  32
HETATM   32  C   UNL     1      -6.197   9.770  64.236  1.00  0.00    -0.115 C  
HETATM   33  O   UNL     1      -5.880  10.130  63.109  1.00  0.00    -0.116 OA 
BRANCH  32  34
HETATM   34  O   UNL     1      -6.014   8.533  64.760  1.00  0.00    -0.061 OA 
BRANCH  34  35
HETATM   35  C   UNL     1      -6.613   7.438  64.040  1.00  0.00    -0.048 C  
HETATM   36  C   UNL     1      -5.590   6.946  63.020  1.00  0.00    -0.036 C  
HETATM   37  C   UNL     1      -7.880   7.898  63.326  1.00  0.00    -0.141 C  
ENDBRANCH  34  35
ENDBRANCH  32  34
ENDBRANCH  31  32
ENDBRANCH  30  31
ENDBRANCH  21  30
ENDBRANCH  16  17
ENDBRANCH   1  16
TORSDOF 14
ENDMDL
MODEL      240
REMARK 921   NORMALIZED FREE ENERGY PREDICTED BY IDOCK:   -4.22 KCAL/MOL
REMARK 922        TOTAL FREE ENERGY PREDICTED BY IDOCK:   -9.51 KCAL/MOL
REMARK 923 INTER-LIGAND FREE ENERGY PREDICTED BY IDOCK:   -8.12 KCAL/MOL
REMARK 924 INTRA-LIGAND FREE ENERGY PREDICTED BY IDOCK:   -1.39 KCAL/MOL
REMARK 927      BINDING AFFINITY PREDICTED BY RF-SCORE:    0.00 PKD
ROOT
HETATM    1  C   UNL     1      -9.198  10.858  67.504  1.00  0.00    -0.147 C  
HETATM    2  C   UNL     1      -9.225   9.712  66.495  1.00  0.00    -0.197 C  
ENDROOT
BRANCH   1   3
HETATM    3  C   UNL     1      -8.749  12.187  66.913  1.00  0.00    -0.194 C  
BRANCH   3   4
HETATM    4  N   UNL     1      -9.729  12.898  66.136  1.00  0.00    -0.266 NA 
HETATM    5  C   UNL     1      -9.711  14.251  65.994  1.00  0.00    -0.287 A  
HETATM    6  N   UNL     1     -10.110  16.797  65.345  1.00  0.00    -0.596 NA 
HETATM    7  C   UNL     1     -10.695  12.402  65.306  1.00  0.00    -0.287 A  
HETATM    8  N   UNL     1     -11.876  16.293  63.864  1.00  0.00    -1.412 NA 
HETATM    9  N   UNL     1      -8.890  15.125  66.597  1.00  0.00    -0.277 NA 
HETATM   10  C   UNL     1     -10.896  15.870  64.754  1.00  0.00    -0.324 A  
HETATM   11  N   UNL     1     -11.333  13.360  64.674  1.00  0.00    -0.336 NA 
HETATM   12  C   UNL     1      -9.158  16.379  66.208  1.00  0.00    -0.327 A  
HETATM   13  C   UNL     1     -10.710  14.521  65.080  1.00  0.00    -0.427 A  
HETATM   14  H1  UNL     1     -12.011  17.275  63.626  1.00  0.00     0.000 HD 
HETATM   15  H2  UNL     1     -12.770  15.930  64.193  1.00  0.00     0.000 HD 
ENDBRANCH   3   4
ENDBRANCH   1   3
BRANCH   1  16
HETATM   16  O   UNL     1      -8.428  10.439  68.651  1.00  0.00    -0.115 OA 
BRANCH  16  17
HETATM   17  C   UNL     1      -7.702   9.193  68.513  1.00  0.00    -0.093 C  
HETATM   18  O   UNL     1      -5.620   9.521  69.650  1.00  0.00    -0.033 OA 
HETATM   19  O   UNL     1      -7.861   9.577  71.003  1.00  0.00    -0.316 OA 
HETATM   20  P   UNL     1      -6.845   8.696  70.051  1.00  0.00    -0.045 P  
HETATM   21  O   UNL     1      -6.034   8.226  71.505  1.00  0.00    -0.035 OA 
BRANCH  19  22
HETATM   22  C   UNL     1      -8.994   8.962  71.578  1.00  0.00    -0.205 C  
BRANCH  22  23
HETATM   23  O   UNL     1      -9.417   7.815  70.831  1.00  0.00    -0.159 OA 
BRANCH  23  24
HETATM   24  C   UNL     1     -10.699   7.883  70.392  1.00  0.00    -0.233 C  
HETATM   25  O   UNL     1     -11.051   7.898  69.220  1.00  0.00    -0.053 OA 
BRANCH  24  26
HETATM   26  O   UNL     1     -11.534   7.952  71.462  1.00  0.00    -0.253 OA 
BRANCH  26  27
HETATM   27  C   UNL     1     -12.878   8.393  71.168  1.00  0.00    -0.077 C  
HETATM   28  C   UNL     1     -13.864   7.334  71.648  1.00  0.00    -0.461 C  
HETATM   29  C   UNL     1     -13.139   9.719  71.874  1.00  0.00    -0.544 C  
ENDBRANCH  26  27
ENDBRANCH  24  26
ENDBRANCH  23  24
ENDBRANCH  22  23
ENDBRANCH  19  22
BRANCH  21  30
HETATM   30  C   UNL     1      -5.663   6.864  71.507  1.00  0.00    -0.036 C  
BRANCH  30  31
HETATM   31  O   UNL     1      -6.215   6.167  70.394  1.00  0.00    -0.032 OA 
BRANCH  31  32
HETATM   32  C   UNL     1      -6.445   4.853  70.625  1.00  0.00    -0.030 C  
HETATM   33  O   UNL     1      -5.766   4.123  71.334  1.00  0.00    -0.011 OA 
BRANCH  32  34
HETATM   34  O   UNL     1      -7.589   4.507  69.984  1.00  0.00    -0.053 OA 
BRANCH  34  35
HETATM   35  C   UNL     1      -7.517   3.352  69.125  1.00  0.00    -0.049 C  
HETATM   36  C   UNL     1      -7.058   3.831  67.751  1.00  0.00    -0.055 C  
HETATM   37  C   UNL     1      -8.884   2.684  69.014  1.00  0.00    -0.151 C  
ENDBRANCH  34  35
ENDBRANCH  32  34
ENDBRANCH  31  32
ENDBRANCH  30  31
ENDBRANCH  21  30
ENDBRANCH  16  17
ENDBRANCH   1  16
TORSDOF 14
ENDMDL
MODEL      241
REMARK 921   NORMALIZED FREE ENERGY PREDICTED BY IDOCK:   -4.21 KCAL/MOL
REMARK 922        TOTAL FREE ENERGY PREDICTED BY IDOCK:   -9.49 KCAL/MOL
REMARK 923 INTER-LIGAND FREE ENERGY PREDICTED BY IDOCK:   -8.14 KCAL/MOL
REMARK 924 INTRA-LIGAND FREE ENERGY PREDICTED BY IDOCK:   -1.35 KCAL/MOL
REMARK 927      BINDING AFFINITY PREDICTED BY RF-SCORE:    0.00 PKD
ROOT
HETATM    1  C   UNL     1     -11.020  11.291  68.559  1.00  0.00    -0.220 C  
HETATM    2  C   UNL     1     -11.656  11.334  69.947  1.00  0.00    -0.413 C  
ENDROOT
BRANCH   1   3
HETATM    3  C   UNL     1     -11.891  11.893  67.465  1.00  0.00    -0.179 C  
BRANCH   3   4
HETATM    4  N   UNL     1     -11.308  12.973  66.714  1.00  0.00    -0.309 NA 
HETATM    5  C   UNL     1     -11.188  14.233  67.213  1.00  0.00    -0.318 A  
HETATM    6  N   UNL     1     -10.662  16.791  67.699  1.00  0.00    -0.331 NA 
HETATM    7  C   UNL     1     -10.649  12.931  65.517  1.00  0.00    -0.279 A  
HETATM    8  N   UNL     1      -9.500  17.088  65.667  1.00  0.00    -0.505 NA 
HETATM    9  N   UNL     1     -11.655  14.695  68.384  1.00  0.00    -0.308 NA 
HETATM   10  C   UNL     1     -10.200  16.266  66.543  1.00  0.00    -0.300 A  
HETATM   11  N   UNL     1     -10.153  14.104  65.193  1.00  0.00    -0.357 NA 
HETATM   12  C   UNL     1     -11.340  15.987  68.547  1.00  0.00    -0.382 A  
HETATM   13  C   UNL     1     -10.465  14.921  66.260  1.00  0.00    -0.302 A  
HETATM   14  H1  UNL     1      -9.306  18.067  65.873  1.00  0.00     0.000 HD 
HETATM   15  H2  UNL     1      -9.973  17.051  64.764  1.00  0.00     0.000 HD 
ENDBRANCH   3   4
ENDBRANCH   1   3
BRANCH   1  16
HETATM   16  O   UNL     1     -10.600   9.936  68.291  1.00  0.00    -0.205 OA 
BRANCH  16  17
HETATM   17  C   UNL     1     -10.324   9.615  66.905  1.00  0.00    -0.238 C  
HETATM   18  O   UNL     1      -8.041   8.895  66.843  1.00  0.00    -0.107 OA 
HETATM   19  O   UNL     1      -9.807   7.495  68.177  1.00  0.00    -0.151 OA 
HETATM   20  P   UNL     1      -9.334   8.088  66.713  1.00  0.00    -0.208 P  
HETATM   21  O   UNL     1      -8.398   6.644  66.531  1.00  0.00    -0.110 OA 
BRANCH  19  22
HETATM   22  C   UNL     1     -10.915   6.624  68.256  1.00  0.00    -0.244 C  
BRANCH  22  23
HETATM   23  O   UNL     1     -10.653   5.502  69.107  1.00  0.00    -0.255 OA 
BRANCH  23  24
HETATM   24  C   UNL     1     -11.042   5.680  70.394  1.00  0.00    -0.125 C  
HETATM   25  O   UNL     1     -10.958   4.847  71.287  1.00  0.00     0.059 OA 
BRANCH  24  26
HETATM   26  O   UNL     1     -11.562   6.928  70.534  1.00  0.00    -0.318 OA 
BRANCH  26  27
HETATM   27  C   UNL     1     -12.327   7.146  71.740  1.00  0.00    -0.350 C  
HETATM   28  C   UNL     1     -11.724   8.320  72.505  1.00  0.00    -0.451 C  
HETATM   29  C   UNL     1     -13.777   7.442  71.372  1.00  0.00    -0.419 C  
ENDBRANCH  26  27
ENDBRANCH  24  26
ENDBRANCH  23  24
ENDBRANCH  22  23
ENDBRANCH  19  22
BRANCH  21  30
HETATM   30  C   UNL     1      -8.456   6.118  65.223  1.00  0.00    -0.120 C  
BRANCH  30  31
HETATM   31  O   UNL     1      -8.049   4.754  65.185  1.00  0.00    -0.100 OA 
BRANCH  31  32
HETATM   32  C   UNL     1      -8.983   3.886  65.636  1.00  0.00    -0.133 C  
HETATM   33  O   UNL     1     -10.189   4.093  65.681  1.00  0.00    -0.205 OA 
BRANCH  32  34
HETATM   34  O   UNL     1      -8.358   2.729  65.969  1.00  0.00    -0.087 OA 
BRANCH  34  35
HETATM   35  C   UNL     1      -7.663   2.718  67.231  1.00  0.00    -0.069 C  
HETATM   36  C   UNL     1      -6.250   2.203  66.971  1.00  0.00    -0.024 C  
HETATM   37  C   UNL     1      -8.375   1.805  68.224  1.00  0.00    -0.076 C  
ENDBRANCH  34  35
ENDBRANCH  32  34
ENDBRANCH  31  32
ENDBRANCH  30  31
ENDBRANCH  21  30
ENDBRANCH  16  17
ENDBRANCH   1  16
TORSDOF 14
ENDMDL
MODEL      242
REMARK 921   NORMALIZED FREE ENERGY PREDICTED BY IDOCK:   -4.20 KCAL/MOL
REMARK 922        TOTAL FREE ENERGY PREDICTED BY IDOCK:   -9.47 KCAL/MOL
REMARK 923 INTER-LIGAND FREE ENERGY PREDICTED BY IDOCK:   -8.21 KCAL/MOL
REMARK 924 INTRA-LIGAND FREE ENERGY PREDICTED BY IDOCK:   -1.26 KCAL/MOL
REMARK 927      BINDING AFFINITY PREDICTED BY RF-SCORE:    0.00 PKD
ROOT
HETATM    1  C   UNL     1      -7.729  10.298  66.383  1.00  0.00    -0.116 C  
HETATM    2  C   UNL     1      -7.671  11.822  66.470  1.00  0.00     0.046 C  
ENDROOT
BRANCH   1   3
HETATM    3  C   UNL     1      -9.030   9.766  65.796  1.00  0.00    -0.160 C  
BRANCH   3   4
HETATM    4  N   UNL     1      -9.696  10.623  64.853  1.00  0.00    -0.257 NA 
HETATM    5  C   UNL     1     -10.656  11.514  65.222  1.00  0.00    -0.283 A  
HETATM    6  N   UNL     1     -12.498  13.421  65.390  1.00  0.00    -0.477 NA 
HETATM    7  C   UNL     1      -9.414  10.834  63.532  1.00  0.00    -0.299 A  
HETATM    8  N   UNL     1     -12.305  14.009  63.113  1.00  0.00    -1.094 NA 
HETATM    9  N   UNL     1     -11.194  11.676  66.441  1.00  0.00    -0.311 NA 
HETATM   10  C   UNL     1     -11.907  13.226  64.190  1.00  0.00    -0.443 A  
HETATM   11  N   UNL     1     -10.169  11.777  63.017  1.00  0.00    -0.315 NA 
HETATM   12  C   UNL     1     -12.106  12.658  66.434  1.00  0.00    -0.260 A  
HETATM   13  C   UNL     1     -10.935  12.226  64.073  1.00  0.00    -0.383 A  
HETATM   14  H1  UNL     1     -13.013  14.738  63.199  1.00  0.00     0.000 HD 
HETATM   15  H2  UNL     1     -12.600  13.380  62.367  1.00  0.00     0.000 HD 
ENDBRANCH   3   4
ENDBRANCH   1   3
BRANCH   1  16
HETATM   16  O   UNL     1      -7.407   9.753  67.680  1.00  0.00    -0.088 OA 
BRANCH  16  17
HETATM   17  C   UNL     1      -7.985  10.434  68.821  1.00  0.00    -0.122 C  
HETATM   18  O   UNL     1     -10.299   9.817  68.845  1.00  0.00    -0.193 OA 
HETATM   19  O   UNL     1      -8.464   7.987  69.216  1.00  0.00    -0.132 OA 
HETATM   20  P   UNL     1      -9.151   9.382  69.759  1.00  0.00    -0.225 P  
HETATM   21  O   UNL     1     -10.254   8.388  70.647  1.00  0.00    -0.190 OA 
BRANCH  19  22
HETATM   22  C   UNL     1      -7.462   7.353  69.983  1.00  0.00    -0.084 C  
BRANCH  22  23
HETATM   23  O   UNL     1      -7.065   6.100  69.413  1.00  0.00    -0.065 OA 
BRANCH  23  24
HETATM   24  C   UNL     1      -8.075   5.419  68.815  1.00  0.00    -0.087 C  
HETATM   25  O   UNL     1      -9.162   5.168  69.317  1.00  0.00    -0.102 OA 
BRANCH  24  26
HETATM   26  O   UNL     1      -7.681   5.040  67.570  1.00  0.00    -0.089 OA 
BRANCH  26  27
HETATM   27  C   UNL     1      -8.349   5.713  66.480  1.00  0.00    -0.110 C  
HETATM   28  C   UNL     1      -7.314   6.474  65.657  1.00  0.00    -0.076 C  
HETATM   29  C   UNL     1      -9.063   4.682  65.612  1.00  0.00    -0.142 C  
ENDBRANCH  26  27
ENDBRANCH  24  26
ENDBRANCH  23  24
ENDBRANCH  22  23
ENDBRANCH  19  22
BRANCH  21  30
HETATM   30  C   UNL     1     -10.514   8.885  71.943  1.00  0.00    -0.345 C  
BRANCH  30  31
HETATM   31  O   UNL     1     -11.602   8.203  72.560  1.00  0.00    -0.375 OA 
BRANCH  31  32
HETATM   32  C   UNL     1     -11.775   6.933  72.126  1.00  0.00    -0.288 C  
HETATM   33  O   UNL     1     -12.329   6.603  71.085  1.00  0.00    -0.353 OA 
BRANCH  32  34
HETATM   34  O   UNL     1     -11.176   6.100  73.012  1.00  0.00    -0.242 OA 
BRANCH  34  35
HETATM   35  C   UNL     1     -10.107   5.281  72.499  1.00  0.00    -0.181 C  
HETATM   36  C   UNL     1     -10.404   3.838  72.896  1.00  0.00    -0.241 C  
HETATM   37  C   UNL     1      -8.770   5.719  73.087  1.00  0.00    -0.122 C  
ENDBRANCH  34  35
ENDBRANCH  32  34
ENDBRANCH  31  32
ENDBRANCH  30  31
ENDBRANCH  21  30
ENDBRANCH  16  17
ENDBRANCH   1  16
TORSDOF 14
ENDMDL
MODEL      243
REMARK 921   NORMALIZED FREE ENERGY PREDICTED BY IDOCK:   -4.19 KCAL/MOL
REMARK 922        TOTAL FREE ENERGY PREDICTED BY IDOCK:   -9.45 KCAL/MOL
REMARK 923 INTER-LIGAND FREE ENERGY PREDICTED BY IDOCK:   -7.44 KCAL/MOL
REMARK 924 INTRA-LIGAND FREE ENERGY PREDICTED BY IDOCK:   -2.01 KCAL/MOL
REMARK 927      BINDING AFFINITY PREDICTED BY RF-SCORE:    0.00 PKD
ROOT
HETATM    1  C   UNL     1      -7.256   9.090  66.516  1.00  0.00    -0.085 C  
HETATM    2  C   UNL     1      -6.969  10.333  65.677  1.00  0.00    -0.133 C  
ENDROOT
BRANCH   1   3
HETATM    3  C   UNL     1      -8.555   8.386  66.145  1.00  0.00    -0.141 C  
BRANCH   3   4
HETATM    4  N   UNL     1      -8.421   7.084  65.548  1.00  0.00    -0.138 NA 
HETATM    5  C   UNL     1      -8.850   5.948  66.162  1.00  0.00    -0.147 A  
HETATM    6  N   UNL     1      -9.544   3.480  66.859  1.00  0.00    -0.172 NA 
HETATM    7  C   UNL     1      -8.032   6.755  64.280  1.00  0.00    -0.087 A  
HETATM    8  N   UNL     1      -8.911   2.560  64.781  1.00  0.00    -0.110 NA 
HETATM    9  N   UNL     1      -9.352   5.829  67.401  1.00  0.00    -0.111 NA 
HETATM   10  C   UNL     1      -9.049   3.663  65.615  1.00  0.00    -0.150 A  
HETATM   11  N   UNL     1      -8.140   5.465  64.057  1.00  0.00    -0.118 NA 
HETATM   12  C   UNL     1      -9.677   4.556  67.665  1.00  0.00    -0.157 A  
HETATM   13  C   UNL     1      -8.673   4.953  65.222  1.00  0.00    -0.146 A  
HETATM   14  H1  UNL     1      -9.185   1.620  65.066  1.00  0.00     0.000 HD 
HETATM   15  H2  UNL     1      -7.936   2.519  64.483  1.00  0.00     0.000 HD 
ENDBRANCH   3   4
ENDBRANCH   1   3
BRANCH   1  16
HETATM   16  O   UNL     1      -7.164   9.448  67.911  1.00  0.00    -0.081 OA 
BRANCH  16  17
HETATM   17  C   UNL     1      -7.480   8.402  68.862  1.00  0.00    -0.091 C  
HETATM   18  O   UNL     1      -7.169   9.374  71.029  1.00  0.00    -0.216 OA 
HETATM   19  O   UNL     1      -9.039  10.300  69.447  1.00  0.00    -0.196 OA 
HETATM   20  P   UNL     1      -8.456   9.007  70.286  1.00  0.00    -0.207 P  
HETATM   21  O   UNL     1      -9.379   9.579  71.633  1.00  0.00    -0.158 OA 
BRANCH  19  22
HETATM   22  C   UNL     1     -10.283  10.205  68.787  1.00  0.00    -0.186 C  
BRANCH  22  23
HETATM   23  O   UNL     1     -10.274  10.886  67.527  1.00  0.00    -0.179 OA 
BRANCH  23  24
HETATM   24  C   UNL     1     -11.141  11.927  67.454  1.00  0.00    -0.279 C  
HETATM   25  O   UNL     1     -12.025  12.062  66.619  1.00  0.00    -0.614 OA 
BRANCH  24  26
HETATM   26  O   UNL     1     -10.860  12.812  68.448  1.00  0.00    -0.231 OA 
BRANCH  26  27
HETATM   27  C   UNL     1     -11.919  13.742  68.763  1.00  0.00    -0.365 C  
HETATM   28  C   UNL     1     -12.250  13.632  70.247  1.00  0.00    -0.423 C  
HETATM   29  C   UNL     1     -11.465  15.158  68.424  1.00  0.00    -0.347 C  
ENDBRANCH  26  27
ENDBRANCH  24  26
ENDBRANCH  23  24
ENDBRANCH  22  23
ENDBRANCH  19  22
BRANCH  21  30
HETATM   30  C   UNL     1     -10.012   8.535  72.343  1.00  0.00    -0.295 C  
BRANCH  30  31
HETATM   31  O   UNL     1     -11.339   8.311  71.877  1.00  0.00    -0.270 OA 
BRANCH  31  32
HETATM   32  C   UNL     1     -11.741   7.022  71.954  1.00  0.00    -0.296 C  
HETATM   33  O   UNL     1     -12.868   6.609  71.714  1.00  0.00    -0.335 OA 
BRANCH  32  34
HETATM   34  O   UNL     1     -10.665   6.264  72.283  1.00  0.00    -0.213 OA 
BRANCH  34  35
HETATM   35  C   UNL     1     -10.944   4.953  72.812  1.00  0.00    -0.225 C  
HETATM   36  C   UNL     1     -10.556   4.962  74.288  1.00  0.00    -0.321 C  
HETATM   37  C   UNL     1     -10.137   3.894  72.068  1.00  0.00    -0.220 C  
ENDBRANCH  34  35
ENDBRANCH  32  34
ENDBRANCH  31  32
ENDBRANCH  30  31
ENDBRANCH  21  30
ENDBRANCH  16  17
ENDBRANCH   1  16
TORSDOF 14
ENDMDL
MODEL      244
REMARK 921   NORMALIZED FREE ENERGY PREDICTED BY IDOCK:   -4.18 KCAL/MOL
REMARK 922        TOTAL FREE ENERGY PREDICTED BY IDOCK:   -9.45 KCAL/MOL
REMARK 923 INTER-LIGAND FREE ENERGY PREDICTED BY IDOCK:   -7.86 KCAL/MOL
REMARK 924 INTRA-LIGAND FREE ENERGY PREDICTED BY IDOCK:   -1.59 KCAL/MOL
REMARK 927      BINDING AFFINITY PREDICTED BY RF-SCORE:    0.00 PKD
ROOT
HETATM    1  C   UNL     1     -11.111   9.060  71.733  1.00  0.00    -0.374 C  
HETATM    2  C   UNL     1     -11.475   7.952  72.719  1.00  0.00    -0.428 C  
ENDROOT
BRANCH   1   3
HETATM    3  C   UNL     1     -12.307   9.637  70.988  1.00  0.00    -0.310 C  
BRANCH   3   4
HETATM    4  N   UNL     1     -12.461  11.066  71.049  1.00  0.00    -0.389 NA 
HETATM    5  C   UNL     1     -12.017  11.894  70.064  1.00  0.00    -0.332 A  
HETATM    6  N   UNL     1     -11.419  13.919  68.452  1.00  0.00    -0.290 NA 
HETATM    7  C   UNL     1     -13.175  11.818  71.939  1.00  0.00    -0.362 A  
HETATM    8  N   UNL     1     -12.522  15.509  69.802  1.00  0.00    -0.581 NA 
HETATM    9  N   UNL     1     -11.310  11.560  68.973  1.00  0.00    -0.249 NA 
HETATM   10  C   UNL     1     -12.147  14.194  69.557  1.00  0.00    -0.340 A  
HETATM   11  N   UNL     1     -13.177  13.090  71.611  1.00  0.00    -0.373 NA 
HETATM   12  C   UNL     1     -11.058  12.638  68.218  1.00  0.00    -0.261 A  
HETATM   13  C   UNL     1     -12.474  13.146  70.426  1.00  0.00    -0.210 A  
HETATM   14  H1  UNL     1     -12.284  16.272  69.169  1.00  0.00     0.000 HD 
HETATM   15  H2  UNL     1     -12.180  15.760  70.729  1.00  0.00     0.000 HD 
ENDBRANCH   3   4
ENDBRANCH   1   3
BRANCH   1  16
HETATM   16  O   UNL     1     -10.062   8.575  70.867  1.00  0.00    -0.188 OA 
BRANCH  16  17
HETATM   17  C   UNL     1     -10.485   8.046  69.586  1.00  0.00    -0.224 C  
HETATM   18  O   UNL     1      -8.879   8.833  67.994  1.00  0.00    -0.139 OA 
HETATM   19  O   UNL     1      -8.128   7.194  69.893  1.00  0.00    -0.120 OA 
HETATM   20  P   UNL     1      -9.088   7.433  68.575  1.00  0.00    -0.134 P  
HETATM   21  O   UNL     1      -7.768   6.853  67.619  1.00  0.00    -0.107 OA 
BRANCH  19  22
HETATM   22  C   UNL     1      -8.084   5.925  70.508  1.00  0.00    -0.111 C  
BRANCH  22  23
HETATM   23  O   UNL     1      -9.286   5.640  71.234  1.00  0.00    -0.145 OA 
BRANCH  23  24
HETATM   24  C   UNL     1      -9.660   4.336  71.194  1.00  0.00    -0.179 C  
HETATM   25  O   UNL     1      -9.262   3.504  70.390  1.00  0.00    -0.117 OA 
BRANCH  24  26
HETATM   26  O   UNL     1     -10.568   4.102  72.178  1.00  0.00    -0.095 OA 
BRANCH  26  27
HETATM   27  C   UNL     1     -10.155   3.150  73.183  1.00  0.00    -0.137 C  
HETATM   28  C   UNL     1      -9.866   3.893  74.483  1.00  0.00    -0.179 C  
HETATM   29  C   UNL     1     -11.266   2.126  73.394  1.00  0.00    -0.296 C  
ENDBRANCH  26  27
ENDBRANCH  24  26
ENDBRANCH  23  24
ENDBRANCH  22  23
ENDBRANCH  19  22
BRANCH  21  30
HETATM   30  C   UNL     1      -8.185   6.002  66.573  1.00  0.00    -0.107 C  
BRANCH  30  31
HETATM   31  O   UNL     1      -8.676   6.740  65.458  1.00  0.00    -0.128 OA 
BRANCH  31  32
HETATM   32  C   UNL     1      -7.715   7.136  64.591  1.00  0.00    -0.112 C  
HETATM   33  O   UNL     1      -6.607   6.628  64.472  1.00  0.00    -0.040 OA 
BRANCH  32  34
HETATM   34  O   UNL     1      -8.216   8.148  63.840  1.00  0.00    -0.143 OA 
BRANCH  34  35
HETATM   35  C   UNL     1      -8.580   9.349  64.547  1.00  0.00    -0.198 C  
HETATM   36  C   UNL     1      -9.508  10.152  63.639  1.00  0.00    -0.320 C  
HETATM   37  C   UNL     1      -7.339  10.170  64.880  1.00  0.00    -0.136 C  
ENDBRANCH  34  35
ENDBRANCH  32  34
ENDBRANCH  31  32
ENDBRANCH  30  31
ENDBRANCH  21  30
ENDBRANCH  16  17
ENDBRANCH   1  16
TORSDOF 14
ENDMDL
MODEL      245
REMARK 921   NORMALIZED FREE ENERGY PREDICTED BY IDOCK:   -4.18 KCAL/MOL
REMARK 922        TOTAL FREE ENERGY PREDICTED BY IDOCK:   -9.45 KCAL/MOL
REMARK 923 INTER-LIGAND FREE ENERGY PREDICTED BY IDOCK:   -7.64 KCAL/MOL
REMARK 924 INTRA-LIGAND FREE ENERGY PREDICTED BY IDOCK:   -1.81 KCAL/MOL
REMARK 927      BINDING AFFINITY PREDICTED BY RF-SCORE:    0.00 PKD
ROOT
HETATM    1  C   UNL     1     -11.067  15.502  69.137  1.00  0.00    -0.272 C  
HETATM    2  C   UNL     1     -11.772  15.773  70.464  1.00  0.00    -0.400 C  
ENDROOT
BRANCH   1   3
HETATM    3  C   UNL     1     -11.162  16.652  68.144  1.00  0.00    -0.202 C  
BRANCH   3   4
HETATM    4  N   UNL     1     -10.086  16.761  67.196  1.00  0.00    -0.275 NA 
HETATM    5  C   UNL     1      -9.216  17.808  67.191  1.00  0.00    -0.253 A  
HETATM    6  N   UNL     1      -7.247  19.542  66.775  1.00  0.00    -0.213 NA 
HETATM    7  C   UNL     1      -9.638  15.839  66.293  1.00  0.00    -0.313 A  
HETATM    8  N   UNL     1      -6.233  18.211  65.111  1.00  0.00    -0.249 NA 
HETATM    9  N   UNL     1      -9.261  18.910  67.956  1.00  0.00    -0.298 NA 
HETATM   10  C   UNL     1      -7.243  18.404  66.046  1.00  0.00    -0.254 A  
HETATM   11  N   UNL     1      -8.556  16.251  65.671  1.00  0.00    -0.107 NA 
HETATM   12  C   UNL     1      -8.231  19.723  67.682  1.00  0.00    -0.305 A  
HETATM   13  C   UNL     1      -8.270  17.474  66.243  1.00  0.00    -0.240 A  
HETATM   14  H1  UNL     1      -5.484  18.889  64.968  1.00  0.00     0.000 HD 
HETATM   15  H2  UNL     1      -6.675  18.046  64.208  1.00  0.00     0.000 HD 
ENDBRANCH   3   4
ENDBRANCH   1   3
BRANCH   1  16
HETATM   16  O   UNL     1     -11.539  14.241  68.617  1.00  0.00    -0.280 OA 
BRANCH  16  17
HETATM   17  C   UNL     1     -11.694  13.170  69.581  1.00  0.00    -0.303 C  
HETATM   18  O   UNL     1     -12.391  11.256  68.322  1.00  0.00    -0.542 OA 
HETATM   19  O   UNL     1     -10.025  12.295  67.900  1.00  0.00    -0.191 OA 
HETATM   20  P   UNL     1     -11.043  11.571  68.975  1.00  0.00    -0.263 P  
HETATM   21  O   UNL     1     -10.428  10.058  68.402  1.00  0.00    -0.185 OA 
BRANCH  19  22
HETATM   22  C   UNL     1      -8.689  12.561  68.270  1.00  0.00    -0.171 C  
BRANCH  22  23
HETATM   23  O   UNL     1      -7.806  12.535  67.142  1.00  0.00    -0.169 OA 
BRANCH  23  24
HETATM   24  C   UNL     1      -7.185  11.344  66.953  1.00  0.00    -0.144 C  
HETATM   25  O   UNL     1      -6.400  10.817  67.730  1.00  0.00    -0.057 OA 
BRANCH  24  26
HETATM   26  O   UNL     1      -7.557  10.833  65.749  1.00  0.00    -0.145 OA 
BRANCH  26  27
HETATM   27  C   UNL     1      -8.015   9.463  65.776  1.00  0.00    -0.110 C  
HETATM   28  C   UNL     1      -9.372   9.379  65.087  1.00  0.00    -0.288 C  
HETATM   29  C   UNL     1      -7.000   8.579  65.058  1.00  0.00    -0.075 C  
ENDBRANCH  26  27
ENDBRANCH  24  26
ENDBRANCH  23  24
ENDBRANCH  22  23
ENDBRANCH  19  22
BRANCH  21  30
HETATM   30  C   UNL     1     -10.217   9.127  69.442  1.00  0.00    -0.210 C  
BRANCH  30  31
HETATM   31  O   UNL     1      -9.446   9.686  70.501  1.00  0.00    -0.256 OA 
BRANCH  31  32
HETATM   32  C   UNL     1      -8.192   9.186  70.595  1.00  0.00    -0.190 C  
HETATM   33  O   UNL     1      -7.204   9.803  70.971  1.00  0.00    -0.332 OA 
BRANCH  32  34
HETATM   34  O   UNL     1      -8.235   7.873  70.259  1.00  0.00    -0.119 OA 
BRANCH  34  35
HETATM   35  C   UNL     1      -7.383   7.463  69.172  1.00  0.00    -0.090 C  
HETATM   36  C   UNL     1      -8.087   6.321  68.444  1.00  0.00    -0.112 C  
HETATM   37  C   UNL     1      -6.033   6.989  69.701  1.00  0.00    -0.023 C  
ENDBRANCH  34  35
ENDBRANCH  32  34
ENDBRANCH  31  32
ENDBRANCH  30  31
ENDBRANCH  21  30
ENDBRANCH  16  17
ENDBRANCH   1  16
TORSDOF 14
ENDMDL
MODEL      246
REMARK 921   NORMALIZED FREE ENERGY PREDICTED BY IDOCK:   -4.18 KCAL/MOL
REMARK 922        TOTAL FREE ENERGY PREDICTED BY IDOCK:   -9.44 KCAL/MOL
REMARK 923 INTER-LIGAND FREE ENERGY PREDICTED BY IDOCK:   -8.10 KCAL/MOL
REMARK 924 INTRA-LIGAND FREE ENERGY PREDICTED BY IDOCK:   -1.34 KCAL/MOL
REMARK 927      BINDING AFFINITY PREDICTED BY RF-SCORE:    0.00 PKD
ROOT
HETATM    1  C   UNL     1      -8.117  13.569  67.458  1.00  0.00    -0.186 C  
HETATM    2  C   UNL     1      -6.609  13.332  67.515  1.00  0.00    -0.153 C  
ENDROOT
BRANCH   1   3
HETATM    3  C   UNL     1      -8.616  14.593  68.468  1.00  0.00    -0.170 C  
BRANCH   3   4
HETATM    4  N   UNL     1      -8.451  15.975  68.104  1.00  0.00    -0.167 NA 
HETATM    5  C   UNL     1      -9.242  16.590  67.184  1.00  0.00    -0.214 A  
HETATM    6  N   UNL     1     -10.498  18.267  65.550  1.00  0.00    -0.580 NA 
HETATM    7  C   UNL     1      -7.655  16.926  68.677  1.00  0.00    -0.232 A  
HETATM    8  N   UNL     1      -9.251  20.135  66.274  1.00  0.00    -0.572 NA 
HETATM    9  N   UNL     1     -10.195  16.031  66.422  1.00  0.00    -0.291 NA 
HETATM   10  C   UNL     1      -9.541  18.778  66.356  1.00  0.00    -0.335 A  
HETATM   11  N   UNL     1      -7.852  18.111  68.145  1.00  0.00    -0.271 NA 
HETATM   12  C   UNL     1     -10.777  16.948  65.636  1.00  0.00    -0.167 A  
HETATM   13  C   UNL     1      -8.861  17.917  67.225  1.00  0.00    -0.243 A  
HETATM   14  H1  UNL     1      -9.747  20.763  65.642  1.00  0.00     0.000 HD 
HETATM   15  H2  UNL     1      -8.255  20.226  66.080  1.00  0.00     0.000 HD 
ENDBRANCH   3   4
ENDBRANCH   1   3
BRANCH   1  16
HETATM   16  O   UNL     1      -8.784  12.292  67.542  1.00  0.00    -0.160 OA 
BRANCH  16  17
HETATM   17  C   UNL     1      -7.927  11.129  67.654  1.00  0.00    -0.116 C  
HETATM   18  O   UNL     1      -7.172  11.092  69.926  1.00  0.00    -0.081 OA 
HETATM   19  O   UNL     1      -9.719  10.785  69.400  1.00  0.00    -0.173 OA 
HETATM   20  P   UNL     1      -8.189  10.202  69.209  1.00  0.00    -0.165 P  
HETATM   21  O   UNL     1      -8.437   9.324  70.679  1.00  0.00    -0.193 OA 
BRANCH  19  22
HETATM   22  C   UNL     1     -10.818  10.045  68.913  1.00  0.00    -0.220 C  
BRANCH  22  23
HETATM   23  O   UNL     1     -12.068  10.618  69.312  1.00  0.00    -0.259 OA 
BRANCH  23  24
HETATM   24  C   UNL     1     -12.245  10.681  70.656  1.00  0.00    -0.365 C  
HETATM   25  O   UNL     1     -11.693   9.966  71.482  1.00  0.00    -0.380 OA 
BRANCH  24  26
HETATM   26  O   UNL     1     -13.151  11.653  70.942  1.00  0.00    -0.134 OA 
BRANCH  26  27
HETATM   27  C   UNL     1     -12.588  12.922  71.341  1.00  0.00    -0.220 C  
HETATM   28  C   UNL     1     -12.449  13.812  70.111  1.00  0.00    -0.332 C  
HETATM   29  C   UNL     1     -13.504  13.578  72.370  1.00  0.00    -0.685 C  
ENDBRANCH  26  27
ENDBRANCH  24  26
ENDBRANCH  23  24
ENDBRANCH  22  23
ENDBRANCH  19  22
BRANCH  21  30
HETATM   30  C   UNL     1      -7.912   8.014  70.627  1.00  0.00    -0.096 C  
BRANCH  30  31
HETATM   31  O   UNL     1      -8.143   7.404  69.361  1.00  0.00    -0.124 OA 
BRANCH  31  32
HETATM   32  C   UNL     1      -7.534   6.206  69.206  1.00  0.00    -0.089 C  
HETATM   33  O   UNL     1      -6.603   5.785  69.880  1.00  0.00    -0.042 OA 
BRANCH  32  34
HETATM   34  O   UNL     1      -8.175   5.532  68.219  1.00  0.00    -0.096 OA 
BRANCH  34  35
HETATM   35  C   UNL     1      -8.684   4.228  68.560  1.00  0.00    -0.097 C  
HETATM   36  C   UNL     1      -9.282   3.623  67.293  1.00  0.00    -0.215 C  
HETATM   37  C   UNL     1      -9.755   4.338  69.640  1.00  0.00    -0.284 C  
ENDBRANCH  34  35
ENDBRANCH  32  34
ENDBRANCH  31  32
ENDBRANCH  30  31
ENDBRANCH  21  30
ENDBRANCH  16  17
ENDBRANCH   1  16
TORSDOF 14
ENDMDL
MODEL      247
REMARK 921   NORMALIZED FREE ENERGY PREDICTED BY IDOCK:   -4.18 KCAL/MOL
REMARK 922        TOTAL FREE ENERGY PREDICTED BY IDOCK:   -9.44 KCAL/MOL
REMARK 923 INTER-LIGAND FREE ENERGY PREDICTED BY IDOCK:   -8.61 KCAL/MOL
REMARK 924 INTRA-LIGAND FREE ENERGY PREDICTED BY IDOCK:   -0.82 KCAL/MOL
REMARK 927      BINDING AFFINITY PREDICTED BY RF-SCORE:    0.00 PKD
ROOT
HETATM    1  C   UNL     1      -9.781   9.980  64.260  1.00  0.00    -0.172 C  
HETATM    2  C   UNL     1      -8.932  10.811  63.300  1.00  0.00    -0.223 C  
ENDROOT
BRANCH   1   3
HETATM    3  C   UNL     1     -10.573  10.813  65.258  1.00  0.00    -0.160 C  
BRANCH   3   4
HETATM    4  N   UNL     1     -11.108  12.054  64.764  1.00  0.00    -0.308 NA 
HETATM    5  C   UNL     1     -10.705  13.265  65.235  1.00  0.00    -0.311 A  
HETATM    6  N   UNL     1     -10.255  15.837  65.731  1.00  0.00    -0.344 NA 
HETATM    7  C   UNL     1     -11.929  12.272  63.693  1.00  0.00    -0.543 A  
HETATM    8  N   UNL     1     -11.660  16.568  63.983  1.00  0.00    -1.544 NA 
HETATM    9  N   UNL     1      -9.864  13.507  66.253  1.00  0.00    -0.295 NA 
HETATM   10  C   UNL     1     -11.080  15.532  64.704  1.00  0.00    -0.359 A  
HETATM   11  N   UNL     1     -12.117  13.553  63.477  1.00  0.00    -0.574 NA 
HETATM   12  C   UNL     1      -9.692  14.825  66.427  1.00  0.00    -0.291 A  
HETATM   13  C   UNL     1     -11.337  14.186  64.423  1.00  0.00    -0.299 A  
HETATM   14  H1  UNL     1     -11.473  17.550  64.187  1.00  0.00     0.000 HD 
HETATM   15  H2  UNL     1     -12.671  16.436  64.011  1.00  0.00     0.000 HD 
ENDBRANCH   3   4
ENDBRANCH   1   3
BRANCH   1  16
HETATM   16  O   UNL     1      -8.935   8.983  64.872  1.00  0.00    -0.194 OA 
BRANCH  16  17
HETATM   17  C   UNL     1      -8.982   8.906  66.318  1.00  0.00    -0.170 C  
HETATM   18  O   UNL     1     -10.832   7.476  66.836  1.00  0.00    -0.345 OA 
HETATM   19  O   UNL     1      -8.766   6.511  65.549  1.00  0.00    -0.136 OA 
HETATM   20  P   UNL     1      -9.327   7.216  66.928  1.00  0.00    -0.168 P  
HETATM   21  O   UNL     1      -9.653   5.618  67.506  1.00  0.00    -0.112 OA 
BRANCH  19  22
HETATM   22  C   UNL     1      -7.424   6.082  65.476  1.00  0.00    -0.082 C  
BRANCH  22  23
HETATM   23  O   UNL     1      -7.174   4.958  66.328  1.00  0.00    -0.074 OA 
BRANCH  23  24
HETATM   24  C   UNL     1      -7.312   3.756  65.714  1.00  0.00    -0.072 C  
HETATM   25  O   UNL     1      -6.641   3.354  64.773  1.00  0.00    -0.037 OA 
BRANCH  24  26
HETATM   26  O   UNL     1      -8.333   3.072  66.297  1.00  0.00    -0.092 OA 
BRANCH  26  27
HETATM   27  C   UNL     1      -7.935   1.950  67.115  1.00  0.00    -0.066 C  
HETATM   28  C   UNL     1      -6.730   2.353  67.958  1.00  0.00    -0.039 C  
HETATM   29  C   UNL     1      -9.099   1.543  68.013  1.00  0.00    -0.186 C  
ENDBRANCH  26  27
ENDBRANCH  24  26
ENDBRANCH  23  24
ENDBRANCH  22  23
ENDBRANCH  19  22
BRANCH  21  30
HETATM   30  C   UNL     1      -9.320   5.452  68.868  1.00  0.00    -0.127 C  
BRANCH  30  31
HETATM   31  O   UNL     1     -10.270   6.082  69.722  1.00  0.00    -0.177 OA 
BRANCH  31  32
HETATM   32  C   UNL     1      -9.743   6.570  70.869  1.00  0.00    -0.176 C  
HETATM   33  O   UNL     1      -9.816   7.730  71.252  1.00  0.00    -0.171 OA 
BRANCH  32  34
HETATM   34  O   UNL     1      -9.177   5.539  71.545  1.00  0.00    -0.144 OA 
BRANCH  34  35
HETATM   35  C   UNL     1     -10.078   4.671  72.259  1.00  0.00    -0.189 C  
HETATM   36  C   UNL     1     -10.105   5.135  73.713  1.00  0.00    -0.223 C  
HETATM   37  C   UNL     1      -9.598   3.225  72.183  1.00  0.00    -0.208 C  
ENDBRANCH  34  35
ENDBRANCH  32  34
ENDBRANCH  31  32
ENDBRANCH  30  31
ENDBRANCH  21  30
ENDBRANCH  16  17
ENDBRANCH   1  16
TORSDOF 14
ENDMDL
MODEL      248
REMARK 921   NORMALIZED FREE ENERGY PREDICTED BY IDOCK:   -4.17 KCAL/MOL
REMARK 922        TOTAL FREE ENERGY PREDICTED BY IDOCK:   -9.42 KCAL/MOL
REMARK 923 INTER-LIGAND FREE ENERGY PREDICTED BY IDOCK:   -8.72 KCAL/MOL
REMARK 924 INTRA-LIGAND FREE ENERGY PREDICTED BY IDOCK:   -0.70 KCAL/MOL
REMARK 927      BINDING AFFINITY PREDICTED BY RF-SCORE:    0.00 PKD
ROOT
HETATM    1  C   UNL     1      -8.138  11.076  66.119  1.00  0.00    -0.141 C  
HETATM    2  C   UNL     1      -8.844  10.638  64.838  1.00  0.00    -0.204 C  
ENDROOT
BRANCH   1   3
HETATM    3  C   UNL     1      -8.422  10.177  67.315  1.00  0.00    -0.125 C  
BRANCH   3   4
HETATM    4  N   UNL     1      -8.442   8.763  67.053  1.00  0.00    -0.109 NA 
HETATM    5  C   UNL     1      -7.322   7.992  67.105  1.00  0.00    -0.091 A  
HETATM    6  N   UNL     1      -5.508   6.050  67.126  1.00  0.00    -0.008 NA 
HETATM    7  C   UNL     1      -9.515   7.933  66.885  1.00  0.00    -0.191 A  
HETATM    8  N   UNL     1      -7.109   4.353  66.779  1.00  0.00    -0.066 NA 
HETATM    9  N   UNL     1      -6.058   8.400  67.298  1.00  0.00    -0.054 NA 
HETATM   10  C   UNL     1      -6.801   5.696  66.955  1.00  0.00    -0.064 A  
HETATM   11  N   UNL     1      -9.147   6.677  66.778  1.00  0.00    -0.137 NA 
HETATM   12  C   UNL     1      -5.215   7.358  67.298  1.00  0.00    -0.025 A  
HETATM   13  C   UNL     1      -7.778   6.699  66.937  1.00  0.00    -0.106 A  
HETATM   14  H1  UNL     1      -6.398   3.622  66.793  1.00  0.00     0.000 HD 
HETATM   15  H2  UNL     1      -7.623   4.266  65.903  1.00  0.00     0.000 HD 
ENDBRANCH   3   4
ENDBRANCH   1   3
BRANCH   1  16
HETATM   16  O   UNL     1      -8.435  12.469  66.352  1.00  0.00     0.008 OA 
BRANCH  16  17
HETATM   17  C   UNL     1      -9.410  12.751  67.386  1.00  0.00    -0.193 C  
HETATM   18  O   UNL     1      -8.237  13.982  69.071  1.00  0.00    -0.033 OA 
HETATM   19  O   UNL     1      -8.538  15.014  66.684  1.00  0.00    -0.258 OA 
HETATM   20  P   UNL     1      -9.273  14.451  68.047  1.00  0.00    -0.206 P  
HETATM   21  O   UNL     1      -9.144  16.059  68.673  1.00  0.00    -0.194 OA 
BRANCH  19  22
HETATM   22  C   UNL     1      -9.313  15.602  65.661  1.00  0.00    -0.172 C  
BRANCH  22  23
HETATM   23  O   UNL     1     -10.708  15.310  65.811  1.00  0.00    -0.317 OA 
BRANCH  23  24
HETATM   24  C   UNL     1     -11.354  15.085  64.640  1.00  0.00    -0.352 C  
HETATM   25  O   UNL     1     -12.201  15.814  64.141  1.00  0.00    -0.588 OA 
BRANCH  24  26
HETATM   26  O   UNL     1     -10.928  13.906  64.113  1.00  0.00    -0.282 OA 
BRANCH  26  27
HETATM   27  C   UNL     1     -11.694  12.745  64.502  1.00  0.00    -0.366 C  
HETATM   28  C   UNL     1     -12.600  13.115  65.671  1.00  0.00    -0.414 C  
HETATM   29  C   UNL     1     -12.528  12.271  63.315  1.00  0.00    -0.490 C  
ENDBRANCH  26  27
ENDBRANCH  24  26
ENDBRANCH  23  24
ENDBRANCH  22  23
ENDBRANCH  19  22
BRANCH  21  30
HETATM   30  C   UNL     1     -10.300  16.465  69.374  1.00  0.00    -0.290 C  
BRANCH  30  31
HETATM   31  O   UNL     1     -10.884  15.386  70.096  1.00  0.00    -0.273 OA 
BRANCH  31  32
HETATM   32  C   UNL     1     -12.076  15.683  70.665  1.00  0.00    -0.405 C  
HETATM   33  O   UNL     1     -13.154  15.721  70.086  1.00  0.00    -0.225 OA 
BRANCH  32  34
HETATM   34  O   UNL     1     -11.874  15.869  71.993  1.00  0.00    -0.428 OA 
BRANCH  34  35
HETATM   35  C   UNL     1     -12.951  15.473  72.865  1.00  0.00    -0.477 C  
HETATM   36  C   UNL     1     -12.473  15.668  74.301  1.00  0.00    -0.804 C  
HETATM   37  C   UNL     1     -13.315  14.010  72.632  1.00  0.00    -0.643 C  
ENDBRANCH  34  35
ENDBRANCH  32  34
ENDBRANCH  31  32
ENDBRANCH  30  31
ENDBRANCH  21  30
ENDBRANCH  16  17
ENDBRANCH   1  16
TORSDOF 14
ENDMDL
MODEL      249
REMARK 921   NORMALIZED FREE ENERGY PREDICTED BY IDOCK:   -4.16 KCAL/MOL
REMARK 922        TOTAL FREE ENERGY PREDICTED BY IDOCK:   -9.41 KCAL/MOL
REMARK 923 INTER-LIGAND FREE ENERGY PREDICTED BY IDOCK:   -8.45 KCAL/MOL
REMARK 924 INTRA-LIGAND FREE ENERGY PREDICTED BY IDOCK:   -0.96 KCAL/MOL
REMARK 927      BINDING AFFINITY PREDICTED BY RF-SCORE:    0.00 PKD
ROOT
HETATM    1  C   UNL     1      -9.255   6.235  69.044  1.00  0.00    -0.127 C  
HETATM    2  C   UNL     1     -10.676   5.979  68.546  1.00  0.00    -0.354 C  
ENDROOT
BRANCH   1   3
HETATM    3  C   UNL     1      -9.193   7.023  70.346  1.00  0.00    -0.156 C  
BRANCH   3   4
HETATM    4  N   UNL     1     -10.409   7.076  71.112  1.00  0.00    -0.206 NA 
HETATM    5  C   UNL     1     -11.127   8.222  71.270  1.00  0.00    -0.251 A  
HETATM    6  N   UNL     1     -12.909  10.108  71.839  1.00  0.00    -0.429 NA 
HETATM    7  C   UNL     1     -11.133   6.050  71.650  1.00  0.00    -0.275 A  
HETATM    8  N   UNL     1     -14.380   8.601  72.901  1.00  0.00    -1.063 NA 
HETATM    9  N   UNL     1     -10.800   9.454  70.851  1.00  0.00    -0.293 NA 
HETATM   10  C   UNL     1     -13.194   8.843  72.220  1.00  0.00    -0.447 A  
HETATM   11  N   UNL     1     -12.254   6.474  72.188  1.00  0.00    -0.281 NA 
HETATM   12  C   UNL     1     -11.754  10.338  71.176  1.00  0.00    -0.341 A  
HETATM   13  C   UNL     1     -12.271   7.830  71.936  1.00  0.00    -0.306 A  
HETATM   14  H1  UNL     1     -15.053   9.339  73.108  1.00  0.00     0.000 HD 
HETATM   15  H2  UNL     1     -14.143   8.145  73.782  1.00  0.00     0.000 HD 
ENDBRANCH   3   4
ENDBRANCH   1   3
BRANCH   1  16
HETATM   16  O   UNL     1      -8.492   6.822  67.969  1.00  0.00    -0.119 OA 
BRANCH  16  17
HETATM   17  C   UNL     1      -7.365   7.645  68.359  1.00  0.00    -0.095 C  
HETATM   18  O   UNL     1      -6.168   8.114  66.339  1.00  0.00    -0.045 OA 
HETATM   19  O   UNL     1      -8.606   9.018  66.642  1.00  0.00    -0.123 OA 
HETATM   20  P   UNL     1      -7.054   9.021  67.195  1.00  0.00    -0.079 P  
HETATM   21  O   UNL     1      -6.759  10.323  66.094  1.00  0.00    -0.095 OA 
BRANCH  19  22
HETATM   22  C   UNL     1      -9.559   9.883  67.222  1.00  0.00    -0.160 C  
BRANCH  22  23
HETATM   23  O   UNL     1      -9.605  11.151  66.557  1.00  0.00    -0.189 OA 
BRANCH  23  24
HETATM   24  C   UNL     1      -9.705  12.212  67.397  1.00  0.00    -0.179 C  
HETATM   25  O   UNL     1      -9.816  12.151  68.614  1.00  0.00    -0.188 OA 
BRANCH  24  26
HETATM   26  O   UNL     1      -9.683  13.361  66.670  1.00  0.00    -0.260 OA 
BRANCH  26  27
HETATM   27  C   UNL     1     -10.827  14.225  66.848  1.00  0.00    -0.298 C  
HETATM   28  C   UNL     1     -10.685  15.432  65.927  1.00  0.00    -0.343 C  
HETATM   29  C   UNL     1     -12.099  13.452  66.516  1.00  0.00    -0.444 C  
ENDBRANCH  26  27
ENDBRANCH  24  26
ENDBRANCH  23  24
ENDBRANCH  22  23
ENDBRANCH  19  22
BRANCH  21  30
HETATM   30  C   UNL     1      -5.944  11.333  66.650  1.00  0.00    -0.145 C  
BRANCH  30  31
HETATM   31  O   UNL     1      -6.716  12.429  67.130  1.00  0.00    -0.148 OA 
BRANCH  31  32
HETATM   32  C   UNL     1      -6.025  13.293  67.909  1.00  0.00    -0.138 C  
HETATM   33  O   UNL     1      -5.552  13.041  69.009  1.00  0.00    -0.068 OA 
BRANCH  32  34
HETATM   34  O   UNL     1      -5.898  14.461  67.233  1.00  0.00    -0.293 OA 
BRANCH  34  35
HETATM   35  C   UNL     1      -6.729  15.552  67.677  1.00  0.00    -0.179 C  
HETATM   36  C   UNL     1      -6.676  16.635  66.603  1.00  0.00    -0.192 C  
HETATM   37  C   UNL     1      -6.219  16.106  69.002  1.00  0.00    -0.139 C  
ENDBRANCH  34  35
ENDBRANCH  32  34
ENDBRANCH  31  32
ENDBRANCH  30  31
ENDBRANCH  21  30
ENDBRANCH  16  17
ENDBRANCH   1  16
TORSDOF 14
ENDMDL
MODEL      250
REMARK 921   NORMALIZED FREE ENERGY PREDICTED BY IDOCK:   -4.16 KCAL/MOL
REMARK 922        TOTAL FREE ENERGY PREDICTED BY IDOCK:   -9.41 KCAL/MOL
REMARK 923 INTER-LIGAND FREE ENERGY PREDICTED BY IDOCK:   -8.83 KCAL/MOL
REMARK 924 INTRA-LIGAND FREE ENERGY PREDICTED BY IDOCK:   -0.58 KCAL/MOL
REMARK 927      BINDING AFFINITY PREDICTED BY RF-SCORE:    0.00 PKD
ROOT
HETATM    1  C   UNL     1     -11.030  12.788  66.320  1.00  0.00    -0.280 C  
HETATM    2  C   UNL     1     -11.343  12.209  64.942  1.00  0.00    -0.378 C  
ENDROOT
BRANCH   1   3
HETATM    3  C   UNL     1      -9.937  13.849  66.307  1.00  0.00    -0.306 C  
BRANCH   3   4
HETATM    4  N   UNL     1     -10.350  15.180  65.953  1.00  0.00    -0.305 NA 
HETATM    5  C   UNL     1     -10.076  16.264  66.729  1.00  0.00    -0.278 A  
HETATM    6  N   UNL     1      -9.770  18.675  67.802  1.00  0.00    -0.305 NA 
HETATM    7  C   UNL     1     -10.902  15.628  64.786  1.00  0.00    -0.355 A  
HETATM    8  N   UNL     1     -10.737  19.779  65.954  1.00  0.00    -0.458 NA 
HETATM    9  N   UNL     1      -9.496  16.276  67.939  1.00  0.00    -0.217 NA 
HETATM   10  C   UNL     1     -10.333  18.603  66.575  1.00  0.00    -0.421 A  
HETATM   11  N   UNL     1     -11.044  16.934  64.784  1.00  0.00    -0.855 NA 
HETATM   12  C   UNL     1      -9.378  17.529  68.400  1.00  0.00    -0.287 A  
HETATM   13  C   UNL     1     -10.509  17.345  65.987  1.00  0.00    -0.276 A  
HETATM   14  H1  UNL     1     -10.608  20.695  66.382  1.00  0.00     0.000 HD 
HETATM   15  H2  UNL     1     -11.726  19.682  65.724  1.00  0.00     0.000 HD 
ENDBRANCH   3   4
ENDBRANCH   1   3
BRANCH   1  16
HETATM   16  O   UNL     1     -10.772  11.696  67.228  1.00  0.00    -0.217 OA 
BRANCH  16  17
HETATM   17  C   UNL     1     -11.226  10.388  66.799  1.00  0.00     0.210 C  
HETATM   18  O   UNL     1      -9.390   9.421  65.604  1.00  0.00    -0.211 OA 
HETATM   19  O   UNL     1      -9.146   9.939  68.159  1.00  0.00    -0.122 OA 
HETATM   20  P   UNL     1      -9.946   9.095  66.992  1.00  0.00    -0.274 P  
HETATM   21  O   UNL     1      -8.737   7.871  67.174  1.00  0.00    -0.128 OA 
BRANCH  19  22
HETATM   22  C   UNL     1      -9.428   9.694  69.520  1.00  0.00    -0.199 C  
BRANCH  22  23
HETATM   23  O   UNL     1     -10.699   9.057  69.697  1.00  0.00    -0.229 OA 
BRANCH  23  24
HETATM   24  C   UNL     1     -11.569   9.761  70.464  1.00  0.00    -0.292 C  
HETATM   25  O   UNL     1     -12.342  10.620  70.061  1.00  0.00    -0.311 OA 
BRANCH  24  26
HETATM   26  O   UNL     1     -11.432   9.376  71.761  1.00  0.00    -0.380 OA 
BRANCH  26  27
HETATM   27  C   UNL     1     -12.341   8.341  72.196  1.00  0.00    -0.360 C  
HETATM   28  C   UNL     1     -13.773   8.797  71.938  1.00  0.00    -0.477 C  
HETATM   29  C   UNL     1     -12.048   7.057  71.427  1.00  0.00    -0.396 C  
ENDBRANCH  26  27
ENDBRANCH  24  26
ENDBRANCH  23  24
ENDBRANCH  22  23
ENDBRANCH  19  22
BRANCH  21  30
HETATM   30  C   UNL     1      -9.272   6.565  67.135  1.00  0.00    -0.128 C  
BRANCH  30  31
HETATM   31  O   UNL     1      -8.392   5.655  66.483  1.00  0.00    -0.109 OA 
BRANCH  31  32
HETATM   32  C   UNL     1      -8.761   4.357  66.591  1.00  0.00    -0.112 C  
HETATM   33  O   UNL     1      -9.912   3.943  66.636  1.00  0.00    -0.166 OA 
BRANCH  32  34
HETATM   34  O   UNL     1      -7.638   3.597  66.577  1.00  0.00    -0.079 OA 
BRANCH  34  35
HETATM   35  C   UNL     1      -6.936   3.515  65.321  1.00  0.00    -0.060 C  
HETATM   36  C   UNL     1      -7.482   2.304  64.569  1.00  0.00    -0.063 C  
HETATM   37  C   UNL     1      -5.438   3.351  65.556  1.00  0.00    -0.010 C  
ENDBRANCH  34  35
ENDBRANCH  32  34
ENDBRANCH  31  32
ENDBRANCH  30  31
ENDBRANCH  21  30
ENDBRANCH  16  17
ENDBRANCH   1  16
TORSDOF 14
ENDMDL
MODEL      251
REMARK 921   NORMALIZED FREE ENERGY PREDICTED BY IDOCK:   -4.16 KCAL/MOL
REMARK 922        TOTAL FREE ENERGY PREDICTED BY IDOCK:   -9.40 KCAL/MOL
REMARK 923 INTER-LIGAND FREE ENERGY PREDICTED BY IDOCK:   -7.67 KCAL/MOL
REMARK 924 INTRA-LIGAND FREE ENERGY PREDICTED BY IDOCK:   -1.73 KCAL/MOL
REMARK 927      BINDING AFFINITY PREDICTED BY RF-SCORE:    0.00 PKD
ROOT
HETATM    1  C   UNL     1      -7.759  11.537  68.051  1.00  0.00    -0.119 C  
HETATM    2  C   UNL     1      -6.449  12.242  68.396  1.00  0.00    -0.057 C  
ENDROOT
BRANCH   1   3
HETATM    3  C   UNL     1      -8.863  12.481  67.594  1.00  0.00    -0.179 C  
BRANCH   3   4
HETATM    4  N   UNL     1      -9.663  12.032  66.486  1.00  0.00    -0.211 NA 
HETATM    5  C   UNL     1     -10.783  12.687  66.077  1.00  0.00    -0.269 A  
HETATM    6  N   UNL     1     -12.961  13.582  64.845  1.00  0.00    -0.721 NA 
HETATM    7  C   UNL     1      -9.401  11.043  65.580  1.00  0.00    -0.214 A  
HETATM    8  N   UNL     1     -12.839  11.957  63.139  1.00  0.00    -0.867 NA 
HETATM    9  N   UNL     1     -11.367  13.748  66.657  1.00  0.00    -0.318 NA 
HETATM   10  C   UNL     1     -12.320  12.527  64.295  1.00  0.00    -0.456 A  
HETATM   11  N   UNL     1     -10.313  10.993  64.636  1.00  0.00    -0.330 NA 
HETATM   12  C   UNL     1     -12.450  14.133  65.968  1.00  0.00    -0.425 A  
HETATM   13  C   UNL     1     -11.172  12.033  64.925  1.00  0.00    -0.320 A  
HETATM   14  H1  UNL     1     -13.675  12.317  62.680  1.00  0.00     0.000 HD 
HETATM   15  H2  UNL     1     -12.992  10.966  63.325  1.00  0.00     0.000 HD 
ENDBRANCH   3   4
ENDBRANCH   1   3
BRANCH   1  16
HETATM   16  O   UNL     1      -8.133  10.696  69.163  1.00  0.00    -0.139 OA 
BRANCH  16  17
HETATM   17  C   UNL     1      -8.992   9.571  68.854  1.00  0.00    -0.141 C  
HETATM   18  O   UNL     1      -7.630   8.028  67.630  1.00  0.00    -0.098 OA 
HETATM   19  O   UNL     1      -7.051   8.575  70.124  1.00  0.00    -0.041 OA 
HETATM   20  P   UNL     1      -8.153   7.959  69.066  1.00  0.00    -0.126 P  
HETATM   21  O   UNL     1      -7.361   6.434  69.266  1.00  0.00    -0.087 OA 
BRANCH  19  22
HETATM   22  C   UNL     1      -7.292   8.497  71.513  1.00  0.00    -0.098 C  
BRANCH  22  23
HETATM   23  O   UNL     1      -8.686   8.343  71.806  1.00  0.00    -0.146 OA 
BRANCH  23  24
HETATM   24  C   UNL     1      -8.972   7.269  72.584  1.00  0.00    -0.131 C  
HETATM   25  O   UNL     1      -8.310   6.882  73.538  1.00  0.00    -0.113 OA 
BRANCH  24  26
HETATM   26  O   UNL     1     -10.104   6.673  72.124  1.00  0.00    -0.179 OA 
BRANCH  26  27
HETATM   27  C   UNL     1     -11.053   7.560  71.492  1.00  0.00    -0.236 C  
HETATM   28  C   UNL     1     -11.872   6.769  70.477  1.00  0.00    -0.418 C  
HETATM   29  C   UNL     1     -11.966   8.161  72.555  1.00  0.00    -0.410 C  
ENDBRANCH  26  27
ENDBRANCH  24  26
ENDBRANCH  23  24
ENDBRANCH  22  23
ENDBRANCH  19  22
BRANCH  21  30
HETATM   30  C   UNL     1      -8.268   5.355  69.350  1.00  0.00    -0.096 C  
BRANCH  30  31
HETATM   31  O   UNL     1      -7.883   4.277  68.502  1.00  0.00    -0.073 OA 
BRANCH  31  32
HETATM   32  C   UNL     1      -8.538   4.244  67.319  1.00  0.00    -0.104 C  
HETATM   33  O   UNL     1      -9.607   3.686  67.109  1.00  0.00    -0.212 OA 
BRANCH  32  34
HETATM   34  O   UNL     1      -7.835   4.986  66.427  1.00  0.00    -0.098 OA 
BRANCH  34  35
HETATM   35  C   UNL     1      -8.037   4.675  65.035  1.00  0.00    -0.102 C  
HETATM   36  C   UNL     1      -6.800   3.926  64.548  1.00  0.00    -0.045 C  
HETATM   37  C   UNL     1      -8.225   5.953  64.224  1.00  0.00    -0.088 C  
ENDBRANCH  34  35
ENDBRANCH  32  34
ENDBRANCH  31  32
ENDBRANCH  30  31
ENDBRANCH  21  30
ENDBRANCH  16  17
ENDBRANCH   1  16
TORSDOF 14
ENDMDL
MODEL      252
REMARK 921   NORMALIZED FREE ENERGY PREDICTED BY IDOCK:   -4.15 KCAL/MOL
REMARK 922        TOTAL FREE ENERGY PREDICTED BY IDOCK:   -9.39 KCAL/MOL
REMARK 923 INTER-LIGAND FREE ENERGY PREDICTED BY IDOCK:   -8.25 KCAL/MOL
REMARK 924 INTRA-LIGAND FREE ENERGY PREDICTED BY IDOCK:   -1.14 KCAL/MOL
REMARK 927      BINDING AFFINITY PREDICTED BY RF-SCORE:    0.00 PKD
ROOT
HETATM    1  C   UNL     1      -6.677  13.774  68.001  1.00  0.00    -0.139 C  
HETATM    2  C   UNL     1      -5.583  12.803  68.440  1.00  0.00    -0.059 C  
ENDROOT
BRANCH   1   3
HETATM    3  C   UNL     1      -6.630  15.117  68.717  1.00  0.00    -0.094 C  
BRANCH   3   4
HETATM    4  N   UNL     1      -6.932  16.273  67.916  1.00  0.00    -0.131 NA 
HETATM    5  C   UNL     1      -8.092  16.972  68.045  1.00  0.00    -0.204 A  
HETATM    6  N   UNL     1     -10.109  18.698  67.919  1.00  0.00    -0.350 NA 
HETATM    7  C   UNL     1      -6.121  16.960  67.057  1.00  0.00    -0.190 A  
HETATM    8  N   UNL     1      -9.007  20.094  66.369  1.00  0.00    -0.535 NA 
HETATM    9  N   UNL     1      -9.145  16.671  68.821  1.00  0.00    -0.250 NA 
HETATM   10  C   UNL     1      -9.013  18.960  67.172  1.00  0.00    -0.284 A  
HETATM   11  N   UNL     1      -6.710  18.036  66.587  1.00  0.00    -0.187 NA 
HETATM   12  C   UNL     1     -10.109  17.594  68.698  1.00  0.00    -0.377 A  
HETATM   13  C   UNL     1      -7.937  18.066  67.216  1.00  0.00    -0.212 A  
HETATM   14  H1  UNL     1      -9.790  20.746  66.336  1.00  0.00     0.000 HD 
HETATM   15  H2  UNL     1      -8.815  19.794  65.413  1.00  0.00     0.000 HD 
ENDBRANCH   3   4
ENDBRANCH   1   3
BRANCH   1  16
HETATM   16  O   UNL     1      -7.951  13.103  68.101  1.00  0.00    -0.134 OA 
BRANCH  16  17
HETATM   17  C   UNL     1      -7.931  11.779  68.688  1.00  0.00    -0.116 C  
HETATM   18  O   UNL     1     -10.181  11.340  69.382  1.00  0.00    -0.106 OA 
HETATM   19  O   UNL     1      -9.642  11.641  66.837  1.00  0.00    -0.182 OA 
HETATM   20  P   UNL     1      -9.380  10.769  68.210  1.00  0.00    -0.173 P  
HETATM   21  O   UNL     1     -10.749   9.813  67.758  1.00  0.00    -0.255 OA 
BRANCH  19  22
HETATM   22  C   UNL     1      -9.087  11.208  65.614  1.00  0.00    -0.205 C  
BRANCH  22  23
HETATM   23  O   UNL     1      -9.607  11.944  64.500  1.00  0.00    -0.152 OA 
BRANCH  23  24
HETATM   24  C   UNL     1     -10.954  12.104  64.522  1.00  0.00    -0.314 C  
HETATM   25  O   UNL     1     -11.762  11.436  63.892  1.00  0.00    -0.252 OA 
BRANCH  24  26
HETATM   26  O   UNL     1     -11.267  13.142  65.343  1.00  0.00    -0.289 OA 
BRANCH  26  27
HETATM   27  C   UNL     1     -10.894  14.449  64.854  1.00  0.00    -0.416 C  
HETATM   28  C   UNL     1     -12.151  15.190  64.411  1.00  0.00    -0.313 C  
HETATM   29  C   UNL     1     -10.187  15.220  65.964  1.00  0.00    -0.335 C  
ENDBRANCH  26  27
ENDBRANCH  24  26
ENDBRANCH  23  24
ENDBRANCH  22  23
ENDBRANCH  19  22
BRANCH  21  30
HETATM   30  C   UNL     1     -10.553   8.434  67.993  1.00  0.00    -0.130 C  
BRANCH  30  31
HETATM   31  O   UNL     1     -10.291   8.166  69.367  1.00  0.00    -0.211 OA 
BRANCH  31  32
HETATM   32  C   UNL     1     -10.857   7.027  69.825  1.00  0.00    -0.248 C  
HETATM   33  O   UNL     1     -11.747   6.397  69.268  1.00  0.00    -0.277 OA 
BRANCH  32  34
HETATM   34  O   UNL     1     -10.227   6.675  70.974  1.00  0.00    -0.190 OA 
BRANCH  34  35
HETATM   35  C   UNL     1     -11.024   6.700  72.174  1.00  0.00    -0.245 C  
HETATM   36  C   UNL     1     -11.020   8.133  72.697  1.00  0.00    -0.440 C  
HETATM   37  C   UNL     1     -10.437   5.761  73.223  1.00  0.00    -0.255 C  
ENDBRANCH  34  35
ENDBRANCH  32  34
ENDBRANCH  31  32
ENDBRANCH  30  31
ENDBRANCH  21  30
ENDBRANCH  16  17
ENDBRANCH   1  16
TORSDOF 14
ENDMDL
MODEL      253
REMARK 921   NORMALIZED FREE ENERGY PREDICTED BY IDOCK:   -4.14 KCAL/MOL
REMARK 922        TOTAL FREE ENERGY PREDICTED BY IDOCK:   -9.37 KCAL/MOL
REMARK 923 INTER-LIGAND FREE ENERGY PREDICTED BY IDOCK:   -8.10 KCAL/MOL
REMARK 924 INTRA-LIGAND FREE ENERGY PREDICTED BY IDOCK:   -1.27 KCAL/MOL
REMARK 927      BINDING AFFINITY PREDICTED BY RF-SCORE:    0.00 PKD
ROOT
HETATM    1  C   UNL     1      -9.010   9.289  67.475  1.00  0.00    -0.118 C  
HETATM    2  C   UNL     1     -10.389   8.647  67.350  1.00  0.00    -0.353 C  
ENDROOT
BRANCH   1   3
HETATM    3  C   UNL     1      -8.246   8.865  68.723  1.00  0.00    -0.115 C  
BRANCH   3   4
HETATM    4  N   UNL     1      -8.299   7.466  69.052  1.00  0.00    -0.125 NA 
HETATM    5  C   UNL     1      -9.076   6.978  70.057  1.00  0.00    -0.145 A  
HETATM    6  N   UNL     1     -10.419   5.511  71.818  1.00  0.00    -0.222 NA 
HETATM    7  C   UNL     1      -7.768   6.402  68.378  1.00  0.00    -0.104 A  
HETATM    8  N   UNL     1      -9.638   3.469  70.932  1.00  0.00    -0.167 NA 
HETATM    9  N   UNL     1      -9.810   7.679  70.935  1.00  0.00    -0.177 NA 
HETATM   10  C   UNL     1      -9.677   4.858  70.897  1.00  0.00    -0.195 A  
HETATM   11  N   UNL     1      -8.118   5.258  68.920  1.00  0.00    -0.086 NA 
HETATM   12  C   UNL     1     -10.455   6.861  71.779  1.00  0.00    -0.203 A  
HETATM   13  C   UNL     1      -8.956   5.606  69.959  1.00  0.00    -0.137 A  
HETATM   14  H1  UNL     1     -10.163   2.924  71.615  1.00  0.00     0.000 HD 
HETATM   15  H2  UNL     1      -8.660   3.190  71.001  1.00  0.00     0.000 HD 
ENDBRANCH   3   4
ENDBRANCH   1   3
BRANCH   1  16
HETATM   16  O   UNL     1      -9.157  10.719  67.339  1.00  0.00    -0.143 OA 
BRANCH  16  17
HETATM   17  C   UNL     1      -8.626  11.522  68.422  1.00  0.00    -0.159 C  
HETATM   18  O   UNL     1      -6.670  12.590  67.543  1.00  0.00    -0.122 OA 
HETATM   19  O   UNL     1      -9.021  13.155  66.537  1.00  0.00    -0.177 OA 
HETATM   20  P   UNL     1      -8.049  13.168  67.868  1.00  0.00    -0.188 P  
HETATM   21  O   UNL     1      -7.504  14.725  67.345  1.00  0.00    -0.186 OA 
BRANCH  19  22
HETATM   22  C   UNL     1     -10.297  13.753  66.594  1.00  0.00    -0.279 C  
BRANCH  22  23
HETATM   23  O   UNL     1     -11.345  12.777  66.642  1.00  0.00    -0.285 OA 
BRANCH  23  24
HETATM   24  C   UNL     1     -11.896  12.617  67.872  1.00  0.00    -0.332 C  
HETATM   25  O   UNL     1     -12.172  11.547  68.396  1.00  0.00    -0.540 OA 
BRANCH  24  26
HETATM   26  O   UNL     1     -12.113  13.840  68.426  1.00  0.00    -0.368 OA 
BRANCH  26  27
HETATM   27  C   UNL     1     -11.622  14.002  69.775  1.00  0.00    -0.281 C  
HETATM   28  C   UNL     1     -11.119  15.430  69.952  1.00  0.00    -0.304 C  
HETATM   29  C   UNL     1     -12.749  13.710  70.760  1.00  0.00    -0.338 C  
ENDBRANCH  26  27
ENDBRANCH  24  26
ENDBRANCH  23  24
ENDBRANCH  22  23
ENDBRANCH  19  22
BRANCH  21  30
HETATM   30  C   UNL     1      -7.356  15.637  68.412  1.00  0.00    -0.116 C  
BRANCH  30  31
HETATM   31  O   UNL     1      -8.216  16.763  68.264  1.00  0.00    -0.189 OA 
BRANCH  31  32
HETATM   32  C   UNL     1      -7.593  17.956  68.408  1.00  0.00    -0.282 C  
HETATM   33  O   UNL     1      -6.886  18.283  69.353  1.00  0.00    -0.229 OA 
BRANCH  32  34
HETATM   34  O   UNL     1      -7.838  18.697  67.299  1.00  0.00    -0.230 OA 
BRANCH  34  35
HETATM   35  C   UNL     1      -8.389  20.011  67.516  1.00  0.00    -0.334 C  
HETATM   36  C   UNL     1      -9.663  20.117  66.683  1.00  0.00    -0.568 C  
HETATM   37  C   UNL     1      -7.394  21.084  67.086  1.00  0.00    -0.304 C  
ENDBRANCH  34  35
ENDBRANCH  32  34
ENDBRANCH  31  32
ENDBRANCH  30  31
ENDBRANCH  21  30
ENDBRANCH  16  17
ENDBRANCH   1  16
TORSDOF 14
ENDMDL
MODEL      254
REMARK 921   NORMALIZED FREE ENERGY PREDICTED BY IDOCK:   -4.14 KCAL/MOL
REMARK 922        TOTAL FREE ENERGY PREDICTED BY IDOCK:   -9.36 KCAL/MOL
REMARK 923 INTER-LIGAND FREE ENERGY PREDICTED BY IDOCK:   -7.71 KCAL/MOL
REMARK 924 INTRA-LIGAND FREE ENERGY PREDICTED BY IDOCK:   -1.65 KCAL/MOL
REMARK 927      BINDING AFFINITY PREDICTED BY RF-SCORE:    0.00 PKD
ROOT
HETATM    1  C   UNL     1      -7.740   8.364  67.841  1.00  0.00    -0.103 C  
HETATM    2  C   UNL     1      -6.829   7.396  67.090  1.00  0.00    -0.074 C  
ENDROOT
BRANCH   1   3
HETATM    3  C   UNL     1      -9.213   8.230  67.478  1.00  0.00    -0.137 C  
BRANCH   3   4
HETATM    4  N   UNL     1     -10.027   7.485  68.400  1.00  0.00    -0.165 NA 
HETATM    5  C   UNL     1     -10.358   7.957  69.633  1.00  0.00    -0.216 A  
HETATM    6  N   UNL     1     -11.335   8.404  72.063  1.00  0.00    -0.316 NA 
HETATM    7  C   UNL     1     -10.726   6.328  68.193  1.00  0.00    -0.293 A  
HETATM    8  N   UNL     1     -12.632   6.434  72.062  1.00  0.00    -0.458 NA 
HETATM    9  N   UNL     1      -9.929   9.087  70.216  1.00  0.00    -0.184 NA 
HETATM   10  C   UNL     1     -11.746   7.290  71.419  1.00  0.00    -0.287 A  
HETATM   11  N   UNL     1     -11.450   6.002  69.238  1.00  0.00    -0.211 NA 
HETATM   12  C   UNL     1     -10.474   9.233  71.432  1.00  0.00    -0.338 A  
HETATM   13  C   UNL     1     -11.245   7.028  70.138  1.00  0.00    -0.284 A  
HETATM   14  H1  UNL     1     -12.997   6.625  72.995  1.00  0.00     0.000 HD 
HETATM   15  H2  UNL     1     -12.207   5.507  72.081  1.00  0.00     0.000 HD 
ENDBRANCH   3   4
ENDBRANCH   1   3
BRANCH   1  16
HETATM   16  O   UNL     1      -7.219   9.701  67.680  1.00  0.00    -0.087 OA 
BRANCH  16  17
HETATM   17  C   UNL     1      -7.338  10.576  68.829  1.00  0.00    -0.092 C  
HETATM   18  O   UNL     1      -6.007  12.501  68.322  1.00  0.00    -0.054 OA 
HETATM   19  O   UNL     1      -8.120  11.966  66.871  1.00  0.00    -0.165 OA 
HETATM   20  P   UNL     1      -7.528  12.336  68.364  1.00  0.00    -0.120 P  
HETATM   21  O   UNL     1      -7.707  13.999  67.925  1.00  0.00    -0.127 OA 
BRANCH  19  22
HETATM   22  C   UNL     1      -9.515  11.886  66.670  1.00  0.00    -0.209 C  
BRANCH  22  23
HETATM   23  O   UNL     1     -10.246  12.173  67.868  1.00  0.00    -0.189 OA 
BRANCH  23  24
HETATM   24  C   UNL     1     -11.430  11.519  67.964  1.00  0.00    -0.311 C  
HETATM   25  O   UNL     1     -11.654  10.385  67.559  1.00  0.00    -0.343 OA 
BRANCH  24  26
HETATM   26  O   UNL     1     -12.341  12.329  68.565  1.00  0.00    -0.149 OA 
BRANCH  26  27
HETATM   27  C   UNL     1     -12.074  12.636  69.951  1.00  0.00    -0.252 C  
HETATM   28  C   UNL     1     -12.597  14.034  70.261  1.00  0.00    -0.354 C  
HETATM   29  C   UNL     1     -12.764  11.603  70.837  1.00  0.00    -0.351 C  
ENDBRANCH  26  27
ENDBRANCH  24  26
ENDBRANCH  23  24
ENDBRANCH  22  23
ENDBRANCH  19  22
BRANCH  21  30
HETATM   30  C   UNL     1      -8.205  14.791  68.983  1.00  0.00    -0.141 C  
BRANCH  30  31
HETATM   31  O   UNL     1      -8.694  16.045  68.516  1.00  0.00    -0.179 OA 
BRANCH  31  32
HETATM   32  C   UNL     1     -10.011  16.247  68.752  1.00  0.00    -0.237 C  
HETATM   33  O   UNL     1     -10.536  16.319  69.855  1.00  0.00    -0.306 OA 
BRANCH  32  34
HETATM   34  O   UNL     1     -10.632  16.416  67.558  1.00  0.00    -0.307 OA 
BRANCH  34  35
HETATM   35  C   UNL     1     -10.701  15.258  66.704  1.00  0.00    -0.309 C  
HETATM   36  C   UNL     1     -10.060  15.633  65.371  1.00  0.00    -0.370 C  
HETATM   37  C   UNL     1     -12.153  14.843  66.485  1.00  0.00     0.005 C  
ENDBRANCH  34  35
ENDBRANCH  32  34
ENDBRANCH  31  32
ENDBRANCH  30  31
ENDBRANCH  21  30
ENDBRANCH  16  17
ENDBRANCH   1  16
TORSDOF 14
ENDMDL
MODEL      255
REMARK 921   NORMALIZED FREE ENERGY PREDICTED BY IDOCK:   -4.12 KCAL/MOL
REMARK 922        TOTAL FREE ENERGY PREDICTED BY IDOCK:   -9.33 KCAL/MOL
REMARK 923 INTER-LIGAND FREE ENERGY PREDICTED BY IDOCK:   -7.78 KCAL/MOL
REMARK 924 INTRA-LIGAND FREE ENERGY PREDICTED BY IDOCK:   -1.55 KCAL/MOL
REMARK 927      BINDING AFFINITY PREDICTED BY RF-SCORE:    0.00 PKD
ROOT
HETATM    1  C   UNL     1      -6.881   9.450  66.537  1.00  0.00    -0.083 C  
HETATM    2  C   UNL     1      -6.648  10.822  65.909  1.00  0.00    -0.090 C  
ENDROOT
BRANCH   1   3
HETATM    3  C   UNL     1      -8.200   8.805  66.133  1.00  0.00    -0.117 C  
BRANCH   3   4
HETATM    4  N   UNL     1      -8.109   7.506  65.522  1.00  0.00    -0.124 NA 
HETATM    5  C   UNL     1      -8.955   6.488  65.836  1.00  0.00    -0.085 A  
HETATM    6  N   UNL     1     -10.335   4.224  66.017  1.00  0.00    -0.168 NA 
HETATM    7  C   UNL     1      -7.341   7.104  64.466  1.00  0.00    -0.081 A  
HETATM    8  N   UNL     1      -9.154   3.194  64.253  1.00  0.00    -0.112 NA 
HETATM    9  N   UNL     1      -9.903   6.477  66.786  1.00  0.00    -0.160 NA 
HETATM   10  C   UNL     1      -9.378   4.299  65.064  1.00  0.00    -0.165 A  
HETATM   11  N   UNL     1      -7.608   5.867  64.113  1.00  0.00    -0.078 NA 
HETATM   12  C   UNL     1     -10.549   5.302  66.802  1.00  0.00    -0.242 A  
HETATM   13  C   UNL     1      -8.634   5.479  64.949  1.00  0.00    -0.111 A  
HETATM   14  H1  UNL     1      -9.696   2.335  64.336  1.00  0.00     0.000 HD 
HETATM   15  H2  UNL     1      -8.168   2.946  64.336  1.00  0.00     0.000 HD 
ENDBRANCH   3   4
ENDBRANCH   1   3
BRANCH   1  16
HETATM   16  O   UNL     1      -6.699   9.564  67.965  1.00  0.00    -0.062 OA 
BRANCH  16  17
HETATM   17  C   UNL     1      -7.085   8.411  68.752  1.00  0.00    -0.068 C  
HETATM   18  O   UNL     1      -6.699   9.021  71.035  1.00  0.00    -0.071 OA 
HETATM   19  O   UNL     1      -8.504  10.303  69.636  1.00  0.00    -0.169 OA 
HETATM   20  P   UNL     1      -8.011   8.861  70.265  1.00  0.00    -0.150 P  
HETATM   21  O   UNL     1      -8.887   9.286  71.695  1.00  0.00    -0.312 OA 
BRANCH  19  22
HETATM   22  C   UNL     1      -9.754  10.395  68.988  1.00  0.00    -0.206 C  
BRANCH  22  23
HETATM   23  O   UNL     1      -9.914  11.647  68.311  1.00  0.00    -0.188 OA 
BRANCH  23  24
HETATM   24  C   UNL     1     -11.165  11.858  67.827  1.00  0.00    -0.267 C  
HETATM   25  O   UNL     1     -12.114  11.096  67.948  1.00  0.00    -0.627 OA 
BRANCH  24  26
HETATM   26  O   UNL     1     -11.193  13.046  67.166  1.00  0.00    -0.265 OA 
BRANCH  26  27
HETATM   27  C   UNL     1     -10.238  13.174  66.089  1.00  0.00    -0.290 C  
HETATM   28  C   UNL     1     -10.746  12.396  64.880  1.00  0.00    -0.328 C  
HETATM   29  C   UNL     1     -10.069  14.649  65.738  1.00  0.00    -0.364 C  
ENDBRANCH  26  27
ENDBRANCH  24  26
ENDBRANCH  23  24
ENDBRANCH  22  23
ENDBRANCH  19  22
BRANCH  21  30
HETATM   30  C   UNL     1      -9.590   8.194  72.248  1.00  0.00    -0.251 C  
BRANCH  30  31
HETATM   31  O   UNL     1     -10.964   8.504  72.459  1.00  0.00    -0.353 OA 
BRANCH  31  32
HETATM   32  C   UNL     1     -11.774   8.145  71.437  1.00  0.00    -0.285 C  
HETATM   33  O   UNL     1     -12.123   7.002  71.170  1.00  0.00    -0.333 OA 
BRANCH  32  34
HETATM   34  O   UNL     1     -12.179   9.273  70.803  1.00  0.00    -0.246 OA 
BRANCH  34  35
HETATM   35  C   UNL     1     -13.403   9.868  71.275  1.00  0.00    -0.342 C  
HETATM   36  C   UNL     1     -13.051  11.229  71.870  1.00  0.00    -0.510 C  
HETATM   37  C   UNL     1     -14.050   8.986  72.338  1.00  0.00    -0.478 C  
ENDBRANCH  34  35
ENDBRANCH  32  34
ENDBRANCH  31  32
ENDBRANCH  30  31
ENDBRANCH  21  30
ENDBRANCH  16  17
ENDBRANCH   1  16
TORSDOF 14
ENDMDL
MODEL      256
REMARK 921   NORMALIZED FREE ENERGY PREDICTED BY IDOCK:   -4.11 KCAL/MOL
REMARK 922        TOTAL FREE ENERGY PREDICTED BY IDOCK:   -9.32 KCAL/MOL
REMARK 923 INTER-LIGAND FREE ENERGY PREDICTED BY IDOCK:   -7.28 KCAL/MOL
REMARK 924 INTRA-LIGAND FREE ENERGY PREDICTED BY IDOCK:   -2.04 KCAL/MOL
REMARK 927      BINDING AFFINITY PREDICTED BY RF-SCORE:    0.00 PKD
ROOT
HETATM    1  C   UNL     1     -11.307  15.199  69.865  1.00  0.00    -0.284 C  
HETATM    2  C   UNL     1     -12.467  15.044  70.846  1.00  0.00    -0.407 C  
ENDROOT
BRANCH   1   3
HETATM    3  C   UNL     1     -10.963  16.647  69.542  1.00  0.00    -0.228 C  
BRANCH   3   4
HETATM    4  N   UNL     1      -9.851  16.851  68.654  1.00  0.00    -0.258 NA 
HETATM    5  C   UNL     1      -8.595  16.410  68.938  1.00  0.00    -0.250 A  
HETATM    6  N   UNL     1      -6.026  15.731  68.956  1.00  0.00    -0.105 NA 
HETATM    7  C   UNL     1      -9.847  17.330  67.374  1.00  0.00    -0.272 A  
HETATM    8  N   UNL     1      -5.653  16.521  66.764  1.00  0.00    -0.346 NA 
HETATM    9  N   UNL     1      -8.170  15.831  70.072  1.00  0.00     0.347 NA 
HETATM   10  C   UNL     1      -6.515  16.301  67.832  1.00  0.00    -0.140 A  
HETATM   11  N   UNL     1      -8.652  17.268  66.834  1.00  0.00    -0.229 NA 
HETATM   12  C   UNL     1      -6.869  15.519  69.990  1.00  0.00    -0.020 A  
HETATM   13  C   UNL     1      -7.864  16.672  67.796  1.00  0.00    -0.164 A  
HETATM   14  H1  UNL     1      -4.670  16.251  66.790  1.00  0.00     0.000 HD 
HETATM   15  H2  UNL     1      -5.694  17.513  66.534  1.00  0.00     0.000 HD 
ENDBRANCH   3   4
ENDBRANCH   1   3
BRANCH   1  16
HETATM   16  O   UNL     1     -11.583  14.391  68.700  1.00  0.00    -0.280 OA 
BRANCH  16  17
HETATM   17  C   UNL     1     -11.935  13.008  68.950  1.00  0.00    -0.263 C  
HETATM   18  O   UNL     1     -12.271  12.020  66.795  1.00  0.00    -0.545 OA 
HETATM   19  O   UNL     1      -9.897  12.900  67.464  1.00  0.00    -0.202 OA 
HETATM   20  P   UNL     1     -11.123  11.848  67.792  1.00  0.00    -0.282 P  
HETATM   21  O   UNL     1     -10.355  10.751  66.696  1.00  0.00    -0.225 OA 
BRANCH  19  22
HETATM   22  C   UNL     1      -8.693  12.823  68.196  1.00  0.00    -0.193 C  
BRANCH  22  23
HETATM   23  O   UNL     1      -7.548  12.744  67.337  1.00  0.00    -0.153 OA 
BRANCH  23  24
HETATM   24  C   UNL     1      -6.889  11.560  67.403  1.00  0.00    -0.104 C  
HETATM   25  O   UNL     1      -6.126  11.121  66.553  1.00  0.00    -0.118 OA 
BRANCH  24  26
HETATM   26  O   UNL     1      -7.225  10.925  68.557  1.00  0.00    -0.080 OA 
BRANCH  26  27
HETATM   27  C   UNL     1      -6.117  10.581  69.417  1.00  0.00    -0.045 C  
HETATM   28  C   UNL     1      -5.695  11.817  70.203  1.00  0.00    -0.145 C  
HETATM   29  C   UNL     1      -6.543   9.468  70.368  1.00  0.00    -0.086 C  
ENDBRANCH  26  27
ENDBRANCH  24  26
ENDBRANCH  23  24
ENDBRANCH  22  23
ENDBRANCH  19  22
BRANCH  21  30
HETATM   30  C   UNL     1     -10.373   9.417  67.159  1.00  0.00    -0.258 C  
BRANCH  30  31
HETATM   31  O   UNL     1     -10.522   9.352  68.574  1.00  0.00    -0.200 OA 
BRANCH  31  32
HETATM   32  C   UNL     1     -10.192   8.155  69.110  1.00  0.00    -0.214 C  
HETATM   33  O   UNL     1      -9.218   7.479  68.804  1.00  0.00    -0.145 OA 
BRANCH  32  34
HETATM   34  O   UNL     1     -11.092   7.866  70.082  1.00  0.00    -0.255 OA 
BRANCH  34  35
HETATM   35  C   UNL     1     -10.925   8.558  71.335  1.00  0.00    -0.264 C  
HETATM   36  C   UNL     1     -11.627   7.735  72.411  1.00  0.00    -0.410 C  
HETATM   37  C   UNL     1     -11.541   9.951  71.260  1.00  0.00    -0.456 C  
ENDBRANCH  34  35
ENDBRANCH  32  34
ENDBRANCH  31  32
ENDBRANCH  30  31
ENDBRANCH  21  30
ENDBRANCH  16  17
ENDBRANCH   1  16
TORSDOF 14
ENDMDL
MODEL      257
REMARK 921   NORMALIZED FREE ENERGY PREDICTED BY IDOCK:   -4.11 KCAL/MOL
REMARK 922        TOTAL FREE ENERGY PREDICTED BY IDOCK:   -9.31 KCAL/MOL
REMARK 923 INTER-LIGAND FREE ENERGY PREDICTED BY IDOCK:   -7.67 KCAL/MOL
REMARK 924 INTRA-LIGAND FREE ENERGY PREDICTED BY IDOCK:   -1.64 KCAL/MOL
REMARK 927      BINDING AFFINITY PREDICTED BY RF-SCORE:    0.00 PKD
ROOT
HETATM    1  C   UNL     1     -12.087  14.030  68.582  1.00  0.00    -0.297 C  
HETATM    2  C   UNL     1     -11.708  15.461  68.207  1.00  0.00    -0.313 C  
ENDROOT
BRANCH   1   3
HETATM    3  C   UNL     1     -11.503  13.568  69.911  1.00  0.00    -0.124 C  
BRANCH   3   4
HETATM    4  N   UNL     1     -12.365  12.764  70.735  1.00  0.00    -0.354 NA 
HETATM    5  C   UNL     1     -12.247  11.411  70.817  1.00  0.00    -0.376 A  
HETATM    6  N   UNL     1     -12.421   8.821  71.389  1.00  0.00    -0.309 NA 
HETATM    7  C   UNL     1     -13.287  13.162  71.662  1.00  0.00    -0.308 A  
HETATM    8  N   UNL     1     -14.084   9.148  73.030  1.00  0.00    -1.124 NA 
HETATM    9  N   UNL     1     -11.424  10.618  70.113  1.00  0.00    -0.306 NA 
HETATM   10  C   UNL     1     -13.214   9.670  72.081  1.00  0.00    -0.444 A  
HETATM   11  N   UNL     1     -13.806  12.139  72.303  1.00  0.00    -0.086 NA 
HETATM   12  C   UNL     1     -11.576   9.335  70.469  1.00  0.00    -0.217 A  
HETATM   13  C   UNL     1     -13.145  11.039  71.799  1.00  0.00    -0.449 A  
HETATM   14  H1  UNL     1     -14.135   8.151  73.236  1.00  0.00     0.000 HD 
HETATM   15  H2  UNL     1     -15.025   9.461  72.791  1.00  0.00     0.000 HD 
ENDBRANCH   3   4
ENDBRANCH   1   3
BRANCH   1  16
HETATM   16  O   UNL     1     -11.764  13.166  67.471  1.00  0.00    -0.329 OA 
BRANCH  16  17
HETATM   17  C   UNL     1     -10.552  13.484  66.745  1.00  0.00    -0.272 C  
HETATM   18  O   UNL     1      -8.751  13.077  68.270  1.00  0.00    -0.186 OA 
HETATM   19  O   UNL     1     -10.257  11.086  67.479  1.00  0.00    -0.179 OA 
HETATM   20  P   UNL     1      -9.207  12.281  67.046  1.00  0.00    -0.214 P  
HETATM   21  O   UNL     1      -7.935  11.143  67.329  1.00  0.00    -0.126 OA 
BRANCH  19  22
HETATM   22  C   UNL     1     -10.706  10.162  66.511  1.00  0.00    -0.048 C  
BRANCH  22  23
HETATM   23  O   UNL     1     -10.561   8.808  66.957  1.00  0.00    -0.282 OA 
BRANCH  23  24
HETATM   24  C   UNL     1      -9.652   8.088  66.254  1.00  0.00    -0.152 C  
HETATM   25  O   UNL     1      -8.806   8.549  65.499  1.00  0.00    -0.178 OA 
BRANCH  24  26
HETATM   26  O   UNL     1      -9.840   6.765  66.503  1.00  0.00    -0.169 OA 
BRANCH  26  27
HETATM   27  C   UNL     1      -8.881   6.164  67.400  1.00  0.00    -0.106 C  
HETATM   28  C   UNL     1      -9.456   6.160  68.812  1.00  0.00    -0.128 C  
HETATM   29  C   UNL     1      -8.588   4.738  66.943  1.00  0.00    -0.104 C  
ENDBRANCH  26  27
ENDBRANCH  24  26
ENDBRANCH  23  24
ENDBRANCH  22  23
ENDBRANCH  19  22
BRANCH  21  30
HETATM   30  C   UNL     1      -6.914  11.212  66.357  1.00  0.00    -0.093 C  
BRANCH  30  31
HETATM   31  O   UNL     1      -5.621  11.243  66.953  1.00  0.00    -0.072 OA 
BRANCH  31  32
HETATM   32  C   UNL     1      -5.637  11.286  68.305  1.00  0.00    -0.045 C  
HETATM   33  O   UNL     1      -5.477  12.289  68.990  1.00  0.00    -0.061 OA 
BRANCH  32  34
HETATM   34  O   UNL     1      -5.920  10.042  68.764  1.00  0.00    -0.038 OA 
BRANCH  34  35
HETATM   35  C   UNL     1      -6.321   9.945  70.144  1.00  0.00    -0.084 C  
HETATM   36  C   UNL     1      -5.833   8.598  70.670  1.00  0.00    -0.032 C  
HETATM   37  C   UNL     1      -7.839  10.032  70.266  1.00  0.00    -0.065 C  
ENDBRANCH  34  35
ENDBRANCH  32  34
ENDBRANCH  31  32
ENDBRANCH  30  31
ENDBRANCH  21  30
ENDBRANCH  16  17
ENDBRANCH   1  16
TORSDOF 14
ENDMDL
MODEL      258
REMARK 921   NORMALIZED FREE ENERGY PREDICTED BY IDOCK:   -4.11 KCAL/MOL
REMARK 922        TOTAL FREE ENERGY PREDICTED BY IDOCK:   -9.31 KCAL/MOL
REMARK 923 INTER-LIGAND FREE ENERGY PREDICTED BY IDOCK:   -7.99 KCAL/MOL
REMARK 924 INTRA-LIGAND FREE ENERGY PREDICTED BY IDOCK:   -1.32 KCAL/MOL
REMARK 927      BINDING AFFINITY PREDICTED BY RF-SCORE:    0.00 PKD
ROOT
HETATM    1  C   UNL     1     -11.336   9.368  71.580  1.00  0.00    -0.382 C  
HETATM    2  C   UNL     1     -11.546   8.121  72.437  1.00  0.00    -0.463 C  
ENDROOT
BRANCH   1   3
HETATM    3  C   UNL     1     -12.627  10.089  71.217  1.00  0.00    -0.393 C  
BRANCH   3   4
HETATM    4  N   UNL     1     -12.536  11.517  71.075  1.00  0.00    -0.387 NA 
HETATM    5  C   UNL     1     -12.153  12.115  69.914  1.00  0.00    -0.253 A  
HETATM    6  N   UNL     1     -11.543  13.771  67.927  1.00  0.00    -0.320 NA 
HETATM    7  C   UNL     1     -12.944  12.496  71.936  1.00  0.00    -0.301 A  
HETATM    8  N   UNL     1     -12.110  15.697  69.166  1.00  0.00    -0.564 NA 
HETATM    9  N   UNL     1     -11.721  11.518  68.792  1.00  0.00    -0.311 NA 
HETATM   10  C   UNL     1     -12.002  14.315  69.076  1.00  0.00    -0.325 A  
HETATM   11  N   UNL     1     -12.802  13.694  71.416  1.00  0.00    -0.355 NA 
HETATM   12  C   UNL     1     -11.442  12.426  67.846  1.00  0.00    -0.328 A  
HETATM   13  C   UNL     1     -12.329  13.466  70.140  1.00  0.00    -0.252 A  
HETATM   14  H1  UNL     1     -11.872  16.316  68.391  1.00  0.00     0.000 HD 
HETATM   15  H2  UNL     1     -11.568  15.997  69.976  1.00  0.00     0.000 HD 
ENDBRANCH   3   4
ENDBRANCH   1   3
BRANCH   1  16
HETATM   16  O   UNL     1     -10.528   9.007  70.439  1.00  0.00    -0.192 OA 
BRANCH  16  17
HETATM   17  C   UNL     1      -9.975   7.668  70.445  1.00  0.00    -0.188 C  
HETATM   18  O   UNL     1     -11.700   6.247  69.585  1.00  0.00    -0.382 OA 
HETATM   19  O   UNL     1     -10.644   8.083  68.046  1.00  0.00    -0.200 OA 
HETATM   20  P   UNL     1     -10.396   6.720  68.938  1.00  0.00    -0.219 P  
HETATM   21  O   UNL     1     -10.794   5.823  67.513  1.00  0.00    -0.261 OA 
BRANCH  19  22
HETATM   22  C   UNL     1      -9.590   8.616  67.272  1.00  0.00    -0.167 C  
BRANCH  22  23
HETATM   23  O   UNL     1     -10.063   9.554  66.298  1.00  0.00    -0.269 OA 
BRANCH  23  24
HETATM   24  C   UNL     1      -9.089  10.329  65.758  1.00  0.00    -0.170 C  
HETATM   25  O   UNL     1      -9.228  11.092  64.811  1.00  0.00    -0.205 OA 
BRANCH  24  26
HETATM   26  O   UNL     1      -7.924  10.110  66.424  1.00  0.00    -0.114 OA 
BRANCH  26  27
HETATM   27  C   UNL     1      -7.203  11.300  66.812  1.00  0.00    -0.142 C  
HETATM   28  C   UNL     1      -7.841  11.879  68.069  1.00  0.00    -0.140 C  
HETATM   29  C   UNL     1      -5.744  10.942  67.074  1.00  0.00    -0.059 C  
ENDBRANCH  26  27
ENDBRANCH  24  26
ENDBRANCH  23  24
ENDBRANCH  22  23
ENDBRANCH  19  22
BRANCH  21  30
HETATM   30  C   UNL     1      -9.963   4.696  67.328  1.00  0.00    -0.159 C  
BRANCH  30  31
HETATM   31  O   UNL     1      -9.500   4.174  68.570  1.00  0.00    -0.146 OA 
BRANCH  31  32
HETATM   32  C   UNL     1      -8.764   3.045  68.454  1.00  0.00    -0.102 C  
HETATM   33  O   UNL     1      -8.841   2.232  67.542  1.00  0.00    -0.110 OA 
BRANCH  32  34
HETATM   34  O   UNL     1      -7.889   3.004  69.489  1.00  0.00    -0.046 OA 
BRANCH  34  35
HETATM   35  C   UNL     1      -6.494   2.900  69.144  1.00  0.00    -0.029 C  
HETATM   36  C   UNL     1      -6.215   3.926  68.049  1.00  0.00    -0.033 C  
HETATM   37  C   UNL     1      -6.173   1.498  68.637  1.00  0.00    -0.025 C  
ENDBRANCH  34  35
ENDBRANCH  32  34
ENDBRANCH  31  32
ENDBRANCH  30  31
ENDBRANCH  21  30
ENDBRANCH  16  17
ENDBRANCH   1  16
TORSDOF 14
ENDMDL
MODEL      259
REMARK 921   NORMALIZED FREE ENERGY PREDICTED BY IDOCK:   -4.10 KCAL/MOL
REMARK 922        TOTAL FREE ENERGY PREDICTED BY IDOCK:   -9.30 KCAL/MOL
REMARK 923 INTER-LIGAND FREE ENERGY PREDICTED BY IDOCK:   -7.96 KCAL/MOL
REMARK 924 INTRA-LIGAND FREE ENERGY PREDICTED BY IDOCK:   -1.35 KCAL/MOL
REMARK 927      BINDING AFFINITY PREDICTED BY RF-SCORE:    0.00 PKD
ROOT
HETATM    1  C   UNL     1     -10.268   8.447  68.843  1.00  0.00    -0.210 C  
HETATM    2  C   UNL     1     -10.185   7.439  69.988  1.00  0.00    -0.211 C  
ENDROOT
BRANCH   1   3
HETATM    3  C   UNL     1     -10.651   7.827  67.506  1.00  0.00    -0.248 C  
BRANCH   3   4
HETATM    4  N   UNL     1      -9.593   7.168  66.788  1.00  0.00    -0.170 NA 
HETATM    5  C   UNL     1      -9.386   5.825  66.857  1.00  0.00    -0.127 A  
HETATM    6  N   UNL     1      -8.584   3.307  66.582  1.00  0.00    -0.111 NA 
HETATM    7  C   UNL     1      -8.757   7.673  65.833  1.00  0.00    -0.152 A  
HETATM    8  N   UNL     1      -6.984   3.844  64.934  1.00  0.00    -0.053 NA 
HETATM    9  N   UNL     1     -10.025   4.939  67.637  1.00  0.00    -0.159 NA 
HETATM   10  C   UNL     1      -7.989   4.241  65.808  1.00  0.00    -0.095 A  
HETATM   11  N   UNL     1      -7.988   6.742  65.316  1.00  0.00    -0.121 NA 
HETATM   12  C   UNL     1      -9.561   3.699  67.429  1.00  0.00    -0.149 A  
HETATM   13  C   UNL     1      -8.389   5.576  65.934  1.00  0.00    -0.125 A  
HETATM   14  H1  UNL     1      -6.692   2.871  64.842  1.00  0.00     0.000 HD 
HETATM   15  H2  UNL     1      -6.153   4.396  65.147  1.00  0.00     0.000 HD 
ENDBRANCH   3   4
ENDBRANCH   1   3
BRANCH   1  16
HETATM   16  O   UNL     1      -9.038   9.200  68.806  1.00  0.00    -0.135 OA 
BRANCH  16  17
HETATM   17  C   UNL     1      -9.071  10.510  69.424  1.00  0.00    -0.104 C  
HETATM   18  O   UNL     1      -7.048  11.601  68.752  1.00  0.00    -0.092 OA 
HETATM   19  O   UNL     1      -8.840  10.966  66.951  1.00  0.00    -0.139 OA 
HETATM   20  P   UNL     1      -8.493  11.838  68.306  1.00  0.00    -0.138 P  
HETATM   21  O   UNL     1      -7.946  13.093  67.249  1.00  0.00    -0.173 OA 
BRANCH  19  22
HETATM   22  C   UNL     1     -10.086  11.133  66.310  1.00  0.00    -0.232 C  
BRANCH  22  23
HETATM   23  O   UNL     1     -11.116  11.509  67.231  1.00  0.00    -0.260 OA 
BRANCH  23  24
HETATM   24  C   UNL     1     -11.537  12.792  67.096  1.00  0.00    -0.364 C  
HETATM   25  O   UNL     1     -12.083  13.459  67.965  1.00  0.00    -0.342 OA 
BRANCH  24  26
HETATM   26  O   UNL     1     -11.275  13.217  65.832  1.00  0.00    -0.287 OA 
BRANCH  26  27
HETATM   27  C   UNL     1     -12.439  13.507  65.025  1.00  0.00    -0.417 C  
HETATM   28  C   UNL     1     -12.204  14.807  64.264  1.00  0.00    -0.402 C  
HETATM   29  C   UNL     1     -12.675  12.357  64.051  1.00  0.00    -0.450 C  
ENDBRANCH  26  27
ENDBRANCH  24  26
ENDBRANCH  23  24
ENDBRANCH  22  23
ENDBRANCH  19  22
BRANCH  21  30
HETATM   30  C   UNL     1      -8.333  14.379  67.683  1.00  0.00    -0.179 C  
BRANCH  30  31
HETATM   31  O   UNL     1      -7.945  15.388  66.756  1.00  0.00    -0.223 OA 
BRANCH  31  32
HETATM   32  C   UNL     1      -8.809  16.426  66.675  1.00  0.00    -0.249 C  
HETATM   33  O   UNL     1      -9.477  16.724  65.693  1.00  0.00    -0.523 OA 
BRANCH  32  34
HETATM   34  O   UNL     1      -8.849  17.037  67.885  1.00  0.00    -0.217 OA 
BRANCH  34  35
HETATM   35  C   UNL     1      -8.757  18.475  67.879  1.00  0.00    -0.284 C  
HETATM   36  C   UNL     1      -7.402  18.849  68.475  1.00  0.00    -0.330 C  
HETATM   37  C   UNL     1      -9.878  19.085  68.713  1.00  0.00    -0.485 C  
ENDBRANCH  34  35
ENDBRANCH  32  34
ENDBRANCH  31  32
ENDBRANCH  30  31
ENDBRANCH  21  30
ENDBRANCH  16  17
ENDBRANCH   1  16
TORSDOF 14
ENDMDL
MODEL      260
REMARK 921   NORMALIZED FREE ENERGY PREDICTED BY IDOCK:   -4.10 KCAL/MOL
REMARK 922        TOTAL FREE ENERGY PREDICTED BY IDOCK:   -9.30 KCAL/MOL
REMARK 923 INTER-LIGAND FREE ENERGY PREDICTED BY IDOCK:   -8.12 KCAL/MOL
REMARK 924 INTRA-LIGAND FREE ENERGY PREDICTED BY IDOCK:   -1.18 KCAL/MOL
REMARK 927      BINDING AFFINITY PREDICTED BY RF-SCORE:    0.00 PKD
ROOT
HETATM    1  C   UNL     1     -10.774  10.644  68.850  1.00  0.00    -0.219 C  
HETATM    2  C   UNL     1     -10.833  10.290  70.335  1.00  0.00    -0.320 C  
ENDROOT
BRANCH   1   3
HETATM    3  C   UNL     1     -11.764  11.724  68.436  1.00  0.00    -0.325 C  
BRANCH   3   4
HETATM    4  N   UNL     1     -11.222  12.829  67.692  1.00  0.00    -0.264 NA 
HETATM    5  C   UNL     1     -11.680  13.177  66.459  1.00  0.00    -0.382 A  
HETATM    6  N   UNL     1     -12.215  14.307  64.114  1.00  0.00    -0.606 NA 
HETATM    7  C   UNL     1     -10.335  13.787  68.096  1.00  0.00    -0.252 A  
HETATM    8  N   UNL     1     -10.708  16.089  64.465  1.00  0.00    -0.810 NA 
HETATM    9  N   UNL     1     -12.594  12.534  65.715  1.00  0.00    -0.454 NA 
HETATM   10  C   UNL     1     -11.316  14.922  64.914  1.00  0.00    -0.413 A  
HETATM   11  N   UNL     1     -10.158  14.706  67.175  1.00  0.00    -0.243 NA 
HETATM   12  C   UNL     1     -12.804  13.175  64.557  1.00  0.00    -0.102 A  
HETATM   13  C   UNL     1     -11.013  14.347  66.154  1.00  0.00    -0.320 A  
HETATM   14  H1  UNL     1     -10.929  16.508  63.563  1.00  0.00     0.000 HD 
HETATM   15  H2  UNL     1      -9.700  15.944  64.499  1.00  0.00     0.000 HD 
ENDBRANCH   3   4
ENDBRANCH   1   3
BRANCH   1  16
HETATM   16  O   UNL     1     -10.885   9.426  68.085  1.00  0.00    -0.203 OA 
BRANCH  16  17
HETATM   17  C   UNL     1     -10.283   9.441  66.767  1.00  0.00    -0.250 C  
HETATM   18  O   UNL     1      -7.917   9.381  67.129  1.00  0.00    -0.102 OA 
HETATM   19  O   UNL     1      -9.394   7.346  67.861  1.00  0.00    -0.134 OA 
HETATM   20  P   UNL     1      -8.866   8.294  66.620  1.00  0.00    -0.161 P  
HETATM   21  O   UNL     1      -7.525   7.209  66.481  1.00  0.00    -0.084 OA 
BRANCH  19  22
HETATM   22  C   UNL     1     -10.187   6.211  67.588  1.00  0.00    -0.174 C  
BRANCH  22  23
HETATM   23  O   UNL     1      -9.911   5.136  68.493  1.00  0.00    -0.155 OA 
BRANCH  23  24
HETATM   24  C   UNL     1     -10.547   5.241  69.687  1.00  0.00    -0.191 C  
HETATM   25  O   UNL     1     -11.419   6.054  69.962  1.00  0.00    -0.372 OA 
BRANCH  24  26
HETATM   26  O   UNL     1     -10.048   4.309  70.542  1.00  0.00    -0.191 OA 
BRANCH  26  27
HETATM   27  C   UNL     1      -9.582   4.822  71.809  1.00  0.00    -0.155 C  
HETATM   28  C   UNL     1      -8.589   5.951  71.554  1.00  0.00    -0.132 C  
HETATM   29  C   UNL     1     -10.772   5.335  72.613  1.00  0.00    -0.290 C  
ENDBRANCH  26  27
ENDBRANCH  24  26
ENDBRANCH  23  24
ENDBRANCH  22  23
ENDBRANCH  19  22
BRANCH  21  30
HETATM   30  C   UNL     1      -7.189   6.928  65.139  1.00  0.00    -0.074 C  
BRANCH  30  31
HETATM   31  O   UNL     1      -8.143   7.471  64.232  1.00  0.00    -0.133 OA 
BRANCH  31  32
HETATM   32  C   UNL     1      -7.628   7.818  63.030  1.00  0.00    -0.126 C  
HETATM   33  O   UNL     1      -6.683   7.274  62.473  1.00  0.00    -0.062 OA 
BRANCH  32  34
HETATM   34  O   UNL     1      -8.377   8.831  62.527  1.00  0.00    -0.183 OA 
BRANCH  34  35
HETATM   35  C   UNL     1      -8.503  10.005  63.353  1.00  0.00    -0.182 C  
HETATM   36  C   UNL     1      -9.622  10.860  62.766  1.00  0.00    -0.339 C  
HETATM   37  C   UNL     1      -7.197  10.792  63.364  1.00  0.00     0.283 C  
ENDBRANCH  34  35
ENDBRANCH  32  34
ENDBRANCH  31  32
ENDBRANCH  30  31
ENDBRANCH  21  30
ENDBRANCH  16  17
ENDBRANCH   1  16
TORSDOF 14
ENDMDL
MODEL      261
REMARK 921   NORMALIZED FREE ENERGY PREDICTED BY IDOCK:   -4.09 KCAL/MOL
REMARK 922        TOTAL FREE ENERGY PREDICTED BY IDOCK:   -9.28 KCAL/MOL
REMARK 923 INTER-LIGAND FREE ENERGY PREDICTED BY IDOCK:   -7.45 KCAL/MOL
REMARK 924 INTRA-LIGAND FREE ENERGY PREDICTED BY IDOCK:   -1.83 KCAL/MOL
REMARK 927      BINDING AFFINITY PREDICTED BY RF-SCORE:    0.00 PKD
ROOT
HETATM    1  C   UNL     1     -10.197   9.426  68.784  1.00  0.00    -0.203 C  
HETATM    2  C   UNL     1     -10.437   9.698  70.267  1.00  0.00    -0.338 C  
ENDROOT
BRANCH   1   3
HETATM    3  C   UNL     1      -8.854   8.771  68.489  1.00  0.00    -0.138 C  
BRANCH   3   4
HETATM    4  N   UNL     1      -8.890   7.606  67.646  1.00  0.00    -0.125 NA 
HETATM    5  C   UNL     1      -9.239   6.375  68.110  1.00  0.00    -0.111 A  
HETATM    6  N   UNL     1      -9.885   3.822  68.459  1.00  0.00    -0.005 NA 
HETATM    7  C   UNL     1      -8.765   7.522  66.287  1.00  0.00    -0.149 A  
HETATM    8  N   UNL     1      -9.700   3.312  66.162  1.00  0.00    -0.406 NA 
HETATM    9  N   UNL     1      -9.498   6.025  69.380  1.00  0.00    -0.133 NA 
HETATM   10  C   UNL     1      -9.632   4.236  67.197  1.00  0.00    -0.194 A  
HETATM   11  N   UNL     1      -8.966   6.298  65.854  1.00  0.00    -0.142 NA 
HETATM   12  C   UNL     1      -9.818   4.726  69.460  1.00  0.00    -0.222 A  
HETATM   13  C   UNL     1      -9.286   5.576  66.985  1.00  0.00    -0.116 A  
HETATM   14  H1  UNL     1      -9.953   2.336  66.317  1.00  0.00     0.000 HD 
HETATM   15  H2  UNL     1      -8.804   3.325  65.677  1.00  0.00     0.000 HD 
ENDBRANCH   3   4
ENDBRANCH   1   3
BRANCH   1  16
HETATM   16  O   UNL     1     -10.422  10.651  68.052  1.00  0.00    -0.175 OA 
BRANCH  16  17
HETATM   17  C   UNL     1     -10.164  11.881  68.772  1.00  0.00    -0.143 C  
HETATM   18  O   UNL     1      -7.808  12.265  68.585  1.00  0.00    -0.123 OA 
HETATM   19  O   UNL     1      -9.304  12.303  66.436  1.00  0.00    -0.223 OA 
HETATM   20  P   UNL     1      -8.981  12.975  67.906  1.00  0.00    -0.216 P  
HETATM   21  O   UNL     1      -7.862  14.010  67.087  1.00  0.00    -0.150 OA 
BRANCH  19  22
HETATM   22  C   UNL     1     -10.275  12.888  65.595  1.00  0.00    -0.285 C  
BRANCH  22  23
HETATM   23  O   UNL     1     -11.292  11.952  65.221  1.00  0.00    -0.322 OA 
BRANCH  23  24
HETATM   24  C   UNL     1     -11.132  11.427  63.980  1.00  0.00    -0.322 C  
HETATM   25  O   UNL     1     -11.799  11.712  62.994  1.00  0.00    -0.165 OA 
BRANCH  24  26
HETATM   26  O   UNL     1     -10.124  10.516  64.007  1.00  0.00    -0.334 OA 
BRANCH  26  27
HETATM   27  C   UNL     1      -9.506  10.242  62.731  1.00  0.00    -0.290 C  
HETATM   28  C   UNL     1      -8.490  11.336  62.425  1.00  0.00    -0.201 C  
HETATM   29  C   UNL     1      -8.819   8.881  62.785  1.00  0.00    -0.034 C  
ENDBRANCH  26  27
ENDBRANCH  24  26
ENDBRANCH  23  24
ENDBRANCH  22  23
ENDBRANCH  19  22
BRANCH  21  30
HETATM   30  C   UNL     1      -7.902  15.339  67.560  1.00  0.00    -0.176 C  
BRANCH  30  31
HETATM   31  O   UNL     1      -8.806  15.483  68.652  1.00  0.00    -0.173 OA 
BRANCH  31  32
HETATM   32  C   UNL     1      -9.381  16.705  68.736  1.00  0.00    -0.256 C  
HETATM   33  O   UNL     1      -8.800  17.777  68.630  1.00  0.00    -0.294 OA 
BRANCH  32  34
HETATM   34  O   UNL     1     -10.717  16.532  68.895  1.00  0.00    -0.294 OA 
BRANCH  34  35
HETATM   35  C   UNL     1     -11.123  15.525  69.843  1.00  0.00    -0.310 C  
HETATM   36  C   UNL     1     -12.260  14.730  69.208  1.00  0.00    -0.234 C  
HETATM   37  C   UNL     1     -11.601  16.174  71.138  1.00  0.00    -0.453 C  
ENDBRANCH  34  35
ENDBRANCH  32  34
ENDBRANCH  31  32
ENDBRANCH  30  31
ENDBRANCH  21  30
ENDBRANCH  16  17
ENDBRANCH   1  16
TORSDOF 14
ENDMDL
MODEL      262
REMARK 921   NORMALIZED FREE ENERGY PREDICTED BY IDOCK:   -4.09 KCAL/MOL
REMARK 922        TOTAL FREE ENERGY PREDICTED BY IDOCK:   -9.27 KCAL/MOL
REMARK 923 INTER-LIGAND FREE ENERGY PREDICTED BY IDOCK:   -8.30 KCAL/MOL
REMARK 924 INTRA-LIGAND FREE ENERGY PREDICTED BY IDOCK:   -0.98 KCAL/MOL
REMARK 927      BINDING AFFINITY PREDICTED BY RF-SCORE:    0.00 PKD
ROOT
HETATM    1  C   UNL     1      -9.568  11.228  67.686  1.00  0.00    -0.171 C  
HETATM    2  C   UNL     1     -10.614  10.528  66.820  1.00  0.00    -0.284 C  
ENDROOT
BRANCH   1   3
HETATM    3  C   UNL     1      -9.512  10.713  69.118  1.00  0.00    -0.170 C  
BRANCH   3   4
HETATM    4  N   UNL     1      -9.185   9.322  69.278  1.00  0.00    -0.148 NA 
HETATM    5  C   UNL     1      -7.958   8.817  68.974  1.00  0.00    -0.111 A  
HETATM    6  N   UNL     1      -5.777   7.344  68.609  1.00  0.00    -0.022 NA 
HETATM    7  C   UNL     1      -9.909   8.331  69.879  1.00  0.00    -0.186 A  
HETATM    8  N   UNL     1      -6.750   5.410  69.546  1.00  0.00    -0.053 NA 
HETATM    9  N   UNL     1      -6.927   9.463  68.409  1.00  0.00    -0.066 NA 
HETATM   10  C   UNL     1      -6.842   6.751  69.192  1.00  0.00    -0.065 A  
HETATM   11  N   UNL     1      -9.238   7.203  69.937  1.00  0.00    -0.142 NA 
HETATM   12  C   UNL     1      -5.872   8.648  68.268  1.00  0.00    -0.042 A  
HETATM   13  C   UNL     1      -8.006   7.502  69.393  1.00  0.00    -0.123 A  
HETATM   14  H1  UNL     1      -5.903   4.863  69.399  1.00  0.00     0.000 HD 
HETATM   15  H2  UNL     1      -7.518   4.917  69.090  1.00  0.00     0.000 HD 
ENDBRANCH   3   4
ENDBRANCH   1   3
BRANCH   1  16
HETATM   16  O   UNL     1      -9.771  12.654  67.585  1.00  0.00    -0.189 OA 
BRANCH  16  17
HETATM   17  C   UNL     1      -8.924  13.480  68.420  1.00  0.00    -0.146 C  
HETATM   18  O   UNL     1      -6.895  13.790  67.186  1.00  0.00    -0.141 OA 
HETATM   19  O   UNL     1      -9.142  14.757  66.253  1.00  0.00    -0.269 OA 
HETATM   20  P   UNL     1      -8.035  14.769  67.473  1.00  0.00    -0.210 P  
HETATM   21  O   UNL     1      -7.194  15.988  66.579  1.00  0.00    -0.153 OA 
BRANCH  19  22
HETATM   22  C   UNL     1     -10.213  15.676  66.268  1.00  0.00    -0.299 C  
BRANCH  22  23
HETATM   23  O   UNL     1     -11.484  15.016  66.259  1.00  0.00    -0.314 OA 
BRANCH  23  24
HETATM   24  C   UNL     1     -11.863  14.560  65.038  1.00  0.00    -0.399 C  
HETATM   25  O   UNL     1     -12.396  15.227  64.162  1.00  0.00    -0.630 OA 
BRANCH  24  26
HETATM   26  O   UNL     1     -11.573  13.235  64.947  1.00  0.00    -0.308 OA 
BRANCH  26  27
HETATM   27  C   UNL     1     -11.480  12.715  63.603  1.00  0.00    -0.495 C  
HETATM   28  C   UNL     1     -10.105  12.087  63.408  1.00  0.00    -0.437 C  
HETATM   29  C   UNL     1     -12.574  11.674  63.388  1.00  0.00    -0.305 C  
ENDBRANCH  26  27
ENDBRANCH  24  26
ENDBRANCH  23  24
ENDBRANCH  22  23
ENDBRANCH  19  22
BRANCH  21  30
HETATM   30  C   UNL     1      -6.689  17.018  67.402  1.00  0.00    -0.149 C  
BRANCH  30  31
HETATM   31  O   UNL     1      -7.736  17.742  68.041  1.00  0.00    -0.224 OA 
BRANCH  31  32
HETATM   32  C   UNL     1      -7.391  18.995  68.418  1.00  0.00    -0.295 C  
HETATM   33  O   UNL     1      -6.272  19.484  68.334  1.00  0.00    -0.225 OA 
BRANCH  32  34
HETATM   34  O   UNL     1      -8.511  19.629  68.846  1.00  0.00    -0.321 OA 
BRANCH  34  35
HETATM   35  C   UNL     1      -9.418  20.085  67.823  1.00  0.00    -0.367 C  
HETATM   36  C   UNL     1     -10.587  19.105  67.778  1.00  0.00    -0.498 C  
HETATM   37  C   UNL     1      -8.718  20.123  66.468  1.00  0.00    -0.338 C  
ENDBRANCH  34  35
ENDBRANCH  32  34
ENDBRANCH  31  32
ENDBRANCH  30  31
ENDBRANCH  21  30
ENDBRANCH  16  17
ENDBRANCH   1  16
TORSDOF 14
ENDMDL
MODEL      263
REMARK 921   NORMALIZED FREE ENERGY PREDICTED BY IDOCK:   -4.07 KCAL/MOL
REMARK 922        TOTAL FREE ENERGY PREDICTED BY IDOCK:   -9.24 KCAL/MOL
REMARK 923 INTER-LIGAND FREE ENERGY PREDICTED BY IDOCK:   -8.26 KCAL/MOL
REMARK 924 INTRA-LIGAND FREE ENERGY PREDICTED BY IDOCK:   -0.99 KCAL/MOL
REMARK 927      BINDING AFFINITY PREDICTED BY RF-SCORE:    0.00 PKD
ROOT
HETATM    1  C   UNL     1     -12.386  13.695  69.288  1.00  0.00    -0.116 C  
HETATM    2  C   UNL     1     -12.324  15.209  69.478  1.00  0.00    -0.206 C  
ENDROOT
BRANCH   1   3
HETATM    3  C   UNL     1     -12.206  12.906  70.579  1.00  0.00    -0.314 C  
BRANCH   3   4
HETATM    4  N   UNL     1     -11.732  11.556  70.434  1.00  0.00    -0.296 NA 
HETATM    5  C   UNL     1     -12.328  10.500  71.052  1.00  0.00    -0.399 A  
HETATM    6  N   UNL     1     -13.116   8.125  71.946  1.00  0.00    -0.331 NA 
HETATM    7  C   UNL     1     -10.780  11.063  69.586  1.00  0.00    -0.139 A  
HETATM    8  N   UNL     1     -11.537   6.950  70.645  1.00  0.00    -0.335 NA 
HETATM    9  N   UNL     1     -13.339  10.534  71.933  1.00  0.00    -0.403 NA 
HETATM   10  C   UNL     1     -12.113   8.151  71.041  1.00  0.00    -0.207 A  
HETATM   11  N   UNL     1     -10.694   9.755  69.657  1.00  0.00    -0.229 NA 
HETATM   12  C   UNL     1     -13.673   9.296  72.325  1.00  0.00    -0.462 A  
HETATM   13  C   UNL     1     -11.675   9.389  70.555  1.00  0.00    -0.198 A  
HETATM   14  H1  UNL     1     -11.856   6.048  70.999  1.00  0.00     0.000 HD 
HETATM   15  H2  UNL     1     -10.535   7.014  70.824  1.00  0.00     0.000 HD 
ENDBRANCH   3   4
ENDBRANCH   1   3
BRANCH   1  16
HETATM   16  O   UNL     1     -11.460  13.326  68.244  1.00  0.00    -0.275 OA 
BRANCH  16  17
HETATM   17  C   UNL     1     -11.995  12.506  67.176  1.00  0.00    -0.215 C  
HETATM   18  O   UNL     1     -11.839  13.836  65.191  1.00  0.00    -0.326 OA 
HETATM   19  O   UNL     1      -9.655  13.095  66.432  1.00  0.00    -0.264 OA 
HETATM   20  P   UNL     1     -11.018  12.623  65.634  1.00  0.00    -0.302 P  
HETATM   21  O   UNL     1     -10.094  12.733  64.175  1.00  0.00    -0.350 OA 
BRANCH  19  22
HETATM   22  C   UNL     1      -8.701  12.131  66.822  1.00  0.00    -0.183 C  
BRANCH  22  23
HETATM   23  O   UNL     1      -7.394  12.699  66.966  1.00  0.00    -0.082 OA 
BRANCH  23  24
HETATM   24  C   UNL     1      -7.077  13.043  68.239  1.00  0.00    -0.103 C  
HETATM   25  O   UNL     1      -7.074  12.287  69.202  1.00  0.00    -0.086 OA 
BRANCH  24  26
HETATM   26  O   UNL     1      -6.781  14.369  68.284  1.00  0.00    -0.093 OA 
BRANCH  26  27
HETATM   27  C   UNL     1      -7.224  15.060  69.473  1.00  0.00    -0.199 C  
HETATM   28  C   UNL     1      -6.286  16.230  69.745  1.00  0.00    -0.192 C  
HETATM   29  C   UNL     1      -8.650  15.561  69.263  1.00  0.00    -0.263 C  
ENDBRANCH  26  27
ENDBRANCH  24  26
ENDBRANCH  23  24
ENDBRANCH  22  23
ENDBRANCH  19  22
BRANCH  21  30
HETATM   30  C   UNL     1     -10.360  11.674  63.280  1.00  0.00    -0.398 C  
BRANCH  30  31
HETATM   31  O   UNL     1     -10.126  10.405  63.882  1.00  0.00    -0.290 OA 
BRANCH  31  32
HETATM   32  C   UNL     1      -8.882   9.916  63.676  1.00  0.00    -0.237 C  
HETATM   33  O   UNL     1      -7.986  10.478  63.059  1.00  0.00    -0.152 OA 
BRANCH  32  34
HETATM   34  O   UNL     1      -8.784   8.727  64.321  1.00  0.00    -0.130 OA 
BRANCH  34  35
HETATM   35  C   UNL     1      -8.684   8.786  65.758  1.00  0.00    -0.179 C  
HETATM   36  C   UNL     1      -7.203   8.886  66.111  1.00  0.00    -0.090 C  
HETATM   37  C   UNL     1      -9.285   7.533  66.386  1.00  0.00    -0.212 C  
ENDBRANCH  34  35
ENDBRANCH  32  34
ENDBRANCH  31  32
ENDBRANCH  30  31
ENDBRANCH  21  30
ENDBRANCH  16  17
ENDBRANCH   1  16
TORSDOF 14
ENDMDL
MODEL      264
REMARK 921   NORMALIZED FREE ENERGY PREDICTED BY IDOCK:   -4.07 KCAL/MOL
REMARK 922        TOTAL FREE ENERGY PREDICTED BY IDOCK:   -9.24 KCAL/MOL
REMARK 923 INTER-LIGAND FREE ENERGY PREDICTED BY IDOCK:   -7.69 KCAL/MOL
REMARK 924 INTRA-LIGAND FREE ENERGY PREDICTED BY IDOCK:   -1.55 KCAL/MOL
REMARK 927      BINDING AFFINITY PREDICTED BY RF-SCORE:    0.00 PKD
ROOT
HETATM    1  C   UNL     1      -8.518  11.617  67.265  1.00  0.00    -0.156 C  
HETATM    2  C   UNL     1      -7.113  11.673  66.667  1.00  0.00    -0.025 C  
ENDROOT
BRANCH   1   3
HETATM    3  C   UNL     1      -9.026  12.962  67.767  1.00  0.00    -0.191 C  
BRANCH   3   4
HETATM    4  N   UNL     1      -9.375  13.924  66.756  1.00  0.00    -0.269 NA 
HETATM    5  C   UNL     1     -10.540  13.862  66.056  1.00  0.00    -0.293 A  
HETATM    6  N   UNL     1     -12.639  14.249  64.474  1.00  0.00    -0.677 NA 
HETATM    7  C   UNL     1      -8.753  15.098  66.433  1.00  0.00    -0.184 A  
HETATM    8  N   UNL     1     -11.824  16.306  63.654  1.00  0.00    -1.210 NA 
HETATM    9  N   UNL     1     -11.471  12.896  66.104  1.00  0.00    -0.330 NA 
HETATM   10  C   UNL     1     -11.678  15.199  64.481  1.00  0.00    -0.328 A  
HETATM   11  N   UNL     1      -9.426  15.773  65.530  1.00  0.00    -0.340 NA 
HETATM   12  C   UNL     1     -12.492  13.176  65.281  1.00  0.00    -0.495 A  
HETATM   13  C   UNL     1     -10.559  15.019  65.303  1.00  0.00    -0.397 A  
HETATM   14  H1  UNL     1     -12.639  16.437  63.055  1.00  0.00     0.000 HD 
HETATM   15  H2  UNL     1     -10.996  16.361  63.062  1.00  0.00     0.000 HD 
ENDBRANCH   3   4
ENDBRANCH   1   3
BRANCH   1  16
HETATM   16  O   UNL     1      -8.550  10.572  68.260  1.00  0.00    -0.119 OA 
BRANCH  16  17
HETATM   17  C   UNL     1      -8.479   9.213  67.764  1.00  0.00    -0.117 C  
HETATM   18  O   UNL     1      -6.148   8.674  67.667  1.00  0.00    -0.047 OA 
HETATM   19  O   UNL     1      -7.274   9.155  69.982  1.00  0.00    -0.054 OA 
HETATM   20  P   UNL     1      -7.231   8.201  68.639  1.00  0.00    -0.087 P  
HETATM   21  O   UNL     1      -6.052   7.243  69.466  1.00  0.00    -0.029 OA 
BRANCH  19  22
HETATM   22  C   UNL     1      -8.126   8.818  71.055  1.00  0.00    -0.156 C  
BRANCH  22  23
HETATM   23  O   UNL     1      -7.471   7.981  72.016  1.00  0.00    -0.076 OA 
BRANCH  23  24
HETATM   24  C   UNL     1      -8.270   7.025  72.553  1.00  0.00    -0.108 C  
HETATM   25  O   UNL     1      -7.913   6.154  73.334  1.00  0.00    -0.106 OA 
BRANCH  24  26
HETATM   26  O   UNL     1      -9.532   7.175  72.070  1.00  0.00    -0.139 OA 
BRANCH  26  27
HETATM   27  C   UNL     1     -10.225   5.945  71.765  1.00  0.00    -0.203 C  
HETATM   28  C   UNL     1     -11.355   5.749  72.770  1.00  0.00    -0.328 C  
HETATM   29  C   UNL     1     -10.784   6.020  70.347  1.00  0.00    -0.358 C  
ENDBRANCH  26  27
ENDBRANCH  24  26
ENDBRANCH  23  24
ENDBRANCH  22  23
ENDBRANCH  19  22
BRANCH  21  30
HETATM   30  C   UNL     1      -6.240   5.858  69.272  1.00  0.00    -0.033 C  
BRANCH  30  31
HETATM   31  O   UNL     1      -7.487   5.579  68.643  1.00  0.00    -0.074 OA 
BRANCH  31  32
HETATM   32  C   UNL     1      -7.642   4.288  68.272  1.00  0.00    -0.067 C  
HETATM   33  O   UNL     1      -6.842   3.384  68.476  1.00  0.00    -0.044 OA 
BRANCH  32  34
HETATM   34  O   UNL     1      -8.862   4.159  67.692  1.00  0.00    -0.104 OA 
BRANCH  34  35
HETATM   35  C   UNL     1      -9.094   4.948  66.509  1.00  0.00    -0.124 C  
HETATM   36  C   UNL     1     -10.593   4.916  66.223  1.00  0.00    -0.307 C  
HETATM   37  C   UNL     1      -8.326   4.370  65.324  1.00  0.00    -0.112 C  
ENDBRANCH  34  35
ENDBRANCH  32  34
ENDBRANCH  31  32
ENDBRANCH  30  31
ENDBRANCH  21  30
ENDBRANCH  16  17
ENDBRANCH   1  16
TORSDOF 14
ENDMDL
MODEL      265
REMARK 921   NORMALIZED FREE ENERGY PREDICTED BY IDOCK:   -4.06 KCAL/MOL
REMARK 922        TOTAL FREE ENERGY PREDICTED BY IDOCK:   -9.22 KCAL/MOL
REMARK 923 INTER-LIGAND FREE ENERGY PREDICTED BY IDOCK:   -7.29 KCAL/MOL
REMARK 924 INTRA-LIGAND FREE ENERGY PREDICTED BY IDOCK:   -1.93 KCAL/MOL
REMARK 927      BINDING AFFINITY PREDICTED BY RF-SCORE:    0.00 PKD
ROOT
HETATM    1  C   UNL     1      -8.103   7.553  68.119  1.00  0.00    -0.124 C  
HETATM    2  C   UNL     1      -6.811   7.187  67.391  1.00  0.00    -0.070 C  
ENDROOT
BRANCH   1   3
HETATM    3  C   UNL     1      -9.104   6.409  68.207  1.00  0.00    -0.114 C  
BRANCH   3   4
HETATM    4  N   UNL     1      -9.344   5.878  69.522  1.00  0.00    -0.133 NA 
HETATM    5  C   UNL     1     -10.395   6.272  70.291  1.00  0.00    -0.205 A  
HETATM    6  N   UNL     1     -12.263   6.622  72.148  1.00  0.00    -0.273 NA 
HETATM    7  C   UNL     1      -8.730   4.833  70.154  1.00  0.00    -0.093 A  
HETATM    8  N   UNL     1     -11.422   4.901  73.525  1.00  0.00    -0.436 NA 
HETATM    9  N   UNL     1     -11.285   7.241  70.023  1.00  0.00    -0.243 NA 
HETATM   10  C   UNL     1     -11.350   5.647  72.355  1.00  0.00    -0.270 A  
HETATM   11  N   UNL     1      -9.294   4.563  71.309  1.00  0.00    -0.139 NA 
HETATM   12  C   UNL     1     -12.189   7.343  71.008  1.00  0.00    -0.282 A  
HETATM   13  C   UNL     1     -10.353   5.443  71.394  1.00  0.00    -0.228 A  
HETATM   14  H1  UNL     1     -12.149   5.050  74.225  1.00  0.00     0.000 HD 
HETATM   15  H2  UNL     1     -10.521   4.979  73.996  1.00  0.00     0.000 HD 
ENDBRANCH   3   4
ENDBRANCH   1   3
BRANCH   1  16
HETATM   16  O   UNL     1      -8.639   8.753  67.522  1.00  0.00    -0.125 OA 
BRANCH  16  17
HETATM   17  C   UNL     1      -8.884   9.861  68.423  1.00  0.00    -0.120 C  
HETATM   18  O   UNL     1      -6.895  11.193  68.374  1.00  0.00    -0.061 OA 
HETATM   19  O   UNL     1      -8.340  10.938  66.205  1.00  0.00    -0.155 OA 
HETATM   20  P   UNL     1      -8.275  11.457  67.768  1.00  0.00    -0.139 P  
HETATM   21  O   UNL     1      -7.699  12.967  67.149  1.00  0.00    -0.140 OA 
BRANCH  19  22
HETATM   22  C   UNL     1      -9.490  11.194  65.428  1.00  0.00    -0.222 C  
BRANCH  22  23
HETATM   23  O   UNL     1      -9.814  10.092  64.573  1.00  0.00    -0.324 OA 
BRANCH  23  24
HETATM   24  C   UNL     1      -9.193  10.126  63.367  1.00  0.00    -0.291 C  
HETATM   25  O   UNL     1      -9.064  11.115  62.658  1.00  0.00    -0.319 OA 
BRANCH  24  26
HETATM   26  O   UNL     1      -8.750   8.878  63.058  1.00  0.00    -0.175 OA 
BRANCH  26  27
HETATM   27  C   UNL     1      -7.873   8.275  64.035  1.00  0.00    -0.146 C  
HETATM   28  C   UNL     1      -7.818   6.771  63.791  1.00  0.00    -0.107 C  
HETATM   29  C   UNL     1      -6.481   8.885  63.907  1.00  0.00    -0.087 C  
ENDBRANCH  26  27
ENDBRANCH  24  26
ENDBRANCH  23  24
ENDBRANCH  22  23
ENDBRANCH  19  22
BRANCH  21  30
HETATM   30  C   UNL     1      -8.263  14.078  67.812  1.00  0.00    -0.168 C  
BRANCH  30  31
HETATM   31  O   UNL     1      -8.955  14.935  66.908  1.00  0.00    -0.223 OA 
BRANCH  31  32
HETATM   32  C   UNL     1     -10.094  15.463  67.411  1.00  0.00    -0.233 C  
HETATM   33  O   UNL     1     -10.242  15.894  68.548  1.00  0.00    -0.217 OA 
BRANCH  32  34
HETATM   34  O   UNL     1     -11.020  15.488  66.420  1.00  0.00    -0.309 OA 
BRANCH  34  35
HETATM   35  C   UNL     1     -11.315  14.227  65.788  1.00  0.00    -0.326 C  
HETATM   36  C   UNL     1     -11.928  14.531  64.424  1.00  0.00    -0.467 C  
HETATM   37  C   UNL     1     -12.297  13.423  66.633  1.00  0.00    -0.324 C  
ENDBRANCH  34  35
ENDBRANCH  32  34
ENDBRANCH  31  32
ENDBRANCH  30  31
ENDBRANCH  21  30
ENDBRANCH  16  17
ENDBRANCH   1  16
TORSDOF 14
ENDMDL
MODEL      266
REMARK 921   NORMALIZED FREE ENERGY PREDICTED BY IDOCK:   -4.06 KCAL/MOL
REMARK 922        TOTAL FREE ENERGY PREDICTED BY IDOCK:   -9.22 KCAL/MOL
REMARK 923 INTER-LIGAND FREE ENERGY PREDICTED BY IDOCK:   -8.58 KCAL/MOL
REMARK 924 INTRA-LIGAND FREE ENERGY PREDICTED BY IDOCK:   -0.65 KCAL/MOL
REMARK 927      BINDING AFFINITY PREDICTED BY RF-SCORE:    0.00 PKD
ROOT
HETATM    1  C   UNL     1      -8.580  10.299  65.348  1.00  0.00    -0.159 C  
HETATM    2  C   UNL     1      -9.895   9.701  65.844  1.00  0.00    -0.358 C  
ENDROOT
BRANCH   1   3
HETATM    3  C   UNL     1      -7.370   9.406  65.588  1.00  0.00    -0.092 C  
BRANCH   3   4
HETATM    4  N   UNL     1      -7.647   8.077  66.062  1.00  0.00    -0.084 NA 
HETATM    5  C   UNL     1      -7.889   7.802  67.373  1.00  0.00    -0.118 A  
HETATM    6  N   UNL     1      -8.476   6.733  69.733  1.00  0.00    -0.132 NA 
HETATM    7  C   UNL     1      -7.881   6.938  65.344  1.00  0.00    -0.115 A  
HETATM    8  N   UNL     1      -8.904   4.599  68.822  1.00  0.00    -0.097 NA 
HETATM    9  N   UNL     1      -7.817   8.649  68.412  1.00  0.00    -0.104 NA 
HETATM   10  C   UNL     1      -8.550   5.931  68.648  1.00  0.00    -0.110 A  
HETATM   11  N   UNL     1      -8.213   5.932  66.121  1.00  0.00    -0.112 NA 
HETATM   12  C   UNL     1      -8.132   8.027  69.557  1.00  0.00    -0.120 A  
HETATM   13  C   UNL     1      -8.243   6.468  67.392  1.00  0.00    -0.121 A  
HETATM   14  H1  UNL     1      -9.128   4.208  69.737  1.00  0.00     0.000 HD 
HETATM   15  H2  UNL     1      -8.164   4.027  68.416  1.00  0.00     0.000 HD 
ENDBRANCH   3   4
ENDBRANCH   1   3
BRANCH   1  16
HETATM   16  O   UNL     1      -8.445  11.627  65.898  1.00  0.00    -0.031 OA 
BRANCH  16  17
HETATM   17  C   UNL     1      -8.882  11.798  67.269  1.00  0.00    -0.167 C  
HETATM   18  O   UNL     1      -7.477  13.503  68.193  1.00  0.00    -0.106 OA 
HETATM   19  O   UNL     1      -9.105  14.087  66.227  1.00  0.00    -0.160 OA 
HETATM   20  P   UNL     1      -8.949  13.554  67.778  1.00  0.00    -0.226 P  
HETATM   21  O   UNL     1      -9.014  15.214  68.261  1.00  0.00    -0.167 OA 
BRANCH  19  22
HETATM   22  C   UNL     1     -10.389  14.318  65.689  1.00  0.00    -0.336 C  
BRANCH  22  23
HETATM   23  O   UNL     1     -11.045  15.421  66.326  1.00  0.00    -0.311 OA 
BRANCH  23  24
HETATM   24  C   UNL     1     -11.030  16.567  65.599  1.00  0.00    -0.051 C  
HETATM   25  O   UNL     1     -11.122  16.641  64.381  1.00  0.00    -0.985 OA 
BRANCH  24  26
HETATM   26  O   UNL     1     -10.876  17.625  66.439  1.00  0.00    -0.144 OA 
BRANCH  26  27
HETATM   27  C   UNL     1      -9.812  18.539  66.090  1.00  0.00    -0.283 C  
HETATM   28  C   UNL     1      -9.860  19.738  67.030  1.00  0.00    -0.515 C  
HETATM   29  C   UNL     1      -8.472  17.822  66.213  1.00  0.00    -0.225 C  
ENDBRANCH  26  27
ENDBRANCH  24  26
ENDBRANCH  23  24
ENDBRANCH  22  23
ENDBRANCH  19  22
BRANCH  21  30
HETATM   30  C   UNL     1      -9.789  15.415  69.423  1.00  0.00    -0.273 C  
BRANCH  30  31
HETATM   31  O   UNL     1     -11.050  16.004  69.119  1.00  0.00    -0.273 OA 
BRANCH  31  32
HETATM   32  C   UNL     1     -12.111  15.214  69.402  1.00  0.00    -0.260 C  
HETATM   33  O   UNL     1     -12.294  14.082  68.974  1.00  0.00    -0.307 OA 
BRANCH  32  34
HETATM   34  O   UNL     1     -12.901  15.871  70.288  1.00  0.00    -0.335 OA 
BRANCH  34  35
HETATM   35  C   UNL     1     -12.931  15.347  71.630  1.00  0.00    -0.436 C  
HETATM   36  C   UNL     1     -14.395  15.205  72.034  1.00  0.00    -0.682 C  
HETATM   37  C   UNL     1     -12.216  16.295  72.588  1.00  0.00    -0.581 C  
ENDBRANCH  34  35
ENDBRANCH  32  34
ENDBRANCH  31  32
ENDBRANCH  30  31
ENDBRANCH  21  30
ENDBRANCH  16  17
ENDBRANCH   1  16
TORSDOF 14
ENDMDL
MODEL      267
REMARK 921   NORMALIZED FREE ENERGY PREDICTED BY IDOCK:   -4.04 KCAL/MOL
REMARK 922        TOTAL FREE ENERGY PREDICTED BY IDOCK:   -9.19 KCAL/MOL
REMARK 923 INTER-LIGAND FREE ENERGY PREDICTED BY IDOCK:   -7.59 KCAL/MOL
REMARK 924 INTRA-LIGAND FREE ENERGY PREDICTED BY IDOCK:   -1.61 KCAL/MOL
REMARK 927      BINDING AFFINITY PREDICTED BY RF-SCORE:    0.00 PKD
ROOT
HETATM    1  C   UNL     1      -8.877   9.616  64.062  1.00  0.00    -0.227 C  
HETATM    2  C   UNL     1      -7.561   9.947  63.362  1.00  0.00    -0.139 C  
ENDROOT
BRANCH   1   3
HETATM    3  C   UNL     1      -9.323  10.674  65.063  1.00  0.00    -0.217 C  
BRANCH   3   4
HETATM    4  N   UNL     1     -10.260  11.650  64.577  1.00  0.00    -0.274 NA 
HETATM    5  C   UNL     1     -10.335  12.911  65.084  1.00  0.00    -0.303 A  
HETATM    6  N   UNL     1     -10.860  15.455  65.644  1.00  0.00    -0.344 NA 
HETATM    7  C   UNL     1     -11.080  11.588  63.485  1.00  0.00    -0.348 A  
HETATM    8  N   UNL     1     -12.396  15.680  63.867  1.00  0.00    -0.973 NA 
HETATM    9  N   UNL     1      -9.662  13.411  66.133  1.00  0.00    -0.275 NA 
HETATM   10  C   UNL     1     -11.495  14.903  64.586  1.00  0.00    -0.379 A  
HETATM   11  N   UNL     1     -11.716  12.720  63.288  1.00  0.00    -0.481 NA 
HETATM   12  C   UNL     1      -9.984  14.695  66.338  1.00  0.00    -0.283 A  
HETATM   13  C   UNL     1     -11.240  13.564  64.270  1.00  0.00    -0.360 A  
HETATM   14  H1  UNL     1     -12.581  16.656  64.096  1.00  0.00     0.000 HD 
HETATM   15  H2  UNL     1     -13.290  15.189  63.861  1.00  0.00     0.000 HD 
ENDBRANCH   3   4
ENDBRANCH   1   3
BRANCH   1  16
HETATM   16  O   UNL     1      -8.777   8.289  64.621  1.00  0.00    -0.051 OA 
BRANCH  16  17
HETATM   17  C   UNL     1      -9.252   8.130  65.980  1.00  0.00    -0.147 C  
HETATM   18  O   UNL     1      -9.234   5.773  66.406  1.00  0.00    -0.143 OA 
HETATM   19  O   UNL     1      -6.981   7.028  65.956  1.00  0.00    -0.062 OA 
HETATM   20  P   UNL     1      -8.308   6.877  66.921  1.00  0.00    -0.119 P  
HETATM   21  O   UNL     1      -7.414   5.693  67.812  1.00  0.00    -0.076 OA 
BRANCH  19  22
HETATM   22  C   UNL     1      -5.943   7.912  66.323  1.00  0.00    -0.041 C  
BRANCH  22  23
HETATM   23  O   UNL     1      -6.447   9.100  66.945  1.00  0.00    -0.065 OA 
BRANCH  23  24
HETATM   24  C   UNL     1      -5.763   9.476  68.055  1.00  0.00    -0.041 C  
HETATM   25  O   UNL     1      -5.270   8.718  68.879  1.00  0.00    -0.032 OA 
BRANCH  24  26
HETATM   26  O   UNL     1      -5.730  10.833  68.120  1.00  0.00    -0.043 OA 
BRANCH  26  27
HETATM   27  C   UNL     1      -6.559  11.422  69.146  1.00  0.00    -0.095 C  
HETATM   28  C   UNL     1      -6.523  12.940  69.004  1.00  0.00    -0.103 C  
HETATM   29  C   UNL     1      -7.987  10.909  68.995  1.00  0.00    -0.131 C  
ENDBRANCH  26  27
ENDBRANCH  24  26
ENDBRANCH  23  24
ENDBRANCH  22  23
ENDBRANCH  19  22
BRANCH  21  30
HETATM   30  C   UNL     1      -7.600   5.805  69.206  1.00  0.00    -0.088 C  
BRANCH  30  31
HETATM   31  O   UNL     1      -8.906   6.273  69.528  1.00  0.00    -0.133 OA 
BRANCH  31  32
HETATM   32  C   UNL     1      -9.573   5.491  70.407  1.00  0.00    -0.172 C  
HETATM   33  O   UNL     1      -9.823   4.302  70.258  1.00  0.00    -0.200 OA 
BRANCH  32  34
HETATM   34  O   UNL     1      -9.858   6.237  71.503  1.00  0.00    -0.172 OA 
BRANCH  34  35
HETATM   35  C   UNL     1     -10.809   7.304  71.320  1.00  0.00    -0.235 C  
HETATM   36  C   UNL     1     -10.771   8.172  72.575  1.00  0.00    -0.419 C  
HETATM   37  C   UNL     1     -12.212   6.741  71.119  1.00  0.00    -0.413 C  
ENDBRANCH  34  35
ENDBRANCH  32  34
ENDBRANCH  31  32
ENDBRANCH  30  31
ENDBRANCH  21  30
ENDBRANCH  16  17
ENDBRANCH   1  16
TORSDOF 14
ENDMDL
MODEL      268
REMARK 921   NORMALIZED FREE ENERGY PREDICTED BY IDOCK:   -4.03 KCAL/MOL
REMARK 922        TOTAL FREE ENERGY PREDICTED BY IDOCK:   -9.18 KCAL/MOL
REMARK 923 INTER-LIGAND FREE ENERGY PREDICTED BY IDOCK:   -9.33 KCAL/MOL
REMARK 924 INTRA-LIGAND FREE ENERGY PREDICTED BY IDOCK:    0.16 KCAL/MOL
REMARK 927      BINDING AFFINITY PREDICTED BY RF-SCORE:    0.00 PKD
ROOT
HETATM    1  C   UNL     1      -8.941   9.654  67.418  1.00  0.00    -0.131 C  
HETATM    2  C   UNL     1     -10.161   8.847  66.980  1.00  0.00    -0.345 C  
ENDROOT
BRANCH   1   3
HETATM    3  C   UNL     1      -8.516   9.393  68.857  1.00  0.00    -0.122 C  
BRANCH   3   4
HETATM    4  N   UNL     1      -9.262   8.387  69.565  1.00  0.00    -0.153 NA 
HETATM    5  C   UNL     1     -10.349   8.682  70.329  1.00  0.00    -0.198 A  
HETATM    6  N   UNL     1     -12.517   8.682  71.864  1.00  0.00    -0.333 NA 
HETATM    7  C   UNL     1      -9.158   7.027  69.490  1.00  0.00    -0.146 A  
HETATM    8  N   UNL     1     -12.601   6.328  71.995  1.00  0.00    -0.371 NA 
HETATM    9  N   UNL     1     -10.833   9.899  70.625  1.00  0.00    -0.320 NA 
HETATM   10  C   UNL     1     -11.996   7.484  71.518  1.00  0.00    -0.307 A  
HETATM   11  N   UNL     1     -10.086   6.428  70.201  1.00  0.00    -0.170 NA 
HETATM   12  C   UNL     1     -11.925   9.803  71.396  1.00  0.00    -0.411 A  
HETATM   13  C   UNL     1     -10.852   7.455  70.712  1.00  0.00    -0.241 A  
HETATM   14  H1  UNL     1     -13.435   6.349  72.582  1.00  0.00     0.000 HD 
HETATM   15  H2  UNL     1     -11.890   5.789  72.489  1.00  0.00     0.000 HD 
ENDBRANCH   3   4
ENDBRANCH   1   3
BRANCH   1  16
HETATM   16  O   UNL     1      -9.185  11.046  67.124  1.00  0.00    -0.152 OA 
BRANCH  16  17
HETATM   17  C   UNL     1      -9.688  11.852  68.218  1.00  0.00    -0.200 C  
HETATM   18  O   UNL     1      -7.890  13.305  68.841  1.00  0.00    -0.037 OA 
HETATM   19  O   UNL     1      -8.969  13.519  66.464  1.00  0.00    -0.170 OA 
HETATM   20  P   UNL     1      -9.191  13.608  68.094  1.00  0.00    -0.190 P  
HETATM   21  O   UNL     1      -8.721  15.269  67.978  1.00  0.00    -0.157 OA 
BRANCH  19  22
HETATM   22  C   UNL     1     -10.018  13.879  65.592  1.00  0.00    -0.276 C  
BRANCH  22  23
HETATM   23  O   UNL     1      -9.795  13.400  64.260  1.00  0.00    -0.190 OA 
BRANCH  23  24
HETATM   24  C   UNL     1     -10.211  12.126  64.053  1.00  0.00    -0.370 C  
HETATM   25  O   UNL     1      -9.742  11.346  63.236  1.00  0.00    -0.330 OA 
BRANCH  24  26
HETATM   26  O   UNL     1     -11.251  11.855  64.886  1.00  0.00    -0.309 OA 
BRANCH  26  27
HETATM   27  C   UNL     1     -12.541  12.323  64.434  1.00  0.00    -0.354 C  
HETATM   28  C   UNL     1     -13.015  13.442  65.355  1.00  0.00    -0.240 C  
HETATM   29  C   UNL     1     -12.419  12.832  63.001  1.00  0.00     0.028 C  
ENDBRANCH  26  27
ENDBRANCH  24  26
ENDBRANCH  23  24
ENDBRANCH  22  23
ENDBRANCH  19  22
BRANCH  21  30
HETATM   30  C   UNL     1      -9.505  16.116  68.791  1.00  0.00    -0.230 C  
BRANCH  30  31
HETATM   31  O   UNL     1      -9.998  15.434  69.940  1.00  0.00    -0.277 OA 
BRANCH  31  32
HETATM   32  C   UNL     1     -11.316  15.631  70.177  1.00  0.00    -0.344 C  
HETATM   33  O   UNL     1     -12.125  16.084  69.378  1.00  0.00    -0.279 OA 
BRANCH  32  34
HETATM   34  O   UNL     1     -11.591  15.182  71.427  1.00  0.00    -0.330 OA 
BRANCH  34  35
HETATM   35  C   UNL     1     -12.820  15.647  72.017  1.00  0.00    -0.443 C  
HETATM   36  C   UNL     1     -12.494  16.145  73.423  1.00  0.00    -0.661 C  
HETATM   37  C   UNL     1     -13.839  14.515  72.089  1.00  0.00    -0.574 C  
ENDBRANCH  34  35
ENDBRANCH  32  34
ENDBRANCH  31  32
ENDBRANCH  30  31
ENDBRANCH  21  30
ENDBRANCH  16  17
ENDBRANCH   1  16
TORSDOF 14
ENDMDL
MODEL      269
REMARK 921   NORMALIZED FREE ENERGY PREDICTED BY IDOCK:   -4.03 KCAL/MOL
REMARK 922        TOTAL FREE ENERGY PREDICTED BY IDOCK:   -9.18 KCAL/MOL
REMARK 923 INTER-LIGAND FREE ENERGY PREDICTED BY IDOCK:   -8.74 KCAL/MOL
REMARK 924 INTRA-LIGAND FREE ENERGY PREDICTED BY IDOCK:   -0.44 KCAL/MOL
REMARK 927      BINDING AFFINITY PREDICTED BY RF-SCORE:    0.00 PKD
ROOT
HETATM    1  C   UNL     1     -12.399  11.692  70.455  1.00  0.00    -0.321 C  
HETATM    2  C   UNL     1     -12.936  11.657  71.885  1.00  0.00    -0.442 C  
ENDROOT
BRANCH   1   3
HETATM    3  C   UNL     1     -11.738  10.392  70.015  1.00  0.00    -0.286 C  
BRANCH   3   4
HETATM    4  N   UNL     1     -11.916   9.264  70.890  1.00  0.00    -0.278 NA 
HETATM    5  C   UNL     1     -10.904   8.755  71.644  1.00  0.00    -0.329 A  
HETATM    6  N   UNL     1      -9.347   7.426  73.339  1.00  0.00    -0.189 NA 
HETATM    7  C   UNL     1     -13.070   8.629  71.252  1.00  0.00    -0.161 A  
HETATM    8  N   UNL     1     -11.121   6.103  74.157  1.00  0.00    -0.217 NA 
HETATM    9  N   UNL     1      -9.614   9.124  71.636  1.00  0.00    -0.299 NA 
HETATM   10  C   UNL     1     -10.661   7.110  73.317  1.00  0.00    -0.361 A  
HETATM   11  N   UNL     1     -12.854   7.707  72.162  1.00  0.00    -0.192 NA 
HETATM   12  C   UNL     1      -8.907   8.407  72.521  1.00  0.00    -0.225 A  
HETATM   13  C   UNL     1     -11.504   7.792  72.432  1.00  0.00    -0.363 A  
HETATM   14  H1  UNL     1     -10.508   5.606  74.802  1.00  0.00     0.000 HD 
HETATM   15  H2  UNL     1     -11.587   5.406  73.576  1.00  0.00     0.000 HD 
ENDBRANCH   3   4
ENDBRANCH   1   3
BRANCH   1  16
HETATM   16  O   UNL     1     -11.554  12.854  70.312  1.00  0.00    -0.160 OA 
BRANCH  16  17
HETATM   17  C   UNL     1     -12.219  14.085  69.936  1.00  0.00    -0.340 C  
HETATM   18  O   UNL     1     -10.920  15.850  70.901  1.00  0.00    -0.309 OA 
HETATM   19  O   UNL     1      -9.866  14.323  69.052  1.00  0.00    -0.178 OA 
HETATM   20  P   UNL     1     -11.049  15.402  69.443  1.00  0.00    -0.339 P  
HETATM   21  O   UNL     1      -9.943  16.648  68.977  1.00  0.00    -0.258 OA 
BRANCH  19  22
HETATM   22  C   UNL     1      -9.737  13.876  67.720  1.00  0.00    -0.225 C  
BRANCH  22  23
HETATM   23  O   UNL     1      -8.433  13.340  67.460  1.00  0.00    -0.177 OA 
BRANCH  23  24
HETATM   24  C   UNL     1      -8.290  12.038  67.811  1.00  0.00    -0.156 C  
HETATM   25  O   UNL     1      -9.149  11.342  68.336  1.00  0.00    -0.159 OA 
BRANCH  24  26
HETATM   26  O   UNL     1      -7.030  11.629  67.505  1.00  0.00    -0.087 OA 
BRANCH  26  27
HETATM   27  C   UNL     1      -6.118  11.554  68.623  1.00  0.00    -0.047 C  
HETATM   28  C   UNL     1      -6.044  12.920  69.296  1.00  0.00    -0.099 C  
HETATM   29  C   UNL     1      -6.617  10.503  69.610  1.00  0.00    -0.098 C  
ENDBRANCH  26  27
ENDBRANCH  24  26
ENDBRANCH  23  24
ENDBRANCH  22  23
ENDBRANCH  19  22
BRANCH  21  30
HETATM   30  C   UNL     1     -10.566  17.688  68.253  1.00  0.00    -0.339 C  
BRANCH  30  31
HETATM   31  O   UNL     1      -9.627  18.672  67.832  1.00  0.00    -0.294 OA 
BRANCH  31  32
HETATM   32  C   UNL     1      -8.840  18.281  66.803  1.00  0.00    -0.276 C  
HETATM   33  O   UNL     1      -9.179  17.547  65.883  1.00  0.00    -0.508 OA 
BRANCH  32  34
HETATM   34  O   UNL     1      -7.636  18.891  66.937  1.00  0.00    -0.222 OA 
BRANCH  34  35
HETATM   35  C   UNL     1      -6.842  19.008  65.740  1.00  0.00    -0.277 C  
HETATM   36  C   UNL     1      -5.654  18.060  65.885  1.00  0.00    -0.241 C  
HETATM   37  C   UNL     1      -6.347  20.440  65.566  1.00  0.00    -0.280 C  
ENDBRANCH  34  35
ENDBRANCH  32  34
ENDBRANCH  31  32
ENDBRANCH  30  31
ENDBRANCH  21  30
ENDBRANCH  16  17
ENDBRANCH   1  16
TORSDOF 14
ENDMDL
MODEL      270
REMARK 921   NORMALIZED FREE ENERGY PREDICTED BY IDOCK:   -4.03 KCAL/MOL
REMARK 922        TOTAL FREE ENERGY PREDICTED BY IDOCK:   -9.17 KCAL/MOL
REMARK 923 INTER-LIGAND FREE ENERGY PREDICTED BY IDOCK:   -7.92 KCAL/MOL
REMARK 924 INTRA-LIGAND FREE ENERGY PREDICTED BY IDOCK:   -1.25 KCAL/MOL
REMARK 927      BINDING AFFINITY PREDICTED BY RF-SCORE:    0.00 PKD
ROOT
HETATM    1  C   UNL     1      -7.977   8.199  69.156  1.00  0.00    -0.113 C  
HETATM    2  C   UNL     1      -6.506   7.854  68.928  1.00  0.00    -0.048 C  
ENDROOT
BRANCH   1   3
HETATM    3  C   UNL     1      -8.927   7.037  68.901  1.00  0.00    -0.129 C  
BRANCH   3   4
HETATM    4  N   UNL     1      -9.268   6.235  70.046  1.00  0.00    -0.151 NA 
HETATM    5  C   UNL     1      -9.811   6.763  71.176  1.00  0.00    -0.177 A  
HETATM    6  N   UNL     1     -10.918   7.240  73.544  1.00  0.00    -0.272 NA 
HETATM    7  C   UNL     1      -9.283   4.874  70.169  1.00  0.00    -0.130 A  
HETATM    8  N   UNL     1     -11.041   4.953  74.109  1.00  0.00    -0.376 NA 
HETATM    9  N   UNL     1     -10.021   8.060  71.452  1.00  0.00    -0.174 NA 
HETATM   10  C   UNL     1     -10.700   5.950  73.204  1.00  0.00    -0.261 A  
HETATM   11  N   UNL     1      -9.759   4.496  71.333  1.00  0.00    -0.169 NA 
HETATM   12  C   UNL     1     -10.585   8.205  72.659  1.00  0.00    -0.344 A  
HETATM   13  C   UNL     1     -10.115   5.670  71.963  1.00  0.00    -0.185 A  
HETATM   14  H1  UNL     1     -11.468   5.156  75.012  1.00  0.00     0.000 HD 
HETATM   15  H2  UNL     1     -10.206   4.393  74.281  1.00  0.00     0.000 HD 
ENDBRANCH   3   4
ENDBRANCH   1   3
BRANCH   1  16
HETATM   16  O   UNL     1      -8.290   9.387  68.398  1.00  0.00    -0.116 OA 
BRANCH  16  17
HETATM   17  C   UNL     1      -8.215  10.642  69.117  1.00  0.00    -0.139 C  
HETATM   18  O   UNL     1      -6.003  11.479  68.739  1.00  0.00    -0.046 OA 
HETATM   19  O   UNL     1      -7.659  11.231  66.725  1.00  0.00    -0.141 OA 
HETATM   20  P   UNL     1      -7.346  11.949  68.175  1.00  0.00    -0.111 P  
HETATM   21  O   UNL     1      -6.525  13.184  67.285  1.00  0.00    -0.238 OA 
BRANCH  19  22
HETATM   22  C   UNL     1      -8.795  11.617  65.982  1.00  0.00    -0.105 C  
BRANCH  22  23
HETATM   23  O   UNL     1      -9.901  10.732  66.196  1.00  0.00    -0.204 OA 
BRANCH  23  24
HETATM   24  C   UNL     1     -11.002  11.337  66.710  1.00  0.00    -0.281 C  
HETATM   25  O   UNL     1     -11.727  10.877  67.581  1.00  0.00    -0.566 OA 
BRANCH  24  26
HETATM   26  O   UNL     1     -11.186  12.532  66.087  1.00  0.00    -0.292 OA 
BRANCH  26  27
HETATM   27  C   UNL     1     -12.239  12.556  65.098  1.00  0.00    -0.448 C  
HETATM   28  C   UNL     1     -13.005  13.868  65.221  1.00  0.00    -0.341 C  
HETATM   29  C   UNL     1     -11.626  12.427  63.707  1.00  0.00    -0.553 C  
ENDBRANCH  26  27
ENDBRANCH  24  26
ENDBRANCH  23  24
ENDBRANCH  22  23
ENDBRANCH  19  22
BRANCH  21  30
HETATM   30  C   UNL     1      -6.781  14.479  67.787  1.00  0.00    -0.174 C  
BRANCH  30  31
HETATM   31  O   UNL     1      -6.976  15.421  66.736  1.00  0.00    -0.130 OA 
BRANCH  31  32
HETATM   32  C   UNL     1      -7.436  16.624  67.152  1.00  0.00    -0.183 C  
HETATM   33  O   UNL     1      -6.746  17.600  67.416  1.00  0.00    -0.155 OA 
BRANCH  32  34
HETATM   34  O   UNL     1      -8.791  16.576  67.163  1.00  0.00    -0.187 OA 
BRANCH  34  35
HETATM   35  C   UNL     1      -9.449  17.320  68.207  1.00  0.00    -0.283 C  
HETATM   36  C   UNL     1     -10.088  16.311  69.157  1.00  0.00    -0.264 C  
HETATM   37  C   UNL     1     -10.520  18.233  67.619  1.00  0.00    -0.431 C  
ENDBRANCH  34  35
ENDBRANCH  32  34
ENDBRANCH  31  32
ENDBRANCH  30  31
ENDBRANCH  21  30
ENDBRANCH  16  17
ENDBRANCH   1  16
TORSDOF 14
ENDMDL
MODEL      271
REMARK 921   NORMALIZED FREE ENERGY PREDICTED BY IDOCK:   -4.03 KCAL/MOL
REMARK 922        TOTAL FREE ENERGY PREDICTED BY IDOCK:   -9.16 KCAL/MOL
REMARK 923 INTER-LIGAND FREE ENERGY PREDICTED BY IDOCK:   -7.56 KCAL/MOL
REMARK 924 INTRA-LIGAND FREE ENERGY PREDICTED BY IDOCK:   -1.60 KCAL/MOL
REMARK 927      BINDING AFFINITY PREDICTED BY RF-SCORE:    0.00 PKD
ROOT
HETATM    1  C   UNL     1      -7.781  10.010  65.010  1.00  0.00    -0.138 C  
HETATM    2  C   UNL     1      -6.499  10.792  65.288  1.00  0.00     0.072 C  
ENDROOT
BRANCH   1   3
HETATM    3  C   UNL     1      -9.054  10.791  65.310  1.00  0.00    -0.195 C  
BRANCH   3   4
HETATM    4  N   UNL     1      -8.976  11.738  66.390  1.00  0.00    -0.209 NA 
HETATM    5  C   UNL     1      -9.985  12.604  66.680  1.00  0.00    -0.242 A  
HETATM    6  N   UNL     1     -11.625  14.427  67.703  1.00  0.00    -0.352 NA 
HETATM    7  C   UNL     1      -8.036  11.844  67.376  1.00  0.00    -0.162 A  
HETATM    8  N   UNL     1     -10.196  14.904  69.519  1.00  0.00    -0.369 NA 
HETATM    9  N   UNL     1     -11.123  12.791  65.993  1.00  0.00    -0.278 NA 
HETATM   10  C   UNL     1     -10.472  14.182  68.364  1.00  0.00    -0.254 A  
HETATM   11  N   UNL     1      -8.357  12.762  68.259  1.00  0.00    -0.167 NA 
HETATM   12  C   UNL     1     -11.889  13.721  66.582  1.00  0.00    -0.412 A  
HETATM   13  C   UNL     1      -9.588  13.229  67.845  1.00  0.00    -0.217 A  
HETATM   14  H1  UNL     1     -10.840  15.598  69.897  1.00  0.00     0.000 HD 
HETATM   15  H2  UNL     1      -9.293  15.359  69.389  1.00  0.00     0.000 HD 
ENDBRANCH   3   4
ENDBRANCH   1   3
BRANCH   1  16
HETATM   16  O   UNL     1      -7.700   8.742  65.695  1.00  0.00    -0.088 OA 
BRANCH  16  17
HETATM   17  C   UNL     1      -8.962   8.113  66.027  1.00  0.00    -0.171 C  
HETATM   18  O   UNL     1      -8.499   5.769  66.192  1.00  0.00    -0.121 OA 
HETATM   19  O   UNL     1      -7.392   7.433  67.883  1.00  0.00    -0.088 OA 
HETATM   20  P   UNL     1      -8.790   6.798  67.287  1.00  0.00    -0.120 P  
HETATM   21  O   UNL     1      -8.628   5.554  68.479  1.00  0.00    -0.103 OA 
BRANCH  19  22
HETATM   22  C   UNL     1      -7.435   8.316  68.983  1.00  0.00    -0.091 C  
BRANCH  22  23
HETATM   23  O   UNL     1      -8.665   9.050  69.032  1.00  0.00    -0.134 OA 
BRANCH  23  24
HETATM   24  C   UNL     1      -9.030   9.435  70.281  1.00  0.00    -0.240 C  
HETATM   25  O   UNL     1      -8.628   8.940  71.326  1.00  0.00    -0.187 OA 
BRANCH  24  26
HETATM   26  O   UNL     1      -9.932  10.447  70.190  1.00  0.00    -0.105 OA 
BRANCH  26  27
HETATM   27  C   UNL     1     -11.315  10.036  70.122  1.00  0.00    -0.291 C  
HETATM   28  C   UNL     1     -11.881   9.960  71.537  1.00  0.00    -0.445 C  
HETATM   29  C   UNL     1     -12.101  11.045  69.291  1.00  0.00    -0.363 C  
ENDBRANCH  26  27
ENDBRANCH  24  26
ENDBRANCH  23  24
ENDBRANCH  22  23
ENDBRANCH  19  22
BRANCH  21  30
HETATM   30  C   UNL     1      -9.858   5.214  69.083  1.00  0.00    -0.187 C  
BRANCH  30  31
HETATM   31  O   UNL     1     -10.608   6.372  69.437  1.00  0.00    -0.207 OA 
BRANCH  31  32
HETATM   32  C   UNL     1     -11.373   6.218  70.543  1.00  0.00    -0.361 C  
HETATM   33  O   UNL     1     -12.469   6.732  70.731  1.00  0.00    -0.351 OA 
BRANCH  32  34
HETATM   34  O   UNL     1     -10.744   5.350  71.373  1.00  0.00    -0.240 OA 
BRANCH  34  35
HETATM   35  C   UNL     1     -10.734   5.696  72.772  1.00  0.00    -0.242 C  
HETATM   36  C   UNL     1      -9.323   6.163  73.118  1.00  0.00    -0.138 C  
HETATM   37  C   UNL     1     -11.105   4.487  73.624  1.00  0.00    -0.369 C  
ENDBRANCH  34  35
ENDBRANCH  32  34
ENDBRANCH  31  32
ENDBRANCH  30  31
ENDBRANCH  21  30
ENDBRANCH  16  17
ENDBRANCH   1  16
TORSDOF 14
ENDMDL
MODEL      272
REMARK 921   NORMALIZED FREE ENERGY PREDICTED BY IDOCK:   -3.99 KCAL/MOL
REMARK 922        TOTAL FREE ENERGY PREDICTED BY IDOCK:   -9.10 KCAL/MOL
REMARK 923 INTER-LIGAND FREE ENERGY PREDICTED BY IDOCK:   -7.12 KCAL/MOL
REMARK 924 INTRA-LIGAND FREE ENERGY PREDICTED BY IDOCK:   -1.97 KCAL/MOL
REMARK 927      BINDING AFFINITY PREDICTED BY RF-SCORE:    0.00 PKD
ROOT
HETATM    1  C   UNL     1      -8.233   8.058  69.302  1.00  0.00    -0.127 C  
HETATM    2  C   UNL     1      -7.665   6.661  69.061  1.00  0.00    -0.109 C  
ENDROOT
BRANCH   1   3
HETATM    3  C   UNL     1      -7.171   9.115  69.571  1.00  0.00    -0.060 C  
BRANCH   3   4
HETATM    4  N   UNL     1      -7.231  10.296  68.751  1.00  0.00    -0.079 NA 
HETATM    5  C   UNL     1      -6.713  11.490  69.147  1.00  0.00    -0.108 A  
HETATM    6  N   UNL     1      -5.839  13.989  69.381  1.00  0.00    -0.088 NA 
HETATM    7  C   UNL     1      -7.627  10.420  67.449  1.00  0.00    -0.094 A  
HETATM    8  N   UNL     1      -6.459  14.565  67.178  1.00  0.00    -0.311 NA 
HETATM    9  N   UNL     1      -6.175  11.793  70.338  1.00  0.00    -0.239 NA 
HETATM   10  C   UNL     1      -6.374  13.621  68.195  1.00  0.00    -0.123 A  
HETATM   11  N   UNL     1      -7.439  11.639  66.997  1.00  0.00    -0.148 NA 
HETATM   12  C   UNL     1      -5.759  13.067  70.365  1.00  0.00    -0.169 A  
HETATM   13  C   UNL     1      -6.845  12.312  68.045  1.00  0.00    -0.082 A  
HETATM   14  H1  UNL     1      -6.115  15.519  67.287  1.00  0.00     0.000 HD 
HETATM   15  H2  UNL     1      -7.435  14.620  66.889  1.00  0.00     0.000 HD 
ENDBRANCH   3   4
ENDBRANCH   1   3
BRANCH   1  16
HETATM   16  O   UNL     1      -9.242   7.970  70.331  1.00  0.00    -0.153 OA 
BRANCH  16  17
HETATM   17  C   UNL     1      -9.518   9.189  71.062  1.00  0.00    -0.274 C  
HETATM   18  O   UNL     1     -10.746  10.590  69.557  1.00  0.00    -0.225 OA 
HETATM   19  O   UNL     1     -11.786   8.326  70.365  1.00  0.00    -0.150 OA 
HETATM   20  P   UNL     1     -11.216   9.813  70.789  1.00  0.00    -0.383 P  
HETATM   21  O   UNL     1     -12.822  10.403  70.532  1.00  0.00    -0.341 OA 
BRANCH  19  22
HETATM   22  C   UNL     1     -12.376   7.496  71.342  1.00  0.00    -0.345 C  
BRANCH  22  23
HETATM   23  O   UNL     1     -11.863   6.159  71.289  1.00  0.00    -0.254 OA 
BRANCH  23  24
HETATM   24  C   UNL     1     -10.999   5.858  72.290  1.00  0.00    -0.265 C  
HETATM   25  O   UNL     1     -10.837   6.510  73.313  1.00  0.00    -0.266 OA 
BRANCH  24  26
HETATM   26  O   UNL     1     -10.321   4.724  71.969  1.00  0.00    -0.193 OA 
BRANCH  26  27
HETATM   27  C   UNL     1     -10.000   3.861  73.082  1.00  0.00    -0.132 C  
HETATM   28  C   UNL     1     -11.280   3.198  73.580  1.00  0.00    -0.288 C  
HETATM   29  C   UNL     1      -8.998   2.805  72.628  1.00  0.00    -0.111 C  
ENDBRANCH  26  27
ENDBRANCH  24  26
ENDBRANCH  23  24
ENDBRANCH  22  23
ENDBRANCH  19  22
BRANCH  21  30
HETATM   30  C   UNL     1     -13.223  11.338  71.511  1.00  0.00    -0.253 C  
BRANCH  30  31
HETATM   31  O   UNL     1     -12.283  12.399  71.642  1.00  0.00     0.139 OA 
BRANCH  31  32
HETATM   32  C   UNL     1     -12.646  13.540  71.013  1.00  0.00    -0.359 C  
HETATM   33  O   UNL     1     -13.714  14.123  71.150  1.00  0.00    -0.279 OA 
BRANCH  32  34
HETATM   34  O   UNL     1     -11.601  13.955  70.255  1.00  0.00    -0.242 OA 
BRANCH  34  35
HETATM   35  C   UNL     1     -11.930  14.573  68.995  1.00  0.00    -0.299 C  
HETATM   36  C   UNL     1     -11.706  13.533  67.902  1.00  0.00    -0.392 C  
HETATM   37  C   UNL     1     -11.040  15.787  68.749  1.00  0.00    -0.321 C  
ENDBRANCH  34  35
ENDBRANCH  32  34
ENDBRANCH  31  32
ENDBRANCH  30  31
ENDBRANCH  21  30
ENDBRANCH  16  17
ENDBRANCH   1  16
TORSDOF 14
ENDMDL
MODEL      273
REMARK 921   NORMALIZED FREE ENERGY PREDICTED BY IDOCK:   -3.99 KCAL/MOL
REMARK 922        TOTAL FREE ENERGY PREDICTED BY IDOCK:   -9.09 KCAL/MOL
REMARK 923 INTER-LIGAND FREE ENERGY PREDICTED BY IDOCK:   -8.21 KCAL/MOL
REMARK 924 INTRA-LIGAND FREE ENERGY PREDICTED BY IDOCK:   -0.88 KCAL/MOL
REMARK 927      BINDING AFFINITY PREDICTED BY RF-SCORE:    0.00 PKD
ROOT
HETATM    1  C   UNL     1      -9.585   9.720  69.140  1.00  0.00    -0.188 C  
HETATM    2  C   UNL     1     -10.249   8.824  68.096  1.00  0.00    -0.250 C  
ENDROOT
BRANCH   1   3
HETATM    3  C   UNL     1     -10.443   9.966  70.373  1.00  0.00    -0.285 C  
BRANCH   3   4
HETATM    4  N   UNL     1     -10.797   8.803  71.141  1.00  0.00    -0.249 NA 
HETATM    5  C   UNL     1     -10.044   8.354  72.182  1.00  0.00    -0.306 A  
HETATM    6  N   UNL     1      -9.011   7.105  74.287  1.00  0.00    -0.210 NA 
HETATM    7  C   UNL     1     -11.949   8.068  71.109  1.00  0.00    -0.277 A  
HETATM    8  N   UNL     1     -10.835   5.622  74.485  1.00  0.00    -0.344 NA 
HETATM    9  N   UNL     1      -8.856   8.825  72.593  1.00  0.00    -0.361 NA 
HETATM   10  C   UNL     1     -10.216   6.687  73.841  1.00  0.00    -0.354 A  
HETATM   11  N   UNL     1     -11.961   7.140  72.038  1.00  0.00    -0.296 NA 
HETATM   12  C   UNL     1      -8.414   8.141  73.658  1.00  0.00    -0.243 A  
HETATM   13  C   UNL     1     -10.782   7.325  72.731  1.00  0.00    -0.299 A  
HETATM   14  H1  UNL     1     -10.423   5.157  75.293  1.00  0.00     0.000 HD 
HETATM   15  H2  UNL     1     -11.028   4.907  73.784  1.00  0.00     0.000 HD 
ENDBRANCH   3   4
ENDBRANCH   1   3
BRANCH   1  16
HETATM   16  O   UNL     1      -9.138  10.928  68.488  1.00  0.00    -0.159 OA 
BRANCH  16  17
HETATM   17  C   UNL     1      -9.946  11.393  67.379  1.00  0.00    -0.186 C  
HETATM   18  O   UNL     1     -12.044  12.049  68.331  1.00  0.00    -0.412 OA 
HETATM   19  O   UNL     1      -9.862  13.342  68.981  1.00  0.00     0.024 OA 
HETATM   20  P   UNL     1     -10.900  12.902  67.780  1.00  0.00    -0.246 P  
HETATM   21  O   UNL     1     -11.801  14.330  68.157  1.00  0.00    -0.327 OA 
BRANCH  19  22
HETATM   22  C   UNL     1      -8.801  14.231  68.702  1.00  0.00    -0.150 C  
BRANCH  22  23
HETATM   23  O   UNL     1      -7.983  13.765  67.622  1.00  0.00    -0.146 OA 
BRANCH  23  24
HETATM   24  C   UNL     1      -6.691  13.535  67.966  1.00  0.00    -0.138 C  
HETATM   25  O   UNL     1      -6.143  13.931  68.987  1.00  0.00    -0.082 OA 
BRANCH  24  26
HETATM   26  O   UNL     1      -6.090  12.810  66.986  1.00  0.00    -0.282 OA 
BRANCH  26  27
HETATM   27  C   UNL     1      -6.293  11.382  67.063  1.00  0.00    -0.122 C  
HETATM   28  C   UNL     1      -6.301  10.804  65.652  1.00  0.00    -0.059 C  
HETATM   29  C   UNL     1      -5.170  10.757  67.886  1.00  0.00    -0.036 C  
ENDBRANCH  26  27
ENDBRANCH  24  26
ENDBRANCH  23  24
ENDBRANCH  22  23
ENDBRANCH  19  22
BRANCH  21  30
HETATM   30  C   UNL     1     -12.270  14.999  67.006  1.00  0.00     0.302 C  
BRANCH  30  31
HETATM   31  O   UNL     1     -12.379  14.118  65.892  1.00  0.00    -0.448 OA 
BRANCH  31  32
HETATM   32  C   UNL     1     -12.001  14.666  64.715  1.00  0.00    -0.433 C  
HETATM   33  O   UNL     1     -11.493  15.771  64.571  1.00  0.00    -0.417 OA 
BRANCH  32  34
HETATM   34  O   UNL     1     -12.226  13.757  63.734  1.00  0.00    -0.599 OA 
BRANCH  34  35
HETATM   35  C   UNL     1     -11.241  12.715  63.589  1.00  0.00    -0.466 C  
HETATM   36  C   UNL     1     -11.778  11.475  64.299  1.00  0.00    -0.164 C  
HETATM   37  C   UNL     1      -9.917  13.142  64.216  1.00  0.00    -0.007 C  
ENDBRANCH  34  35
ENDBRANCH  32  34
ENDBRANCH  31  32
ENDBRANCH  30  31
ENDBRANCH  21  30
ENDBRANCH  16  17
ENDBRANCH   1  16
TORSDOF 14
ENDMDL
MODEL      274
REMARK 921   NORMALIZED FREE ENERGY PREDICTED BY IDOCK:   -3.97 KCAL/MOL
REMARK 922        TOTAL FREE ENERGY PREDICTED BY IDOCK:   -9.06 KCAL/MOL
REMARK 923 INTER-LIGAND FREE ENERGY PREDICTED BY IDOCK:   -8.56 KCAL/MOL
REMARK 924 INTRA-LIGAND FREE ENERGY PREDICTED BY IDOCK:   -0.50 KCAL/MOL
REMARK 927      BINDING AFFINITY PREDICTED BY RF-SCORE:    0.00 PKD
ROOT
HETATM    1  C   UNL     1     -10.748  13.156  68.876  1.00  0.00    -0.169 C  
HETATM    2  C   UNL     1     -12.266  13.314  68.814  1.00  0.00    -0.124 C  
ENDROOT
BRANCH   1   3
HETATM    3  C   UNL     1     -10.025  13.683  67.644  1.00  0.00    -0.239 C  
BRANCH   3   4
HETATM    4  N   UNL     1      -9.776  12.727  66.598  1.00  0.00    -0.246 NA 
HETATM    5  C   UNL     1     -10.639  12.531  65.564  1.00  0.00    -0.275 A  
HETATM    6  N   UNL     1     -11.904  11.802  63.344  1.00  0.00    -0.417 NA 
HETATM    7  C   UNL     1      -8.645  12.003  66.344  1.00  0.00    -0.037 A  
HETATM    8  N   UNL     1     -10.145  10.402  62.628  1.00  0.00    -0.689 NA 
HETATM    9  N   UNL     1     -11.849  13.085  65.394  1.00  0.00    -0.364 NA 
HETATM   10  C   UNL     1     -10.671  11.290  63.558  1.00  0.00    -0.335 A  
HETATM   11  N   UNL     1      -8.748  11.314  65.231  1.00  0.00    -0.030 NA 
HETATM   12  C   UNL     1     -12.410  12.667  64.250  1.00  0.00    -0.435 A  
HETATM   13  C   UNL     1      -9.983  11.655  64.721  1.00  0.00    -0.254 A  
HETATM   14  H1  UNL     1     -10.645  10.137  61.781  1.00  0.00     0.000 HD 
HETATM   15  H2  UNL     1      -9.902   9.545  63.124  1.00  0.00     0.000 HD 
ENDBRANCH   3   4
ENDBRANCH   1   3
BRANCH   1  16
HETATM   16  O   UNL     1     -10.444  11.779  69.187  1.00  0.00    -0.147 OA 
BRANCH  16  17
HETATM   17  C   UNL     1     -11.200  10.778  68.462  1.00  0.00    -0.279 C  
HETATM   18  O   UNL     1      -9.595   9.171  67.703  1.00  0.00    -0.144 OA 
HETATM   19  O   UNL     1      -9.992   9.495  70.271  1.00  0.00    -0.225 OA 
HETATM   20  P   UNL     1     -10.640   9.072  68.816  1.00  0.00    -0.058 P  
HETATM   21  O   UNL     1     -10.112   7.459  69.150  1.00  0.00    -0.179 OA 
BRANCH  19  22
HETATM   22  C   UNL     1     -10.760   9.359  71.447  1.00  0.00    -0.337 C  
BRANCH  22  23
HETATM   23  O   UNL     1     -10.204   8.387  72.340  1.00  0.00    -0.302 OA 
BRANCH  23  24
HETATM   24  C   UNL     1     -11.059   7.387  72.672  1.00  0.00    -0.331 C  
HETATM   25  O   UNL     1     -12.112   7.131  72.104  1.00  0.00    -0.292 OA 
BRANCH  24  26
HETATM   26  O   UNL     1     -10.570   6.722  73.752  1.00  0.00    -0.337 OA 
BRANCH  26  27
HETATM   27  C   UNL     1     -10.042   5.405  73.479  1.00  0.00    -0.187 C  
HETATM   28  C   UNL     1     -11.197   4.413  73.406  1.00  0.00    -0.386 C  
HETATM   29  C   UNL     1      -9.282   5.432  72.156  1.00  0.00    -0.157 C  
ENDBRANCH  26  27
ENDBRANCH  24  26
ENDBRANCH  23  24
ENDBRANCH  22  23
ENDBRANCH  19  22
BRANCH  21  30
HETATM   30  C   UNL     1     -11.062   6.485  68.773  1.00  0.00    -0.283 C  
BRANCH  30  31
HETATM   31  O   UNL     1     -11.102   6.308  67.360  1.00  0.00    -0.350 OA 
BRANCH  31  32
HETATM   32  C   UNL     1      -9.953   5.827  66.831  1.00  0.00    -0.171 C  
HETATM   33  O   UNL     1      -9.116   6.484  66.225  1.00  0.00    -0.154 OA 
BRANCH  32  34
HETATM   34  O   UNL     1      -9.864   4.510  67.142  1.00  0.00    -0.191 OA 
BRANCH  34  35
HETATM   35  C   UNL     1      -9.633   3.608  66.042  1.00  0.00    -0.133 C  
HETATM   36  C   UNL     1      -8.130   3.573  65.785  1.00  0.00    -0.093 C  
HETATM   37  C   UNL     1     -10.364   4.090  64.793  1.00  0.00    -0.212 C  
ENDBRANCH  34  35
ENDBRANCH  32  34
ENDBRANCH  31  32
ENDBRANCH  30  31
ENDBRANCH  21  30
ENDBRANCH  16  17
ENDBRANCH   1  16
TORSDOF 14
ENDMDL
MODEL      275
REMARK 921   NORMALIZED FREE ENERGY PREDICTED BY IDOCK:   -3.96 KCAL/MOL
REMARK 922        TOTAL FREE ENERGY PREDICTED BY IDOCK:   -9.03 KCAL/MOL
REMARK 923 INTER-LIGAND FREE ENERGY PREDICTED BY IDOCK:   -8.39 KCAL/MOL
REMARK 924 INTRA-LIGAND FREE ENERGY PREDICTED BY IDOCK:   -0.64 KCAL/MOL
REMARK 927      BINDING AFFINITY PREDICTED BY RF-SCORE:    0.00 PKD
ROOT
HETATM    1  C   UNL     1      -9.183  16.272  68.727  1.00  0.00    -0.240 C  
HETATM    2  C   UNL     1     -10.357  16.893  69.480  1.00  0.00    -0.189 C  
ENDROOT
BRANCH   1   3
HETATM    3  C   UNL     1      -7.913  17.112  68.769  1.00  0.00    -0.255 C  
BRANCH   3   4
HETATM    4  N   UNL     1      -7.890  18.267  67.913  1.00  0.00    -0.244 NA 
HETATM    5  C   UNL     1      -6.950  18.445  66.946  1.00  0.00    -0.194 A  
HETATM    6  N   UNL     1      -5.435  19.254  64.918  1.00  0.00    -0.178 NA 
HETATM    7  C   UNL     1      -8.822  19.258  67.780  1.00  0.00    -0.305 A  
HETATM    8  N   UNL     1      -6.808  21.114  64.446  1.00  0.00    -0.497 NA 
HETATM    9  N   UNL     1      -5.880  17.675  66.696  1.00  0.00    -0.163 NA 
HETATM   10  C   UNL     1      -6.538  19.981  65.204  1.00  0.00    -0.295 A  
HETATM   11  N   UNL     1      -8.511  20.093  66.814  1.00  0.00    -0.316 NA 
HETATM   12  C   UNL     1      -5.179  18.153  65.658  1.00  0.00    -0.186 A  
HETATM   13  C   UNL     1      -7.352  19.580  66.269  1.00  0.00    -0.268 A  
HETATM   14  H1  UNL     1      -6.215  21.406  63.669  1.00  0.00     0.000 HD 
HETATM   15  H2  UNL     1      -6.887  21.903  65.087  1.00  0.00     0.000 HD 
ENDBRANCH   3   4
ENDBRANCH   1   3
BRANCH   1  16
HETATM   16  O   UNL     1      -9.620  15.941  67.391  1.00  0.00    -0.219 OA 
BRANCH  16  17
HETATM   17  C   UNL     1      -8.728  15.103  66.616  1.00  0.00    -0.272 C  
HETATM   18  O   UNL     1      -7.303  14.019  68.206  1.00  0.00    -0.094 OA 
HETATM   19  O   UNL     1      -9.874  13.521  68.216  1.00  0.00    -0.225 OA 
HETATM   20  P   UNL     1      -8.458  13.460  67.374  1.00  0.00    -0.181 P  
HETATM   21  O   UNL     1      -8.204  11.906  68.089  1.00  0.00    -0.142 OA 
BRANCH  19  22
HETATM   22  C   UNL     1     -11.041  12.945  67.669  1.00  0.00    -0.264 C  
BRANCH  22  23
HETATM   23  O   UNL     1     -11.084  11.528  67.873  1.00  0.00    -0.221 OA 
BRANCH  23  24
HETATM   24  C   UNL     1     -11.380  11.161  69.146  1.00  0.00    -0.273 C  
HETATM   25  O   UNL     1     -12.333  11.562  69.800  1.00  0.00    -0.240 OA 
BRANCH  24  26
HETATM   26  O   UNL     1     -10.437  10.289  69.590  1.00  0.00    -0.226 OA 
BRANCH  26  27
HETATM   27  C   UNL     1     -10.950   9.082  70.197  1.00  0.00    -0.233 C  
HETATM   28  C   UNL     1      -9.979   7.939  69.925  1.00  0.00    -0.192 C  
HETATM   29  C   UNL     1     -11.105   9.301  71.698  1.00  0.00    -0.438 C  
ENDBRANCH  26  27
ENDBRANCH  24  26
ENDBRANCH  23  24
ENDBRANCH  22  23
ENDBRANCH  19  22
BRANCH  21  30
HETATM   30  C   UNL     1      -7.672  10.966  67.179  1.00  0.00    -0.123 C  
BRANCH  30  31
HETATM   31  O   UNL     1      -8.354   9.718  67.253  1.00  0.00    -0.120 OA 
BRANCH  31  32
HETATM   32  C   UNL     1      -9.185   9.480  66.212  1.00  0.00    -0.172 C  
HETATM   33  O   UNL     1     -10.124   8.694  66.212  1.00  0.00    -0.277 OA 
BRANCH  32  34
HETATM   34  O   UNL     1      -8.833  10.305  65.195  1.00  0.00    -0.164 OA 
BRANCH  34  35
HETATM   35  C   UNL     1      -9.772  10.416  64.107  1.00  0.00    -0.324 C  
HETATM   36  C   UNL     1      -8.975  10.355  62.806  1.00  0.00    -0.267 C  
HETATM   37  C   UNL     1     -10.533  11.735  64.190  1.00  0.00    -0.394 C  
ENDBRANCH  34  35
ENDBRANCH  32  34
ENDBRANCH  31  32
ENDBRANCH  30  31
ENDBRANCH  21  30
ENDBRANCH  16  17
ENDBRANCH   1  16
TORSDOF 14
ENDMDL
MODEL      276
REMARK 921   NORMALIZED FREE ENERGY PREDICTED BY IDOCK:   -3.93 KCAL/MOL
REMARK 922        TOTAL FREE ENERGY PREDICTED BY IDOCK:   -9.00 KCAL/MOL
REMARK 923 INTER-LIGAND FREE ENERGY PREDICTED BY IDOCK:   -7.97 KCAL/MOL
REMARK 924 INTRA-LIGAND FREE ENERGY PREDICTED BY IDOCK:   -1.03 KCAL/MOL
REMARK 927      BINDING AFFINITY PREDICTED BY RF-SCORE:    0.00 PKD
ROOT
HETATM    1  C   UNL     1      -7.903   9.595  64.659  1.00  0.00    -0.133 C  
HETATM    2  C   UNL     1      -8.845   9.186  63.529  1.00  0.00    -0.086 C  
ENDROOT
BRANCH   1   3
HETATM    3  C   UNL     1      -7.310   8.417  65.420  1.00  0.00    -0.084 C  
BRANCH   3   4
HETATM    4  N   UNL     1      -7.941   7.142  65.207  1.00  0.00    -0.121 NA 
HETATM    5  C   UNL     1      -7.494   6.248  64.283  1.00  0.00    -0.086 A  
HETATM    6  N   UNL     1      -7.025   4.156  62.713  1.00  0.00    -0.035 NA 
HETATM    7  C   UNL     1      -8.925   6.536  65.936  1.00  0.00    -0.085 A  
HETATM    8  N   UNL     1      -8.704   2.840  63.721  1.00  0.00    -0.086 NA 
HETATM    9  N   UNL     1      -6.508   6.421  63.389  1.00  0.00    -0.032 NA 
HETATM   10  C   UNL     1      -7.995   4.033  63.646  1.00  0.00    -0.088 A  
HETATM   11  N   UNL     1      -9.172   5.320  65.506  1.00  0.00    -0.144 NA 
HETATM   12  C   UNL     1      -6.338   5.318  62.647  1.00  0.00    -0.021 A  
HETATM   13  C   UNL     1      -8.266   5.120  64.485  1.00  0.00    -0.133 A  
HETATM   14  H1  UNL     1      -8.507   2.047  63.110  1.00  0.00     0.000 HD 
HETATM   15  H2  UNL     1      -9.694   3.063  63.626  1.00  0.00     0.000 HD 
ENDBRANCH   3   4
ENDBRANCH   1   3
BRANCH   1  16
HETATM   16  O   UNL     1      -8.586  10.549  65.501  1.00  0.00    -0.169 OA 
BRANCH  16  17
HETATM   17  C   UNL     1      -9.437   9.996  66.535  1.00  0.00    -0.175 C  
HETATM   18  O   UNL     1      -8.779  11.076  68.568  1.00  0.00    -0.146 OA 
HETATM   19  O   UNL     1      -9.836  12.487  66.631  1.00  0.00    -0.229 OA 
HETATM   20  P   UNL     1     -10.035  11.260  67.714  1.00  0.00    -0.184 P  
HETATM   21  O   UNL     1     -10.602  12.456  68.829  1.00  0.00    -0.227 OA 
BRANCH  19  22
HETATM   22  C   UNL     1     -10.920  12.896  65.827  1.00  0.00    -0.278 C  
BRANCH  22  23
HETATM   23  O   UNL     1     -10.500  13.747  64.754  1.00  0.00    -0.400 OA 
BRANCH  23  24
HETATM   24  C   UNL     1     -10.787  15.060  64.943  1.00  0.00    -0.411 C  
HETATM   25  O   UNL     1     -11.781  15.640  64.526  1.00  0.00    -0.363 OA 
BRANCH  24  26
HETATM   26  O   UNL     1      -9.784  15.638  65.655  1.00  0.00    -0.334 OA 
BRANCH  26  27
HETATM   27  C   UNL     1     -10.093  15.922  67.038  1.00  0.00    -0.268 C  
HETATM   28  C   UNL     1      -8.901  15.529  67.904  1.00  0.00    -0.171 C  
HETATM   29  C   UNL     1     -10.394  17.409  67.191  1.00  0.00    -0.325 C  
ENDBRANCH  26  27
ENDBRANCH  24  26
ENDBRANCH  23  24
ENDBRANCH  22  23
ENDBRANCH  19  22
BRANCH  21  30
HETATM   30  C   UNL     1     -11.712  12.016  69.582  1.00  0.00    -0.335 C  
BRANCH  30  31
HETATM   31  O   UNL     1     -12.522  13.106  70.010  1.00  0.00    -0.203 OA 
BRANCH  31  32
HETATM   32  C   UNL     1     -12.963  13.000  71.285  1.00  0.00    -0.243 C  
HETATM   33  O   UNL     1     -13.084  11.957  71.914  1.00  0.00    -0.458 OA 
BRANCH  32  34
HETATM   34  O   UNL     1     -13.186  14.251  71.760  1.00  0.00    -0.328 OA 
BRANCH  34  35
HETATM   35  C   UNL     1     -12.049  14.932  72.326  1.00  0.00    -0.323 C  
HETATM   36  C   UNL     1     -12.391  15.267  73.775  1.00  0.00    -0.731 C  
HETATM   37  C   UNL     1     -11.754  16.212  71.551  1.00  0.00    -0.533 C  
ENDBRANCH  34  35
ENDBRANCH  32  34
ENDBRANCH  31  32
ENDBRANCH  30  31
ENDBRANCH  21  30
ENDBRANCH  16  17
ENDBRANCH   1  16
TORSDOF 14
ENDMDL
MODEL      277
REMARK 921   NORMALIZED FREE ENERGY PREDICTED BY IDOCK:   -3.90 KCAL/MOL
REMARK 922        TOTAL FREE ENERGY PREDICTED BY IDOCK:   -8.94 KCAL/MOL
REMARK 923 INTER-LIGAND FREE ENERGY PREDICTED BY IDOCK:   -8.64 KCAL/MOL
REMARK 924 INTRA-LIGAND FREE ENERGY PREDICTED BY IDOCK:   -0.30 KCAL/MOL
REMARK 927      BINDING AFFINITY PREDICTED BY RF-SCORE:    0.00 PKD
ROOT
HETATM    1  C   UNL     1      -6.065  14.205  68.799  1.00  0.00    -0.085 C  
HETATM    2  C   UNL     1      -5.845  14.943  70.118  1.00  0.00    -0.141 C  
ENDROOT
BRANCH   1   3
HETATM    3  C   UNL     1      -6.856  15.004  67.772  1.00  0.00    -0.170 C  
BRANCH   3   4
HETATM    4  N   UNL     1      -7.841  15.911  68.298  1.00  0.00    -0.135 NA 
HETATM    5  C   UNL     1      -7.824  17.246  68.034  1.00  0.00    -0.205 A  
HETATM    6  N   UNL     1      -8.297  19.850  67.802  1.00  0.00    -0.304 NA 
HETATM    7  C   UNL     1      -8.999  15.630  68.967  1.00  0.00    -0.239 A  
HETATM    8  N   UNL     1     -10.338  19.732  68.980  1.00  0.00    -0.605 NA 
HETATM    9  N   UNL     1      -6.887  17.934  67.363  1.00  0.00    -0.179 NA 
HETATM   10  C   UNL     1      -9.216  19.103  68.453  1.00  0.00    -0.356 A  
HETATM   11  N   UNL     1      -9.706  16.713  69.193  1.00  0.00    -0.252 NA 
HETATM   12  C   UNL     1      -7.209  19.233  67.290  1.00  0.00    -0.208 A  
HETATM   13  C   UNL     1      -8.991  17.729  68.593  1.00  0.00    -0.256 A  
HETATM   14  H1  UNL     1     -10.502  20.733  68.878  1.00  0.00     0.000 HD 
HETATM   15  H2  UNL     1     -10.374  19.514  69.975  1.00  0.00     0.000 HD 
ENDBRANCH   3   4
ENDBRANCH   1   3
BRANCH   1  16
HETATM   16  O   UNL     1      -6.628  12.908  69.090  1.00  0.00    -0.102 OA 
BRANCH  16  17
HETATM   17  C   UNL     1      -7.952  12.653  68.560  1.00  0.00    -0.093 C  
HETATM   18  O   UNL     1      -7.621  11.373  66.564  1.00  0.00    -0.142 OA 
HETATM   19  O   UNL     1      -6.932  10.366  68.881  1.00  0.00    -0.060 OA 
HETATM   20  P   UNL     1      -8.150  10.945  67.934  1.00  0.00    -0.120 P  
HETATM   21  O   UNL     1      -8.339   9.330  67.343  1.00  0.00    -0.120 OA 
BRANCH  19  22
HETATM   22  C   UNL     1      -7.228   9.811  70.144  1.00  0.00    -0.145 C  
BRANCH  22  23
HETATM   23  O   UNL     1      -8.636   9.623  70.329  1.00  0.00    -0.203 OA 
BRANCH  23  24
HETATM   24  C   UNL     1      -8.953   8.766  71.332  1.00  0.00    -0.238 C  
HETATM   25  O   UNL     1      -8.575   8.856  72.493  1.00  0.00    -0.396 OA 
BRANCH  24  26
HETATM   26  O   UNL     1      -9.744   7.776  70.841  1.00  0.00    -0.168 OA 
BRANCH  26  27
HETATM   27  C   UNL     1     -11.098   8.168  70.524  1.00  0.00    -0.253 C  
HETATM   28  C   UNL     1     -11.976   6.923  70.470  1.00  0.00    -0.358 C  
HETATM   29  C   UNL     1     -11.607   9.130  71.593  1.00  0.00    -0.449 C  
ENDBRANCH  26  27
ENDBRANCH  24  26
ENDBRANCH  23  24
ENDBRANCH  22  23
ENDBRANCH  19  22
BRANCH  21  30
HETATM   30  C   UNL     1      -9.692   8.959  67.193  1.00  0.00    -0.184 C  
BRANCH  30  31
HETATM   31  O   UNL     1     -10.335   9.712  66.169  1.00  0.00    -0.230 OA 
BRANCH  31  32
HETATM   32  C   UNL     1     -11.073  10.749  66.627  1.00  0.00    -0.035 C  
HETATM   33  O   UNL     1     -11.695  10.773  67.681  1.00  0.00    -0.538 OA 
BRANCH  32  34
HETATM   34  O   UNL     1     -10.952  11.774  65.747  1.00  0.00    -0.295 OA 
BRANCH  34  35
HETATM   35  C   UNL     1     -12.146  12.145  65.030  1.00  0.00    -0.243 C  
HETATM   36  C   UNL     1     -11.798  12.172  63.544  1.00  0.00    -0.597 C  
HETATM   37  C   UNL     1     -12.631  13.520  65.476  1.00  0.00    -0.531 C  
ENDBRANCH  34  35
ENDBRANCH  32  34
ENDBRANCH  31  32
ENDBRANCH  30  31
ENDBRANCH  21  30
ENDBRANCH  16  17
ENDBRANCH   1  16
TORSDOF 14
ENDMDL
MODEL      278
REMARK 921   NORMALIZED FREE ENERGY PREDICTED BY IDOCK:   -3.88 KCAL/MOL
REMARK 922        TOTAL FREE ENERGY PREDICTED BY IDOCK:   -8.90 KCAL/MOL
REMARK 923 INTER-LIGAND FREE ENERGY PREDICTED BY IDOCK:   -7.54 KCAL/MOL
REMARK 924 INTRA-LIGAND FREE ENERGY PREDICTED BY IDOCK:   -1.36 KCAL/MOL
REMARK 927      BINDING AFFINITY PREDICTED BY RF-SCORE:    0.00 PKD
ROOT
HETATM    1  C   UNL     1     -11.350  11.144  69.635  1.00  0.00    -0.294 C  
HETATM    2  C   UNL     1     -12.191  11.400  70.885  1.00  0.00    -0.447 C  
ENDROOT
BRANCH   1   3
HETATM    3  C   UNL     1     -12.155  11.144  68.343  1.00  0.00     0.001 C  
BRANCH   3   4
HETATM    4  N   UNL     1     -11.716  12.058  67.323  1.00  0.00    -0.548 NA 
HETATM    5  C   UNL     1     -11.619  13.399  67.534  1.00  0.00    -0.344 A  
HETATM    6  N   UNL     1     -11.193  16.019  67.416  1.00  0.00    -0.163 NA 
HETATM    7  C   UNL     1     -11.184  11.787  66.094  1.00  0.00    -0.306 A  
HETATM    8  N   UNL     1     -10.267  15.917  65.248  1.00  0.00    -0.483 NA 
HETATM    9  N   UNL     1     -11.987  14.083  68.629  1.00  0.00    -0.362 NA 
HETATM   10  C   UNL     1     -10.823  15.277  66.349  1.00  0.00    -0.317 A  
HETATM   11  N   UNL     1     -10.793  12.880  65.480  1.00  0.00    -0.271 NA 
HETATM   12  C   UNL     1     -11.732  15.391  68.483  1.00  0.00    -0.338 A  
HETATM   13  C   UNL     1     -11.039  13.894  66.383  1.00  0.00    -0.309 A  
HETATM   14  H1  UNL     1     -10.109  16.924  65.224  1.00  0.00     0.000 HD 
HETATM   15  H2  UNL     1     -10.828  15.673  64.433  1.00  0.00     0.000 HD 
ENDBRANCH   3   4
ENDBRANCH   1   3
BRANCH   1  16
HETATM   16  O   UNL     1     -10.579   9.941  69.843  1.00  0.00    -0.233 OA 
BRANCH  16  17
HETATM   17  C   UNL     1     -10.508   9.454  71.205  1.00  0.00    -0.315 C  
HETATM   18  O   UNL     1     -12.336   7.926  71.448  1.00  0.00    -0.307 OA 
HETATM   19  O   UNL     1     -10.401   7.380  69.769  1.00  0.00    -0.210 OA 
HETATM   20  P   UNL     1     -10.833   7.658  71.335  1.00  0.00    -0.230 P  
HETATM   21  O   UNL     1     -11.140   5.960  71.459  1.00  0.00    -0.270 OA 
BRANCH  19  22
HETATM   22  C   UNL     1      -9.078   6.997  69.464  1.00  0.00    -0.146 C  
BRANCH  22  23
HETATM   23  O   UNL     1      -9.013   5.663  68.946  1.00  0.00    -0.111 OA 
BRANCH  23  24
HETATM   24  C   UNL     1      -9.332   5.564  67.631  1.00  0.00    -0.112 C  
HETATM   25  O   UNL     1     -10.312   4.989  67.175  1.00  0.00    -0.203 OA 
BRANCH  24  26
HETATM   26  O   UNL     1      -8.377   6.189  66.892  1.00  0.00    -0.106 OA 
BRANCH  26  27
HETATM   27  C   UNL     1      -8.560   6.117  65.460  1.00  0.00    -0.130 C  
HETATM   28  C   UNL     1      -8.224   7.472  64.848  1.00  0.00    -0.086 C  
HETATM   29  C   UNL     1      -7.647   5.036  64.890  1.00  0.00    -0.078 C  
ENDBRANCH  26  27
ENDBRANCH  24  26
ENDBRANCH  23  24
ENDBRANCH  22  23
ENDBRANCH  19  22
BRANCH  21  30
HETATM   30  C   UNL     1     -10.700   5.414  72.683  1.00  0.00    -0.240 C  
BRANCH  30  31
HETATM   31  O   UNL     1     -10.434   4.019  72.573  1.00  0.00    -0.173 OA 
BRANCH  31  32
HETATM   32  C   UNL     1      -9.194   3.659  72.978  1.00  0.00    -0.099 C  
HETATM   33  O   UNL     1      -8.938   2.878  73.885  1.00  0.00    -0.075 OA 
BRANCH  32  34
HETATM   34  O   UNL     1      -8.293   4.267  72.167  1.00  0.00    -0.099 OA 
BRANCH  34  35
HETATM   35  C   UNL     1      -6.955   4.402  72.686  1.00  0.00    -0.061 C  
HETATM   36  C   UNL     1      -6.565   5.873  72.572  1.00  0.00    -0.067 C  
HETATM   37  C   UNL     1      -5.983   3.542  71.885  1.00  0.00    -0.013 C  
ENDBRANCH  34  35
ENDBRANCH  32  34
ENDBRANCH  31  32
ENDBRANCH  30  31
ENDBRANCH  21  30
ENDBRANCH  16  17
ENDBRANCH   1  16
TORSDOF 14
ENDMDL
MODEL      279
REMARK 921   NORMALIZED FREE ENERGY PREDICTED BY IDOCK:   -3.87 KCAL/MOL
REMARK 922        TOTAL FREE ENERGY PREDICTED BY IDOCK:   -8.88 KCAL/MOL
REMARK 923 INTER-LIGAND FREE ENERGY PREDICTED BY IDOCK:   -7.41 KCAL/MOL
REMARK 924 INTRA-LIGAND FREE ENERGY PREDICTED BY IDOCK:   -1.47 KCAL/MOL
REMARK 927      BINDING AFFINITY PREDICTED BY RF-SCORE:    0.00 PKD
ROOT
HETATM    1  C   UNL     1      -8.913   7.630  69.663  1.00  0.00    -0.140 C  
HETATM    2  C   UNL     1      -8.788   7.578  71.184  1.00  0.00    -0.142 C  
ENDROOT
BRANCH   1   3
HETATM    3  C   UNL     1      -7.658   7.178  68.928  1.00  0.00    -0.100 C  
BRANCH   3   4
HETATM    4  N   UNL     1      -7.823   6.849  67.537  1.00  0.00    -0.110 NA 
HETATM    5  C   UNL     1      -8.366   5.673  67.122  1.00  0.00    -0.104 A  
HETATM    6  N   UNL     1      -9.391   3.617  65.786  1.00  0.00    -0.159 NA 
HETATM    7  C   UNL     1      -7.649   7.642  66.438  1.00  0.00    -0.088 A  
HETATM    8  N   UNL     1      -9.176   4.684  63.693  1.00  0.00    -0.305 NA 
HETATM    9  N   UNL     1      -8.732   4.629  67.882  1.00  0.00    -0.103 NA 
HETATM   10  C   UNL     1      -9.022   4.705  65.074  1.00  0.00    -0.152 A  
HETATM   11  N   UNL     1      -8.004   7.028  65.333  1.00  0.00    -0.122 NA 
HETATM   12  C   UNL     1      -9.240   3.644  67.128  1.00  0.00    -0.188 A  
HETATM   13  C   UNL     1      -8.477   5.801  65.752  1.00  0.00    -0.143 A  
HETATM   14  H1  UNL     1      -9.573   3.886  63.199  1.00  0.00     0.000 HD 
HETATM   15  H2  UNL     1      -8.265   4.881  63.278  1.00  0.00     0.000 HD 
ENDBRANCH   3   4
ENDBRANCH   1   3
BRANCH   1  16
HETATM   16  O   UNL     1      -9.368   8.947  69.286  1.00  0.00    -0.147 OA 
BRANCH  16  17
HETATM   17  C   UNL     1      -8.560  10.058  69.745  1.00  0.00    -0.173 C  
HETATM   18  O   UNL     1      -6.860  10.358  68.086  1.00  0.00    -0.071 OA 
HETATM   19  O   UNL     1      -9.372  10.750  67.457  1.00  0.00    -0.146 OA 
HETATM   20  P   UNL     1      -8.096  11.204  68.397  1.00  0.00    -0.152 P  
HETATM   21  O   UNL     1      -7.658  12.288  67.122  1.00  0.00    -0.150 OA 
BRANCH  19  22
HETATM   22  C   UNL     1     -10.576  11.484  67.505  1.00  0.00    -0.206 C  
BRANCH  22  23
HETATM   23  O   UNL     1     -11.393  11.249  66.352  1.00  0.00    -0.279 OA 
BRANCH  23  24
HETATM   24  C   UNL     1     -10.744  11.413  65.172  1.00  0.00    -0.269 C  
HETATM   25  O   UNL     1     -10.356  10.513  64.440  1.00  0.00    -0.341 OA 
BRANCH  24  26
HETATM   26  O   UNL     1     -10.572  12.742  64.938  1.00  0.00    -0.291 OA 
BRANCH  26  27
HETATM   27  C   UNL     1     -11.648  13.385  64.219  1.00  0.00    -0.402 C  
HETATM   28  C   UNL     1     -12.442  12.326  63.462  1.00  0.00    -0.642 C  
HETATM   29  C   UNL     1     -12.549  14.116  65.209  1.00  0.00    -0.460 C  
ENDBRANCH  26  27
ENDBRANCH  24  26
ENDBRANCH  23  24
ENDBRANCH  22  23
ENDBRANCH  19  22
BRANCH  21  30
HETATM   30  C   UNL     1      -7.222  13.543  67.599  1.00  0.00    -0.168 C  
BRANCH  30  31
HETATM   31  O   UNL     1      -7.913  13.926  68.783  1.00  0.00    -0.129 OA 
BRANCH  31  32
HETATM   32  C   UNL     1      -8.245  15.237  68.831  1.00  0.00    -0.186 C  
HETATM   33  O   UNL     1      -7.685  16.138  68.220  1.00  0.00    -0.141 OA 
BRANCH  32  34
HETATM   34  O   UNL     1      -9.339  15.366  69.622  1.00  0.00    -0.267 OA 
BRANCH  34  35
HETATM   35  C   UNL     1     -10.601  14.999  69.032  1.00  0.00    -0.245 C  
HETATM   36  C   UNL     1     -11.183  16.249  68.379  1.00  0.00    -0.349 C  
HETATM   37  C   UNL     1     -11.557  14.477  70.101  1.00  0.00    -0.334 C  
ENDBRANCH  34  35
ENDBRANCH  32  34
ENDBRANCH  31  32
ENDBRANCH  30  31
ENDBRANCH  21  30
ENDBRANCH  16  17
ENDBRANCH   1  16
TORSDOF 14
ENDMDL
MODEL      280
REMARK 921   NORMALIZED FREE ENERGY PREDICTED BY IDOCK:   -3.85 KCAL/MOL
REMARK 922        TOTAL FREE ENERGY PREDICTED BY IDOCK:   -8.85 KCAL/MOL
REMARK 923 INTER-LIGAND FREE ENERGY PREDICTED BY IDOCK:   -7.23 KCAL/MOL
REMARK 924 INTRA-LIGAND FREE ENERGY PREDICTED BY IDOCK:   -1.61 KCAL/MOL
REMARK 927      BINDING AFFINITY PREDICTED BY RF-SCORE:    0.00 PKD
ROOT
HETATM    1  C   UNL     1      -9.621   8.678  69.287  1.00  0.00    -0.166 C  
HETATM    2  C   UNL     1      -9.413   9.366  70.634  1.00  0.00    -0.325 C  
ENDROOT
BRANCH   1   3
HETATM    3  C   UNL     1      -8.591   7.598  68.983  1.00  0.00    -0.136 C  
BRANCH   3   4
HETATM    4  N   UNL     1      -8.983   6.247  69.281  1.00  0.00    -0.125 NA 
HETATM    5  C   UNL     1      -8.724   5.656  70.479  1.00  0.00    -0.137 A  
HETATM    6  N   UNL     1      -8.538   4.071  72.604  1.00  0.00    -0.099 NA 
HETATM    7  C   UNL     1      -9.781   5.402  68.561  1.00  0.00    -0.137 A  
HETATM    8  N   UNL     1      -9.844   2.366  71.626  1.00  0.00    -0.155 NA 
HETATM    9  N   UNL     1      -8.011   6.158  71.500  1.00  0.00    -0.109 NA 
HETATM   10  C   UNL     1      -9.261   3.625  71.552  1.00  0.00    -0.125 A  
HETATM   11  N   UNL     1     -10.011   4.281  69.206  1.00  0.00    -0.110 NA 
HETATM   12  C   UNL     1      -7.975   5.296  72.526  1.00  0.00    -0.103 A  
HETATM   13  C   UNL     1      -9.373   4.438  70.418  1.00  0.00    -0.149 A  
HETATM   14  H1  UNL     1      -9.763   1.773  72.452  1.00  0.00     0.000 HD 
HETATM   15  H2  UNL     1      -9.515   1.826  70.826  1.00  0.00     0.000 HD 
ENDBRANCH   3   4
ENDBRANCH   1   3
BRANCH   1  16
HETATM   16  O   UNL     1      -9.721   9.693  68.265  1.00  0.00    -0.143 OA 
BRANCH  16  17
HETATM   17  C   UNL     1     -10.095  11.018  68.716  1.00  0.00    -0.203 C  
HETATM   18  O   UNL     1      -8.136  12.371  68.457  1.00  0.00    -0.148 OA 
HETATM   19  O   UNL     1      -9.292  11.343  66.344  1.00  0.00    -0.192 OA 
HETATM   20  P   UNL     1      -9.433  12.345  67.645  1.00  0.00    -0.204 P  
HETATM   21  O   UNL     1      -8.807  13.601  66.632  1.00  0.00    -0.181 OA 
BRANCH  19  22
HETATM   22  C   UNL     1     -10.338  11.267  65.400  1.00  0.00    -0.272 C  
BRANCH  22  23
HETATM   23  O   UNL     1     -10.124  10.220  64.447  1.00  0.00    -0.324 OA 
BRANCH  23  24
HETATM   24  C   UNL     1      -9.183  10.507  63.512  1.00  0.00    -0.274 C  
HETATM   25  O   UNL     1      -9.323  11.276  62.571  1.00  0.00    -0.323 OA 
BRANCH  24  26
HETATM   26  O   UNL     1      -8.060   9.786  63.774  1.00  0.00    -0.131 OA 
BRANCH  26  27
HETATM   27  C   UNL     1      -8.287   8.430  64.216  1.00  0.00    -0.083 C  
HETATM   28  C   UNL     1      -7.838   7.468  63.121  1.00  0.00    -0.133 C  
HETATM   29  C   UNL     1      -7.500   8.179  65.498  1.00  0.00    -0.081 C  
ENDBRANCH  26  27
ENDBRANCH  24  26
ENDBRANCH  23  24
ENDBRANCH  22  23
ENDBRANCH  19  22
BRANCH  21  30
HETATM   30  C   UNL     1      -9.467  14.834  66.821  1.00  0.00    -0.254 C  
BRANCH  30  31
HETATM   31  O   UNL     1     -10.415  14.766  67.882  1.00  0.00    -0.242 OA 
BRANCH  31  32
HETATM   32  C   UNL     1     -10.879  15.971  68.287  1.00  0.00    -0.319 C  
HETATM   33  O   UNL     1     -11.945  16.173  68.854  1.00  0.00    -0.296 OA 
BRANCH  32  34
HETATM   34  O   UNL     1      -9.932  16.902  68.010  1.00  0.00    -0.261 OA 
BRANCH  34  35
HETATM   35  C   UNL     1     -10.377  18.272  67.958  1.00  0.00    -0.391 C  
HETATM   36  C   UNL     1     -10.528  18.649  66.487  1.00  0.00    -0.465 C  
HETATM   37  C   UNL     1      -9.359  19.189  68.629  1.00  0.00    -0.439 C  
ENDBRANCH  34  35
ENDBRANCH  32  34
ENDBRANCH  31  32
ENDBRANCH  30  31
ENDBRANCH  21  30
ENDBRANCH  16  17
ENDBRANCH   1  16
TORSDOF 14
ENDMDL
MODEL      281
REMARK 921   NORMALIZED FREE ENERGY PREDICTED BY IDOCK:   -3.84 KCAL/MOL
REMARK 922        TOTAL FREE ENERGY PREDICTED BY IDOCK:   -8.83 KCAL/MOL
REMARK 923 INTER-LIGAND FREE ENERGY PREDICTED BY IDOCK:   -8.66 KCAL/MOL
REMARK 924 INTRA-LIGAND FREE ENERGY PREDICTED BY IDOCK:   -0.16 KCAL/MOL
REMARK 927      BINDING AFFINITY PREDICTED BY RF-SCORE:    0.00 PKD
ROOT
HETATM    1  C   UNL     1     -11.633   9.596  69.330  1.00  0.00     0.199 C  
HETATM    2  C   UNL     1     -12.228   9.749  70.729  1.00  0.00    -0.342 C  
ENDROOT
BRANCH   1   3
HETATM    3  C   UNL     1     -10.185   9.127  69.327  1.00  0.00    -0.210 C  
BRANCH   3   4
HETATM    4  N   UNL     1      -9.657   8.691  70.592  1.00  0.00    -0.176 NA 
HETATM    5  C   UNL     1      -8.883   7.579  70.720  1.00  0.00    -0.148 A  
HETATM    6  N   UNL     1      -7.316   5.588  71.518  1.00  0.00    -0.084 NA 
HETATM    7  C   UNL     1      -9.670   9.335  71.797  1.00  0.00     0.089 A  
HETATM    8  N   UNL     1      -7.172   6.396  73.730  1.00  0.00    -0.082 NA 
HETATM    9  N   UNL     1      -8.574   6.686  69.768  1.00  0.00    -0.135 NA 
HETATM   10  C   UNL     1      -7.646   6.529  72.431  1.00  0.00    -0.095 A  
HETATM   11  N   UNL     1      -8.989   8.677  72.708  1.00  0.00    -0.365 NA 
HETATM   12  C   UNL     1      -7.779   5.723  70.257  1.00  0.00    -0.095 A  
HETATM   13  C   UNL     1      -8.473   7.588  72.038  1.00  0.00    -0.107 A  
HETATM   14  H1  UNL     1      -6.569   5.625  74.017  1.00  0.00     0.000 HD 
HETATM   15  H2  UNL     1      -7.977   6.405  74.355  1.00  0.00     0.000 HD 
ENDBRANCH   3   4
ENDBRANCH   1   3
BRANCH   1  16
HETATM   16  O   UNL     1     -11.851  10.825  68.604  1.00  0.00    -0.404 OA 
BRANCH  16  17
HETATM   17  C   UNL     1     -10.880  11.140  67.576  1.00  0.00    -0.254 C  
HETATM   18  O   UNL     1     -12.153  11.794  65.656  1.00  0.00    -0.336 OA 
HETATM   19  O   UNL     1     -12.255  13.242  67.835  1.00  0.00    -0.275 OA 
HETATM   20  P   UNL     1     -11.318  12.638  66.621  1.00  0.00    -0.366 P  
HETATM   21  O   UNL     1     -11.732  14.055  65.718  1.00  0.00    -0.340 OA 
BRANCH  19  22
HETATM   22  C   UNL     1     -11.700  14.144  68.767  1.00  0.00    -0.345 C  
BRANCH  22  23
HETATM   23  O   UNL     1     -12.711  14.848  69.498  1.00  0.00    -0.067 OA 
BRANCH  23  24
HETATM   24  C   UNL     1     -13.047  14.268  70.678  1.00  0.00    -0.189 C  
HETATM   25  O   UNL     1     -12.784  13.120  71.008  1.00  0.00    -0.337 OA 
BRANCH  24  26
HETATM   26  O   UNL     1     -13.743  15.160  71.432  1.00  0.00    -0.430 OA 
BRANCH  26  27
HETATM   27  C   UNL     1     -12.995  15.777  72.503  1.00  0.00    -0.470 C  
HETATM   28  C   UNL     1     -12.877  14.790  73.659  1.00  0.00    -0.429 C  
HETATM   29  C   UNL     1     -11.611  16.165  71.993  1.00  0.00    -0.477 C  
ENDBRANCH  26  27
ENDBRANCH  24  26
ENDBRANCH  23  24
ENDBRANCH  22  23
ENDBRANCH  19  22
BRANCH  21  30
HETATM   30  C   UNL     1     -10.637  14.584  65.002  1.00  0.00    -0.437 C  
BRANCH  30  31
HETATM   31  O   UNL     1     -10.165  15.797  65.582  1.00  0.00    -0.330 OA 
BRANCH  31  32
HETATM   32  C   UNL     1      -8.930  15.705  66.126  1.00  0.00    -0.327 C  
HETATM   33  O   UNL     1      -8.419  14.686  66.572  1.00  0.00    -0.111 OA 
BRANCH  32  34
HETATM   34  O   UNL     1      -8.338  16.922  66.035  1.00  0.00    -0.453 OA 
BRANCH  34  35
HETATM   35  C   UNL     1      -8.333  17.722  67.233  1.00  0.00    -0.220 C  
HETATM   36  C   UNL     1      -9.368  18.828  67.050  1.00  0.00    -0.313 C  
HETATM   37  C   UNL     1      -6.953  18.332  67.461  1.00  0.00    -0.204 C  
ENDBRANCH  34  35
ENDBRANCH  32  34
ENDBRANCH  31  32
ENDBRANCH  30  31
ENDBRANCH  21  30
ENDBRANCH  16  17
ENDBRANCH   1  16
TORSDOF 14
ENDMDL
MODEL      282
REMARK 921   NORMALIZED FREE ENERGY PREDICTED BY IDOCK:   -3.82 KCAL/MOL
REMARK 922        TOTAL FREE ENERGY PREDICTED BY IDOCK:   -8.79 KCAL/MOL
REMARK 923 INTER-LIGAND FREE ENERGY PREDICTED BY IDOCK:   -8.21 KCAL/MOL
REMARK 924 INTRA-LIGAND FREE ENERGY PREDICTED BY IDOCK:   -0.58 KCAL/MOL
REMARK 927      BINDING AFFINITY PREDICTED BY RF-SCORE:    0.00 PKD
ROOT
HETATM    1  C   UNL     1      -6.053  13.999  69.035  1.00  0.00    -0.088 C  
HETATM    2  C   UNL     1      -6.151  14.425  70.499  1.00  0.00    -0.185 C  
ENDROOT
BRANCH   1   3
HETATM    3  C   UNL     1      -6.315  15.129  68.048  1.00  0.00    -0.146 C  
BRANCH   3   4
HETATM    4  N   UNL     1      -7.384  16.030  68.385  1.00  0.00    -0.127 NA 
HETATM    5  C   UNL     1      -7.234  17.382  68.376  1.00  0.00    -0.223 A  
HETATM    6  N   UNL     1      -7.511  20.024  68.460  1.00  0.00    -0.252 NA 
HETATM    7  C   UNL     1      -8.706  15.756  68.598  1.00  0.00    -0.195 A  
HETATM    8  N   UNL     1      -9.827  19.912  68.898  1.00  0.00    -0.347 NA 
HETATM    9  N   UNL     1      -6.106  18.077  68.162  1.00  0.00    -0.174 NA 
HETATM   10  C   UNL     1      -8.618  19.272  68.649  1.00  0.00    -0.366 A  
HETATM   11  N   UNL     1      -9.409  16.852  68.773  1.00  0.00    -0.262 NA 
HETATM   12  C   UNL     1      -6.340  19.396  68.218  1.00  0.00    -0.234 A  
HETATM   13  C   UNL     1      -8.501  17.878  68.613  1.00  0.00    -0.266 A  
HETATM   14  H1  UNL     1      -9.913  20.927  68.924  1.00  0.00     0.000 HD 
HETATM   15  H2  UNL     1     -10.193  19.549  69.777  1.00  0.00     0.000 HD 
ENDBRANCH   3   4
ENDBRANCH   1   3
BRANCH   1  16
HETATM   16  O   UNL     1      -6.897  12.845  68.838  1.00  0.00    -0.093 OA 
BRANCH  16  17
HETATM   17  C   UNL     1      -7.842  12.923  67.743  1.00  0.00    -0.158 C  
HETATM   18  O   UNL     1      -7.101  11.320  66.125  1.00  0.00    -0.060 OA 
HETATM   19  O   UNL     1      -7.906  10.510  68.482  1.00  0.00    -0.100 OA 
HETATM   20  P   UNL     1      -8.297  11.280  67.079  1.00  0.00    -0.163 P  
HETATM   21  O   UNL     1      -8.729   9.727  66.450  1.00  0.00    -0.129 OA 
BRANCH  19  22
HETATM   22  C   UNL     1      -8.904  10.263  69.449  1.00  0.00    -0.163 C  
BRANCH  22  23
HETATM   23  O   UNL     1      -9.955  11.234  69.394  1.00  0.00    -0.030 OA 
BRANCH  23  24
HETATM   24  C   UNL     1     -11.199  10.712  69.531  1.00  0.00    -0.272 C  
HETATM   25  O   UNL     1     -11.458   9.544  69.788  1.00  0.00    -0.151 OA 
BRANCH  24  26
HETATM   26  O   UNL     1     -12.120  11.689  69.317  1.00  0.00    -0.311 OA 
BRANCH  26  27
HETATM   27  C   UNL     1     -11.722  13.013  69.737  1.00  0.00    -0.276 C  
HETATM   28  C   UNL     1     -12.033  14.003  68.620  1.00  0.00    -0.389 C  
HETATM   29  C   UNL     1     -12.482  13.389  71.005  1.00  0.00    -0.437 C  
ENDBRANCH  26  27
ENDBRANCH  24  26
ENDBRANCH  23  24
ENDBRANCH  22  23
ENDBRANCH  19  22
BRANCH  21  30
HETATM   30  C   UNL     1      -9.908   9.761  65.675  1.00  0.00    -0.301 C  
BRANCH  30  31
HETATM   31  O   UNL     1      -9.947  10.904  64.826  1.00  0.00    -0.257 OA 
BRANCH  31  32
HETATM   32  C   UNL     1     -11.023  11.700  65.023  1.00  0.00    -0.273 C  
HETATM   33  O   UNL     1     -11.777  11.659  65.987  1.00  0.00    -0.382 OA 
BRANCH  32  34
HETATM   34  O   UNL     1     -11.083  12.589  64.000  1.00  0.00    -0.337 OA 
BRANCH  34  35
HETATM   35  C   UNL     1     -11.261  13.972  64.363  1.00  0.00    -0.306 C  
HETATM   36  C   UNL     1     -10.205  14.310  65.411  1.00  0.00    -0.395 C  
HETATM   37  C   UNL     1     -12.655  14.197  64.937  1.00  0.00    -0.362 C  
ENDBRANCH  34  35
ENDBRANCH  32  34
ENDBRANCH  31  32
ENDBRANCH  30  31
ENDBRANCH  21  30
ENDBRANCH  16  17
ENDBRANCH   1  16
TORSDOF 14
ENDMDL
MODEL      283
REMARK 921   NORMALIZED FREE ENERGY PREDICTED BY IDOCK:   -3.82 KCAL/MOL
REMARK 922        TOTAL FREE ENERGY PREDICTED BY IDOCK:   -8.79 KCAL/MOL
REMARK 923 INTER-LIGAND FREE ENERGY PREDICTED BY IDOCK:   -7.93 KCAL/MOL
REMARK 924 INTRA-LIGAND FREE ENERGY PREDICTED BY IDOCK:   -0.85 KCAL/MOL
REMARK 927      BINDING AFFINITY PREDICTED BY RF-SCORE:    0.00 PKD
ROOT
HETATM    1  C   UNL     1     -12.087  12.233  69.358  1.00  0.00    -0.176 C  
HETATM    2  C   UNL     1     -12.319  13.737  69.240  1.00  0.00    -0.185 C  
ENDROOT
BRANCH   1   3
HETATM    3  C   UNL     1     -12.189  11.705  70.783  1.00  0.00    -0.344 C  
BRANCH   3   4
HETATM    4  N   UNL     1     -11.612  10.410  71.022  1.00  0.00    -0.337 NA 
HETATM    5  C   UNL     1     -12.368   9.301  71.249  1.00  0.00    -0.328 A  
HETATM    6  N   UNL     1     -13.333   6.862  71.673  1.00  0.00    -0.298 NA 
HETATM    7  C   UNL     1     -10.309  10.014  70.909  1.00  0.00     0.131 A  
HETATM    8  N   UNL     1     -11.203   5.849  71.594  1.00  0.00    -0.263 NA 
HETATM    9  N   UNL     1     -13.701   9.235  71.384  1.00  0.00    -0.331 NA 
HETATM   10  C   UNL     1     -11.997   6.987  71.510  1.00  0.00    -0.334 A  
HETATM   11  N   UNL     1     -10.174   8.721  71.097  1.00  0.00    -0.224 NA 
HETATM   12  C   UNL     1     -14.099   7.972  71.589  1.00  0.00    -0.431 A  
HETATM   13  C   UNL     1     -11.461   8.261  71.288  1.00  0.00    -0.274 A  
HETATM   14  H1  UNL     1     -11.593   4.921  71.755  1.00  0.00     0.000 HD 
HETATM   15  H2  UNL     1     -10.499   6.016  72.312  1.00  0.00     0.000 HD 
ENDBRANCH   3   4
ENDBRANCH   1   3
BRANCH   1  16
HETATM   16  O   UNL     1     -10.842  11.909  68.704  1.00  0.00    -0.216 OA 
BRANCH  16  17
HETATM   17  C   UNL     1     -10.933  11.036  67.551  1.00  0.00    -0.281 C  
HETATM   18  O   UNL     1     -12.398  12.139  66.012  1.00  0.00    -0.550 OA 
HETATM   19  O   UNL     1     -10.103  13.236  66.633  1.00  0.00    -0.255 OA 
HETATM   20  P   UNL     1     -10.881  11.946  65.965  1.00  0.00    -0.311 P  
HETATM   21  O   UNL     1     -10.832  12.807  64.465  1.00  0.00    -0.308 OA 
BRANCH  19  22
HETATM   22  C   UNL     1      -8.695  13.309  66.584  1.00  0.00     0.001 C  
BRANCH  22  23
HETATM   23  O   UNL     1      -8.226  14.661  66.648  1.00  0.00    -0.063 OA 
BRANCH  23  24
HETATM   24  C   UNL     1      -7.412  14.915  67.703  1.00  0.00    -0.185 C  
HETATM   25  O   UNL     1      -6.608  14.130  68.189  1.00  0.00    -0.095 OA 
BRANCH  24  26
HETATM   26  O   UNL     1      -7.643  16.177  68.152  1.00  0.00    -0.132 OA 
BRANCH  26  27
HETATM   27  C   UNL     1      -6.462  16.931  68.505  1.00  0.00    -0.161 C  
HETATM   28  C   UNL     1      -5.559  17.043  67.282  1.00  0.00    -0.176 C  
HETATM   29  C   UNL     1      -6.876  18.318  68.987  1.00  0.00    -0.264 C  
ENDBRANCH  26  27
ENDBRANCH  24  26
ENDBRANCH  23  24
ENDBRANCH  22  23
ENDBRANCH  19  22
BRANCH  21  30
HETATM   30  C   UNL     1     -10.530  11.972  63.367  1.00  0.00    -0.433 C  
BRANCH  30  31
HETATM   31  O   UNL     1      -9.132  11.936  63.101  1.00  0.00    -0.147 OA 
BRANCH  31  32
HETATM   32  C   UNL     1      -8.666  10.713  62.757  1.00  0.00    -0.238 C  
HETATM   33  O   UNL     1      -9.351   9.723  62.537  1.00  0.00    -0.282 OA 
BRANCH  32  34
HETATM   34  O   UNL     1      -7.317  10.794  62.639  1.00  0.00    -0.098 OA 
BRANCH  34  35
HETATM   35  C   UNL     1      -6.549   9.859  63.423  1.00  0.00    -0.126 C  
HETATM   36  C   UNL     1      -5.323  10.599  63.948  1.00  0.00    -0.131 C  
HETATM   37  C   UNL     1      -6.115   8.675  62.565  1.00  0.00    -0.088 C  
ENDBRANCH  34  35
ENDBRANCH  32  34
ENDBRANCH  31  32
ENDBRANCH  30  31
ENDBRANCH  21  30
ENDBRANCH  16  17
ENDBRANCH   1  16
TORSDOF 14
ENDMDL
MODEL      284
REMARK 921   NORMALIZED FREE ENERGY PREDICTED BY IDOCK:   -3.82 KCAL/MOL
REMARK 922        TOTAL FREE ENERGY PREDICTED BY IDOCK:   -8.78 KCAL/MOL
REMARK 923 INTER-LIGAND FREE ENERGY PREDICTED BY IDOCK:   -8.40 KCAL/MOL
REMARK 924 INTRA-LIGAND FREE ENERGY PREDICTED BY IDOCK:   -0.39 KCAL/MOL
REMARK 927      BINDING AFFINITY PREDICTED BY RF-SCORE:    0.00 PKD
ROOT
HETATM    1  C   UNL     1     -10.505  12.744  68.195  1.00  0.00    -0.236 C  
HETATM    2  C   UNL     1     -11.836  12.602  67.460  1.00  0.00    -0.396 C  
ENDROOT
BRANCH   1   3
HETATM    3  C   UNL     1      -9.432  13.463  67.389  1.00  0.00    -0.222 C  
BRANCH   3   4
HETATM    4  N   UNL     1      -9.595  14.885  67.244  1.00  0.00    -0.212 NA 
HETATM    5  C   UNL     1     -10.200  15.447  66.163  1.00  0.00    -0.308 A  
HETATM    6  N   UNL     1     -11.323  17.037  64.354  1.00  0.00    -1.052 NA 
HETATM    7  C   UNL     1      -9.358  15.875  68.155  1.00  0.00    -0.198 A  
HETATM    8  N   UNL     1     -11.013  18.979  65.657  1.00  0.00    -0.271 NA 
HETATM    9  N   UNL     1     -10.638  14.826  65.057  1.00  0.00    -0.414 NA 
HETATM   10  C   UNL     1     -10.880  17.605  65.498  1.00  0.00     0.056 A  
HETATM   11  N   UNL     1      -9.731  17.051  67.705  1.00  0.00    -0.253 NA 
HETATM   12  C   UNL     1     -11.191  15.701  64.205  1.00  0.00    -0.104 A  
HETATM   13  C   UNL     1     -10.282  16.792  66.467  1.00  0.00    -0.316 A  
HETATM   14  H1  UNL     1     -11.450  19.572  64.951  1.00  0.00     0.000 HD 
HETATM   15  H2  UNL     1     -10.087  19.359  65.848  1.00  0.00     0.000 HD 
ENDBRANCH   3   4
ENDBRANCH   1   3
BRANCH   1  16
HETATM   16  O   UNL     1     -10.104  11.441  68.670  1.00  0.00    -0.203 OA 
BRANCH  16  17
HETATM   17  C   UNL     1     -10.669  10.304  67.972  1.00  0.00    -0.255 C  
HETATM   18  O   UNL     1      -8.951   8.637  67.942  1.00  0.00    -0.139 OA 
HETATM   19  O   UNL     1      -9.977   9.402  70.226  1.00  0.00    -0.203 OA 
HETATM   20  P   UNL     1     -10.244   8.707  68.756  1.00  0.00    -0.190 P  
HETATM   21  O   UNL     1      -9.843   7.196  69.497  1.00  0.00    -0.160 OA 
BRANCH  19  22
HETATM   22  C   UNL     1     -11.018   9.455  71.177  1.00  0.00    -0.360 C  
BRANCH  22  23
HETATM   23  O   UNL     1     -10.676   8.764  72.385  1.00  0.00    -0.315 OA 
BRANCH  23  24
HETATM   24  C   UNL     1     -11.382   7.623  72.588  1.00  0.00    -0.370 C  
HETATM   25  O   UNL     1     -12.370   7.273  71.957  1.00  0.00    -0.301 OA 
BRANCH  24  26
HETATM   26  O   UNL     1     -10.829   6.934  73.622  1.00  0.00    -0.315 OA 
BRANCH  26  27
HETATM   27  C   UNL     1      -9.921   5.877  73.242  1.00  0.00    -0.181 C  
HETATM   28  C   UNL     1     -10.695   4.806  72.483  1.00  0.00    -0.240 C  
HETATM   29  C   UNL     1      -8.814   6.454  72.365  1.00  0.00    -0.134 C  
ENDBRANCH  26  27
ENDBRANCH  24  26
ENDBRANCH  23  24
ENDBRANCH  22  23
ENDBRANCH  19  22
BRANCH  21  30
HETATM   30  C   UNL     1     -10.683   6.142  69.077  1.00  0.00    -0.312 C  
BRANCH  30  31
HETATM   31  O   UNL     1     -10.412   5.758  67.732  1.00  0.00    -0.196 OA 
BRANCH  31  32
HETATM   32  C   UNL     1      -9.294   5.010  67.586  1.00  0.00    -0.126 C  
HETATM   33  O   UNL     1      -8.149   5.440  67.527  1.00  0.00    -0.100 OA 
BRANCH  32  34
HETATM   34  O   UNL     1      -9.658   3.704  67.579  1.00  0.00    -0.202 OA 
BRANCH  34  35
HETATM   35  C   UNL     1      -9.583   3.026  66.309  1.00  0.00     0.102 C  
HETATM   36  C   UNL     1      -8.256   2.274  66.269  1.00  0.00    -0.089 C  
HETATM   37  C   UNL     1      -9.647   4.030  65.163  1.00  0.00    -0.181 C  
ENDBRANCH  34  35
ENDBRANCH  32  34
ENDBRANCH  31  32
ENDBRANCH  30  31
ENDBRANCH  21  30
ENDBRANCH  16  17
ENDBRANCH   1  16
TORSDOF 14
ENDMDL
MODEL      285
REMARK 921   NORMALIZED FREE ENERGY PREDICTED BY IDOCK:   -3.81 KCAL/MOL
REMARK 922        TOTAL FREE ENERGY PREDICTED BY IDOCK:   -8.77 KCAL/MOL
REMARK 923 INTER-LIGAND FREE ENERGY PREDICTED BY IDOCK:   -7.45 KCAL/MOL
REMARK 924 INTRA-LIGAND FREE ENERGY PREDICTED BY IDOCK:   -1.32 KCAL/MOL
REMARK 927      BINDING AFFINITY PREDICTED BY RF-SCORE:    0.00 PKD
ROOT
HETATM    1  C   UNL     1     -10.621   9.087  71.282  1.00  0.00    -0.308 C  
HETATM    2  C   UNL     1     -10.713   8.054  72.403  1.00  0.00    -0.386 C  
ENDROOT
BRANCH   1   3
HETATM    3  C   UNL     1     -11.972   9.504  70.718  1.00  0.00    -0.252 C  
BRANCH   3   4
HETATM    4  N   UNL     1     -12.391  10.849  71.007  1.00  0.00    -0.377 NA 
HETATM    5  C   UNL     1     -12.051  11.908  70.222  1.00  0.00    -0.325 A  
HETATM    6  N   UNL     1     -11.744  14.267  69.040  1.00  0.00    -0.297 NA 
HETATM    7  C   UNL     1     -13.281  11.291  71.945  1.00  0.00    -0.386 A  
HETATM    8  N   UNL     1     -13.198  15.369  70.537  1.00  0.00    -0.707 NA 
HETATM    9  N   UNL     1     -11.232  11.906  69.159  1.00  0.00    -0.248 NA 
HETATM   10  C   UNL     1     -12.573  14.205  70.106  1.00  0.00    -0.268 A  
HETATM   11  N   UNL     1     -13.499  12.582  71.840  1.00  0.00    -0.386 NA 
HETATM   12  C   UNL     1     -11.141  13.132  68.625  1.00  0.00    -0.269 A  
HETATM   13  C   UNL     1     -12.751  12.975  70.750  1.00  0.00    -0.165 A  
HETATM   14  H1  UNL     1     -13.069  16.265  70.067  1.00  0.00     0.000 HD 
HETATM   15  H2  UNL     1     -12.963  15.499  71.520  1.00  0.00     0.000 HD 
ENDBRANCH   3   4
ENDBRANCH   1   3
BRANCH   1  16
HETATM   16  O   UNL     1      -9.698   8.598  70.285  1.00  0.00    -0.167 OA 
BRANCH  16  17
HETATM   17  C   UNL     1      -9.567   7.158  70.186  1.00  0.00    -0.168 C  
HETATM   18  O   UNL     1     -11.509   6.407  69.003  1.00  0.00    -0.337 OA 
HETATM   19  O   UNL     1      -9.775   7.956  67.800  1.00  0.00    -0.146 OA 
HETATM   20  P   UNL     1     -10.053   6.513  68.545  1.00  0.00    -0.189 P  
HETATM   21  O   UNL     1     -10.512   5.902  66.992  1.00  0.00    -0.215 OA 
BRANCH  19  22
HETATM   22  C   UNL     1      -8.522   8.205  67.198  1.00  0.00    -0.124 C  
BRANCH  22  23
HETATM   23  O   UNL     1      -8.433   9.538  66.679  1.00  0.00    -0.130 OA 
BRANCH  23  24
HETATM   24  C   UNL     1      -7.182   9.903  66.304  1.00  0.00    -0.102 C  
HETATM   25  O   UNL     1      -6.156   9.686  66.935  1.00  0.00    -0.061 OA 
BRANCH  24  26
HETATM   26  O   UNL     1      -7.247  10.569  65.121  1.00  0.00    -0.113 OA 
BRANCH  26  27
HETATM   27  C   UNL     1      -7.139   9.742  63.941  1.00  0.00    -0.122 C  
HETATM   28  C   UNL     1      -8.443   8.975  63.752  1.00  0.00    -0.168 C  
HETATM   29  C   UNL     1      -6.864  10.627  62.729  1.00  0.00    -0.023 C  
ENDBRANCH  26  27
ENDBRANCH  24  26
ENDBRANCH  23  24
ENDBRANCH  22  23
ENDBRANCH  19  22
BRANCH  21  30
HETATM   30  C   UNL     1     -10.032   4.596  66.757  1.00  0.00    -0.225 C  
BRANCH  30  31
HETATM   31  O   UNL     1     -10.146   3.776  67.915  1.00  0.00     0.077 OA 
BRANCH  31  32
HETATM   32  C   UNL     1      -9.255   2.758  67.962  1.00  0.00    -0.204 C  
HETATM   33  O   UNL     1      -9.023   1.970  67.055  1.00  0.00    -0.128 OA 
BRANCH  32  34
HETATM   34  O   UNL     1      -8.626   2.804  69.163  1.00  0.00    -0.063 OA 
BRANCH  34  35
HETATM   35  C   UNL     1      -9.472   2.899  70.325  1.00  0.00    -0.129 C  
HETATM   36  C   UNL     1      -8.790   3.842  71.313  1.00  0.00    -0.143 C  
HETATM   37  C   UNL     1      -9.660   1.526  70.962  1.00  0.00    -0.195 C  
ENDBRANCH  34  35
ENDBRANCH  32  34
ENDBRANCH  31  32
ENDBRANCH  30  31
ENDBRANCH  21  30
ENDBRANCH  16  17
ENDBRANCH   1  16
TORSDOF 14
ENDMDL
MODEL      286
REMARK 921   NORMALIZED FREE ENERGY PREDICTED BY IDOCK:   -3.81 KCAL/MOL
REMARK 922        TOTAL FREE ENERGY PREDICTED BY IDOCK:   -8.77 KCAL/MOL
REMARK 923 INTER-LIGAND FREE ENERGY PREDICTED BY IDOCK:   -8.13 KCAL/MOL
REMARK 924 INTRA-LIGAND FREE ENERGY PREDICTED BY IDOCK:   -0.64 KCAL/MOL
REMARK 927      BINDING AFFINITY PREDICTED BY RF-SCORE:    0.00 PKD
ROOT
HETATM    1  C   UNL     1      -8.194  10.590  66.291  1.00  0.00    -0.147 C  
HETATM    2  C   UNL     1      -8.256  11.903  67.069  1.00  0.00    -0.170 C  
ENDROOT
BRANCH   1   3
HETATM    3  C   UNL     1      -9.495  10.233  65.584  1.00  0.00    -0.221 C  
BRANCH   3   4
HETATM    4  N   UNL     1     -10.108  11.283  64.817  1.00  0.00    -0.265 NA 
HETATM    5  C   UNL     1     -10.969  12.184  65.363  1.00  0.00    -0.302 A  
HETATM    6  N   UNL     1     -12.621  14.192  65.908  1.00  0.00    -0.470 NA 
HETATM    7  C   UNL     1      -9.848  11.675  63.534  1.00  0.00    -0.370 A  
HETATM    8  N   UNL     1     -12.445  15.115  63.744  1.00  0.00    -1.007 NA 
HETATM    9  N   UNL     1     -11.452  12.196  66.615  1.00  0.00    -0.383 NA 
HETATM   10  C   UNL     1     -12.088  14.140  64.667  1.00  0.00    -0.452 A  
HETATM   11  N   UNL     1     -10.529  12.750  63.206  1.00  0.00    -0.093 NA 
HETATM   12  C   UNL     1     -12.269  13.242  66.802  1.00  0.00    -0.280 A  
HETATM   13  C   UNL     1     -11.217  13.090  64.352  1.00  0.00    -0.358 A  
HETATM   14  H1  UNL     1     -13.079  15.880  63.974  1.00  0.00     0.000 HD 
HETATM   15  H2  UNL     1     -12.819  14.641  62.923  1.00  0.00     0.000 HD 
ENDBRANCH   3   4
ENDBRANCH   1   3
BRANCH   1  16
HETATM   16  O   UNL     1      -7.706   9.558  67.174  1.00  0.00    -0.091 OA 
BRANCH  16  17
HETATM   17  C   UNL     1      -8.325   9.491  68.482  1.00  0.00    -0.118 C  
HETATM   18  O   UNL     1     -10.577   8.773  68.102  1.00  0.00    -0.212 OA 
HETATM   19  O   UNL     1      -8.589   7.171  67.520  1.00  0.00    -0.121 OA 
HETATM   20  P   UNL     1      -9.386   8.015  68.690  1.00  0.00    -0.146 P  
HETATM   21  O   UNL     1     -10.389   6.619  68.888  1.00  0.00    -0.170 OA 
BRANCH  19  22
HETATM   22  C   UNL     1      -7.528   6.311  67.874  1.00  0.00    -0.093 C  
BRANCH  22  23
HETATM   23  O   UNL     1      -6.661   6.045  66.765  1.00  0.00    -0.054 OA 
BRANCH  23  24
HETATM   24  C   UNL     1      -7.013   4.955  66.038  1.00  0.00    -0.066 C  
HETATM   25  O   UNL     1      -7.267   3.847  66.490  1.00  0.00    -0.066 OA 
BRANCH  24  26
HETATM   26  O   UNL     1      -7.019   5.282  64.718  1.00  0.00    -0.048 OA 
BRANCH  26  27
HETATM   27  C   UNL     1      -6.590   6.628  64.415  1.00  0.00    -0.041 C  
HETATM   28  C   UNL     1      -5.410   6.567  63.452  1.00  0.00    -0.026 C  
HETATM   29  C   UNL     1      -7.748   7.397  63.786  1.00  0.00    -0.125 C  
ENDBRANCH  26  27
ENDBRANCH  24  26
ENDBRANCH  23  24
ENDBRANCH  22  23
ENDBRANCH  19  22
BRANCH  21  30
HETATM   30  C   UNL     1     -10.674   6.340  70.242  1.00  0.00    -0.280 C  
BRANCH  30  31
HETATM   31  O   UNL     1     -10.194   7.367  71.104  1.00  0.00    -0.194 OA 
BRANCH  31  32
HETATM   32  C   UNL     1     -11.133   7.874  71.936  1.00  0.00    -0.267 C  
HETATM   33  O   UNL     1     -10.919   8.388  73.026  1.00  0.00    -0.142 OA 
BRANCH  32  34
HETATM   34  O   UNL     1     -12.339   7.768  71.325  1.00  0.00    -0.310 OA 
BRANCH  34  35
HETATM   35  C   UNL     1     -13.184   8.934  71.371  1.00  0.00    -0.262 C  
HETATM   36  C   UNL     1     -12.303  10.150  71.097  1.00  0.00    -0.488 C  
HETATM   37  C   UNL     1     -13.838   9.065  72.743  1.00  0.00    -0.292 C  
ENDBRANCH  34  35
ENDBRANCH  32  34
ENDBRANCH  31  32
ENDBRANCH  30  31
ENDBRANCH  21  30
ENDBRANCH  16  17
ENDBRANCH   1  16
TORSDOF 14
ENDMDL
MODEL      287
REMARK 921   NORMALIZED FREE ENERGY PREDICTED BY IDOCK:   -3.81 KCAL/MOL
REMARK 922        TOTAL FREE ENERGY PREDICTED BY IDOCK:   -8.77 KCAL/MOL
REMARK 923 INTER-LIGAND FREE ENERGY PREDICTED BY IDOCK:   -7.30 KCAL/MOL
REMARK 924 INTRA-LIGAND FREE ENERGY PREDICTED BY IDOCK:   -1.46 KCAL/MOL
REMARK 927      BINDING AFFINITY PREDICTED BY RF-SCORE:    0.00 PKD
ROOT
HETATM    1  C   UNL     1     -10.396   9.347  67.272  1.00  0.00    -0.260 C  
HETATM    2  C   UNL     1      -9.872   9.480  65.843  1.00  0.00    -0.360 C  
ENDROOT
BRANCH   1   3
HETATM    3  C   UNL     1     -11.019  10.625  67.819  1.00  0.00    -0.306 C  
BRANCH   3   4
HETATM    4  N   UNL     1     -10.580  11.853  67.213  1.00  0.00    -0.221 NA 
HETATM    5  C   UNL     1     -11.312  12.510  66.273  1.00  0.00    -0.338 A  
HETATM    6  N   UNL     1     -12.333  14.198  64.493  1.00  0.00    -0.607 NA 
HETATM    7  C   UNL     1      -9.516  12.645  67.545  1.00  0.00    -0.186 A  
HETATM    8  N   UNL     1     -10.601  15.774  64.779  1.00  0.00    -0.689 NA 
HETATM    9  N   UNL     1     -12.458  12.106  65.702  1.00  0.00    -0.349 NA 
HETATM   10  C   UNL     1     -11.189  14.561  65.115  1.00  0.00    -0.367 A  
HETATM   11  N   UNL     1      -9.494  13.752  66.839  1.00  0.00    -0.253 NA 
HETATM   12  C   UNL     1     -12.901  13.018  64.825  1.00  0.00    -0.265 A  
HETATM   13  C   UNL     1     -10.628  13.689  66.055  1.00  0.00    -0.290 A  
HETATM   14  H1  UNL     1     -11.010  16.409  64.094  1.00  0.00     0.000 HD 
HETATM   15  H2  UNL     1      -9.643  15.582  64.487  1.00  0.00     0.000 HD 
ENDBRANCH   3   4
ENDBRANCH   1   3
BRANCH   1  16
HETATM   16  O   UNL     1      -9.341   8.811  68.098  1.00  0.00    -0.139 OA 
BRANCH  16  17
HETATM   17  C   UNL     1      -9.676   8.569  69.486  1.00  0.00    -0.176 C  
HETATM   18  O   UNL     1     -11.535   7.059  69.455  1.00  0.00    -0.147 OA 
HETATM   19  O   UNL     1      -9.214   6.281  68.524  1.00  0.00    -0.125 OA 
HETATM   20  P   UNL     1     -10.071   6.815  69.827  1.00  0.00    -0.193 P  
HETATM   21  O   UNL     1     -10.443   5.157  70.149  1.00  0.00    -0.286 OA 
BRANCH  19  22
HETATM   22  C   UNL     1      -7.869   5.886  68.682  1.00  0.00    -0.102 C  
BRANCH  22  23
HETATM   23  O   UNL     1      -7.710   4.467  68.560  1.00  0.00    -0.074 OA 
BRANCH  23  24
HETATM   24  C   UNL     1      -8.383   3.924  67.515  1.00  0.00    -0.094 C  
HETATM   25  O   UNL     1      -9.347   3.174  67.599  1.00  0.00    -0.189 OA 
BRANCH  24  26
HETATM   26  O   UNL     1      -7.804   4.327  66.353  1.00  0.00    -0.093 OA 
BRANCH  26  27
HETATM   27  C   UNL     1      -7.644   3.297  65.353  1.00  0.00    -0.077 C  
HETATM   28  C   UNL     1      -8.668   3.516  64.245  1.00  0.00    -0.093 C  
HETATM   29  C   UNL     1      -6.229   3.359  64.787  1.00  0.00    -0.023 C  
ENDBRANCH  26  27
ENDBRANCH  24  26
ENDBRANCH  23  24
ENDBRANCH  22  23
ENDBRANCH  19  22
BRANCH  21  30
HETATM   30  C   UNL     1     -10.387   4.843  71.524  1.00  0.00    -0.158 C  
BRANCH  30  31
HETATM   31  O   UNL     1      -9.175   4.176  71.863  1.00  0.00    -0.118 OA 
BRANCH  31  32
HETATM   32  C   UNL     1      -8.669   4.527  73.068  1.00  0.00    -0.112 C  
HETATM   33  O   UNL     1      -8.107   3.775  73.854  1.00  0.00    -0.084 OA 
BRANCH  32  34
HETATM   34  O   UNL     1      -8.839   5.864  73.223  1.00  0.00    -0.128 OA 
BRANCH  34  35
HETATM   35  C   UNL     1      -7.638   6.655  73.315  1.00  0.00    -0.091 C  
HETATM   36  C   UNL     1      -8.052   8.123  73.269  1.00  0.00    -0.246 C  
HETATM   37  C   UNL     1      -6.702   6.341  72.153  1.00  0.00    -0.064 C  
ENDBRANCH  34  35
ENDBRANCH  32  34
ENDBRANCH  31  32
ENDBRANCH  30  31
ENDBRANCH  21  30
ENDBRANCH  16  17
ENDBRANCH   1  16
TORSDOF 14
ENDMDL
MODEL      288
REMARK 921   NORMALIZED FREE ENERGY PREDICTED BY IDOCK:   -3.81 KCAL/MOL
REMARK 922        TOTAL FREE ENERGY PREDICTED BY IDOCK:   -8.76 KCAL/MOL
REMARK 923 INTER-LIGAND FREE ENERGY PREDICTED BY IDOCK:   -8.11 KCAL/MOL
REMARK 924 INTRA-LIGAND FREE ENERGY PREDICTED BY IDOCK:   -0.65 KCAL/MOL
REMARK 927      BINDING AFFINITY PREDICTED BY RF-SCORE:    0.00 PKD
ROOT
HETATM    1  C   UNL     1     -11.754  13.777  66.018  1.00  0.00    -0.363 C  
HETATM    2  C   UNL     1     -12.542  13.378  64.772  1.00  0.00    -0.370 C  
ENDROOT
BRANCH   1   3
HETATM    3  C   UNL     1     -10.503  14.593  65.719  1.00  0.00    -0.325 C  
BRANCH   3   4
HETATM    4  N   UNL     1     -10.641  16.021  65.820  1.00  0.00    -0.356 NA 
HETATM    5  C   UNL     1     -10.150  16.732  66.872  1.00  0.00    -0.286 A  
HETATM    6  N   UNL     1      -9.358  18.579  68.611  1.00  0.00    -0.333 NA 
HETATM    7  C   UNL     1     -11.095  16.911  64.887  1.00  0.00     0.036 A  
HETATM    8  N   UNL     1     -10.089  20.371  67.261  1.00  0.00    -0.412 NA 
HETATM    9  N   UNL     1      -9.574  16.252  67.985  1.00  0.00    -0.223 NA 
HETATM   10  C   UNL     1      -9.928  19.005  67.462  1.00  0.00    -0.349 A  
HETATM   11  N   UNL     1     -10.969  18.152  65.297  1.00  0.00    -0.440 NA 
HETATM   12  C   UNL     1      -9.203  17.250  68.799  1.00  0.00    -0.238 A  
HETATM   13  C   UNL     1     -10.358  18.054  66.529  1.00  0.00    -0.373 A  
HETATM   14  H1  UNL     1      -9.776  21.064  67.940  1.00  0.00     0.000 HD 
HETATM   15  H2  UNL     1     -11.078  20.542  67.080  1.00  0.00     0.000 HD 
ENDBRANCH   3   4
ENDBRANCH   1   3
BRANCH   1  16
HETATM   16  O   UNL     1     -11.502  12.589  66.799  1.00  0.00    -0.319 OA 
BRANCH  16  17
HETATM   17  C   UNL     1     -10.787  11.522  66.129  1.00  0.00    -0.278 C  
HETATM   18  O   UNL     1      -8.496  11.762  66.784  1.00  0.00    -0.176 OA 
HETATM   19  O   UNL     1     -10.306  11.181  68.584  1.00  0.00    -0.188 OA 
HETATM   20  P   UNL     1      -9.538  10.722  67.200  1.00  0.00    -0.165 P  
HETATM   21  O   UNL     1      -8.357   9.965  68.213  1.00  0.00    -0.108 OA 
BRANCH  19  22
HETATM   22  C   UNL     1     -11.224  10.304  69.201  1.00  0.00    -0.215 C  
BRANCH  22  23
HETATM   23  O   UNL     1     -10.952   8.934  68.883  1.00  0.00    -0.083 OA 
BRANCH  23  24
HETATM   24  C   UNL     1     -10.836   8.127  69.967  1.00  0.00    -0.233 C  
HETATM   25  O   UNL     1     -10.567   6.933  69.942  1.00  0.00    -0.211 OA 
BRANCH  24  26
HETATM   26  O   UNL     1     -11.088   8.849  71.091  1.00  0.00    -0.247 OA 
BRANCH  26  27
HETATM   27  C   UNL     1     -10.076   8.765  72.118  1.00  0.00    -0.292 C  
HETATM   28  C   UNL     1     -10.289   7.486  72.920  1.00  0.00    -0.349 C  
HETATM   29  C   UNL     1      -8.696   8.758  71.467  1.00  0.00    -0.274 C  
ENDBRANCH  26  27
ENDBRANCH  24  26
ENDBRANCH  23  24
ENDBRANCH  22  23
ENDBRANCH  19  22
BRANCH  21  30
HETATM   30  C   UNL     1      -7.943   8.708  67.722  1.00  0.00    -0.107 C  
BRANCH  30  31
HETATM   31  O   UNL     1      -7.474   8.796  66.379  1.00  0.00    -0.086 OA 
BRANCH  31  32
HETATM   32  C   UNL     1      -8.074   7.933  65.527  1.00  0.00    -0.130 C  
HETATM   33  O   UNL     1      -8.661   8.238  64.497  1.00  0.00    -0.083 OA 
BRANCH  32  34
HETATM   34  O   UNL     1      -7.857   6.674  65.981  1.00  0.00    -0.096 OA 
BRANCH  34  35
HETATM   35  C   UNL     1      -8.802   5.670  65.560  1.00  0.00    -0.130 C  
HETATM   36  C   UNL     1      -9.959   5.684  66.555  1.00  0.00    -0.210 C  
HETATM   37  C   UNL     1      -8.146   4.293  65.543  1.00  0.00    -0.101 C  
ENDBRANCH  34  35
ENDBRANCH  32  34
ENDBRANCH  31  32
ENDBRANCH  30  31
ENDBRANCH  21  30
ENDBRANCH  16  17
ENDBRANCH   1  16
TORSDOF 14
ENDMDL
MODEL      289
REMARK 921   NORMALIZED FREE ENERGY PREDICTED BY IDOCK:   -3.81 KCAL/MOL
REMARK 922        TOTAL FREE ENERGY PREDICTED BY IDOCK:   -8.76 KCAL/MOL
REMARK 923 INTER-LIGAND FREE ENERGY PREDICTED BY IDOCK:   -7.80 KCAL/MOL
REMARK 924 INTRA-LIGAND FREE ENERGY PREDICTED BY IDOCK:   -0.97 KCAL/MOL
REMARK 927      BINDING AFFINITY PREDICTED BY RF-SCORE:    0.00 PKD
ROOT
HETATM    1  C   UNL     1      -8.177  11.370  68.679  1.00  0.00    -0.142 C  
HETATM    2  C   UNL     1      -6.801  10.780  68.376  1.00  0.00    -0.068 C  
ENDROOT
BRANCH   1   3
HETATM    3  C   UNL     1      -9.335  10.469  68.272  1.00  0.00    -0.156 C  
BRANCH   3   4
HETATM    4  N   UNL     1      -9.781  10.588  66.910  1.00  0.00    -0.175 NA 
HETATM    5  C   UNL     1      -9.123  10.009  65.870  1.00  0.00    -0.159 A  
HETATM    6  N   UNL     1      -8.290   9.066  63.529  1.00  0.00    -0.183 NA 
HETATM    7  C   UNL     1     -10.949  11.110  66.429  1.00  0.00    -0.186 A  
HETATM    8  N   UNL     1     -10.168   9.892  62.364  1.00  0.00    -0.188 NA 
HETATM    9  N   UNL     1      -7.955   9.347  65.908  1.00  0.00    -0.105 NA 
HETATM   10  C   UNL     1      -9.470   9.725  63.554  1.00  0.00     0.051 A  
HETATM   11  N   UNL     1     -11.059  10.944  65.131  1.00  0.00     0.039 NA 
HETATM   12  C   UNL     1      -7.617   8.905  64.689  1.00  0.00    -0.108 A  
HETATM   13  C   UNL     1      -9.931  10.235  64.773  1.00  0.00    -0.321 A  
HETATM   14  H1  UNL     1      -9.832   9.520  61.476  1.00  0.00     0.000 HD 
HETATM   15  H2  UNL     1     -10.329  10.891  62.239  1.00  0.00     0.000 HD 
ENDBRANCH   3   4
ENDBRANCH   1   3
BRANCH   1  16
HETATM   16  O   UNL     1      -8.241  12.696  68.112  1.00  0.00    -0.155 OA 
BRANCH  16  17
HETATM   17  C   UNL     1      -7.124  13.570  68.403  1.00  0.00    -0.107 C  
HETATM   18  O   UNL     1      -7.157  15.259  66.705  1.00  0.00    -0.094 OA 
HETATM   19  O   UNL     1      -9.146  15.082  68.400  1.00  0.00    -0.173 OA 
HETATM   20  P   UNL     1      -7.532  15.340  68.186  1.00  0.00    -0.133 P  
HETATM   21  O   UNL     1      -7.918  17.015  67.982  1.00  0.00    -0.185 OA 
BRANCH  19  22
HETATM   22  C   UNL     1      -9.717  15.230  69.682  1.00  0.00    -0.200 C  
BRANCH  22  23
HETATM   23  O   UNL     1     -10.928  14.478  69.819  1.00  0.00    -0.230 OA 
BRANCH  23  24
HETATM   24  C   UNL     1     -12.057  15.210  69.640  1.00  0.00    -0.304 C  
HETATM   25  O   UNL     1     -12.164  16.191  68.916  1.00  0.00    -0.103 OA 
BRANCH  24  26
HETATM   26  O   UNL     1     -13.050  14.694  70.411  1.00  0.00    -0.291 OA 
BRANCH  26  27
HETATM   27  C   UNL     1     -12.705  14.476  71.797  1.00  0.00    -0.343 C  
HETATM   28  C   UNL     1     -12.844  15.791  72.556  1.00  0.00    -0.545 C  
HETATM   29  C   UNL     1     -13.635  13.422  72.388  1.00  0.00    -0.708 C  
ENDBRANCH  26  27
ENDBRANCH  24  26
ENDBRANCH  23  24
ENDBRANCH  22  23
ENDBRANCH  19  22
BRANCH  21  30
HETATM   30  C   UNL     1      -6.994  17.869  68.621  1.00  0.00    -0.252 C  
BRANCH  30  31
HETATM   31  O   UNL     1      -6.912  19.135  67.973  1.00  0.00    -0.226 OA 
BRANCH  31  32
HETATM   32  C   UNL     1      -7.526  19.179  66.768  1.00  0.00    -0.224 C  
HETATM   33  O   UNL     1      -7.183  18.562  65.768  1.00  0.00    -0.416 OA 
BRANCH  32  34
HETATM   34  O   UNL     1      -8.618  19.975  66.881  1.00  0.00    -0.313 OA 
BRANCH  34  35
HETATM   35  C   UNL     1      -9.896  19.340  66.678  1.00  0.00    -0.367 C  
HETATM   36  C   UNL     1     -10.601  20.080  65.545  1.00  0.00    -0.300 C  
HETATM   37  C   UNL     1     -10.735  19.413  67.950  1.00  0.00    -0.427 C  
ENDBRANCH  34  35
ENDBRANCH  32  34
ENDBRANCH  31  32
ENDBRANCH  30  31
ENDBRANCH  21  30
ENDBRANCH  16  17
ENDBRANCH   1  16
TORSDOF 14
ENDMDL
MODEL      290
REMARK 921   NORMALIZED FREE ENERGY PREDICTED BY IDOCK:   -3.80 KCAL/MOL
REMARK 922        TOTAL FREE ENERGY PREDICTED BY IDOCK:   -8.75 KCAL/MOL
REMARK 923 INTER-LIGAND FREE ENERGY PREDICTED BY IDOCK:   -7.53 KCAL/MOL
REMARK 924 INTRA-LIGAND FREE ENERGY PREDICTED BY IDOCK:   -1.21 KCAL/MOL
REMARK 927      BINDING AFFINITY PREDICTED BY RF-SCORE:    0.00 PKD
ROOT
HETATM    1  C   UNL     1      -9.727   6.532  68.638  1.00  0.00    -0.127 C  
HETATM    2  C   UNL     1     -11.047   6.483  67.871  1.00  0.00    -0.352 C  
ENDROOT
BRANCH   1   3
HETATM    3  C   UNL     1      -9.848   7.138  70.030  1.00  0.00    -0.178 C  
BRANCH   3   4
HETATM    4  N   UNL     1     -10.424   6.293  71.041  1.00  0.00    -0.217 NA 
HETATM    5  C   UNL     1      -9.795   5.184  71.515  1.00  0.00    -0.176 A  
HETATM    6  N   UNL     1      -9.011   3.002  72.813  1.00  0.00    -0.086 NA 
HETATM    7  C   UNL     1     -11.542   6.498  71.799  1.00  0.00    -0.312 A  
HETATM    8  N   UNL     1     -10.870   3.023  74.266  1.00  0.00    -0.146 NA 
HETATM    9  N   UNL     1      -8.641   4.651  71.082  1.00  0.00    -0.110 NA 
HETATM   10  C   UNL     1     -10.157   3.593  73.218  1.00  0.00    -0.139 A  
HETATM   11  N   UNL     1     -11.696   5.559  72.704  1.00  0.00    -0.252 NA 
HETATM   12  C   UNL     1      -8.322   3.561  71.795  1.00  0.00    -0.066 A  
HETATM   13  C   UNL     1     -10.595   4.742  72.550  1.00  0.00    -0.200 A  
HETATM   14  H1  UNL     1     -10.550   2.186  74.754  1.00  0.00     0.000 HD 
HETATM   15  H2  UNL     1     -11.817   2.843  73.934  1.00  0.00     0.000 HD 
ENDBRANCH   3   4
ENDBRANCH   1   3
BRANCH   1  16
HETATM   16  O   UNL     1      -8.737   7.173  67.805  1.00  0.00    -0.125 OA 
BRANCH  16  17
HETATM   17  C   UNL     1      -7.951   8.215  68.434  1.00  0.00    -0.123 C  
HETATM   18  O   UNL     1      -6.440   8.998  66.749  1.00  0.00    -0.062 OA 
HETATM   19  O   UNL     1      -9.019   9.325  66.433  1.00  0.00    -0.142 OA 
HETATM   20  P   UNL     1      -7.686   9.659  67.342  1.00  0.00    -0.094 P  
HETATM   21  O   UNL     1      -7.435  11.026  66.311  1.00  0.00    -0.144 OA 
BRANCH  19  22
HETATM   22  C   UNL     1     -10.252   9.937  66.744  1.00  0.00    -0.236 C  
BRANCH  22  23
HETATM   23  O   UNL     1     -10.612  10.936  65.781  1.00  0.00    -0.232 OA 
BRANCH  23  24
HETATM   24  C   UNL     1     -11.314  11.975  66.298  1.00  0.00    -0.357 C  
HETATM   25  O   UNL     1     -12.031  11.929  67.289  1.00  0.00    -0.605 OA 
BRANCH  24  26
HETATM   26  O   UNL     1     -11.113  13.077  65.528  1.00  0.00    -0.274 OA 
BRANCH  26  27
HETATM   27  C   UNL     1     -12.226  13.452  64.686  1.00  0.00    -0.407 C  
HETATM   28  C   UNL     1     -12.206  14.963  64.481  1.00  0.00    -0.396 C  
HETATM   29  C   UNL     1     -12.109  12.733  63.346  1.00  0.00    -0.619 C  
ENDBRANCH  26  27
ENDBRANCH  24  26
ENDBRANCH  23  24
ENDBRANCH  22  23
ENDBRANCH  19  22
BRANCH  21  30
HETATM   30  C   UNL     1      -7.025  12.176  67.020  1.00  0.00    -0.068 C  
BRANCH  30  31
HETATM   31  O   UNL     1      -8.138  12.934  67.483  1.00  0.00    -0.158 OA 
BRANCH  31  32
HETATM   32  C   UNL     1      -7.805  14.125  68.032  1.00  0.00    -0.146 C  
HETATM   33  O   UNL     1      -7.160  14.283  69.060  1.00  0.00    -0.109 OA 
BRANCH  32  34
HETATM   34  O   UNL     1      -8.257  15.107  67.213  1.00  0.00    -0.177 OA 
BRANCH  34  35
HETATM   35  C   UNL     1      -9.438  15.810  67.647  1.00  0.00    -0.218 C  
HETATM   36  C   UNL     1      -8.979  17.049  68.411  1.00  0.00    -0.247 C  
HETATM   37  C   UNL     1     -10.283  14.922  68.555  1.00  0.00    -0.235 C  
ENDBRANCH  34  35
ENDBRANCH  32  34
ENDBRANCH  31  32
ENDBRANCH  30  31
ENDBRANCH  21  30
ENDBRANCH  16  17
ENDBRANCH   1  16
TORSDOF 14
ENDMDL
MODEL      291
REMARK 921   NORMALIZED FREE ENERGY PREDICTED BY IDOCK:   -3.79 KCAL/MOL
REMARK 922        TOTAL FREE ENERGY PREDICTED BY IDOCK:   -8.73 KCAL/MOL
REMARK 923 INTER-LIGAND FREE ENERGY PREDICTED BY IDOCK:   -8.05 KCAL/MOL
REMARK 924 INTRA-LIGAND FREE ENERGY PREDICTED BY IDOCK:   -0.68 KCAL/MOL
REMARK 927      BINDING AFFINITY PREDICTED BY RF-SCORE:    0.00 PKD
ROOT
HETATM    1  C   UNL     1      -6.431  13.657  67.691  1.00  0.00    -0.153 C  
HETATM    2  C   UNL     1      -6.314  12.496  66.706  1.00  0.00     0.524 C  
ENDROOT
BRANCH   1   3
HETATM    3  C   UNL     1      -7.287  13.345  68.911  1.00  0.00    -0.033 C  
BRANCH   3   4
HETATM    4  N   UNL     1      -8.117  12.174  68.819  1.00  0.00    -0.033 NA 
HETATM    5  C   UNL     1      -7.781  10.989  69.397  1.00  0.00    -0.020 A  
HETATM    6  N   UNL     1      -7.651   8.513  70.353  1.00  0.00    -0.070 NA 
HETATM    7  C   UNL     1      -9.386  12.055  68.326  1.00  0.00    -0.197 A  
HETATM    8  N   UNL     1      -9.808   7.948  69.581  1.00  0.00    -0.177 NA 
HETATM    9  N   UNL     1      -6.638  10.686  70.034  1.00  0.00    -0.138 NA 
HETATM   10  C   UNL     1      -8.787   8.880  69.719  1.00  0.00    -0.144 A  
HETATM   11  N   UNL     1      -9.870  10.847  68.512  1.00  0.00    -0.177 NA 
HETATM   12  C   UNL     1      -6.663   9.424  70.485  1.00  0.00    -0.087 A  
HETATM   13  C   UNL     1      -8.881  10.178  69.202  1.00  0.00    -0.175 A  
HETATM   14  H1  UNL     1      -9.740   7.002  69.957  1.00  0.00     0.000 HD 
HETATM   15  H2  UNL     1     -10.022   7.869  68.587  1.00  0.00     0.000 HD 
ENDBRANCH   3   4
ENDBRANCH   1   3
BRANCH   1  16
HETATM   16  O   UNL     1      -6.856  14.831  66.965  1.00  0.00    -0.157 OA 
BRANCH  16  17
HETATM   17  C   UNL     1      -6.340  16.098  67.441  1.00  0.00    -0.176 C  
HETATM   18  O   UNL     1      -5.751  17.341  65.480  1.00  0.00     0.006 OA 
HETATM   19  O   UNL     1      -8.255  16.710  65.913  1.00  0.00    -0.405 OA 
HETATM   20  P   UNL     1      -6.923  17.520  66.447  1.00  0.00    -0.306 P  
HETATM   21  O   UNL     1      -7.474  18.865  65.509  1.00  0.00    -0.484 OA 
BRANCH  19  22
HETATM   22  C   UNL     1      -9.480  16.843  66.602  1.00  0.00    -0.265 C  
BRANCH  22  23
HETATM   23  O   UNL     1     -10.361  15.742  66.345  1.00  0.00    -0.280 OA 
BRANCH  23  24
HETATM   24  C   UNL     1     -10.656  15.565  65.033  1.00  0.00    -0.409 C  
HETATM   25  O   UNL     1     -11.235  16.372  64.317  1.00  0.00    -0.861 OA 
BRANCH  24  26
HETATM   26  O   UNL     1     -10.225  14.337  64.640  1.00  0.00    -0.387 OA 
BRANCH  26  27
HETATM   27  C   UNL     1     -11.266  13.414  64.252  1.00  0.00    -0.380 C  
HETATM   28  C   UNL     1     -10.624  12.136  63.721  1.00  0.00    -0.482 C  
HETATM   29  C   UNL     1     -12.142  13.104  65.461  1.00  0.00    -0.490 C  
ENDBRANCH  26  27
ENDBRANCH  24  26
ENDBRANCH  23  24
ENDBRANCH  22  23
ENDBRANCH  19  22
BRANCH  21  30
HETATM   30  C   UNL     1      -7.308  20.099  66.174  1.00  0.00    -0.284 C  
BRANCH  30  31
HETATM   31  O   UNL     1      -6.292  20.027  67.170  1.00  0.00    -0.186 OA 
BRANCH  31  32
HETATM   32  C   UNL     1      -6.764  19.886  68.430  1.00  0.00    -0.297 C  
HETATM   33  O   UNL     1      -7.943  19.794  68.746  1.00  0.00    -0.307 OA 
BRANCH  32  34
HETATM   34  O   UNL     1      -5.702  19.804  69.271  1.00  0.00    -0.212 OA 
BRANCH  34  35
HETATM   35  C   UNL     1      -5.957  19.234  70.569  1.00  0.00    -0.126 C  
HETATM   36  C   UNL     1      -5.485  20.241  71.613  1.00  0.00    -0.401 C  
HETATM   37  C   UNL     1      -5.200  17.920  70.733  1.00  0.00    -0.279 C  
ENDBRANCH  34  35
ENDBRANCH  32  34
ENDBRANCH  31  32
ENDBRANCH  30  31
ENDBRANCH  21  30
ENDBRANCH  16  17
ENDBRANCH   1  16
TORSDOF 14
ENDMDL
MODEL      292
REMARK 921   NORMALIZED FREE ENERGY PREDICTED BY IDOCK:   -3.76 KCAL/MOL
REMARK 922        TOTAL FREE ENERGY PREDICTED BY IDOCK:   -8.68 KCAL/MOL
REMARK 923 INTER-LIGAND FREE ENERGY PREDICTED BY IDOCK:   -7.25 KCAL/MOL
REMARK 924 INTRA-LIGAND FREE ENERGY PREDICTED BY IDOCK:   -1.43 KCAL/MOL
REMARK 927      BINDING AFFINITY PREDICTED BY RF-SCORE:    0.00 PKD
ROOT
HETATM    1  C   UNL     1     -11.122  10.981  69.191  1.00  0.00    -0.243 C  
HETATM    2  C   UNL     1     -11.889  11.200  70.494  1.00  0.00    -0.448 C  
ENDROOT
BRANCH   1   3
HETATM    3  C   UNL     1     -11.907  11.363  67.944  1.00  0.00    -0.165 C  
BRANCH   3   4
HETATM    4  N   UNL     1     -11.399  12.480  67.193  1.00  0.00    -0.304 NA 
HETATM    5  C   UNL     1     -11.460  13.760  67.651  1.00  0.00    -0.323 A  
HETATM    6  N   UNL     1     -11.265  16.376  68.073  1.00  0.00    -0.289 NA 
HETATM    7  C   UNL     1     -10.656  12.479  66.046  1.00  0.00    -0.263 A  
HETATM    8  N   UNL     1     -10.002  16.744  66.113  1.00  0.00    -0.330 NA 
HETATM    9  N   UNL     1     -12.058  14.200  68.769  1.00  0.00    -0.327 NA 
HETATM   10  C   UNL     1     -10.664  15.873  66.971  1.00  0.00    -0.292 A  
HETATM   11  N   UNL     1     -10.275  13.691  65.712  1.00  0.00    -0.301 NA 
HETATM   12  C   UNL     1     -11.906  15.525  68.903  1.00  0.00    -0.338 A  
HETATM   13  C   UNL     1     -10.754  14.499  66.722  1.00  0.00    -0.291 A  
HETATM   14  H1  UNL     1      -9.936  17.745  66.294  1.00  0.00     0.000 HD 
HETATM   15  H2  UNL     1     -10.402  16.624  65.183  1.00  0.00     0.000 HD 
ENDBRANCH   3   4
ENDBRANCH   1   3
BRANCH   1  16
HETATM   16  O   UNL     1     -10.626   9.625  69.176  1.00  0.00    -0.209 OA 
BRANCH  16  17
HETATM   17  C   UNL     1     -10.387   9.017  70.469  1.00  0.00    -0.218 C  
HETATM   18  O   UNL     1     -11.983   7.242  70.660  1.00  0.00    -0.291 OA 
HETATM   19  O   UNL     1     -10.133   7.131  68.810  1.00  0.00    -0.163 OA 
HETATM   20  P   UNL     1     -10.472   7.190  70.422  1.00  0.00    -0.229 P  
HETATM   21  O   UNL     1     -10.552   5.463  70.377  1.00  0.00    -0.280 OA 
BRANCH  19  22
HETATM   22  C   UNL     1      -8.800   6.961  68.379  1.00  0.00    -0.123 C  
BRANCH  22  23
HETATM   23  O   UNL     1      -8.674   5.885  67.441  1.00  0.00    -0.110 OA 
BRANCH  23  24
HETATM   24  C   UNL     1      -8.512   6.288  66.156  1.00  0.00    -0.138 C  
HETATM   25  O   UNL     1      -8.394   5.551  65.187  1.00  0.00    -0.135 OA 
BRANCH  24  26
HETATM   26  O   UNL     1      -8.481   7.647  66.114  1.00  0.00    -0.128 OA 
BRANCH  26  27
HETATM   27  C   UNL     1      -8.196   8.218  64.818  1.00  0.00    -0.144 C  
HETATM   28  C   UNL     1      -9.062   9.457  64.620  1.00  0.00    -0.228 C  
HETATM   29  C   UNL     1      -6.718   8.587  64.745  1.00  0.00    -0.068 C  
ENDBRANCH  26  27
ENDBRANCH  24  26
ENDBRANCH  23  24
ENDBRANCH  22  23
ENDBRANCH  19  22
BRANCH  21  30
HETATM   30  C   UNL     1      -9.951   4.860  71.503  1.00  0.00    -0.194 C  
BRANCH  30  31
HETATM   31  O   UNL     1      -9.934   3.440  71.394  1.00  0.00    -0.169 OA 
BRANCH  31  32
HETATM   32  C   UNL     1      -8.693   2.902  71.368  1.00  0.00    -0.070 C  
HETATM   33  O   UNL     1      -7.834   3.047  72.228  1.00  0.00    -0.053 OA 
BRANCH  32  34
HETATM   34  O   UNL     1      -8.591   2.129  70.259  1.00  0.00    -0.048 OA 
BRANCH  34  35
HETATM   35  C   UNL     1      -8.153   2.791  69.056  1.00  0.00    -0.055 C  
HETATM   36  C   UNL     1      -9.177   2.486  67.966  1.00  0.00    -0.254 C  
HETATM   37  C   UNL     1      -6.778   2.282  68.637  1.00  0.00    -0.029 C  
ENDBRANCH  34  35
ENDBRANCH  32  34
ENDBRANCH  31  32
ENDBRANCH  30  31
ENDBRANCH  21  30
ENDBRANCH  16  17
ENDBRANCH   1  16
TORSDOF 14
ENDMDL
MODEL      293
REMARK 921   NORMALIZED FREE ENERGY PREDICTED BY IDOCK:   -3.74 KCAL/MOL
REMARK 922        TOTAL FREE ENERGY PREDICTED BY IDOCK:   -8.65 KCAL/MOL
REMARK 923 INTER-LIGAND FREE ENERGY PREDICTED BY IDOCK:   -7.97 KCAL/MOL
REMARK 924 INTRA-LIGAND FREE ENERGY PREDICTED BY IDOCK:   -0.68 KCAL/MOL
REMARK 927      BINDING AFFINITY PREDICTED BY RF-SCORE:    0.00 PKD
ROOT
HETATM    1  C   UNL     1     -10.738  11.064  68.379  1.00  0.00    -0.203 C  
HETATM    2  C   UNL     1     -10.636  11.298  69.885  1.00  0.00     0.253 C  
ENDROOT
BRANCH   1   3
HETATM    3  C   UNL     1     -11.969  11.694  67.741  1.00  0.00    -0.047 C  
BRANCH   3   4
HETATM    4  N   UNL     1     -11.755  12.930  67.038  1.00  0.00    -0.371 NA 
HETATM    5  C   UNL     1     -12.022  13.075  65.712  1.00  0.00    -0.429 A  
HETATM    6  N   UNL     1     -12.415  13.914  63.221  1.00  0.00    -0.731 NA 
HETATM    7  C   UNL     1     -11.435  14.161  67.539  1.00  0.00    -0.340 A  
HETATM    8  N   UNL     1     -11.858  16.149  63.733  1.00  0.00    -1.368 NA 
HETATM    9  N   UNL     1     -12.413  12.124  64.849  1.00  0.00    -0.457 NA 
HETATM   10  C   UNL     1     -12.039  14.832  64.139  1.00  0.00    -0.299 A  
HETATM   11  N   UNL     1     -11.433  15.082  66.603  1.00  0.00    -0.302 NA 
HETATM   12  C   UNL     1     -12.591  12.636  63.623  1.00  0.00    -0.337 A  
HETATM   13  C   UNL     1     -11.822  14.418  65.458  1.00  0.00    -0.357 A  
HETATM   14  H1  UNL     1     -12.017  16.452  62.772  1.00  0.00     0.000 HD 
HETATM   15  H2  UNL     1     -10.910  16.424  63.990  1.00  0.00     0.000 HD 
ENDBRANCH   3   4
ENDBRANCH   1   3
BRANCH   1  16
HETATM   16  O   UNL     1     -10.610   9.648  68.127  1.00  0.00    -0.211 OA 
BRANCH  16  17
HETATM   17  C   UNL     1     -10.569   9.248  66.735  1.00  0.00    -0.137 C  
HETATM   18  O   UNL     1      -8.305   8.593  66.310  1.00  0.00    -0.114 OA 
HETATM   19  O   UNL     1      -9.753   7.229  68.013  1.00  0.00    -0.138 OA 
HETATM   20  P   UNL     1      -9.568   7.742  66.458  1.00  0.00    -0.132 P  
HETATM   21  O   UNL     1      -8.622   6.317  66.195  1.00  0.00    -0.131 OA 
BRANCH  19  22
HETATM   22  C   UNL     1     -10.794   6.333  68.338  1.00  0.00    -0.319 C  
BRANCH  22  23
HETATM   23  O   UNL     1     -10.344   4.973  68.354  1.00  0.00    -0.119 OA 
BRANCH  23  24
HETATM   24  C   UNL     1      -9.919   4.546  69.570  1.00  0.00    -0.165 C  
HETATM   25  O   UNL     1      -9.518   3.419  69.830  1.00  0.00    -0.167 OA 
BRANCH  24  26
HETATM   26  O   UNL     1     -10.029   5.564  70.464  1.00  0.00    -0.186 OA 
BRANCH  26  27
HETATM   27  C   UNL     1     -10.585   5.200  71.747  1.00  0.00    -0.168 C  
HETATM   28  C   UNL     1      -9.472   5.206  72.790  1.00  0.00    -0.159 C  
HETATM   29  C   UNL     1     -11.673   6.199  72.127  1.00  0.00    -0.361 C  
ENDBRANCH  26  27
ENDBRANCH  24  26
ENDBRANCH  23  24
ENDBRANCH  22  23
ENDBRANCH  19  22
BRANCH  21  30
HETATM   30  C   UNL     1      -8.888   5.708  64.950  1.00  0.00     0.031 C  
BRANCH  30  31
HETATM   31  O   UNL     1      -8.212   4.461  64.819  1.00  0.00    -0.100 OA 
BRANCH  31  32
HETATM   32  C   UNL     1      -8.366   3.635  65.880  1.00  0.00    -0.106 C  
HETATM   33  O   UNL     1      -9.410   3.091  66.216  1.00  0.00    -0.145 OA 
BRANCH  32  34
HETATM   34  O   UNL     1      -7.154   3.470  66.465  1.00  0.00    -0.060 OA 
BRANCH  34  35
HETATM   35  C   UNL     1      -6.629   4.605  67.181  1.00  0.00    -0.050 C  
HETATM   36  C   UNL     1      -5.323   5.010  66.504  1.00  0.00    -0.009 C  
HETATM   37  C   UNL     1      -6.368   4.242  68.639  1.00  0.00    -0.036 C  
ENDBRANCH  34  35
ENDBRANCH  32  34
ENDBRANCH  31  32
ENDBRANCH  30  31
ENDBRANCH  21  30
ENDBRANCH  16  17
ENDBRANCH   1  16
TORSDOF 14
ENDMDL
MODEL      294
REMARK 921   NORMALIZED FREE ENERGY PREDICTED BY IDOCK:   -3.73 KCAL/MOL
REMARK 922        TOTAL FREE ENERGY PREDICTED BY IDOCK:   -8.63 KCAL/MOL
REMARK 923 INTER-LIGAND FREE ENERGY PREDICTED BY IDOCK:   -8.08 KCAL/MOL
REMARK 924 INTRA-LIGAND FREE ENERGY PREDICTED BY IDOCK:   -0.55 KCAL/MOL
REMARK 927      BINDING AFFINITY PREDICTED BY RF-SCORE:    0.00 PKD
ROOT
HETATM    1  C   UNL     1      -8.848  10.101  65.570  1.00  0.00    -0.169 C  
HETATM    2  C   UNL     1      -7.391  10.449  65.872  1.00  0.00    -0.135 C  
ENDROOT
BRANCH   1   3
HETATM    3  C   UNL     1      -9.852  10.874  66.415  1.00  0.00    -0.207 C  
BRANCH   3   4
HETATM    4  N   UNL     1     -10.089  12.238  66.025  1.00  0.00    -0.243 NA 
HETATM    5  C   UNL     1     -10.979  12.578  65.053  1.00  0.00    -0.294 A  
HETATM    6  N   UNL     1     -12.593  13.784  63.321  1.00  0.00    -0.734 NA 
HETATM    7  C   UNL     1      -9.646  13.391  66.611  1.00  0.00    -0.270 A  
HETATM    8  N   UNL     1     -12.004  15.947  64.056  1.00  0.00    -1.135 NA 
HETATM    9  N   UNL     1     -11.679  11.752  64.261  1.00  0.00    -0.287 NA 
HETATM   10  C   UNL     1     -11.877  14.567  64.158  1.00  0.00    -0.267 A  
HETATM   11  N   UNL     1     -10.162  14.456  66.041  1.00  0.00    -0.302 NA 
HETATM   12  C   UNL     1     -12.467  12.443  63.426  1.00  0.00    -0.446 A  
HETATM   13  C   UNL     1     -11.016  13.959  65.079  1.00  0.00    -0.368 A  
HETATM   14  H1  UNL     1     -12.631  16.391  63.386  1.00  0.00     0.000 HD 
HETATM   15  H2  UNL     1     -11.071  16.333  63.908  1.00  0.00     0.000 HD 
ENDBRANCH   3   4
ENDBRANCH   1   3
BRANCH   1  16
HETATM   16  O   UNL     1      -9.001   8.668  65.648  1.00  0.00    -0.189 OA 
BRANCH  16  17
HETATM   17  C   UNL     1     -10.035   8.183  66.539  1.00  0.00    -0.232 C  
HETATM   18  O   UNL     1     -10.018   5.798  66.321  1.00  0.00    -0.150 OA 
HETATM   19  O   UNL     1      -7.925   7.026  67.305  1.00  0.00    -0.108 OA 
HETATM   20  P   UNL     1      -9.529   6.688  67.466  1.00  0.00    -0.132 P  
HETATM   21  O   UNL     1      -9.052   5.275  68.343  1.00  0.00    -0.108 OA 
BRANCH  19  22
HETATM   22  C   UNL     1      -7.252   7.738  68.321  1.00  0.00    -0.089 C  
BRANCH  22  23
HETATM   23  O   UNL     1      -8.159   8.260  69.300  1.00  0.00    -0.112 OA 
BRANCH  23  24
HETATM   24  C   UNL     1      -7.681   8.228  70.569  1.00  0.00    -0.081 C  
HETATM   25  O   UNL     1      -6.934   7.374  71.029  1.00  0.00    -0.057 OA 
BRANCH  24  26
HETATM   26  O   UNL     1      -8.181   9.286  71.261  1.00  0.00    -0.324 OA 
BRANCH  26  27
HETATM   27  C   UNL     1      -9.585   9.199  71.591  1.00  0.00    -0.156 C  
HETATM   28  C   UNL     1     -10.405   9.322  70.312  1.00  0.00    -0.272 C  
HETATM   29  C   UNL     1      -9.861   7.861  72.271  1.00  0.00    -0.276 C  
ENDBRANCH  26  27
ENDBRANCH  24  26
ENDBRANCH  23  24
ENDBRANCH  22  23
ENDBRANCH  19  22
BRANCH  21  30
HETATM   30  C   UNL     1      -9.869   5.030  69.468  1.00  0.00    -0.211 C  
BRANCH  30  31
HETATM   31  O   UNL     1      -9.571   3.774  70.071  1.00  0.00    -0.186 OA 
BRANCH  31  32
HETATM   32  C   UNL     1      -9.966   3.673  71.361  1.00  0.00    -0.093 C  
HETATM   33  O   UNL     1     -10.590   4.521  71.986  1.00  0.00    -0.145 OA 
BRANCH  32  34
HETATM   34  O   UNL     1      -9.604   2.449  71.818  1.00  0.00    -0.115 OA 
BRANCH  34  35
HETATM   35  C   UNL     1      -8.386   2.387  72.586  1.00  0.00    -0.062 C  
HETATM   36  C   UNL     1      -8.771   2.443  74.062  1.00  0.00    -0.070 C  
HETATM   37  C   UNL     1      -7.477   3.562  72.240  1.00  0.00    -0.057 C  
ENDBRANCH  34  35
ENDBRANCH  32  34
ENDBRANCH  31  32
ENDBRANCH  30  31
ENDBRANCH  21  30
ENDBRANCH  16  17
ENDBRANCH   1  16
TORSDOF 14
ENDMDL
MODEL      295
REMARK 921   NORMALIZED FREE ENERGY PREDICTED BY IDOCK:   -3.73 KCAL/MOL
REMARK 922        TOTAL FREE ENERGY PREDICTED BY IDOCK:   -8.63 KCAL/MOL
REMARK 923 INTER-LIGAND FREE ENERGY PREDICTED BY IDOCK:   -7.51 KCAL/MOL
REMARK 924 INTRA-LIGAND FREE ENERGY PREDICTED BY IDOCK:   -1.12 KCAL/MOL
REMARK 927      BINDING AFFINITY PREDICTED BY RF-SCORE:    0.00 PKD
ROOT
HETATM    1  C   UNL     1      -7.514  12.000  69.194  1.00  0.00     0.096 C  
HETATM    2  C   UNL     1      -6.242  11.512  68.504  1.00  0.00    -0.050 C  
ENDROOT
BRANCH   1   3
HETATM    3  C   UNL     1      -8.658  10.995  69.156  1.00  0.00     0.003 C  
BRANCH   3   4
HETATM    4  N   UNL     1      -8.341   9.695  68.629  1.00  0.00    -0.112 NA 
HETATM    5  C   UNL     1      -8.371   9.417  67.297  1.00  0.00    -0.125 A  
HETATM    6  N   UNL     1      -8.209   8.364  64.863  1.00  0.00    -0.149 NA 
HETATM    7  C   UNL     1      -7.821   8.608  69.273  1.00  0.00    -0.101 A  
HETATM    8  N   UNL     1      -7.342   6.315  65.650  1.00  0.00    -0.077 NA 
HETATM    9  N   UNL     1      -8.772  10.224  66.303  1.00  0.00    -0.144 NA 
HETATM   10  C   UNL     1      -7.800   7.603  65.902  1.00  0.00    -0.103 A  
HETATM   11  N   UNL     1      -7.558   7.627  68.440  1.00  0.00    -0.111 NA 
HETATM   12  C   UNL     1      -8.652   9.615  65.115  1.00  0.00    -0.157 A  
HETATM   13  C   UNL     1      -7.877   8.131  67.196  1.00  0.00    -0.101 A  
HETATM   14  H1  UNL     1      -7.286   5.930  64.707  1.00  0.00     0.000 HD 
HETATM   15  H2  UNL     1      -7.900   5.673  66.212  1.00  0.00     0.000 HD 
ENDBRANCH   3   4
ENDBRANCH   1   3
BRANCH   1  16
HETATM   16  O   UNL     1      -7.857  13.296  68.657  1.00  0.00    -0.129 OA 
BRANCH  16  17
HETATM   17  C   UNL     1      -7.217  14.436  69.281  1.00  0.00    -0.107 C  
HETATM   18  O   UNL     1      -5.130  14.717  68.141  1.00  0.00    -0.107 OA 
HETATM   19  O   UNL     1      -7.376  15.041  66.835  1.00  0.00    -0.098 OA 
HETATM   20  P   UNL     1      -6.412  15.548  68.072  1.00  0.00    -0.162 P  
HETATM   21  O   UNL     1      -5.652  16.601  66.929  1.00  0.00    -0.252 OA 
BRANCH  19  22
HETATM   22  C   UNL     1      -8.555  15.753  66.526  1.00  0.00    -0.308 C  
BRANCH  22  23
HETATM   23  O   UNL     1      -9.668  14.877  66.310  1.00  0.00    -0.262 OA 
BRANCH  23  24
HETATM   24  C   UNL     1     -10.562  15.333  65.397  1.00  0.00    -0.394 C  
HETATM   25  O   UNL     1     -10.463  16.374  64.760  1.00  0.00    -0.620 OA 
BRANCH  24  26
HETATM   26  O   UNL     1     -11.600  14.459  65.313  1.00  0.00    -0.333 OA 
BRANCH  26  27
HETATM   27  C   UNL     1     -11.535  13.530  64.209  1.00  0.00    -0.383 C  
HETATM   28  C   UNL     1     -10.170  12.850  64.211  1.00  0.00    -0.337 C  
HETATM   29  C   UNL     1     -12.644  12.493  64.357  1.00  0.00    -0.497 C  
ENDBRANCH  26  27
ENDBRANCH  24  26
ENDBRANCH  23  24
ENDBRANCH  22  23
ENDBRANCH  19  22
BRANCH  21  30
HETATM   30  C   UNL     1      -5.376  17.878  67.463  1.00  0.00    -0.135 C  
BRANCH  30  31
HETATM   31  O   UNL     1      -6.553  18.507  67.961  1.00  0.00    -0.209 OA 
BRANCH  31  32
HETATM   32  C   UNL     1      -7.102  19.404  67.110  1.00  0.00    -0.199 C  
HETATM   33  O   UNL     1      -6.793  19.557  65.936  1.00  0.00    -0.236 OA 
BRANCH  32  34
HETATM   34  O   UNL     1      -8.092  20.057  67.768  1.00  0.00    -0.293 OA 
BRANCH  34  35
HETATM   35  C   UNL     1      -9.402  19.460  67.708  1.00  0.00    -0.318 C  
HETATM   36  C   UNL     1     -10.170  20.151  66.585  1.00  0.00    -0.556 C  
HETATM   37  C   UNL     1     -10.135  19.647  69.033  1.00  0.00    -0.443 C  
ENDBRANCH  34  35
ENDBRANCH  32  34
ENDBRANCH  31  32
ENDBRANCH  30  31
ENDBRANCH  21  30
ENDBRANCH  16  17
ENDBRANCH   1  16
TORSDOF 14
ENDMDL
MODEL      296
REMARK 921   NORMALIZED FREE ENERGY PREDICTED BY IDOCK:   -3.73 KCAL/MOL
REMARK 922        TOTAL FREE ENERGY PREDICTED BY IDOCK:   -8.63 KCAL/MOL
REMARK 923 INTER-LIGAND FREE ENERGY PREDICTED BY IDOCK:   -8.42 KCAL/MOL
REMARK 924 INTRA-LIGAND FREE ENERGY PREDICTED BY IDOCK:   -0.21 KCAL/MOL
REMARK 927      BINDING AFFINITY PREDICTED BY RF-SCORE:    0.00 PKD
ROOT
HETATM    1  C   UNL     1     -10.697  10.390  67.490  1.00  0.00    -0.287 C  
HETATM    2  C   UNL     1     -10.050  10.482  66.110  1.00  0.00    -0.306 C  
ENDROOT
BRANCH   1   3
HETATM    3  C   UNL     1     -11.723  11.482  67.762  1.00  0.00    -0.227 C  
BRANCH   3   4
HETATM    4  N   UNL     1     -11.475  12.753  67.137  1.00  0.00    -0.318 NA 
HETATM    5  C   UNL     1     -11.920  13.055  65.886  1.00  0.00    -0.435 A  
HETATM    6  N   UNL     1     -12.583  14.170  63.568  1.00  0.00    -0.747 NA 
HETATM    7  C   UNL     1     -10.942  13.890  67.678  1.00  0.00    -0.264 A  
HETATM    8  N   UNL     1     -11.699  16.275  64.163  1.00  0.00    -1.267 NA 
HETATM    9  N   UNL     1     -12.544  12.238  65.023  1.00  0.00    -0.541 NA 
HETATM   10  C   UNL     1     -11.968  14.951  64.485  1.00  0.00    -0.410 A  
HETATM   11  N   UNL     1     -10.974  14.894  66.831  1.00  0.00    -0.321 NA 
HETATM   12  C   UNL     1     -12.844  12.884  63.887  1.00  0.00     0.007 A  
HETATM   13  C   UNL     1     -11.605  14.388  65.714  1.00  0.00    -0.353 A  
HETATM   14  H1  UNL     1     -11.964  16.686  63.268  1.00  0.00     0.000 HD 
HETATM   15  H2  UNL     1     -10.698  16.425  64.286  1.00  0.00     0.000 HD 
ENDBRANCH   3   4
ENDBRANCH   1   3
BRANCH   1  16
HETATM   16  O   UNL     1      -9.651  10.312  68.482  1.00  0.00    -0.152 OA 
BRANCH  16  17
HETATM   17  C   UNL     1     -10.077  10.356  69.866  1.00  0.00    -0.095 C  
HETATM   18  O   UNL     1     -12.125   9.118  69.957  1.00  0.00     0.213 OA 
HETATM   19  O   UNL     1      -9.898   7.897  69.320  1.00  0.00    -0.171 OA 
HETATM   20  P   UNL     1     -10.727   8.752  70.460  1.00  0.00    -0.242 P  
HETATM   21  O   UNL     1     -11.341   7.235  71.022  1.00  0.00    -0.259 OA 
BRANCH  19  22
HETATM   22  C   UNL     1      -8.629   7.362  69.630  1.00  0.00    -0.137 C  
BRANCH  22  23
HETATM   23  O   UNL     1      -8.153   6.484  68.602  1.00  0.00    -0.115 OA 
BRANCH  23  24
HETATM   24  C   UNL     1      -7.558   5.357  69.069  1.00  0.00    -0.085 C  
HETATM   25  O   UNL     1      -6.644   5.317  69.881  1.00  0.00    -0.039 OA 
BRANCH  24  26
HETATM   26  O   UNL     1      -8.126   4.274  68.475  1.00  0.00    -0.077 OA 
BRANCH  26  27
HETATM   27  C   UNL     1      -7.196   3.301  67.950  1.00  0.00    -0.050 C  
HETATM   28  C   UNL     1      -7.691   1.902  68.301  1.00  0.00    -0.053 C  
HETATM   29  C   UNL     1      -7.096   3.464  66.437  1.00  0.00    -0.062 C  
ENDBRANCH  26  27
ENDBRANCH  24  26
ENDBRANCH  23  24
ENDBRANCH  22  23
ENDBRANCH  19  22
BRANCH  21  30
HETATM   30  C   UNL     1     -11.389   7.155  72.430  1.00  0.00    -0.274 C  
BRANCH  30  31
HETATM   31  O   UNL     1     -11.289   5.808  72.885  1.00  0.00    -0.283 OA 
BRANCH  31  32
HETATM   32  C   UNL     1     -10.329   5.609  73.817  1.00  0.00    -0.250 C  
HETATM   33  O   UNL     1     -10.106   4.556  74.399  1.00  0.00    -0.169 OA 
BRANCH  32  34
HETATM   34  O   UNL     1      -9.624   6.760  73.948  1.00  0.00    -0.185 OA 
BRANCH  34  35
HETATM   35  C   UNL     1      -8.190   6.628  74.010  1.00  0.00    -0.123 C  
HETATM   36  C   UNL     1      -7.627   7.960  74.495  1.00  0.00    -0.239 C  
HETATM   37  C   UNL     1      -7.625   6.295  72.633  1.00  0.00    -0.100 C  
ENDBRANCH  34  35
ENDBRANCH  32  34
ENDBRANCH  31  32
ENDBRANCH  30  31
ENDBRANCH  21  30
ENDBRANCH  16  17
ENDBRANCH   1  16
TORSDOF 14
ENDMDL
MODEL      297
REMARK 921   NORMALIZED FREE ENERGY PREDICTED BY IDOCK:   -3.73 KCAL/MOL
REMARK 922        TOTAL FREE ENERGY PREDICTED BY IDOCK:   -8.62 KCAL/MOL
REMARK 923 INTER-LIGAND FREE ENERGY PREDICTED BY IDOCK:   -7.29 KCAL/MOL
REMARK 924 INTRA-LIGAND FREE ENERGY PREDICTED BY IDOCK:   -1.33 KCAL/MOL
REMARK 927      BINDING AFFINITY PREDICTED BY RF-SCORE:    0.00 PKD
ROOT
HETATM    1  C   UNL     1     -10.433   8.871  69.770  1.00  0.00    -0.212 C  
HETATM    2  C   UNL     1      -9.010   8.708  70.302  1.00  0.00    -0.162 C  
ENDROOT
BRANCH   1   3
HETATM    3  C   UNL     1     -11.210   7.564  69.685  1.00  0.00    -0.005 C  
BRANCH   3   4
HETATM    4  N   UNL     1     -10.806   6.654  68.647  1.00  0.00    -0.258 NA 
HETATM    5  C   UNL     1     -10.218   5.456  68.911  1.00  0.00    -0.196 A  
HETATM    6  N   UNL     1      -9.119   3.037  68.854  1.00  0.00    -0.135 NA 
HETATM    7  C   UNL     1     -11.061   6.711  67.306  1.00  0.00    -0.345 A  
HETATM    8  N   UNL     1      -9.355   2.827  66.516  1.00  0.00    -0.361 NA 
HETATM    9  N   UNL     1      -9.838   4.978  70.106  1.00  0.00    -0.212 NA 
HETATM   10  C   UNL     1      -9.538   3.562  67.681  1.00  0.00    -0.127 A  
HETATM   11  N   UNL     1     -10.628   5.639  66.682  1.00  0.00    -0.297 NA 
HETATM   12  C   UNL     1      -9.301   3.756  69.983  1.00  0.00    -0.180 A  
HETATM   13  C   UNL     1     -10.118   4.836  67.681  1.00  0.00    -0.085 A  
HETATM   14  H1  UNL     1      -8.934   1.898  66.515  1.00  0.00     0.000 HD 
HETATM   15  H2  UNL     1      -8.826   3.406  65.865  1.00  0.00     0.000 HD 
ENDBRANCH   3   4
ENDBRANCH   1   3
BRANCH   1  16
HETATM   16  O   UNL     1     -10.375   9.599  68.525  1.00  0.00    -0.190 OA 
BRANCH  16  17
HETATM   17  C   UNL     1     -11.513  10.444  68.225  1.00  0.00    -0.144 C  
HETATM   18  O   UNL     1     -11.590  12.078  69.974  1.00  0.00    -0.279 OA 
HETATM   19  O   UNL     1      -9.545  12.022  68.339  1.00  0.00    -0.204 OA 
HETATM   20  P   UNL     1     -11.172  12.219  68.509  1.00  0.00    -0.322 P  
HETATM   21  O   UNL     1     -10.851  13.898  68.777  1.00  0.00    -0.252 OA 
BRANCH  19  22
HETATM   22  C   UNL     1      -8.940  12.230  67.081  1.00  0.00    -0.192 C  
BRANCH  22  23
HETATM   23  O   UNL     1      -8.331  11.035  66.577  1.00  0.00    -0.152 OA 
BRANCH  23  24
HETATM   24  C   UNL     1      -8.833  10.618  65.387  1.00  0.00    -0.189 C  
HETATM   25  O   UNL     1     -10.017  10.436  65.137  1.00  0.00    -0.285 OA 
BRANCH  24  26
HETATM   26  O   UNL     1      -7.809  10.413  64.517  1.00  0.00    -0.141 OA 
BRANCH  26  27
HETATM   27  C   UNL     1      -7.304   9.060  64.468  1.00  0.00    -0.099 C  
HETATM   28  C   UNL     1      -5.960   9.006  65.187  1.00  0.00    -0.059 C  
HETATM   29  C   UNL     1      -8.303   8.124  65.140  1.00  0.00    -0.152 C  
ENDBRANCH  26  27
ENDBRANCH  24  26
ENDBRANCH  23  24
ENDBRANCH  22  23
ENDBRANCH  19  22
BRANCH  21  30
HETATM   30  C   UNL     1     -11.784  14.741  68.135  1.00  0.00    -0.325 C  
BRANCH  30  31
HETATM   31  O   UNL     1     -11.189  15.464  67.062  1.00  0.00    -0.312 OA 
BRANCH  31  32
HETATM   32  C   UNL     1     -10.501  16.563  67.449  1.00  0.00    -0.310 C  
HETATM   33  O   UNL     1     -10.986  17.569  67.949  1.00  0.00    -0.323 OA 
BRANCH  32  34
HETATM   34  O   UNL     1      -9.181  16.328  67.243  1.00  0.00    -0.205 OA 
BRANCH  34  35
HETATM   35  C   UNL     1      -8.283  16.784  68.273  1.00  0.00    -0.204 C  
HETATM   36  C   UNL     1      -7.152  17.548  67.589  1.00  0.00    -0.180 C  
HETATM   37  C   UNL     1      -7.715  15.600  69.049  1.00  0.00    -0.199 C  
ENDBRANCH  34  35
ENDBRANCH  32  34
ENDBRANCH  31  32
ENDBRANCH  30  31
ENDBRANCH  21  30
ENDBRANCH  16  17
ENDBRANCH   1  16
TORSDOF 14
ENDMDL
MODEL      298
REMARK 921   NORMALIZED FREE ENERGY PREDICTED BY IDOCK:   -3.73 KCAL/MOL
REMARK 922        TOTAL FREE ENERGY PREDICTED BY IDOCK:   -8.61 KCAL/MOL
REMARK 923 INTER-LIGAND FREE ENERGY PREDICTED BY IDOCK:   -7.33 KCAL/MOL
REMARK 924 INTRA-LIGAND FREE ENERGY PREDICTED BY IDOCK:   -1.28 KCAL/MOL
REMARK 927      BINDING AFFINITY PREDICTED BY RF-SCORE:    0.00 PKD
ROOT
HETATM    1  C   UNL     1      -7.933   8.258  69.319  1.00  0.00    -0.114 C  
HETATM    2  C   UNL     1      -6.571   7.676  68.943  1.00  0.00    -0.049 C  
ENDROOT
BRANCH   1   3
HETATM    3  C   UNL     1      -9.056   7.230  69.335  1.00  0.00    -0.142 C  
BRANCH   3   4
HETATM    4  N   UNL     1      -9.109   6.332  68.213  1.00  0.00    -0.115 NA 
HETATM    5  C   UNL     1      -9.189   4.981  68.359  1.00  0.00    -0.120 A  
HETATM    6  N   UNL     1      -9.407   2.349  68.067  1.00  0.00    -0.208 NA 
HETATM    7  C   UNL     1      -9.253   6.620  66.885  1.00  0.00    -0.142 A  
HETATM    8  N   UNL     1      -9.628   2.482  65.721  1.00  0.00    -0.363 NA 
HETATM    9  N   UNL     1      -9.136   4.278  69.501  1.00  0.00    -0.107 NA 
HETATM   10  C   UNL     1      -9.473   3.110  66.951  1.00  0.00    -0.079 A  
HETATM   11  N   UNL     1      -9.374   5.531  66.161  1.00  0.00    -0.157 NA 
HETATM   12  C   UNL     1      -9.258   2.965  69.260  1.00  0.00    -0.144 A  
HETATM   13  C   UNL     1      -9.358   4.499  67.076  1.00  0.00    -0.146 A  
HETATM   14  H1  UNL     1      -9.712   1.470  65.631  1.00  0.00     0.000 HD 
HETATM   15  H2  UNL     1      -8.859   2.782  65.123  1.00  0.00     0.000 HD 
ENDBRANCH   3   4
ENDBRANCH   1   3
BRANCH   1  16
HETATM   16  O   UNL     1      -8.194   9.396  68.470  1.00  0.00    -0.111 OA 
BRANCH  16  17
HETATM   17  C   UNL     1      -8.191  10.691  69.119  1.00  0.00    -0.139 C  
HETATM   18  O   UNL     1      -6.005  11.599  68.754  1.00  0.00    -0.047 OA 
HETATM   19  O   UNL     1      -7.590  11.169  66.714  1.00  0.00    -0.134 OA 
HETATM   20  P   UNL     1      -7.349  11.979  68.129  1.00  0.00    -0.114 P  
HETATM   21  O   UNL     1      -6.554  13.197  67.193  1.00  0.00    -0.192 OA 
BRANCH  19  22
HETATM   22  C   UNL     1      -8.718  11.465  65.919  1.00  0.00    -0.101 C  
BRANCH  22  23
HETATM   23  O   UNL     1      -9.850  10.664  66.278  1.00  0.00    -0.198 OA 
BRANCH  23  24
HETATM   24  C   UNL     1     -10.971  11.380  66.546  1.00  0.00    -0.272 C  
HETATM   25  O   UNL     1     -11.802  11.110  67.403  1.00  0.00    -0.570 OA 
BRANCH  24  26
HETATM   26  O   UNL     1     -11.039  12.439  65.695  1.00  0.00    -0.286 OA 
BRANCH  26  27
HETATM   27  C   UNL     1     -12.258  12.536  64.927  1.00  0.00    -0.470 C  
HETATM   28  C   UNL     1     -13.033  13.769  65.379  1.00  0.00    -0.361 C  
HETATM   29  C   UNL     1     -11.914  12.640  63.445  1.00  0.00    -0.613 C  
ENDBRANCH  26  27
ENDBRANCH  24  26
ENDBRANCH  23  24
ENDBRANCH  22  23
ENDBRANCH  19  22
BRANCH  21  30
HETATM   30  C   UNL     1      -6.877  14.506  67.613  1.00  0.00    -0.182 C  
BRANCH  30  31
HETATM   31  O   UNL     1      -5.898  15.451  67.193  1.00  0.00    -0.305 OA 
BRANCH  31  32
HETATM   32  C   UNL     1      -6.242  16.740  67.418  1.00  0.00    -0.166 C  
HETATM   33  O   UNL     1      -5.826  17.441  68.332  1.00  0.00    -0.150 OA 
BRANCH  32  34
HETATM   34  O   UNL     1      -7.076  17.134  66.424  1.00  0.00    -0.237 OA 
BRANCH  34  35
HETATM   35  C   UNL     1      -8.115  18.062  66.791  1.00  0.00    -0.242 C  
HETATM   36  C   UNL     1      -9.450  17.430  66.408  1.00  0.00    -0.279 C  
HETATM   37  C   UNL     1      -7.935  19.384  66.053  1.00  0.00    -0.280 C  
ENDBRANCH  34  35
ENDBRANCH  32  34
ENDBRANCH  31  32
ENDBRANCH  30  31
ENDBRANCH  21  30
ENDBRANCH  16  17
ENDBRANCH   1  16
TORSDOF 14
ENDMDL
MODEL      299
REMARK 921   NORMALIZED FREE ENERGY PREDICTED BY IDOCK:   -3.72 KCAL/MOL
REMARK 922        TOTAL FREE ENERGY PREDICTED BY IDOCK:   -8.61 KCAL/MOL
REMARK 923 INTER-LIGAND FREE ENERGY PREDICTED BY IDOCK:   -7.21 KCAL/MOL
REMARK 924 INTRA-LIGAND FREE ENERGY PREDICTED BY IDOCK:   -1.40 KCAL/MOL
REMARK 927      BINDING AFFINITY PREDICTED BY RF-SCORE:    0.00 PKD
ROOT
HETATM    1  C   UNL     1      -7.351   7.741  68.725  1.00  0.00    -0.087 C  
HETATM    2  C   UNL     1      -6.760   6.337  68.612  1.00  0.00    -0.061 C  
ENDROOT
BRANCH   1   3
HETATM    3  C   UNL     1      -6.304   8.839  68.862  1.00  0.00    -0.045 C  
BRANCH   3   4
HETATM    4  N   UNL     1      -6.573  10.062  68.154  1.00  0.00    -0.055 NA 
HETATM    5  C   UNL     1      -6.422  11.288  68.725  1.00  0.00    -0.058 A  
HETATM    6  N   UNL     1      -6.243  13.875  69.305  1.00  0.00    -0.101 NA 
HETATM    7  C   UNL     1      -6.843  10.247  66.827  1.00  0.00    -0.088 A  
HETATM    8  N   UNL     1      -6.744  14.552  67.102  1.00  0.00    -0.356 NA 
HETATM    9  N   UNL     1      -6.112  11.562  70.002  1.00  0.00    -0.140 NA 
HETATM   10  C   UNL     1      -6.534  13.539  68.029  1.00  0.00    -0.135 A  
HETATM   11  N   UNL     1      -6.922  11.521  66.519  1.00  0.00    -0.067 NA 
HETATM   12  C   UNL     1      -6.038  12.885  70.202  1.00  0.00    -0.092 A  
HETATM   13  C   UNL     1      -6.637  12.183  67.696  1.00  0.00    -0.116 A  
HETATM   14  H1  UNL     1      -6.668  15.539  67.344  1.00  0.00     0.000 HD 
HETATM   15  H2  UNL     1      -7.664  14.406  66.688  1.00  0.00     0.000 HD 
ENDBRANCH   3   4
ENDBRANCH   1   3
BRANCH   1  16
HETATM   16  O   UNL     1      -8.337   7.739  69.780  1.00  0.00    -0.127 OA 
BRANCH  16  17
HETATM   17  C   UNL     1      -8.606   9.018  70.405  1.00  0.00    -0.193 C  
HETATM   18  O   UNL     1      -9.760  10.319  68.759  1.00  0.00    -0.162 OA 
HETATM   19  O   UNL     1     -10.872   8.147  69.708  1.00  0.00    -0.245 OA 
HETATM   20  P   UNL     1     -10.282   9.651  70.032  1.00  0.00    -0.287 P  
HETATM   21  O   UNL     1     -11.866  10.251  69.681  1.00  0.00    -0.202 OA 
BRANCH  19  22
HETATM   22  C   UNL     1     -11.508   7.408  70.728  1.00  0.00    -0.288 C  
BRANCH  22  23
HETATM   23  O   UNL     1     -10.767   6.233  71.080  1.00  0.00    -0.229 OA 
BRANCH  23  24
HETATM   24  C   UNL     1     -10.521   6.112  72.409  1.00  0.00    -0.199 C  
HETATM   25  O   UNL     1     -11.112   5.365  73.178  1.00  0.00    -0.277 OA 
BRANCH  24  26
HETATM   26  O   UNL     1      -9.524   6.968  72.759  1.00  0.00    -0.143 OA 
BRANCH  26  27
HETATM   27  C   UNL     1      -9.000   6.791  74.093  1.00  0.00    -0.183 C  
HETATM   28  C   UNL     1      -8.244   5.469  74.159  1.00  0.00    -0.109 C  
HETATM   29  C   UNL     1      -8.069   7.952  74.427  1.00  0.00    -0.293 C  
ENDBRANCH  26  27
ENDBRANCH  24  26
ENDBRANCH  23  24
ENDBRANCH  22  23
ENDBRANCH  19  22
BRANCH  21  30
HETATM   30  C   UNL     1     -12.275  11.267  70.571  1.00  0.00    -0.383 C  
BRANCH  30  31
HETATM   31  O   UNL     1     -11.547  12.473  70.364  1.00  0.00    -0.126 OA 
BRANCH  31  32
HETATM   32  C   UNL     1     -12.301  13.505  69.920  1.00  0.00    -0.224 C  
HETATM   33  O   UNL     1     -12.272  13.977  68.791  1.00  0.00    -0.337 OA 
BRANCH  32  34
HETATM   34  O   UNL     1     -13.134  13.880  70.923  1.00  0.00    -0.284 OA 
BRANCH  34  35
HETATM   35  C   UNL     1     -13.182  15.289  71.221  1.00  0.00    -0.488 C  
HETATM   36  C   UNL     1     -11.912  15.638  71.992  1.00  0.00    -0.544 C  
HETATM   37  C   UNL     1     -14.410  15.614  72.065  1.00  0.00    -0.486 C  
ENDBRANCH  34  35
ENDBRANCH  32  34
ENDBRANCH  31  32
ENDBRANCH  30  31
ENDBRANCH  21  30
ENDBRANCH  16  17
ENDBRANCH   1  16
TORSDOF 14
ENDMDL
MODEL      300
REMARK 921   NORMALIZED FREE ENERGY PREDICTED BY IDOCK:   -3.71 KCAL/MOL
REMARK 922        TOTAL FREE ENERGY PREDICTED BY IDOCK:   -8.58 KCAL/MOL
REMARK 923 INTER-LIGAND FREE ENERGY PREDICTED BY IDOCK:   -8.24 KCAL/MOL
REMARK 924 INTRA-LIGAND FREE ENERGY PREDICTED BY IDOCK:   -0.34 KCAL/MOL
REMARK 927      BINDING AFFINITY PREDICTED BY RF-SCORE:    0.00 PKD
ROOT
HETATM    1  C   UNL     1     -10.599  12.984  68.111  1.00  0.00    -0.245 C  
HETATM    2  C   UNL     1     -12.010  12.803  67.557  1.00  0.00    -0.342 C  
ENDROOT
BRANCH   1   3
HETATM    3  C   UNL     1      -9.774  14.023  67.363  1.00  0.00    -0.233 C  
BRANCH   3   4
HETATM    4  N   UNL     1      -9.929  15.386  67.797  1.00  0.00    -0.224 NA 
HETATM    5  C   UNL     1      -9.184  16.406  67.291  1.00  0.00    -0.215 A  
HETATM    6  N   UNL     1      -8.080  18.729  66.623  1.00  0.00    -0.266 NA 
HETATM    7  C   UNL     1     -10.887  15.928  68.607  1.00  0.00    -0.291 A  
HETATM    8  N   UNL     1      -9.549  19.982  67.979  1.00  0.00    -0.357 NA 
HETATM    9  N   UNL     1      -8.164  16.319  66.423  1.00  0.00    -0.311 NA 
HETATM   10  C   UNL     1      -9.125  18.756  67.480  1.00  0.00    -0.276 A  
HETATM   11  N   UNL     1     -10.773  17.234  68.690  1.00  0.00    -0.320 NA 
HETATM   12  C   UNL     1      -7.673  17.534  66.140  1.00  0.00    -0.268 A  
HETATM   13  C   UNL     1      -9.724  17.547  67.851  1.00  0.00    -0.278 A  
HETATM   14  H1  UNL     1      -9.113  20.863  67.708  1.00  0.00     0.000 HD 
HETATM   15  H2  UNL     1      -9.524  19.926  68.996  1.00  0.00     0.000 HD 
ENDBRANCH   3   4
ENDBRANCH   1   3
BRANCH   1  16
HETATM   16  O   UNL     1      -9.969  11.687  68.192  1.00  0.00    -0.182 OA 
BRANCH  16  17
HETATM   17  C   UNL     1     -10.529  10.651  67.348  1.00  0.00    -0.235 C  
HETATM   18  O   UNL     1      -8.891   8.905  67.286  1.00  0.00    -0.127 OA 
HETATM   19  O   UNL     1     -10.059   9.510  69.551  1.00  0.00    -0.185 OA 
HETATM   20  P   UNL     1     -10.240   8.968  68.005  1.00  0.00    -0.219 P  
HETATM   21  O   UNL     1      -9.969   7.376  68.625  1.00  0.00    -0.160 OA 
BRANCH  19  22
HETATM   22  C   UNL     1     -11.169   9.530  70.422  1.00  0.00    -0.270 C  
BRANCH  22  23
HETATM   23  O   UNL     1     -10.866   8.933  71.689  1.00  0.00    -0.296 OA 
BRANCH  23  24
HETATM   24  C   UNL     1     -11.600   7.827  71.969  1.00  0.00    -0.300 C  
HETATM   25  O   UNL     1     -11.422   7.075  72.918  1.00  0.00    -0.229 OA 
BRANCH  24  26
HETATM   26  O   UNL     1     -12.556   7.672  71.015  1.00  0.00    -0.255 OA 
BRANCH  26  27
HETATM   27  C   UNL     1     -13.916   7.831  71.474  1.00  0.00    -0.374 C  
HETATM   28  C   UNL     1     -14.374   6.532  72.128  1.00  0.00    -0.007 C  
HETATM   29  C   UNL     1     -13.980   8.980  72.475  1.00  0.00    -0.472 C  
ENDBRANCH  26  27
ENDBRANCH  24  26
ENDBRANCH  23  24
ENDBRANCH  22  23
ENDBRANCH  19  22
BRANCH  21  30
HETATM   30  C   UNL     1     -10.819   6.412  68.044  1.00  0.00    -0.316 C  
BRANCH  30  31
HETATM   31  O   UNL     1     -10.425   6.095  66.712  1.00  0.00    -0.225 OA 
BRANCH  31  32
HETATM   32  C   UNL     1      -9.357   5.268  66.634  1.00  0.00    -0.138 C  
HETATM   33  O   UNL     1      -8.183   5.610  66.683  1.00  0.00    -0.105 OA 
BRANCH  32  34
HETATM   34  O   UNL     1      -9.816   3.994  66.555  1.00  0.00    -0.212 OA 
BRANCH  34  35
HETATM   35  C   UNL     1      -9.633   3.325  65.292  1.00  0.00    -0.088 C  
HETATM   36  C   UNL     1      -8.333   2.530  65.379  1.00  0.00    -0.096 C  
HETATM   37  C   UNL     1      -9.547   4.341  64.158  1.00  0.00    -0.118 C  
ENDBRANCH  34  35
ENDBRANCH  32  34
ENDBRANCH  31  32
ENDBRANCH  30  31
ENDBRANCH  21  30
ENDBRANCH  16  17
ENDBRANCH   1  16
TORSDOF 14
ENDMDL
MODEL      301
REMARK 921   NORMALIZED FREE ENERGY PREDICTED BY IDOCK:   -3.70 KCAL/MOL
REMARK 922        TOTAL FREE ENERGY PREDICTED BY IDOCK:   -8.57 KCAL/MOL
REMARK 923 INTER-LIGAND FREE ENERGY PREDICTED BY IDOCK:   -7.05 KCAL/MOL
REMARK 924 INTRA-LIGAND FREE ENERGY PREDICTED BY IDOCK:   -1.52 KCAL/MOL
REMARK 927      BINDING AFFINITY PREDICTED BY RF-SCORE:    0.00 PKD
ROOT
HETATM    1  C   UNL     1      -9.152   8.332  66.753  1.00  0.00    -0.156 C  
HETATM    2  C   UNL     1      -8.007   7.723  65.946  1.00  0.00    -0.107 C  
ENDROOT
BRANCH   1   3
HETATM    3  C   UNL     1      -9.786   7.366  67.745  1.00  0.00    -0.143 C  
BRANCH   3   4
HETATM    4  N   UNL     1      -9.001   7.047  68.908  1.00  0.00    -0.130 NA 
HETATM    5  C   UNL     1      -9.258   7.578  70.134  1.00  0.00    -0.154 A  
HETATM    6  N   UNL     1      -9.346   8.249  72.704  1.00  0.00    -0.267 NA 
HETATM    7  C   UNL     1      -8.030   6.097  69.057  1.00  0.00    -0.108 A  
HETATM    8  N   UNL     1      -7.635   6.740  73.305  1.00  0.00    -0.089 NA 
HETATM    9  N   UNL     1     -10.169   8.514  70.444  1.00  0.00    -0.191 NA 
HETATM   10  C   UNL     1      -8.460   7.297  72.336  1.00  0.00    -0.111 A  
HETATM   11  N   UNL     1      -7.612   6.019  70.300  1.00  0.00    -0.093 NA 
HETATM   12  C   UNL     1     -10.146   8.786  71.757  1.00  0.00    -0.333 A  
HETATM   13  C   UNL     1      -8.390   6.926  70.988  1.00  0.00    -0.126 A  
HETATM   14  H1  UNL     1      -7.686   7.009  74.287  1.00  0.00     0.000 HD 
HETATM   15  H2  UNL     1      -6.671   6.867  73.000  1.00  0.00     0.000 HD 
ENDBRANCH   3   4
ENDBRANCH   1   3
BRANCH   1  16
HETATM   16  O   UNL     1     -10.093   8.926  65.834  1.00  0.00    -0.194 OA 
BRANCH  16  17
HETATM   17  C   UNL     1      -9.607  10.048  65.058  1.00  0.00    -0.297 C  
HETATM   18  O   UNL     1     -11.544  11.334  64.485  1.00  0.00    -0.067 OA 
HETATM   19  O   UNL     1     -10.844  11.090  66.996  1.00  0.00    -0.260 OA 
HETATM   20  P   UNL     1     -10.430  11.623  65.493  1.00  0.00    -0.291 P  
HETATM   21  O   UNL     1     -11.208  13.113  65.904  1.00  0.00    -0.284 OA 
BRANCH  19  22
HETATM   22  C   UNL     1     -10.002  11.365  68.095  1.00  0.00    -0.189 C  
BRANCH  22  23
HETATM   23  O   UNL     1      -8.652  11.613  67.685  1.00  0.00    -0.133 OA 
BRANCH  23  24
HETATM   24  C   UNL     1      -7.993  12.506  68.466  1.00  0.00    -0.097 C  
HETATM   25  O   UNL     1      -7.981  13.720  68.308  1.00  0.00    -0.130 OA 
BRANCH  24  26
HETATM   26  O   UNL     1      -7.327  11.837  69.444  1.00  0.00    -0.011 OA 
BRANCH  26  27
HETATM   27  C   UNL     1      -5.918  11.632  69.201  1.00  0.00    -0.064 C  
HETATM   28  C   UNL     1      -5.134  12.047  70.441  1.00  0.00    -0.102 C  
HETATM   29  C   UNL     1      -5.670  10.160  68.885  1.00  0.00    -0.034 C  
ENDBRANCH  26  27
ENDBRANCH  24  26
ENDBRANCH  23  24
ENDBRANCH  22  23
ENDBRANCH  19  22
BRANCH  21  30
HETATM   30  C   UNL     1     -10.493  14.244  65.454  1.00  0.00    -0.365 C  
BRANCH  30  31
HETATM   31  O   UNL     1     -11.315  15.407  65.420  1.00  0.00    -0.294 OA 
BRANCH  31  32
HETATM   32  C   UNL     1     -10.625  16.571  65.414  1.00  0.00    -0.276 C  
HETATM   33  O   UNL     1     -10.874  17.545  64.716  1.00  0.00    -0.814 OA 
BRANCH  32  34
HETATM   34  O   UNL     1      -9.653  16.490  66.356  1.00  0.00    -0.253 OA 
BRANCH  34  35
HETATM   35  C   UNL     1      -9.707  17.463  67.416  1.00  0.00    -0.269 C  
HETATM   36  C   UNL     1      -8.293  17.615  67.972  1.00  0.00    -0.246 C  
HETATM   37  C   UNL     1     -10.653  16.999  68.519  1.00  0.00    -0.370 C  
ENDBRANCH  34  35
ENDBRANCH  32  34
ENDBRANCH  31  32
ENDBRANCH  30  31
ENDBRANCH  21  30
ENDBRANCH  16  17
ENDBRANCH   1  16
TORSDOF 14
ENDMDL
MODEL      302
REMARK 921   NORMALIZED FREE ENERGY PREDICTED BY IDOCK:   -3.69 KCAL/MOL
REMARK 922        TOTAL FREE ENERGY PREDICTED BY IDOCK:   -8.55 KCAL/MOL
REMARK 923 INTER-LIGAND FREE ENERGY PREDICTED BY IDOCK:   -7.04 KCAL/MOL
REMARK 924 INTRA-LIGAND FREE ENERGY PREDICTED BY IDOCK:   -1.51 KCAL/MOL
REMARK 927      BINDING AFFINITY PREDICTED BY RF-SCORE:    0.00 PKD
ROOT
HETATM    1  C   UNL     1     -10.351  13.851  66.298  1.00  0.00    -0.293 C  
HETATM    2  C   UNL     1     -11.585  13.579  65.439  1.00  0.00    -0.334 C  
ENDROOT
BRANCH   1   3
HETATM    3  C   UNL     1      -9.624  15.139  65.938  1.00  0.00    -0.338 C  
BRANCH   3   4
HETATM    4  N   UNL     1      -8.896  15.774  67.003  1.00  0.00    -0.201 NA 
HETATM    5  C   UNL     1      -8.144  16.893  66.813  1.00  0.00    -0.241 A  
HETATM    6  N   UNL     1      -6.618  19.058  67.017  1.00  0.00    -0.196 NA 
HETATM    7  C   UNL     1      -8.938  15.521  68.345  1.00  0.00    -0.189 A  
HETATM    8  N   UNL     1      -6.433  18.883  69.363  1.00  0.00    -0.277 NA 
HETATM    9  N   UNL     1      -7.879  17.510  65.651  1.00  0.00    -0.407 NA 
HETATM   10  C   UNL     1      -6.934  18.406  68.158  1.00  0.00    -0.235 A  
HETATM   11  N   UNL     1      -8.218  16.382  69.027  1.00  0.00    -0.235 NA 
HETATM   12  C   UNL     1      -7.110  18.590  65.849  1.00  0.00    -0.252 A  
HETATM   13  C   UNL     1      -7.734  17.260  68.079  1.00  0.00    -0.202 A  
HETATM   14  H1  UNL     1      -5.850  19.718  69.420  1.00  0.00     0.000 HD 
HETATM   15  H2  UNL     1      -5.923  18.120  69.808  1.00  0.00     0.000 HD 
ENDBRANCH   3   4
ENDBRANCH   1   3
BRANCH   1  16
HETATM   16  O   UNL     1      -9.509  12.678  66.272  1.00  0.00    -0.243 OA 
BRANCH  16  17
HETATM   17  C   UNL     1     -10.191  11.401  66.280  1.00  0.00    -0.233 C  
HETATM   18  O   UNL     1      -9.697  10.384  64.169  1.00  0.00    -0.297 OA 
HETATM   19  O   UNL     1      -7.764  10.836  65.876  1.00  0.00    -0.154 OA 
HETATM   20  P   UNL     1      -9.180  10.051  65.570  1.00  0.00    -0.240 P  
HETATM   21  O   UNL     1      -8.224   8.775  64.899  1.00  0.00    -0.141 OA 
BRANCH  19  22
HETATM   22  C   UNL     1      -7.060  10.573  67.071  1.00  0.00    -0.094 C  
BRANCH  22  23
HETATM   23  O   UNL     1      -7.793   9.705  67.944  1.00  0.00    -0.087 OA 
BRANCH  23  24
HETATM   24  C   UNL     1      -8.059  10.241  69.162  1.00  0.00    -0.138 C  
HETATM   25  O   UNL     1      -8.162  11.435  69.409  1.00  0.00     0.126 OA 
BRANCH  24  26
HETATM   26  O   UNL     1      -8.172   9.240  70.075  1.00  0.00    -0.119 OA 
BRANCH  26  27
HETATM   27  C   UNL     1      -9.426   9.199  70.792  1.00  0.00    -0.272 C  
HETATM   28  C   UNL     1     -10.439   8.403  69.977  1.00  0.00    -0.224 C  
HETATM   29  C   UNL     1      -9.207   8.544  72.152  1.00  0.00    -0.336 C  
ENDBRANCH  26  27
ENDBRANCH  24  26
ENDBRANCH  23  24
ENDBRANCH  22  23
ENDBRANCH  19  22
BRANCH  21  30
HETATM   30  C   UNL     1      -8.702   7.494  65.249  1.00  0.00     0.072 C  
BRANCH  30  31
HETATM   31  O   UNL     1      -9.520   7.537  66.414  1.00  0.00    -0.184 OA 
BRANCH  31  32
HETATM   32  C   UNL     1      -9.999   6.331  66.798  1.00  0.00    -0.170 C  
HETATM   33  O   UNL     1     -11.080   6.130  67.336  1.00  0.00    -0.331 OA 
BRANCH  32  34
HETATM   34  O   UNL     1      -9.101   5.384  66.429  1.00  0.00    -0.132 OA 
BRANCH  34  35
HETATM   35  C   UNL     1      -8.434   4.683  67.497  1.00  0.00    -0.104 C  
HETATM   36  C   UNL     1      -9.344   3.539  67.933  1.00  0.00    -0.238 C  
HETATM   37  C   UNL     1      -8.178   5.621  68.672  1.00  0.00    -0.103 C  
ENDBRANCH  34  35
ENDBRANCH  32  34
ENDBRANCH  31  32
ENDBRANCH  30  31
ENDBRANCH  21  30
ENDBRANCH  16  17
ENDBRANCH   1  16
TORSDOF 14
ENDMDL
MODEL      303
REMARK 921   NORMALIZED FREE ENERGY PREDICTED BY IDOCK:   -3.69 KCAL/MOL
REMARK 922        TOTAL FREE ENERGY PREDICTED BY IDOCK:   -8.54 KCAL/MOL
REMARK 923 INTER-LIGAND FREE ENERGY PREDICTED BY IDOCK:   -7.96 KCAL/MOL
REMARK 924 INTRA-LIGAND FREE ENERGY PREDICTED BY IDOCK:   -0.58 KCAL/MOL
REMARK 927      BINDING AFFINITY PREDICTED BY RF-SCORE:    0.00 PKD
ROOT
HETATM    1  C   UNL     1      -9.060   9.010  69.642  1.00  0.00    -0.154 C  
HETATM    2  C   UNL     1      -9.285   9.158  71.146  1.00  0.00    -0.301 C  
ENDROOT
BRANCH   1   3
HETATM    3  C   UNL     1      -7.722   8.381  69.279  1.00  0.00    -0.098 C  
BRANCH   3   4
HETATM    4  N   UNL     1      -7.781   7.159  68.524  1.00  0.00    -0.118 NA 
HETATM    5  C   UNL     1      -8.483   6.071  68.943  1.00  0.00    -0.116 A  
HETATM    6  N   UNL     1      -9.711   3.733  69.243  1.00  0.00    -0.131 NA 
HETATM    7  C   UNL     1      -7.334   6.906  67.257  1.00  0.00    -0.091 A  
HETATM    8  N   UNL     1      -9.055   2.952  67.115  1.00  0.00    -0.161 NA 
HETATM    9  N   UNL     1      -9.125   5.914  70.112  1.00  0.00    -0.144 NA 
HETATM   10  C   UNL     1      -9.064   3.955  68.077  1.00  0.00    -0.142 A  
HETATM   11  N   UNL     1      -7.666   5.701  66.854  1.00  0.00    -0.099 NA 
HETATM   12  C   UNL     1      -9.717   4.713  70.174  1.00  0.00    -0.215 A  
HETATM   13  C   UNL     1      -8.406   5.177  67.893  1.00  0.00    -0.097 A  
HETATM   14  H1  UNL     1      -9.535   2.062  67.249  1.00  0.00     0.000 HD 
HETATM   15  H2  UNL     1      -8.082   2.747  66.892  1.00  0.00     0.000 HD 
ENDBRANCH   3   4
ENDBRANCH   1   3
BRANCH   1  16
HETATM   16  O   UNL     1      -9.292  10.291  69.018  1.00  0.00    -0.169 OA 
BRANCH  16  17
HETATM   17  C   UNL     1     -10.140  10.286  67.843  1.00  0.00    -0.170 C  
HETATM   18  O   UNL     1     -12.279  11.071  68.579  1.00  0.00    -0.582 OA 
HETATM   19  O   UNL     1     -10.206  12.668  68.679  1.00  0.00    -0.222 OA 
HETATM   20  P   UNL     1     -11.210  11.766  67.733  1.00  0.00    -0.301 P  
HETATM   21  O   UNL     1     -12.222  13.165  67.629  1.00  0.00    -0.279 OA 
BRANCH  19  22
HETATM   22  C   UNL     1      -9.222  13.482  68.080  1.00  0.00    -0.208 C  
BRANCH  22  23
HETATM   23  O   UNL     1      -8.455  14.200  69.055  1.00  0.00    -0.054 OA 
BRANCH  23  24
HETATM   24  C   UNL     1      -8.996  15.391  69.417  1.00  0.00    -0.258 C  
HETATM   25  O   UNL     1      -8.713  16.479  68.934  1.00  0.00    -0.245 OA 
BRANCH  24  26
HETATM   26  O   UNL     1      -9.891  15.188  70.420  1.00  0.00     0.038 OA 
BRANCH  26  27
HETATM   27  C   UNL     1     -11.016  16.094  70.434  1.00  0.00    -0.309 C  
HETATM   28  C   UNL     1     -11.782  15.954  69.123  1.00  0.00    -0.369 C  
HETATM   29  C   UNL     1     -11.921  15.756  71.615  1.00  0.00    -0.527 C  
ENDBRANCH  26  27
ENDBRANCH  24  26
ENDBRANCH  23  24
ENDBRANCH  22  23
ENDBRANCH  19  22
BRANCH  21  30
HETATM   30  C   UNL     1     -12.748  13.362  66.334  1.00  0.00     0.094 C  
BRANCH  30  31
HETATM   31  O   UNL     1     -11.938  12.747  65.337  1.00  0.00    -0.385 OA 
BRANCH  31  32
HETATM   32  C   UNL     1     -11.756  13.502  64.229  1.00  0.00    -0.416 C  
HETATM   33  O   UNL     1     -12.518  13.563  63.273  1.00  0.00    -0.763 OA 
BRANCH  32  34
HETATM   34  O   UNL     1     -10.618  14.223  64.392  1.00  0.00    -0.311 OA 
BRANCH  34  35
HETATM   35  C   UNL     1     -10.712  15.381  65.244  1.00  0.00    -0.421 C  
HETATM   36  C   UNL     1     -11.487  16.451  64.480  1.00  0.00    -0.074 C  
HETATM   37  C   UNL     1      -9.321  15.898  65.596  1.00  0.00    -0.165 C  
ENDBRANCH  34  35
ENDBRANCH  32  34
ENDBRANCH  31  32
ENDBRANCH  30  31
ENDBRANCH  21  30
ENDBRANCH  16  17
ENDBRANCH   1  16
TORSDOF 14
ENDMDL
MODEL      304
REMARK 921   NORMALIZED FREE ENERGY PREDICTED BY IDOCK:   -3.66 KCAL/MOL
REMARK 922        TOTAL FREE ENERGY PREDICTED BY IDOCK:   -8.50 KCAL/MOL
REMARK 923 INTER-LIGAND FREE ENERGY PREDICTED BY IDOCK:   -7.65 KCAL/MOL
REMARK 924 INTRA-LIGAND FREE ENERGY PREDICTED BY IDOCK:   -0.85 KCAL/MOL
REMARK 927      BINDING AFFINITY PREDICTED BY RF-SCORE:    0.00 PKD
ROOT
HETATM    1  C   UNL     1      -8.585  14.966  67.074  1.00  0.00    -0.238 C  
HETATM    2  C   UNL     1      -7.946  14.865  68.457  1.00  0.00    -0.140 C  
ENDROOT
BRANCH   1   3
HETATM    3  C   UNL     1      -9.367  16.253  66.851  1.00  0.00    -0.224 C  
BRANCH   3   4
HETATM    4  N   UNL     1      -8.795  17.447  67.413  1.00  0.00    -0.225 NA 
HETATM    5  C   UNL     1      -7.830  18.166  66.778  1.00  0.00    -0.235 A  
HETATM    6  N   UNL     1      -6.022  19.942  65.977  1.00  0.00    -0.168 NA 
HETATM    7  C   UNL     1      -9.183  18.150  68.519  1.00  0.00    -0.314 A  
HETATM    8  N   UNL     1      -6.404  21.374  67.813  1.00  0.00    -0.453 NA 
HETATM    9  N   UNL     1      -7.202  17.858  65.632  1.00  0.00    -0.515 NA 
HETATM   10  C   UNL     1      -6.700  20.209  67.116  1.00  0.00    -0.227 A  
HETATM   11  N   UNL     1      -8.491  19.257  68.660  1.00  0.00    -0.365 NA 
HETATM   12  C   UNL     1      -6.316  18.808  65.303  1.00  0.00    -0.274 A  
HETATM   13  C   UNL     1      -7.656  19.289  67.563  1.00  0.00    -0.237 A  
HETATM   14  H1  UNL     1      -5.708  22.045  67.487  1.00  0.00     0.000 HD 
HETATM   15  H2  UNL     1      -6.154  21.109  68.765  1.00  0.00     0.000 HD 
ENDBRANCH   3   4
ENDBRANCH   1   3
BRANCH   1  16
HETATM   16  O   UNL     1      -9.354  13.767  66.837  1.00  0.00    -0.243 OA 
BRANCH  16  17
HETATM   17  C   UNL     1      -8.890  12.568  67.504  1.00  0.00    -0.184 C  
HETATM   18  O   UNL     1     -10.547  12.057  69.155  1.00  0.00    -0.150 OA 
HETATM   19  O   UNL     1     -11.176  11.971  66.615  1.00  0.00    -0.293 OA 
HETATM   20  P   UNL     1     -10.234  11.369  67.825  1.00  0.00    -0.193 P  
HETATM   21  O   UNL     1     -11.504  10.234  68.129  1.00  0.00    -0.270 OA 
BRANCH  19  22
HETATM   22  C   UNL     1     -11.126  11.389  65.331  1.00  0.00    -0.128 C  
BRANCH  22  23
HETATM   23  O   UNL     1     -10.040  10.462  65.205  1.00  0.00    -0.303 OA 
BRANCH  23  24
HETATM   24  C   UNL     1      -9.350  10.574  64.042  1.00  0.00    -0.267 C  
HETATM   25  O   UNL     1      -9.823  10.888  62.959  1.00  0.00    -0.319 OA 
BRANCH  24  26
HETATM   26  O   UNL     1      -8.046  10.259  64.266  1.00  0.00    -0.160 OA 
BRANCH  26  27
HETATM   27  C   UNL     1      -7.417   9.468  63.233  1.00  0.00    -0.111 C  
HETATM   28  C   UNL     1      -5.925   9.783  63.207  1.00  0.00    -0.107 C  
HETATM   29  C   UNL     1      -7.642   7.988  63.525  1.00  0.00    -0.133 C  
ENDBRANCH  26  27
ENDBRANCH  24  26
ENDBRANCH  23  24
ENDBRANCH  22  23
ENDBRANCH  19  22
BRANCH  21  30
HETATM   30  C   UNL     1     -11.021   8.937  68.410  1.00  0.00     0.125 C  
BRANCH  30  31
HETATM   31  O   UNL     1      -9.711   8.972  68.966  1.00  0.00    -0.161 OA 
BRANCH  31  32
HETATM   32  C   UNL     1      -9.573   8.249  70.101  1.00  0.00    -0.167 C  
HETATM   33  O   UNL     1      -8.643   8.331  70.893  1.00  0.00    -0.123 OA 
BRANCH  32  34
HETATM   34  O   UNL     1     -10.672   7.465  70.237  1.00  0.00    -0.227 OA 
BRANCH  34  35
HETATM   35  C   UNL     1     -10.438   6.045  70.321  1.00  0.00    -0.242 C  
HETATM   36  C   UNL     1      -9.764   5.770  71.662  1.00  0.00    -0.192 C  
HETATM   37  C   UNL     1      -9.536   5.585  69.180  1.00  0.00    -0.189 C  
ENDBRANCH  34  35
ENDBRANCH  32  34
ENDBRANCH  31  32
ENDBRANCH  30  31
ENDBRANCH  21  30
ENDBRANCH  16  17
ENDBRANCH   1  16
TORSDOF 14
ENDMDL
MODEL      305
REMARK 921   NORMALIZED FREE ENERGY PREDICTED BY IDOCK:   -3.64 KCAL/MOL
REMARK 922        TOTAL FREE ENERGY PREDICTED BY IDOCK:   -8.45 KCAL/MOL
REMARK 923 INTER-LIGAND FREE ENERGY PREDICTED BY IDOCK:   -7.78 KCAL/MOL
REMARK 924 INTRA-LIGAND FREE ENERGY PREDICTED BY IDOCK:   -0.68 KCAL/MOL
REMARK 927      BINDING AFFINITY PREDICTED BY RF-SCORE:    0.00 PKD
ROOT
HETATM    1  C   UNL     1      -7.937   9.472  65.003  1.00  0.00    -0.119 C  
HETATM    2  C   UNL     1      -9.099   9.352  64.019  1.00  0.00    -0.110 C  
ENDROOT
BRANCH   1   3
HETATM    3  C   UNL     1      -7.267   8.144  65.328  1.00  0.00    -0.068 C  
BRANCH   3   4
HETATM    4  N   UNL     1      -8.129   6.993  65.369  1.00  0.00    -0.129 NA 
HETATM    5  C   UNL     1      -8.158   6.063  64.376  1.00  0.00    -0.119 A  
HETATM    6  N   UNL     1      -8.569   3.963  62.800  1.00  0.00    -0.086 NA 
HETATM    7  C   UNL     1      -8.904   6.535  66.397  1.00  0.00    -0.143 A  
HETATM    8  N   UNL     1     -10.014   2.909  64.338  1.00  0.00    -0.305 NA 
HETATM    9  N   UNL     1      -7.504   6.098  63.205  1.00  0.00    -0.062 NA 
HETATM   10  C   UNL     1      -9.187   3.974  64.002  1.00  0.00    -0.146 A  
HETATM   11  N   UNL     1      -9.470   5.385  66.106  1.00  0.00    -0.156 NA 
HETATM   12  C   UNL     1      -7.765   5.001  62.479  1.00  0.00    -0.062 A  
HETATM   13  C   UNL     1      -8.991   5.069  64.851  1.00  0.00    -0.113 A  
HETATM   14  H1  UNL     1     -10.156   2.111  63.720  1.00  0.00     0.000 HD 
HETATM   15  H2  UNL     1     -10.932   3.290  64.565  1.00  0.00     0.000 HD 
ENDBRANCH   3   4
ENDBRANCH   1   3
BRANCH   1  16
HETATM   16  O   UNL     1      -8.397  10.194  66.166  1.00  0.00    -0.125 OA 
BRANCH  16  17
HETATM   17  C   UNL     1      -9.780   9.985  66.544  1.00  0.00    -0.200 C  
HETATM   18  O   UNL     1      -9.717   8.730  68.582  1.00  0.00    -0.157 OA 
HETATM   19  O   UNL     1      -8.739  11.158  68.522  1.00  0.00    -0.150 OA 
HETATM   20  P   UNL     1     -10.066  10.199  68.338  1.00  0.00    -0.183 P  
HETATM   21  O   UNL     1     -10.339  10.403  70.034  1.00  0.00    -0.235 OA 
BRANCH  19  22
HETATM   22  C   UNL     1      -8.871  12.561  68.455  1.00  0.00    -0.123 C  
BRANCH  22  23
HETATM   23  O   UNL     1      -8.137  13.116  67.357  1.00  0.00    -0.170 OA 
BRANCH  23  24
HETATM   24  C   UNL     1      -7.730  14.395  67.554  1.00  0.00    -0.192 C  
HETATM   25  O   UNL     1      -6.587  14.810  67.411  1.00  0.00    -0.280 OA 
BRANCH  24  26
HETATM   26  O   UNL     1      -8.791  15.144  67.956  1.00  0.00    -0.166 OA 
BRANCH  26  27
HETATM   27  C   UNL     1      -9.376  15.983  66.936  1.00  0.00    -0.228 C  
HETATM   28  C   UNL     1      -8.294  16.889  66.358  1.00  0.00    -0.333 C  
HETATM   29  C   UNL     1      -9.971  15.103  65.841  1.00  0.00    -0.355 C  
ENDBRANCH  26  27
ENDBRANCH  24  26
ENDBRANCH  23  24
ENDBRANCH  22  23
ENDBRANCH  19  22
BRANCH  21  30
HETATM   30  C   UNL     1     -11.702  10.587  70.350  1.00  0.00    -0.344 C  
BRANCH  30  31
HETATM   31  O   UNL     1     -12.086  11.955  70.248  1.00  0.00    -0.337 OA 
BRANCH  31  32
HETATM   32  C   UNL     1     -12.856  12.390  71.272  1.00  0.00    -0.240 C  
HETATM   33  O   UNL     1     -13.318  11.692  72.166  1.00  0.00    -0.491 OA 
BRANCH  32  34
HETATM   34  O   UNL     1     -12.975  13.737  71.168  1.00  0.00    -0.326 OA 
BRANCH  34  35
HETATM   35  C   UNL     1     -12.934  14.480  72.402  1.00  0.00    -0.386 C  
HETATM   36  C   UNL     1     -14.155  15.395  72.426  1.00  0.00    -0.645 C  
HETATM   37  C   UNL     1     -11.658  15.312  72.482  1.00  0.00    -0.498 C  
ENDBRANCH  34  35
ENDBRANCH  32  34
ENDBRANCH  31  32
ENDBRANCH  30  31
ENDBRANCH  21  30
ENDBRANCH  16  17
ENDBRANCH   1  16
TORSDOF 14
ENDMDL
MODEL      306
REMARK 921   NORMALIZED FREE ENERGY PREDICTED BY IDOCK:   -3.63 KCAL/MOL
REMARK 922        TOTAL FREE ENERGY PREDICTED BY IDOCK:   -8.45 KCAL/MOL
REMARK 923 INTER-LIGAND FREE ENERGY PREDICTED BY IDOCK:   -6.74 KCAL/MOL
REMARK 924 INTRA-LIGAND FREE ENERGY PREDICTED BY IDOCK:   -1.71 KCAL/MOL
REMARK 927      BINDING AFFINITY PREDICTED BY RF-SCORE:    0.00 PKD
ROOT
HETATM    1  C   UNL     1      -8.628   8.146  71.422  1.00  0.00    -0.137 C  
HETATM    2  C   UNL     1      -7.113   8.286  71.297  1.00  0.00    -0.063 C  
ENDROOT
BRANCH   1   3
HETATM    3  C   UNL     1      -9.138   6.734  71.164  1.00  0.00    -0.151 C  
BRANCH   3   4
HETATM    4  N   UNL     1      -9.927   6.554  69.975  1.00  0.00    -0.168 NA 
HETATM    5  C   UNL     1      -9.431   5.979  68.845  1.00  0.00    -0.126 A  
HETATM    6  N   UNL     1      -9.010   4.898  66.455  1.00  0.00    -0.111 NA 
HETATM    7  C   UNL     1     -11.269   6.742  69.795  1.00  0.00    -0.315 A  
HETATM    8  N   UNL     1     -11.262   5.128  65.793  1.00  0.00    -0.809 NA 
HETATM    9  N   UNL     1      -8.167   5.592  68.614  1.00  0.00    -0.103 NA 
HETATM   10  C   UNL     1     -10.269   5.289  66.752  1.00  0.00    -0.249 A  
HETATM   11  N   UNL     1     -11.658   6.366  68.598  1.00  0.00     0.045 NA 
HETATM   12  C   UNL     1      -8.048   5.056  67.391  1.00  0.00    -0.103 A  
HETATM   13  C   UNL     1     -10.519   5.865  68.003  1.00  0.00    -0.234 A  
HETATM   14  H1  UNL     1     -11.081   4.708  64.882  1.00  0.00     0.000 HD 
HETATM   15  H2  UNL     1     -11.687   6.041  65.633  1.00  0.00     0.000 HD 
ENDBRANCH   3   4
ENDBRANCH   1   3
BRANCH   1  16
HETATM   16  O   UNL     1      -9.251   9.152  70.594  1.00  0.00    -0.216 OA 
BRANCH  16  17
HETATM   17  C   UNL     1      -8.400   9.780  69.604  1.00  0.00    -0.173 C  
HETATM   18  O   UNL     1      -8.971   8.760  67.514  1.00  0.00    -0.133 OA 
HETATM   19  O   UNL     1     -10.755  10.190  68.790  1.00  0.00    -0.201 OA 
HETATM   20  P   UNL     1      -9.284  10.160  68.047  1.00  0.00    -0.140 P  
HETATM   21  O   UNL     1     -10.119  10.519  66.576  1.00  0.00    -0.210 OA 
BRANCH  19  22
HETATM   22  C   UNL     1     -11.284  11.415  69.249  1.00  0.00    -0.277 C  
BRANCH  22  23
HETATM   23  O   UNL     1     -11.677  11.346  70.625  1.00  0.00    -0.298 OA 
BRANCH  23  24
HETATM   24  C   UNL     1     -12.324  12.452  71.072  1.00  0.00    -0.210 C  
HETATM   25  O   UNL     1     -13.333  12.457  71.765  1.00  0.00    -0.414 OA 
BRANCH  24  26
HETATM   26  O   UNL     1     -11.686  13.560  70.610  1.00  0.00    -0.185 OA 
BRANCH  26  27
HETATM   27  C   UNL     1     -12.191  14.817  71.112  1.00  0.00    -0.325 C  
HETATM   28  C   UNL     1     -11.568  15.093  72.476  1.00  0.00    -0.448 C  
HETATM   29  C   UNL     1     -11.835  15.930  70.132  1.00  0.00    -0.327 C  
ENDBRANCH  26  27
ENDBRANCH  24  26
ENDBRANCH  23  24
ENDBRANCH  22  23
ENDBRANCH  19  22
BRANCH  21  30
HETATM   30  C   UNL     1      -9.433  11.457  65.774  1.00  0.00    -0.233 C  
BRANCH  30  31
HETATM   31  O   UNL     1      -9.921  11.463  64.436  1.00  0.00    -0.243 OA 
BRANCH  31  32
HETATM   32  C   UNL     1      -8.979  11.190  63.504  1.00  0.00    -0.057 C  
HETATM   33  O   UNL     1      -8.942  11.649  62.370  1.00  0.00    -0.273 OA 
BRANCH  32  34
HETATM   34  O   UNL     1      -8.054  10.372  64.066  1.00  0.00    -0.152 OA 
BRANCH  34  35
HETATM   35  C   UNL     1      -6.725  10.434  63.513  1.00  0.00    -0.028 C  
HETATM   36  C   UNL     1      -6.323   9.014  63.125  1.00  0.00    -0.090 C  
HETATM   37  C   UNL     1      -5.745  10.990  64.542  1.00  0.00     0.414 C  
ENDBRANCH  34  35
ENDBRANCH  32  34
ENDBRANCH  31  32
ENDBRANCH  30  31
ENDBRANCH  21  30
ENDBRANCH  16  17
ENDBRANCH   1  16
TORSDOF 14
ENDMDL
MODEL      307
REMARK 921   NORMALIZED FREE ENERGY PREDICTED BY IDOCK:   -3.61 KCAL/MOL
REMARK 922        TOTAL FREE ENERGY PREDICTED BY IDOCK:   -8.40 KCAL/MOL
REMARK 923 INTER-LIGAND FREE ENERGY PREDICTED BY IDOCK:   -8.32 KCAL/MOL
REMARK 924 INTRA-LIGAND FREE ENERGY PREDICTED BY IDOCK:   -0.09 KCAL/MOL
REMARK 927      BINDING AFFINITY PREDICTED BY RF-SCORE:    0.00 PKD
ROOT
HETATM    1  C   UNL     1     -10.859  14.265  68.742  1.00  0.00    -0.253 C  
HETATM    2  C   UNL     1     -12.196  15.001  68.676  1.00  0.00    -0.085 C  
ENDROOT
BRANCH   1   3
HETATM    3  C   UNL     1      -9.900  14.632  67.619  1.00  0.00    -0.218 C  
BRANCH   3   4
HETATM    4  N   UNL     1     -10.247  15.793  66.844  1.00  0.00    -0.274 NA 
HETATM    5  C   UNL     1      -9.985  17.060  67.265  1.00  0.00    -0.275 A  
HETATM    6  N   UNL     1      -9.667  19.682  67.560  1.00  0.00    -0.334 NA 
HETATM    7  C   UNL     1     -10.710  15.864  65.560  1.00  0.00    -0.372 A  
HETATM    8  N   UNL     1     -10.481  20.170  65.400  1.00  0.00    -0.266 NA 
HETATM    9  N   UNL     1      -9.480  17.440  68.449  1.00  0.00    -0.283 NA 
HETATM   10  C   UNL     1     -10.154  19.240  66.379  1.00  0.00    -0.429 A  
HETATM   11  N   UNL     1     -10.808  17.107  65.146  1.00  0.00    -0.598 NA 
HETATM   12  C   UNL     1      -9.350  18.772  68.508  1.00  0.00    -0.350 A  
HETATM   13  C   UNL     1     -10.335  17.864  66.198  1.00  0.00    -0.352 A  
HETATM   14  H1  UNL     1     -10.348  21.173  65.532  1.00  0.00     0.000 HD 
HETATM   15  H2  UNL     1     -11.456  20.019  65.144  1.00  0.00     0.000 HD 
ENDBRANCH   3   4
ENDBRANCH   1   3
BRANCH   1  16
HETATM   16  O   UNL     1     -11.122  12.849  68.846  1.00  0.00    -0.246 OA 
BRANCH  16  17
HETATM   17  C   UNL     1     -11.250  12.129  67.596  1.00  0.00    -0.286 C  
HETATM   18  O   UNL     1      -9.022  11.527  66.958  1.00  0.00    -0.164 OA 
HETATM   19  O   UNL     1     -10.060  10.529  69.145  1.00  0.00    -0.205 OA 
HETATM   20  P   UNL     1     -10.159  10.663  67.506  1.00  0.00    -0.203 P  
HETATM   21  O   UNL     1      -9.129   9.276  67.420  1.00  0.00    -0.126 OA 
BRANCH  19  22
HETATM   22  C   UNL     1     -10.948   9.677  69.835  1.00  0.00    -0.252 C  
BRANCH  22  23
HETATM   23  O   UNL     1     -10.253   8.716  70.638  1.00  0.00    -0.187 OA 
BRANCH  23  24
HETATM   24  C   UNL     1     -10.940   7.563  70.840  1.00  0.00    -0.253 C  
HETATM   25  O   UNL     1     -12.156   7.437  70.777  1.00  0.00    -0.280 OA 
BRANCH  24  26
HETATM   26  O   UNL     1     -10.064   6.569  71.144  1.00  0.00    -0.183 OA 
BRANCH  26  27
HETATM   27  C   UNL     1      -9.998   6.212  72.543  1.00  0.00    -0.172 C  
HETATM   28  C   UNL     1     -10.172   7.472  73.385  1.00  0.00    -0.399 C  
HETATM   29  C   UNL     1     -11.101   5.207  72.859  1.00  0.00    -0.359 C  
ENDBRANCH  26  27
ENDBRANCH  24  26
ENDBRANCH  23  24
ENDBRANCH  22  23
ENDBRANCH  19  22
BRANCH  21  30
HETATM   30  C   UNL     1      -9.516   8.370  66.409  1.00  0.00    -0.227 C  
BRANCH  30  31
HETATM   31  O   UNL     1      -8.763   8.560  65.215  1.00  0.00    -0.179 OA 
BRANCH  31  32
HETATM   32  C   UNL     1      -7.748   7.679  65.056  1.00  0.00    -0.109 C  
HETATM   33  O   UNL     1      -7.594   6.644  65.692  1.00  0.00    -0.079 OA 
BRANCH  32  34
HETATM   34  O   UNL     1      -6.971   8.111  64.032  1.00  0.00    -0.069 OA 
BRANCH  34  35
HETATM   35  C   UNL     1      -5.821   8.902  64.391  1.00  0.00    -0.065 C  
HETATM   36  C   UNL     1      -5.747   8.938  65.914  1.00  0.00    -0.050 C  
HETATM   37  C   UNL     1      -5.955  10.319  63.842  1.00  0.00    -0.133 C  
ENDBRANCH  34  35
ENDBRANCH  32  34
ENDBRANCH  31  32
ENDBRANCH  30  31
ENDBRANCH  21  30
ENDBRANCH  16  17
ENDBRANCH   1  16
TORSDOF 14
ENDMDL
MODEL      308
REMARK 921   NORMALIZED FREE ENERGY PREDICTED BY IDOCK:   -3.59 KCAL/MOL
REMARK 922        TOTAL FREE ENERGY PREDICTED BY IDOCK:   -8.37 KCAL/MOL
REMARK 923 INTER-LIGAND FREE ENERGY PREDICTED BY IDOCK:   -7.81 KCAL/MOL
REMARK 924 INTRA-LIGAND FREE ENERGY PREDICTED BY IDOCK:   -0.57 KCAL/MOL
REMARK 927      BINDING AFFINITY PREDICTED BY RF-SCORE:    0.00 PKD
ROOT
HETATM    1  C   UNL     1     -11.801  14.368  68.689  1.00  0.00    -0.331 C  
HETATM    2  C   UNL     1     -11.757  15.874  68.445  1.00  0.00    -0.246 C  
ENDROOT
BRANCH   1   3
HETATM    3  C   UNL     1     -11.350  13.959  70.085  1.00  0.00    -0.000 C  
BRANCH   3   4
HETATM    4  N   UNL     1     -12.264  13.134  70.829  1.00  0.00    -0.348 NA 
HETATM    5  C   UNL     1     -12.193  11.775  70.829  1.00  0.00    -0.326 A  
HETATM    6  N   UNL     1     -12.471   9.163  71.228  1.00  0.00    -0.311 NA 
HETATM    7  C   UNL     1     -13.203  13.505  71.751  1.00  0.00    -0.404 A  
HETATM    8  N   UNL     1     -14.176   9.443  72.835  1.00  0.00    -0.912 NA 
HETATM    9  N   UNL     1     -11.374  11.001  70.101  1.00  0.00    -0.281 NA 
HETATM   10  C   UNL     1     -13.257   9.993  71.949  1.00  0.00    -0.452 A  
HETATM   11  N   UNL     1     -13.775  12.463  72.310  1.00  0.00    -0.344 NA 
HETATM   12  C   UNL     1     -11.579   9.704  70.369  1.00  0.00    -0.236 A  
HETATM   13  C   UNL     1     -13.134  11.374  71.756  1.00  0.00    -0.418 A  
HETATM   14  H1  UNL     1     -14.265   8.437  72.976  1.00  0.00     0.000 HD 
HETATM   15  H2  UNL     1     -15.097   9.803  72.588  1.00  0.00     0.000 HD 
ENDBRANCH   3   4
ENDBRANCH   1   3
BRANCH   1  16
HETATM   16  O   UNL     1     -11.077  13.711  67.627  1.00  0.00    -0.261 OA 
BRANCH  16  17
HETATM   17  C   UNL     1      -9.646  13.933  67.595  1.00  0.00    -0.215 C  
HETATM   18  O   UNL     1      -8.665  12.012  68.636  1.00  0.00    -0.121 OA 
HETATM   19  O   UNL     1      -9.988  11.739  66.393  1.00  0.00    -0.203 OA 
HETATM   20  P   UNL     1      -8.703  12.425  67.164  1.00  0.00    -0.189 P  
HETATM   21  O   UNL     1      -7.811  11.000  66.755  1.00  0.00    -0.135 OA 
BRANCH  19  22
HETATM   22  C   UNL     1     -10.138  11.900  64.999  1.00  0.00    -0.264 C  
BRANCH  22  23
HETATM   23  O   UNL     1     -10.154  10.642  64.314  1.00  0.00    -0.328 OA 
BRANCH  23  24
HETATM   24  C   UNL     1      -9.131  10.475  63.438  1.00  0.00    -0.249 C  
HETATM   25  O   UNL     1      -9.029  11.024  62.349  1.00  0.00    -0.298 OA 
BRANCH  24  26
HETATM   26  O   UNL     1      -8.243   9.585  63.953  1.00  0.00    -0.139 OA 
BRANCH  26  27
HETATM   27  C   UNL     1      -7.641   8.689  62.993  1.00  0.00    -0.111 C  
HETATM   28  C   UNL     1      -6.148   8.982  62.907  1.00  0.00    -0.090 C  
HETATM   29  C   UNL     1      -7.874   7.247  63.434  1.00  0.00    -0.110 C  
ENDBRANCH  26  27
ENDBRANCH  24  26
ENDBRANCH  23  24
ENDBRANCH  22  23
ENDBRANCH  19  22
BRANCH  21  30
HETATM   30  C   UNL     1      -6.490  11.283  66.346  1.00  0.00    -0.080 C  
BRANCH  30  31
HETATM   31  O   UNL     1      -5.545  10.968  67.363  1.00  0.00    -0.043 OA 
BRANCH  31  32
HETATM   32  C   UNL     1      -5.961  10.016  68.229  1.00  0.00    -0.042 C  
HETATM   33  O   UNL     1      -6.524  10.219  69.297  1.00  0.00    -0.044 OA 
BRANCH  32  34
HETATM   34  O   UNL     1      -5.702   8.804  67.680  1.00  0.00    -0.038 OA 
BRANCH  34  35
HETATM   35  C   UNL     1      -6.696   7.781  67.888  1.00  0.00    -0.067 C  
HETATM   36  C   UNL     1      -6.610   6.812  66.712  1.00  0.00    -0.044 C  
HETATM   37  C   UNL     1      -8.090   8.397  67.954  1.00  0.00    -0.123 C  
ENDBRANCH  34  35
ENDBRANCH  32  34
ENDBRANCH  31  32
ENDBRANCH  30  31
ENDBRANCH  21  30
ENDBRANCH  16  17
ENDBRANCH   1  16
TORSDOF 14
ENDMDL
MODEL      309
REMARK 921   NORMALIZED FREE ENERGY PREDICTED BY IDOCK:   -3.58 KCAL/MOL
REMARK 922        TOTAL FREE ENERGY PREDICTED BY IDOCK:   -8.36 KCAL/MOL
REMARK 923 INTER-LIGAND FREE ENERGY PREDICTED BY IDOCK:   -7.26 KCAL/MOL
REMARK 924 INTRA-LIGAND FREE ENERGY PREDICTED BY IDOCK:   -1.10 KCAL/MOL
REMARK 927      BINDING AFFINITY PREDICTED BY RF-SCORE:    0.00 PKD
ROOT
HETATM    1  C   UNL     1     -11.764   8.796  70.449  1.00  0.00    -0.019 C  
HETATM    2  C   UNL     1     -12.742   9.190  71.554  1.00  0.00    -0.409 C  
ENDROOT
BRANCH   1   3
HETATM    3  C   UNL     1     -11.110   7.438  70.664  1.00  0.00    -0.266 C  
BRANCH   3   4
HETATM    4  N   UNL     1     -10.276   7.314  71.829  1.00  0.00    -0.194 NA 
HETATM    5  C   UNL     1      -9.093   6.642  71.817  1.00  0.00    -0.144 A  
HETATM    6  N   UNL     1      -6.733   5.534  72.332  1.00  0.00    -0.068 NA 
HETATM    7  C   UNL     1     -10.394   7.934  73.042  1.00  0.00    -0.334 A  
HETATM    8  N   UNL     1      -6.640   6.407  74.522  1.00  0.00    -0.084 NA 
HETATM    9  N   UNL     1      -8.569   5.930  70.807  1.00  0.00    -0.129 NA 
HETATM   10  C   UNL     1      -7.301   6.279  73.307  1.00  0.00    -0.087 A  
HETATM   11  N   UNL     1      -9.378   7.662  73.829  1.00  0.00    -0.279 NA 
HETATM   12  C   UNL     1      -7.381   5.415  71.153  1.00  0.00    -0.083 A  
HETATM   13  C   UNL     1      -8.546   6.871  73.064  1.00  0.00    -0.118 A  
HETATM   14  H1  UNL     1      -5.733   5.976  74.699  1.00  0.00     0.000 HD 
HETATM   15  H2  UNL     1      -7.277   6.096  75.255  1.00  0.00     0.000 HD 
ENDBRANCH   3   4
ENDBRANCH   1   3
BRANCH   1  16
HETATM   16  O   UNL     1     -10.824   9.875  70.265  1.00  0.00    -0.265 OA 
BRANCH  16  17
HETATM   17  C   UNL     1      -9.742   9.628  69.333  1.00  0.00    -0.194 C  
HETATM   18  O   UNL     1     -10.702   8.368  67.538  1.00  0.00    -0.240 OA 
HETATM   19  O   UNL     1     -11.506  10.821  67.976  1.00  0.00    -0.391 OA 
HETATM   20  P   UNL     1     -10.249   9.828  67.587  1.00  0.00    -0.244 P  
HETATM   21  O   UNL     1     -10.728  10.018  65.935  1.00  0.00    -0.011 OA 
BRANCH  19  22
HETATM   22  C   UNL     1     -11.326  12.220  67.960  1.00  0.00    -0.293 C  
BRANCH  22  23
HETATM   23  O   UNL     1     -12.521  12.909  67.571  1.00  0.00    -0.139 OA 
BRANCH  23  24
HETATM   24  C   UNL     1     -12.468  13.452  66.329  1.00  0.00    -0.276 C  
HETATM   25  O   UNL     1     -12.944  12.960  65.315  1.00  0.00    -0.703 OA 
BRANCH  24  26
HETATM   26  O   UNL     1     -11.781  14.624  66.383  1.00  0.00    -0.369 OA 
BRANCH  26  27
HETATM   27  C   UNL     1     -10.819  14.825  65.325  1.00  0.00    -0.383 C  
HETATM   28  C   UNL     1     -11.139  16.129  64.603  1.00  0.00    -0.310 C  
HETATM   29  C   UNL     1      -9.417  14.881  65.923  1.00  0.00    -0.290 C  
ENDBRANCH  26  27
ENDBRANCH  24  26
ENDBRANCH  23  24
ENDBRANCH  22  23
ENDBRANCH  19  22
BRANCH  21  30
HETATM   30  C   UNL     1      -9.629  10.165  65.062  1.00  0.00    -0.299 C  
BRANCH  30  31
HETATM   31  O   UNL     1      -8.394   9.901  65.721  1.00  0.00    -0.122 OA 
BRANCH  31  32
HETATM   32  C   UNL     1      -7.509   9.198  64.977  1.00  0.00    -0.105 C  
HETATM   33  O   UNL     1      -7.278   9.374  63.788  1.00  0.00    -0.097 OA 
BRANCH  32  34
HETATM   34  O   UNL     1      -6.885   8.311  65.790  1.00  0.00    -0.062 OA 
BRANCH  34  35
HETATM   35  C   UNL     1      -7.589   7.082  66.058  1.00  0.00    -0.096 C  
HETATM   36  C   UNL     1      -7.530   6.839  67.564  1.00  0.00    -0.097 C  
HETATM   37  C   UNL     1      -6.935   5.921  65.317  1.00  0.00    -0.063 C  
ENDBRANCH  34  35
ENDBRANCH  32  34
ENDBRANCH  31  32
ENDBRANCH  30  31
ENDBRANCH  21  30
ENDBRANCH  16  17
ENDBRANCH   1  16
TORSDOF 14
ENDMDL
MODEL      310
REMARK 921   NORMALIZED FREE ENERGY PREDICTED BY IDOCK:   -3.58 KCAL/MOL
REMARK 922        TOTAL FREE ENERGY PREDICTED BY IDOCK:   -8.34 KCAL/MOL
REMARK 923 INTER-LIGAND FREE ENERGY PREDICTED BY IDOCK:   -6.10 KCAL/MOL
REMARK 924 INTRA-LIGAND FREE ENERGY PREDICTED BY IDOCK:   -2.24 KCAL/MOL
REMARK 927      BINDING AFFINITY PREDICTED BY RF-SCORE:    0.00 PKD
ROOT
HETATM    1  C   UNL     1      -8.312  10.524  66.435  1.00  0.00    -0.145 C  
HETATM    2  C   UNL     1      -9.149  11.789  66.254  1.00  0.00    -0.209 C  
ENDROOT
BRANCH   1   3
HETATM    3  C   UNL     1      -9.106   9.234  66.276  1.00  0.00    -0.171 C  
BRANCH   3   4
HETATM    4  N   UNL     1      -8.444   8.166  65.577  1.00  0.00    -0.156 NA 
HETATM    5  C   UNL     1      -8.786   6.859  65.742  1.00  0.00    -0.106 A  
HETATM    6  N   UNL     1      -9.073   4.220  65.635  1.00  0.00    -0.129 NA 
HETATM    7  C   UNL     1      -7.533   8.236  64.560  1.00  0.00    -0.101 A  
HETATM    8  N   UNL     1      -7.493   3.972  63.900  1.00  0.00    -0.062 NA 
HETATM    9  N   UNL     1      -9.677   6.351  66.607  1.00  0.00    -0.159 NA 
HETATM   10  C   UNL     1      -8.202   4.789  64.773  1.00  0.00    -0.122 A  
HETATM   11  N   UNL     1      -7.232   7.047  64.092  1.00  0.00    -0.063 NA 
HETATM   12  C   UNL     1      -9.760   5.019  66.480  1.00  0.00    -0.180 A  
HETATM   13  C   UNL     1      -8.028   6.178  64.809  1.00  0.00    -0.124 A  
HETATM   14  H1  UNL     1      -7.619   2.961  63.874  1.00  0.00     0.000 HD 
HETATM   15  H2  UNL     1      -6.500   4.155  64.045  1.00  0.00     0.000 HD 
ENDBRANCH   3   4
ENDBRANCH   1   3
BRANCH   1  16
HETATM   16  O   UNL     1      -7.601  10.622  67.687  1.00  0.00    -0.091 OA 
BRANCH  16  17
HETATM   17  C   UNL     1      -7.111   9.377  68.243  1.00  0.00    -0.076 C  
HETATM   18  O   UNL     1      -6.185   9.936  70.379  1.00  0.00    -0.070 OA 
HETATM   19  O   UNL     1      -8.749  10.249  69.954  1.00  0.00    -0.131 OA 
HETATM   20  P   UNL     1      -7.479   9.201  70.026  1.00  0.00    -0.106 P  
HETATM   21  O   UNL     1      -7.828   9.034  71.712  1.00  0.00    -0.333 OA 
BRANCH  19  22
HETATM   22  C   UNL     1     -10.057   9.755  69.757  1.00  0.00    -0.239 C  
BRANCH  22  23
HETATM   23  O   UNL     1     -11.007  10.398  70.615  1.00  0.00    -0.289 OA 
BRANCH  23  24
HETATM   24  C   UNL     1     -11.806   9.540  71.297  1.00  0.00    -0.373 C  
HETATM   25  O   UNL     1     -12.877   9.824  71.818  1.00  0.00    -0.370 OA 
BRANCH  24  26
HETATM   26  O   UNL     1     -11.221   8.314  71.329  1.00  0.00    -0.246 OA 
BRANCH  26  27
HETATM   27  C   UNL     1     -12.095   7.205  71.024  1.00  0.00    -0.350 C  
HETATM   28  C   UNL     1     -11.505   6.411  69.864  1.00  0.00    -0.483 C  
HETATM   29  C   UNL     1     -12.232   6.318  72.258  1.00  0.00    -0.203 C  
ENDBRANCH  26  27
ENDBRANCH  24  26
ENDBRANCH  23  24
ENDBRANCH  22  23
ENDBRANCH  19  22
BRANCH  21  30
HETATM   30  C   UNL     1      -7.712   7.701  72.164  1.00  0.00    -0.089 C  
BRANCH  30  31
HETATM   31  O   UNL     1      -8.474   6.805  71.360  1.00  0.00    -0.120 OA 
BRANCH  31  32
HETATM   32  C   UNL     1      -7.859   5.626  71.113  1.00  0.00    -0.110 C  
HETATM   33  O   UNL     1      -7.087   5.402  70.189  1.00  0.00    -0.061 OA 
BRANCH  32  34
HETATM   34  O   UNL     1      -8.198   4.759  72.099  1.00  0.00    -0.107 OA 
BRANCH  34  35
HETATM   35  C   UNL     1      -9.476   4.106  71.967  1.00  0.00    -0.136 C  
HETATM   36  C   UNL     1      -9.918   3.676  73.362  1.00  0.00    -0.177 C  
HETATM   37  C   UNL     1      -9.360   2.887  71.057  1.00  0.00    -0.218 C  
ENDBRANCH  34  35
ENDBRANCH  32  34
ENDBRANCH  31  32
ENDBRANCH  30  31
ENDBRANCH  21  30
ENDBRANCH  16  17
ENDBRANCH   1  16
TORSDOF 14
ENDMDL
MODEL      311
REMARK 921   NORMALIZED FREE ENERGY PREDICTED BY IDOCK:   -3.52 KCAL/MOL
REMARK 922        TOTAL FREE ENERGY PREDICTED BY IDOCK:   -8.24 KCAL/MOL
REMARK 923 INTER-LIGAND FREE ENERGY PREDICTED BY IDOCK:   -6.48 KCAL/MOL
REMARK 924 INTRA-LIGAND FREE ENERGY PREDICTED BY IDOCK:   -1.77 KCAL/MOL
REMARK 927      BINDING AFFINITY PREDICTED BY RF-SCORE:    0.00 PKD
ROOT
HETATM    1  C   UNL     1      -5.568  13.752  68.952  1.00  0.00    -0.078 C  
HETATM    2  C   UNL     1      -6.472  13.996  70.158  1.00  0.00    -0.055 C  
ENDROOT
BRANCH   1   3
HETATM    3  C   UNL     1      -5.595  14.877  67.926  1.00  0.00    -0.114 C  
BRANCH   3   4
HETATM    4  N   UNL     1      -6.782  15.690  67.910  1.00  0.00    -0.136 NA 
HETATM    5  C   UNL     1      -6.795  16.977  68.350  1.00  0.00    -0.170 A  
HETATM    6  N   UNL     1      -7.362  19.489  69.006  1.00  0.00    -0.365 NA 
HETATM    7  C   UNL     1      -7.997  15.429  67.340  1.00  0.00    -0.188 A  
HETATM    8  N   UNL     1      -9.562  19.364  68.163  1.00  0.00    -0.338 NA 
HETATM    9  N   UNL     1      -5.792  17.650  68.936  1.00  0.00    -0.180 NA 
HETATM   10  C   UNL     1      -8.328  18.768  68.395  1.00  0.00    -0.342 A  
HETATM   11  N   UNL     1      -8.808  16.458  67.430  1.00  0.00    -0.182 NA 
HETATM   12  C   UNL     1      -6.164  18.904  69.227  1.00  0.00    -0.264 A  
HETATM   13  C   UNL     1      -8.058  17.441  68.041  1.00  0.00    -0.227 A  
HETATM   14  H1  UNL     1      -9.759  20.331  68.421  1.00  0.00     0.000 HD 
HETATM   15  H2  UNL     1     -10.274  18.778  68.598  1.00  0.00     0.000 HD 
ENDBRANCH   3   4
ENDBRANCH   1   3
BRANCH   1  16
HETATM   16  O   UNL     1      -5.878  12.453  68.403  1.00  0.00    -0.053 OA 
BRANCH  16  17
HETATM   17  C   UNL     1      -6.745  12.440  67.243  1.00  0.00    -0.133 C  
HETATM   18  O   UNL     1      -5.408  11.612  65.437  1.00  0.00     0.044 OA 
HETATM   19  O   UNL     1      -5.940  10.058  67.476  1.00  0.00    -0.053 OA 
HETATM   20  P   UNL     1      -6.538  10.939  66.218  1.00  0.00    -0.063 P  
HETATM   21  O   UNL     1      -6.343   9.519  65.249  1.00  0.00    -0.068 OA 
BRANCH  19  22
HETATM   22  C   UNL     1      -6.810   9.263  68.252  1.00  0.00    -0.064 C  
BRANCH  22  23
HETATM   23  O   UNL     1      -8.119   9.838  68.347  1.00  0.00    -0.102 OA 
BRANCH  23  24
HETATM   24  C   UNL     1      -8.482  10.183  69.608  1.00  0.00    -0.157 C  
HETATM   25  O   UNL     1      -7.796  10.044  70.611  1.00  0.00    -0.236 OA 
BRANCH  24  26
HETATM   26  O   UNL     1      -9.743  10.692  69.586  1.00  0.00    -0.132 OA 
BRANCH  26  27
HETATM   27  C   UNL     1     -10.168  11.230  68.314  1.00  0.00    -0.186 C  
HETATM   28  C   UNL     1     -11.519  10.626  67.946  1.00  0.00    -0.261 C  
HETATM   29  C   UNL     1     -10.277  12.748  68.420  1.00  0.00    -0.237 C  
ENDBRANCH  26  27
ENDBRANCH  24  26
ENDBRANCH  23  24
ENDBRANCH  22  23
ENDBRANCH  19  22
BRANCH  21  30
HETATM   30  C   UNL     1      -7.422   9.310  64.363  1.00  0.00    -0.106 C  
BRANCH  30  31
HETATM   31  O   UNL     1      -8.231  10.476  64.236  1.00  0.00    -0.147 OA 
BRANCH  31  32
HETATM   32  C   UNL     1      -9.545  10.266  64.485  1.00  0.00    -0.316 C  
HETATM   33  O   UNL     1     -10.008   9.358  65.162  1.00  0.00    -0.105 OA 
BRANCH  32  34
HETATM   34  O   UNL     1     -10.248  11.271  63.906  1.00  0.00    -0.297 OA 
BRANCH  34  35
HETATM   35  C   UNL     1     -10.942  12.163  64.800  1.00  0.00    -0.310 C  
HETATM   36  C   UNL     1     -12.425  12.109  64.441  1.00  0.00    -0.418 C  
HETATM   37  C   UNL     1     -10.420  13.588  64.643  1.00  0.00    -0.439 C  
ENDBRANCH  34  35
ENDBRANCH  32  34
ENDBRANCH  31  32
ENDBRANCH  30  31
ENDBRANCH  21  30
ENDBRANCH  16  17
ENDBRANCH   1  16
TORSDOF 14
ENDMDL
MODEL      312
REMARK 921   NORMALIZED FREE ENERGY PREDICTED BY IDOCK:   -3.52 KCAL/MOL
REMARK 922        TOTAL FREE ENERGY PREDICTED BY IDOCK:   -8.23 KCAL/MOL
REMARK 923 INTER-LIGAND FREE ENERGY PREDICTED BY IDOCK:   -6.95 KCAL/MOL
REMARK 924 INTRA-LIGAND FREE ENERGY PREDICTED BY IDOCK:   -1.28 KCAL/MOL
REMARK 927      BINDING AFFINITY PREDICTED BY RF-SCORE:    0.00 PKD
ROOT
HETATM    1  C   UNL     1      -9.573  12.494  68.232  1.00  0.00    -0.209 C  
HETATM    2  C   UNL     1     -11.037  12.063  68.295  1.00  0.00    -0.290 C  
ENDROOT
BRANCH   1   3
HETATM    3  C   UNL     1      -9.281  13.519  67.145  1.00  0.00    -0.236 C  
BRANCH   3   4
HETATM    4  N   UNL     1      -9.596  14.886  67.462  1.00  0.00    -0.203 NA 
HETATM    5  C   UNL     1      -8.640  15.810  67.753  1.00  0.00    -0.159 A  
HETATM    6  N   UNL     1      -7.220  17.984  68.319  1.00  0.00    -0.240 NA 
HETATM    7  C   UNL     1     -10.795  15.535  67.377  1.00  0.00    -0.312 A  
HETATM    8  N   UNL     1      -9.110  19.397  68.307  1.00  0.00    -0.335 NA 
HETATM    9  N   UNL     1      -7.320  15.605  67.887  1.00  0.00    -0.127 NA 
HETATM   10  C   UNL     1      -8.554  18.133  68.153  1.00  0.00    -0.274 A  
HETATM   11  N   UNL     1     -10.676  16.816  67.642  1.00  0.00    -0.331 NA 
HETATM   12  C   UNL     1      -6.685  16.753  68.166  1.00  0.00    -0.148 A  
HETATM   13  C   UNL     1      -9.326  17.004  67.857  1.00  0.00    -0.240 A  
HETATM   14  H1  UNL     1      -8.547  20.220  68.522  1.00  0.00     0.000 HD 
HETATM   15  H2  UNL     1      -9.839  19.329  69.016  1.00  0.00     0.000 HD 
ENDBRANCH   3   4
ENDBRANCH   1   3
BRANCH   1  16
HETATM   16  O   UNL     1      -8.752  11.310  68.155  1.00  0.00    -0.141 OA 
BRANCH  16  17
HETATM   17  C   UNL     1      -8.767  10.602  66.890  1.00  0.00    -0.132 C  
HETATM   18  O   UNL     1      -7.023   8.968  67.036  1.00  0.00    -0.076 OA 
HETATM   19  O   UNL     1      -9.087   8.810  68.639  1.00  0.00    -0.141 OA 
HETATM   20  P   UNL     1      -8.543   8.797  67.084  1.00  0.00    -0.117 P  
HETATM   21  O   UNL     1      -8.331   7.089  67.266  1.00  0.00    -0.120 OA 
BRANCH  19  22
HETATM   22  C   UNL     1     -10.448   8.549  68.909  1.00  0.00    -0.188 C  
BRANCH  22  23
HETATM   23  O   UNL     1     -10.611   7.544  69.917  1.00  0.00    -0.228 OA 
BRANCH  23  24
HETATM   24  C   UNL     1     -11.594   7.813  70.812  1.00  0.00    -0.255 C  
HETATM   25  O   UNL     1     -12.182   8.879  70.926  1.00  0.00    -0.252 OA 
BRANCH  24  26
HETATM   26  O   UNL     1     -11.810   6.713  71.582  1.00  0.00    -0.304 OA 
BRANCH  26  27
HETATM   27  C   UNL     1     -10.679   6.279  72.369  1.00  0.00    -0.225 C  
HETATM   28  C   UNL     1     -10.454   7.272  73.504  1.00  0.00    -0.421 C  
HETATM   29  C   UNL     1     -10.958   4.888  72.929  1.00  0.00    -0.332 C  
ENDBRANCH  26  27
ENDBRANCH  24  26
ENDBRANCH  23  24
ENDBRANCH  22  23
ENDBRANCH  19  22
BRANCH  21  30
HETATM   30  C   UNL     1      -8.727   6.366  66.121  1.00  0.00    -0.146 C  
BRANCH  30  31
HETATM   31  O   UNL     1      -9.687   5.363  66.437  1.00  0.00    -0.150 OA 
BRANCH  31  32
HETATM   32  C   UNL     1      -9.228   4.097  66.304  1.00  0.00    -0.155 C  
HETATM   33  O   UNL     1      -9.452   3.171  67.074  1.00  0.00    -0.178 OA 
BRANCH  32  34
HETATM   34  O   UNL     1      -8.531   4.021  65.144  1.00  0.00    -0.110 OA 
BRANCH  34  35
HETATM   35  C   UNL     1      -7.666   2.879  64.991  1.00  0.00    -0.081 C  
HETATM   36  C   UNL     1      -6.256   3.318  65.376  1.00  0.00    -0.027 C  
HETATM   37  C   UNL     1      -7.682   2.386  63.547  1.00  0.00    -0.067 C  
ENDBRANCH  34  35
ENDBRANCH  32  34
ENDBRANCH  31  32
ENDBRANCH  30  31
ENDBRANCH  21  30
ENDBRANCH  16  17
ENDBRANCH   1  16
TORSDOF 14
ENDMDL
MODEL      313
REMARK 921   NORMALIZED FREE ENERGY PREDICTED BY IDOCK:   -3.51 KCAL/MOL
REMARK 922        TOTAL FREE ENERGY PREDICTED BY IDOCK:   -8.22 KCAL/MOL
REMARK 923 INTER-LIGAND FREE ENERGY PREDICTED BY IDOCK:   -7.46 KCAL/MOL
REMARK 924 INTRA-LIGAND FREE ENERGY PREDICTED BY IDOCK:   -0.76 KCAL/MOL
REMARK 927      BINDING AFFINITY PREDICTED BY RF-SCORE:    0.00 PKD
ROOT
HETATM    1  C   UNL     1      -9.161  16.742  68.527  1.00  0.00    -0.243 C  
HETATM    2  C   UNL     1     -10.552  17.326  68.765  1.00  0.00    -0.305 C  
ENDROOT
BRANCH   1   3
HETATM    3  C   UNL     1      -8.031  17.742  68.735  1.00  0.00    -0.238 C  
BRANCH   3   4
HETATM    4  N   UNL     1      -7.924  18.790  67.756  1.00  0.00    -0.251 NA 
HETATM    5  C   UNL     1      -6.975  18.788  66.781  1.00  0.00    -0.200 A  
HETATM    6  N   UNL     1      -5.408  19.249  64.685  1.00  0.00    -0.183 NA 
HETATM    7  C   UNL     1      -8.780  19.826  67.507  1.00  0.00    -0.330 A  
HETATM    8  N   UNL     1      -6.639  21.141  63.999  1.00  0.00    -0.495 NA 
HETATM    9  N   UNL     1      -5.966  17.916  66.626  1.00  0.00    -0.146 NA 
HETATM   10  C   UNL     1      -6.453  20.084  64.881  1.00  0.00    -0.281 A  
HETATM   11  N   UNL     1      -8.410  20.521  66.455  1.00  0.00    -0.093 NA 
HETATM   12  C   UNL     1      -5.234  18.222  65.545  1.00  0.00    -0.184 A  
HETATM   13  C   UNL     1      -7.293  19.866  65.979  1.00  0.00    -0.309 A  
HETATM   14  H1  UNL     1      -6.028  21.300  63.198  1.00  0.00     0.000 HD 
HETATM   15  H2  UNL     1      -6.658  22.001  64.547  1.00  0.00     0.000 HD 
ENDBRANCH   3   4
ENDBRANCH   1   3
BRANCH   1  16
HETATM   16  O   UNL     1      -9.148  16.108  67.230  1.00  0.00    -0.199 OA 
BRANCH  16  17
HETATM   17  C   UNL     1      -8.185  15.041  67.050  1.00  0.00    -0.213 C  
HETATM   18  O   UNL     1      -7.960  13.997  69.193  1.00  0.00    -0.010 OA 
HETATM   19  O   UNL     1     -10.256  13.902  67.937  1.00  0.00    -0.232 OA 
HETATM   20  P   UNL     1      -8.657  13.504  67.923  1.00  0.00    -0.208 P  
HETATM   21  O   UNL     1      -9.103  12.050  68.748  1.00  0.00    -0.068 OA 
BRANCH  19  22
HETATM   22  C   UNL     1     -11.104  13.437  66.910  1.00  0.00    -0.292 C  
BRANCH  22  23
HETATM   23  O   UNL     1     -10.413  13.311  65.661  1.00  0.00    -0.271 OA 
BRANCH  23  24
HETATM   24  C   UNL     1     -10.601  12.118  65.043  1.00  0.00    -0.291 C  
HETATM   25  O   UNL     1     -11.484  11.864  64.235  1.00  0.00    -0.350 OA 
BRANCH  24  26
HETATM   26  O   UNL     1      -9.662  11.237  65.480  1.00  0.00    -0.211 OA 
BRANCH  26  27
HETATM   27  C   UNL     1      -9.785   9.896  64.957  1.00  0.00    -0.288 C  
HETATM   28  C   UNL     1      -8.520   9.548  64.179  1.00  0.00    -0.194 C  
HETATM   29  C   UNL     1      -9.982   8.920  66.112  1.00  0.00    -0.290 C  
ENDBRANCH  26  27
ENDBRANCH  24  26
ENDBRANCH  23  24
ENDBRANCH  22  23
ENDBRANCH  19  22
BRANCH  21  30
HETATM   30  C   UNL     1      -8.404  10.919  68.276  1.00  0.00    -0.129 C  
BRANCH  30  31
HETATM   31  O   UNL     1      -7.163  10.746  68.953  1.00  0.00    -0.072 OA 
BRANCH  31  32
HETATM   32  C   UNL     1      -7.245   9.991  70.073  1.00  0.00    -0.156 C  
HETATM   33  O   UNL     1      -6.678  10.221  71.133  1.00  0.00    -0.312 OA 
BRANCH  32  34
HETATM   34  O   UNL     1      -8.109   8.973  69.832  1.00  0.00    -0.100 OA 
BRANCH  34  35
HETATM   35  C   UNL     1      -7.559   7.642  69.883  1.00  0.00    -0.092 C  
HETATM   36  C   UNL     1      -7.157   7.258  68.462  1.00  0.00    -0.085 C  
HETATM   37  C   UNL     1      -8.596   6.657  70.415  1.00  0.00    -0.143 C  
ENDBRANCH  34  35
ENDBRANCH  32  34
ENDBRANCH  31  32
ENDBRANCH  30  31
ENDBRANCH  21  30
ENDBRANCH  16  17
ENDBRANCH   1  16
TORSDOF 14
ENDMDL
MODEL      314
REMARK 921   NORMALIZED FREE ENERGY PREDICTED BY IDOCK:   -3.50 KCAL/MOL
REMARK 922        TOTAL FREE ENERGY PREDICTED BY IDOCK:   -8.20 KCAL/MOL
REMARK 923 INTER-LIGAND FREE ENERGY PREDICTED BY IDOCK:   -6.95 KCAL/MOL
REMARK 924 INTRA-LIGAND FREE ENERGY PREDICTED BY IDOCK:   -1.25 KCAL/MOL
REMARK 927      BINDING AFFINITY PREDICTED BY RF-SCORE:    0.00 PKD
ROOT
HETATM    1  C   UNL     1     -11.298  13.881  66.861  1.00  0.00    -0.328 C  
HETATM    2  C   UNL     1     -11.279  14.323  65.399  1.00  0.00    -0.329 C  
ENDROOT
BRANCH   1   3
HETATM    3  C   UNL     1     -10.540  14.814  67.795  1.00  0.00    -0.257 C  
BRANCH   3   4
HETATM    4  N   UNL     1      -9.586  15.694  67.175  1.00  0.00    -0.216 NA 
HETATM    5  C   UNL     1      -9.791  17.035  67.062  1.00  0.00    -0.270 A  
HETATM    6  N   UNL     1      -9.647  19.654  66.639  1.00  0.00    -0.353 NA 
HETATM    7  C   UNL     1      -8.312  15.428  66.760  1.00  0.00    -0.250 A  
HETATM    8  N   UNL     1      -7.441  19.545  65.808  1.00  0.00    -0.379 NA 
HETATM    9  N   UNL     1     -10.893  17.724  67.397  1.00  0.00    -0.266 NA 
HETATM   10  C   UNL     1      -8.559  18.911  66.338  1.00  0.00    -0.294 A  
HETATM   11  N   UNL     1      -7.699  16.511  66.342  1.00  0.00    -0.291 NA 
HETATM   12  C   UNL     1     -10.729  19.032  67.155  1.00  0.00    -0.456 A  
HETATM   13  C   UNL     1      -8.608  17.528  66.548  1.00  0.00    -0.263 A  
HETATM   14  H1  UNL     1      -7.405  20.553  65.655  1.00  0.00     0.000 HD 
HETATM   15  H2  UNL     1      -7.220  19.091  64.922  1.00  0.00     0.000 HD 
ENDBRANCH   3   4
ENDBRANCH   1   3
BRANCH   1  16
HETATM   16  O   UNL     1     -10.863  12.506  66.929  1.00  0.00    -0.239 OA 
BRANCH  16  17
HETATM   17  C   UNL     1      -9.623  12.263  67.638  1.00  0.00    -0.191 C  
HETATM   18  O   UNL     1     -10.248  11.273  69.726  1.00  0.00     0.154 OA 
HETATM   19  O   UNL     1     -10.739  10.003  67.489  1.00  0.00    -0.256 OA 
HETATM   20  P   UNL     1      -9.599  10.645  68.491  1.00  0.00    -0.189 P  
HETATM   21  O   UNL     1      -9.575   9.115  69.299  1.00  0.00    -0.155 OA 
BRANCH  19  22
HETATM   22  C   UNL     1     -10.340   9.273  66.349  1.00  0.00    -0.168 C  
BRANCH  22  23
HETATM   23  O   UNL     1      -8.955   9.475  66.041  1.00  0.00    -0.147 OA 
BRANCH  23  24
HETATM   24  C   UNL     1      -8.188   8.365  66.187  1.00  0.00    -0.113 C  
HETATM   25  O   UNL     1      -8.604   7.232  66.386  1.00  0.00    -0.125 OA 
BRANCH  24  26
HETATM   26  O   UNL     1      -6.877   8.714  66.097  1.00  0.00    -0.071 OA 
BRANCH  26  27
HETATM   27  C   UNL     1      -6.628  10.114  65.839  1.00  0.00    -0.105 C  
HETATM   28  C   UNL     1      -5.727  10.668  66.938  1.00  0.00    -0.057 C  
HETATM   29  C   UNL     1      -5.957  10.264  64.477  1.00  0.00    -0.132 C  
ENDBRANCH  26  27
ENDBRANCH  24  26
ENDBRANCH  23  24
ENDBRANCH  22  23
ENDBRANCH  19  22
BRANCH  21  30
HETATM   30  C   UNL     1      -8.271   8.704  69.651  1.00  0.00    -0.114 C  
BRANCH  30  31
HETATM   31  O   UNL     1      -8.219   8.203  70.983  1.00  0.00    -0.097 OA 
BRANCH  31  32
HETATM   32  C   UNL     1      -8.082   6.859  71.062  1.00  0.00    -0.106 C  
HETATM   33  O   UNL     1      -7.064   6.228  70.809  1.00  0.00    -0.065 OA 
BRANCH  32  34
HETATM   34  O   UNL     1      -9.247   6.344  71.528  1.00  0.00    -0.145 OA 
BRANCH  34  35
HETATM   35  C   UNL     1      -9.390   4.912  71.448  1.00  0.00    -0.150 C  
HETATM   36  C   UNL     1     -10.002   4.587  70.089  1.00  0.00    -0.278 C  
HETATM   37  C   UNL     1     -10.299   4.404  72.563  1.00  0.00    -0.252 C  
ENDBRANCH  34  35
ENDBRANCH  32  34
ENDBRANCH  31  32
ENDBRANCH  30  31
ENDBRANCH  21  30
ENDBRANCH  16  17
ENDBRANCH   1  16
TORSDOF 14
ENDMDL
MODEL      315
REMARK 921   NORMALIZED FREE ENERGY PREDICTED BY IDOCK:   -3.49 KCAL/MOL
REMARK 922        TOTAL FREE ENERGY PREDICTED BY IDOCK:   -8.19 KCAL/MOL
REMARK 923 INTER-LIGAND FREE ENERGY PREDICTED BY IDOCK:   -7.40 KCAL/MOL
REMARK 924 INTRA-LIGAND FREE ENERGY PREDICTED BY IDOCK:   -0.79 KCAL/MOL
REMARK 927      BINDING AFFINITY PREDICTED BY RF-SCORE:    0.00 PKD
ROOT
HETATM    1  C   UNL     1     -11.976  12.341  69.039  1.00  0.00    -0.248 C  
HETATM    2  C   UNL     1     -12.159  13.845  68.846  1.00  0.00    -0.355 C  
ENDROOT
BRANCH   1   3
HETATM    3  C   UNL     1     -11.930  11.910  70.499  1.00  0.00    -0.267 C  
BRANCH   3   4
HETATM    4  N   UNL     1     -11.424  10.588  70.752  1.00  0.00    -0.331 NA 
HETATM    5  C   UNL     1     -12.228   9.552  71.115  1.00  0.00    -0.338 A  
HETATM    6  N   UNL     1     -13.313   7.216  71.771  1.00  0.00    -0.335 NA 
HETATM    7  C   UNL     1     -10.170  10.089  70.533  1.00  0.00    -0.092 A  
HETATM    8  N   UNL     1     -11.280   6.042  71.539  1.00  0.00    -0.279 NA 
HETATM    9  N   UNL     1     -13.542   9.594  71.386  1.00  0.00    -0.329 NA 
HETATM   10  C   UNL     1     -11.995   7.231  71.470  1.00  0.00    -0.316 A  
HETATM   11  N   UNL     1     -10.108   8.800  70.780  1.00  0.00    -0.197 NA 
HETATM   12  C   UNL     1     -14.004   8.375  71.700  1.00  0.00    -0.399 A  
HETATM   13  C   UNL     1     -11.397   8.449  71.124  1.00  0.00    -0.268 A  
HETATM   14  H1  UNL     1     -11.715   5.156  71.790  1.00  0.00     0.000 HD 
HETATM   15  H2  UNL     1     -10.495   6.191  72.173  1.00  0.00     0.000 HD 
ENDBRANCH   3   4
ENDBRANCH   1   3
BRANCH   1  16
HETATM   16  O   UNL     1     -10.832  11.917  68.268  1.00  0.00    -0.203 OA 
BRANCH  16  17
HETATM   17  C   UNL     1     -11.038  10.787  67.385  1.00  0.00    -0.296 C  
HETATM   18  O   UNL     1     -10.973  11.676  65.162  1.00  0.00    -0.294 OA 
HETATM   19  O   UNL     1      -8.830  11.778  66.664  1.00  0.00    -0.182 OA 
HETATM   20  P   UNL     1      -9.948  10.826  65.916  1.00  0.00    -0.271 P  
HETATM   21  O   UNL     1      -8.917  10.861  64.527  1.00  0.00    -0.182 OA 
BRANCH  19  22
HETATM   22  C   UNL     1      -7.729  11.185  67.318  1.00  0.00    -0.130 C  
BRANCH  22  23
HETATM   23  O   UNL     1      -6.571  12.028  67.287  1.00  0.00    -0.119 OA 
BRANCH  23  24
HETATM   24  C   UNL     1      -6.673  13.136  68.064  1.00  0.00    -0.119 C  
HETATM   25  O   UNL     1      -6.979  13.152  69.248  1.00  0.00    -0.074 OA 
BRANCH  24  26
HETATM   26  O   UNL     1      -6.400  14.235  67.311  1.00  0.00    -0.296 OA 
BRANCH  26  27
HETATM   27  C   UNL     1      -7.294  15.353  67.505  1.00  0.00    -0.195 C  
HETATM   28  C   UNL     1      -6.603  16.629  67.036  1.00  0.00    -0.239 C  
HETATM   29  C   UNL     1      -8.573  15.120  66.709  1.00  0.00    -0.297 C  
ENDBRANCH  26  27
ENDBRANCH  24  26
ENDBRANCH  23  24
ENDBRANCH  22  23
ENDBRANCH  19  22
BRANCH  21  30
HETATM   30  C   UNL     1      -8.828   9.608  63.882  1.00  0.00    -0.228 C  
BRANCH  30  31
HETATM   31  O   UNL     1      -7.588   8.963  64.153  1.00  0.00    -0.110 OA 
BRANCH  31  32
HETATM   32  C   UNL     1      -7.697   7.859  64.927  1.00  0.00    -0.112 C  
HETATM   33  O   UNL     1      -8.721   7.465  65.470  1.00  0.00    -0.122 OA 
BRANCH  32  34
HETATM   34  O   UNL     1      -6.493   7.235  64.944  1.00  0.00    -0.037 OA 
BRANCH  34  35
HETATM   35  C   UNL     1      -6.012   6.807  66.233  1.00  0.00    -0.030 C  
HETATM   36  C   UNL     1      -6.723   5.501  66.577  1.00  0.00    -0.058 C  
HETATM   37  C   UNL     1      -6.318   7.860  67.293  1.00  0.00    -0.055 C  
ENDBRANCH  34  35
ENDBRANCH  32  34
ENDBRANCH  31  32
ENDBRANCH  30  31
ENDBRANCH  21  30
ENDBRANCH  16  17
ENDBRANCH   1  16
TORSDOF 14
ENDMDL
MODEL      316
REMARK 921   NORMALIZED FREE ENERGY PREDICTED BY IDOCK:   -3.48 KCAL/MOL
REMARK 922        TOTAL FREE ENERGY PREDICTED BY IDOCK:   -8.16 KCAL/MOL
REMARK 923 INTER-LIGAND FREE ENERGY PREDICTED BY IDOCK:   -6.67 KCAL/MOL
REMARK 924 INTRA-LIGAND FREE ENERGY PREDICTED BY IDOCK:   -1.49 KCAL/MOL
REMARK 927      BINDING AFFINITY PREDICTED BY RF-SCORE:    0.00 PKD
ROOT
HETATM    1  C   UNL     1     -10.534  16.655  66.747  1.00  0.00    -0.261 C  
HETATM    2  C   UNL     1     -11.534  15.693  67.384  1.00  0.00    -0.086 C  
ENDROOT
BRANCH   1   3
HETATM    3  C   UNL     1     -10.093  16.246  65.348  1.00  0.00    -0.145 C  
BRANCH   3   4
HETATM    4  N   UNL     1     -10.978  15.363  64.637  1.00  0.00    -0.373 NA 
HETATM    5  C   UNL     1     -10.823  14.011  64.639  1.00  0.00    -0.403 A  
HETATM    6  N   UNL     1     -11.023  11.377  64.357  1.00  0.00    -0.330 NA 
HETATM    7  C   UNL     1     -12.159  15.649  64.011  1.00  0.00     0.125 A  
HETATM    8  N   UNL     1     -13.065  11.513  63.181  1.00  0.00    -0.670 NA 
HETATM    9  N   UNL     1      -9.821  13.305  65.186  1.00  0.00    -0.124 NA 
HETATM   10  C   UNL     1     -12.015  12.138  63.843  1.00  0.00    -0.486 A  
HETATM   11  N   UNL     1     -12.750  14.564  63.566  1.00  0.00    -0.517 NA 
HETATM   12  C   UNL     1     -10.006  11.991  65.000  1.00  0.00    -0.233 A  
HETATM   13  C   UNL     1     -11.933  13.530  63.975  1.00  0.00    -0.449 A  
HETATM   14  H1  UNL     1     -13.124  10.499  63.086  1.00  0.00     0.000 HD 
HETATM   15  H2  UNL     1     -13.123  11.915  62.246  1.00  0.00     0.000 HD 
ENDBRANCH   3   4
ENDBRANCH   1   3
BRANCH   1  16
HETATM   16  O   UNL     1      -9.442  16.856  67.669  1.00  0.00    -0.237 OA 
BRANCH  16  17
HETATM   17  C   UNL     1      -8.259  16.051  67.443  1.00  0.00    -0.167 C  
HETATM   18  O   UNL     1      -6.647  16.795  69.050  1.00  0.00    -0.179 OA 
HETATM   19  O   UNL     1      -8.859  15.655  69.863  1.00  0.00    -0.120 OA 
HETATM   20  P   UNL     1      -7.465  15.503  68.998  1.00  0.00    -0.204 P  
HETATM   21  O   UNL     1      -6.714  14.985  70.468  1.00  0.00    -0.035 OA 
BRANCH  19  22
HETATM   22  C   UNL     1      -9.702  14.537  70.039  1.00  0.00     0.738 C  
BRANCH  22  23
HETATM   23  O   UNL     1     -10.999  14.913  70.516  1.00  0.00    -0.201 OA 
BRANCH  23  24
HETATM   24  C   UNL     1     -11.910  13.908  70.492  1.00  0.00    -0.247 C  
HETATM   25  O   UNL     1     -13.065  13.983  70.892  1.00  0.00    -0.307 OA 
BRANCH  24  26
HETATM   26  O   UNL     1     -11.332  12.794  69.972  1.00  0.00    -0.070 OA 
BRANCH  26  27
HETATM   27  C   UNL     1     -12.241  11.715  69.662  1.00  0.00    -0.206 C  
HETATM   28  C   UNL     1     -11.781  11.031  68.379  1.00  0.00    -0.329 C  
HETATM   29  C   UNL     1     -12.255  10.720  70.818  1.00  0.00    -0.480 C  
ENDBRANCH  26  27
ENDBRANCH  24  26
ENDBRANCH  23  24
ENDBRANCH  22  23
ENDBRANCH  19  22
BRANCH  21  30
HETATM   30  C   UNL     1      -5.822  13.909  70.274  1.00  0.00    -0.150 C  
BRANCH  30  31
HETATM   31  O   UNL     1      -6.471  12.651  70.433  1.00  0.00     0.018 OA 
BRANCH  31  32
HETATM   32  C   UNL     1      -6.015  11.685  69.603  1.00  0.00    -0.106 C  
HETATM   33  O   UNL     1      -5.158  10.855  69.876  1.00  0.00    -0.041 OA 
BRANCH  32  34
HETATM   34  O   UNL     1      -6.715  11.760  68.444  1.00  0.00    -0.059 OA 
BRANCH  34  35
HETATM   35  C   UNL     1      -7.656  10.697  68.195  1.00  0.00    -0.092 C  
HETATM   36  C   UNL     1      -8.278  10.313  69.534  1.00  0.00    -0.165 C  
HETATM   37  C   UNL     1      -6.950   9.491  67.584  1.00  0.00    -0.080 C  
ENDBRANCH  34  35
ENDBRANCH  32  34
ENDBRANCH  31  32
ENDBRANCH  30  31
ENDBRANCH  21  30
ENDBRANCH  16  17
ENDBRANCH   1  16
TORSDOF 14
ENDMDL
MODEL      317
REMARK 921   NORMALIZED FREE ENERGY PREDICTED BY IDOCK:   -3.45 KCAL/MOL
REMARK 922        TOTAL FREE ENERGY PREDICTED BY IDOCK:   -8.12 KCAL/MOL
REMARK 923 INTER-LIGAND FREE ENERGY PREDICTED BY IDOCK:   -6.68 KCAL/MOL
REMARK 924 INTRA-LIGAND FREE ENERGY PREDICTED BY IDOCK:   -1.44 KCAL/MOL
REMARK 927      BINDING AFFINITY PREDICTED BY RF-SCORE:    0.00 PKD
ROOT
HETATM    1  C   UNL     1      -9.877   8.419  69.429  1.00  0.00    -0.185 C  
HETATM    2  C   UNL     1      -9.571   8.956  70.826  1.00  0.00    -0.283 C  
ENDROOT
BRANCH   1   3
HETATM    3  C   UNL     1      -8.699   7.714  68.770  1.00  0.00    -0.128 C  
BRANCH   3   4
HETATM    4  N   UNL     1      -8.687   6.279  68.864  1.00  0.00    -0.125 NA 
HETATM    5  C   UNL     1      -8.906   5.472  67.790  1.00  0.00    -0.105 A  
HETATM    6  N   UNL     1      -9.196   3.472  66.065  1.00  0.00    -0.159 NA 
HETATM    7  C   UNL     1      -8.315   5.488  69.915  1.00  0.00    -0.105 A  
HETATM    8  N   UNL     1      -8.650   1.823  67.662  1.00  0.00    -0.079 NA 
HETATM    9  N   UNL     1      -9.250   5.842  66.547  1.00  0.00    -0.139 NA 
HETATM   10  C   UNL     1      -8.831   3.160  67.329  1.00  0.00    -0.137 A  
HETATM   11  N   UNL     1      -8.328   4.214  69.594  1.00  0.00    -0.058 NA 
HETATM   12  C   UNL     1      -9.370   4.773  65.747  1.00  0.00    -0.161 A  
HETATM   13  C   UNL     1      -8.674   4.194  68.259  1.00  0.00    -0.099 A  
HETATM   14  H1  UNL     1      -8.764   1.070  66.984  1.00  0.00     0.000 HD 
HETATM   15  H2  UNL     1      -9.257   1.618  68.456  1.00  0.00     0.000 HD 
ENDBRANCH   3   4
ENDBRANCH   1   3
BRANCH   1  16
HETATM   16  O   UNL     1     -10.432   9.492  68.638  1.00  0.00    -0.200 OA 
BRANCH  16  17
HETATM   17  C   UNL     1     -10.754  10.711  69.352  1.00  0.00    -0.244 C  
HETATM   18  O   UNL     1      -8.807  12.096  69.187  1.00  0.00     0.303 OA 
HETATM   19  O   UNL     1     -10.139  11.467  67.022  1.00  0.00    -0.201 OA 
HETATM   20  P   UNL     1     -10.164  12.214  68.490  1.00  0.00    -0.129 P  
HETATM   21  O   UNL     1      -9.607  13.636  67.676  1.00  0.00    -0.210 OA 
BRANCH  19  22
HETATM   22  C   UNL     1     -11.257  11.561  66.167  1.00  0.00    -0.202 C  
BRANCH  22  23
HETATM   23  O   UNL     1     -11.055  10.848  64.941  1.00  0.00    -0.076 OA 
BRANCH  23  24
HETATM   24  C   UNL     1     -10.429  11.571  63.978  1.00  0.00    -0.370 C  
HETATM   25  O   UNL     1     -10.939  12.460  63.309  1.00  0.00    -0.438 OA 
BRANCH  24  26
HETATM   26  O   UNL     1      -9.146  11.137  63.858  1.00  0.00    -0.159 OA 
BRANCH  26  27
HETATM   27  C   UNL     1      -8.984   9.703  63.799  1.00  0.00    -0.217 C  
HETATM   28  C   UNL     1      -8.127   9.350  62.588  1.00  0.00    -0.140 C  
HETATM   29  C   UNL     1      -8.314   9.219  65.081  1.00  0.00    -0.155 C  
ENDBRANCH  26  27
ENDBRANCH  24  26
ENDBRANCH  23  24
ENDBRANCH  22  23
ENDBRANCH  19  22
BRANCH  21  30
HETATM   30  C   UNL     1     -10.236  14.811  68.140  1.00  0.00    -0.228 C  
BRANCH  30  31
HETATM   31  O   UNL     1     -10.425  14.786  69.552  1.00  0.00    -0.218 OA 
BRANCH  31  32
HETATM   32  C   UNL     1     -11.504  15.482  69.977  1.00  0.00    -0.331 C  
HETATM   33  O   UNL     1     -12.231  16.173  69.276  1.00  0.00    -0.151 OA 
BRANCH  32  34
HETATM   34  O   UNL     1     -11.673  15.230  71.299  1.00  0.00    -0.309 OA 
BRANCH  34  35
HETATM   35  C   UNL     1     -12.927  15.648  71.875  1.00  0.00    -0.463 C  
HETATM   36  C   UNL     1     -12.607  16.541  73.070  1.00  0.00    -0.184 C  
HETATM   37  C   UNL     1     -13.734  14.437  72.331  1.00  0.00    -0.590 C  
ENDBRANCH  34  35
ENDBRANCH  32  34
ENDBRANCH  31  32
ENDBRANCH  30  31
ENDBRANCH  21  30
ENDBRANCH  16  17
ENDBRANCH   1  16
TORSDOF 14
ENDMDL
MODEL      318
REMARK 921   NORMALIZED FREE ENERGY PREDICTED BY IDOCK:   -3.38 KCAL/MOL
REMARK 922        TOTAL FREE ENERGY PREDICTED BY IDOCK:   -7.99 KCAL/MOL
REMARK 923 INTER-LIGAND FREE ENERGY PREDICTED BY IDOCK:   -7.69 KCAL/MOL
REMARK 924 INTRA-LIGAND FREE ENERGY PREDICTED BY IDOCK:   -0.30 KCAL/MOL
REMARK 927      BINDING AFFINITY PREDICTED BY RF-SCORE:    0.00 PKD
ROOT
HETATM    1  C   UNL     1      -8.654   8.147  71.433  1.00  0.00    -0.137 C  
HETATM    2  C   UNL     1      -7.177   8.393  71.130  1.00  0.00    -0.068 C  
ENDROOT
BRANCH   1   3
HETATM    3  C   UNL     1      -9.085   6.698  71.250  1.00  0.00    -0.151 C  
BRANCH   3   4
HETATM    4  N   UNL     1      -8.038   5.759  70.950  1.00  0.00    -0.117 NA 
HETATM    5  C   UNL     1      -8.204   4.729  70.077  1.00  0.00    -0.068 A  
HETATM    6  N   UNL     1      -7.962   2.634  68.460  1.00  0.00    -0.053 NA 
HETATM    7  C   UNL     1      -6.719   5.797  71.309  1.00  0.00    -0.061 A  
HETATM    8  N   UNL     1      -5.660   2.375  68.903  1.00  0.00    -0.021 NA 
HETATM    9  N   UNL     1      -9.334   4.363  69.452  1.00  0.00    -0.140 NA 
HETATM   10  C   UNL     1      -6.852   3.060  69.102  1.00  0.00    -0.041 A  
HETATM   11  N   UNL     1      -6.036   4.821  70.755  1.00  0.00    -0.017 NA 
HETATM   12  C   UNL     1      -9.118   3.305  68.656  1.00  0.00    -0.149 A  
HETATM   13  C   UNL     1      -6.951   4.160  69.963  1.00  0.00    -0.041 A  
HETATM   14  H1  UNL     1      -5.587   1.574  68.276  1.00  0.00     0.000 HD 
HETATM   15  H2  UNL     1      -5.316   2.082  69.817  1.00  0.00     0.000 HD 
ENDBRANCH   3   4
ENDBRANCH   1   3
BRANCH   1  16
HETATM   16  O   UNL     1      -9.440   9.091  70.674  1.00  0.00    -0.196 OA 
BRANCH  16  17
HETATM   17  C   UNL     1      -8.761   9.753  69.579  1.00  0.00    -0.185 C  
HETATM   18  O   UNL     1      -9.462   8.614  67.593  1.00  0.00    -0.138 OA 
HETATM   19  O   UNL     1     -11.217   9.930  69.021  1.00  0.00    -0.184 OA 
HETATM   20  P   UNL     1      -9.839   9.999  68.121  1.00  0.00    -0.151 P  
HETATM   21  O   UNL     1     -10.857  10.233  66.742  1.00  0.00    -0.187 OA 
BRANCH  19  22
HETATM   22  C   UNL     1     -11.800  11.121  69.504  1.00  0.00    -0.353 C  
BRANCH  22  23
HETATM   23  O   UNL     1     -12.010  11.079  70.921  1.00  0.00    -0.329 OA 
BRANCH  23  24
HETATM   24  C   UNL     1     -12.733  12.120  71.404  1.00  0.00    -0.263 C  
HETATM   25  O   UNL     1     -13.624  12.043  72.239  1.00  0.00    -0.397 OA 
BRANCH  24  26
HETATM   26  O   UNL     1     -12.325  13.267  70.799  1.00  0.00    -0.360 OA 
BRANCH  26  27
HETATM   27  C   UNL     1     -12.828  14.487  71.386  1.00  0.00    -0.336 C  
HETATM   28  C   UNL     1     -11.942  14.873  72.565  1.00  0.00    -0.364 C  
HETATM   29  C   UNL     1     -12.822  15.592  70.334  1.00  0.00    -0.252 C  
ENDBRANCH  26  27
ENDBRANCH  24  26
ENDBRANCH  23  24
ENDBRANCH  22  23
ENDBRANCH  19  22
BRANCH  21  30
HETATM   30  C   UNL     1     -10.348  11.197  65.845  1.00  0.00    -0.259 C  
BRANCH  30  31
HETATM   31  O   UNL     1     -10.992  11.127  64.576  1.00  0.00    -0.300 OA 
BRANCH  31  32
HETATM   32  C   UNL     1     -11.639  12.262  64.222  1.00  0.00    -0.371 C  
HETATM   33  O   UNL     1     -12.643  12.324  63.524  1.00  0.00    -0.667 OA 
BRANCH  32  34
HETATM   34  O   UNL     1     -11.019  13.306  64.825  1.00  0.00    -0.316 OA 
BRANCH  34  35
HETATM   35  C   UNL     1     -11.843  14.445  65.140  1.00  0.00    -0.386 C  
HETATM   36  C   UNL     1     -11.180  15.675  64.528  1.00  0.00    -0.337 C  
HETATM   37  C   UNL     1     -11.962  14.616  66.651  1.00  0.00    -0.293 C  
ENDBRANCH  34  35
ENDBRANCH  32  34
ENDBRANCH  31  32
ENDBRANCH  30  31
ENDBRANCH  21  30
ENDBRANCH  16  17
ENDBRANCH   1  16
TORSDOF 14
ENDMDL
MODEL      319
REMARK 921   NORMALIZED FREE ENERGY PREDICTED BY IDOCK:   -3.38 KCAL/MOL
REMARK 922        TOTAL FREE ENERGY PREDICTED BY IDOCK:   -7.99 KCAL/MOL
REMARK 923 INTER-LIGAND FREE ENERGY PREDICTED BY IDOCK:   -7.14 KCAL/MOL
REMARK 924 INTRA-LIGAND FREE ENERGY PREDICTED BY IDOCK:   -0.84 KCAL/MOL
REMARK 927      BINDING AFFINITY PREDICTED BY RF-SCORE:    0.00 PKD
ROOT
HETATM    1  C   UNL     1     -10.668  12.487  66.737  1.00  0.00    -0.236 C  
HETATM    2  C   UNL     1     -10.194  13.179  65.460  1.00  0.00    -0.297 C  
ENDROOT
BRANCH   1   3
HETATM    3  C   UNL     1     -10.324  13.246  68.011  1.00  0.00    -0.241 C  
BRANCH   3   4
HETATM    4  N   UNL     1      -9.319  14.267  67.888  1.00  0.00    -0.192 NA 
HETATM    5  C   UNL     1      -9.609  15.595  67.957  1.00  0.00    -0.203 A  
HETATM    6  N   UNL     1      -9.601  18.250  68.073  1.00  0.00    -0.293 NA 
HETATM    7  C   UNL     1      -7.959  14.136  67.855  1.00  0.00    -0.156 A  
HETATM    8  N   UNL     1      -7.248  18.391  67.971  1.00  0.00    -0.235 NA 
HETATM    9  N   UNL     1     -10.823  16.162  68.045  1.00  0.00    -0.324 NA 
HETATM   10  C   UNL     1      -8.406  17.623  68.002  1.00  0.00    -0.246 A  
HETATM   11  N   UNL     1      -7.357  15.304  67.850  1.00  0.00    -0.128 NA 
HETATM   12  C   UNL     1     -10.723  17.497  68.103  1.00  0.00    -0.329 A  
HETATM   13  C   UNL     1      -8.380  16.225  67.937  1.00  0.00    -0.166 A  
HETATM   14  H1  UNL     1      -7.266  19.409  68.019  1.00  0.00     0.000 HD 
HETATM   15  H2  UNL     1      -6.727  18.131  67.134  1.00  0.00     0.000 HD 
ENDBRANCH   3   4
ENDBRANCH   1   3
BRANCH   1  16
HETATM   16  O   UNL     1     -10.191  11.124  66.722  1.00  0.00    -0.216 OA 
BRANCH  16  17
HETATM   17  C   UNL     1      -9.086  10.825  67.609  1.00  0.00    -0.147 C  
HETATM   18  O   UNL     1     -10.076  10.174  69.690  1.00  0.00    -0.218 OA 
HETATM   19  O   UNL     1     -10.463   8.710  67.554  1.00  0.00    -0.255 OA 
HETATM   20  P   UNL     1      -9.374   9.330  68.624  1.00  0.00    -0.140 P  
HETATM   21  O   UNL     1      -9.646   7.916  69.583  1.00  0.00    -0.163 OA 
BRANCH  19  22
HETATM   22  C   UNL     1     -10.033   7.806  66.559  1.00  0.00    -0.174 C  
BRANCH  22  23
HETATM   23  O   UNL     1     -10.820   6.609  66.546  1.00  0.00    -0.171 OA 
BRANCH  23  24
HETATM   24  C   UNL     1     -10.110   5.477  66.781  1.00  0.00    -0.207 C  
HETATM   25  O   UNL     1      -9.159   5.377  67.544  1.00  0.00    -0.109 OA 
BRANCH  24  26
HETATM   26  O   UNL     1     -10.609   4.470  66.016  1.00  0.00    -0.269 OA 
BRANCH  26  27
HETATM   27  C   UNL     1      -9.657   3.833  65.136  1.00  0.00    -0.177 C  
HETATM   28  C   UNL     1      -8.712   4.892  64.577  1.00  0.00    -0.148 C  
HETATM   29  C   UNL     1      -8.873   2.783  65.918  1.00  0.00    -0.135 C  
ENDBRANCH  26  27
ENDBRANCH  24  26
ENDBRANCH  23  24
ENDBRANCH  22  23
ENDBRANCH  19  22
BRANCH  21  30
HETATM   30  C   UNL     1      -8.457   7.401  70.145  1.00  0.00    -0.137 C  
BRANCH  30  31
HETATM   31  O   UNL     1      -8.441   7.542  71.562  1.00  0.00    -0.113 OA 
BRANCH  31  32
HETATM   32  C   UNL     1      -8.857   6.442  72.231  1.00  0.00    -0.135 C  
HETATM   33  O   UNL     1      -8.183   5.445  72.457  1.00  0.00    -0.112 OA 
BRANCH  32  34
HETATM   34  O   UNL     1     -10.124   6.663  72.659  1.00  0.00    -0.171 OA 
BRANCH  34  35
HETATM   35  C   UNL     1     -11.130   5.750  72.179  1.00  0.00    -0.271 C  
HETATM   36  C   UNL     1     -12.282   6.586  71.626  1.00  0.00    -0.353 C  
HETATM   37  C   UNL     1     -11.630   4.861  73.313  1.00  0.00    -0.276 C  
ENDBRANCH  34  35
ENDBRANCH  32  34
ENDBRANCH  31  32
ENDBRANCH  30  31
ENDBRANCH  21  30
ENDBRANCH  16  17
ENDBRANCH   1  16
TORSDOF 14
ENDMDL
MODEL      320
REMARK 921   NORMALIZED FREE ENERGY PREDICTED BY IDOCK:   -3.38 KCAL/MOL
REMARK 922        TOTAL FREE ENERGY PREDICTED BY IDOCK:   -7.99 KCAL/MOL
REMARK 923 INTER-LIGAND FREE ENERGY PREDICTED BY IDOCK:   -6.81 KCAL/MOL
REMARK 924 INTRA-LIGAND FREE ENERGY PREDICTED BY IDOCK:   -1.17 KCAL/MOL
REMARK 927      BINDING AFFINITY PREDICTED BY RF-SCORE:    0.00 PKD
ROOT
HETATM    1  C   UNL     1      -6.652  10.223  70.406  1.00  0.00    -0.126 C  
HETATM    2  C   UNL     1      -5.293  10.448  69.747  1.00  0.00    -0.038 C  
ENDROOT
BRANCH   1   3
HETATM    3  C   UNL     1      -6.694   9.015  71.331  1.00  0.00    -0.074 C  
BRANCH   3   4
HETATM    4  N   UNL     1      -7.175   7.790  70.751  1.00  0.00    -0.057 NA 
HETATM    5  C   UNL     1      -8.443   7.335  70.943  1.00  0.00    -0.128 A  
HETATM    6  N   UNL     1     -10.765   6.044  70.934  1.00  0.00    -0.253 NA 
HETATM    7  C   UNL     1      -6.576   6.982  69.825  1.00  0.00    -0.044 A  
HETATM    8  N   UNL     1     -10.029   4.434  69.374  1.00  0.00    -0.165 NA 
HETATM    9  N   UNL     1      -9.386   7.861  71.741  1.00  0.00    -0.143 NA 
HETATM   10  C   UNL     1      -9.783   5.571  70.135  1.00  0.00    -0.182 A  
HETATM   11  N   UNL     1      -7.368   6.006  69.445  1.00  0.00    -0.077 NA 
HETATM   12  C   UNL     1     -10.521   7.151  71.670  1.00  0.00    -0.198 A  
HETATM   13  C   UNL     1      -8.548   6.230  70.122  1.00  0.00    -0.134 A  
HETATM   14  H1  UNL     1     -10.928   3.954  69.383  1.00  0.00     0.000 HD 
HETATM   15  H2  UNL     1      -9.311   3.748  69.605  1.00  0.00     0.000 HD 
ENDBRANCH   3   4
ENDBRANCH   1   3
BRANCH   1  16
HETATM   16  O   UNL     1      -7.663  10.205  69.375  1.00  0.00    -0.109 OA 
BRANCH  16  17
HETATM   17  C   UNL     1      -7.189  10.347  68.013  1.00  0.00    -0.084 C  
HETATM   18  O   UNL     1      -7.829   8.333  66.886  1.00  0.00    -0.094 OA 
HETATM   19  O   UNL     1      -9.674   9.953  67.797  1.00  0.00    -0.146 OA 
HETATM   20  P   UNL     1      -8.397   9.749  66.776  1.00  0.00    -0.124 P  
HETATM   21  O   UNL     1      -9.539   9.185  65.605  1.00  0.00    -0.262 OA 
BRANCH  19  22
HETATM   22  C   UNL     1     -10.414  11.154  67.765  1.00  0.00    -0.193 C  
BRANCH  22  23
HETATM   23  O   UNL     1      -9.859  12.149  68.633  1.00  0.00    -0.188 OA 
BRANCH  23  24
HETATM   24  C   UNL     1      -9.551  13.315  68.011  1.00  0.00    -0.220 C  
HETATM   25  O   UNL     1      -8.947  13.422  66.953  1.00  0.00    -0.229 OA 
BRANCH  24  26
HETATM   26  O   UNL     1     -10.004  14.354  68.763  1.00  0.00    -0.233 OA 
BRANCH  26  27
HETATM   27  C   UNL     1     -10.713  15.380  68.033  1.00  0.00    -0.279 C  
HETATM   28  C   UNL     1     -11.991  15.731  68.787  1.00  0.00    -0.226 C  
HETATM   29  C   UNL     1      -9.821  16.610  67.898  1.00  0.00    -0.248 C  
ENDBRANCH  26  27
ENDBRANCH  24  26
ENDBRANCH  23  24
ENDBRANCH  22  23
ENDBRANCH  19  22
BRANCH  21  30
HETATM   30  C   UNL     1      -9.269   9.664  64.305  1.00  0.00    -0.178 C  
BRANCH  30  31
HETATM   31  O   UNL     1     -10.379  10.375  63.765  1.00  0.00    -0.128 OA 
BRANCH  31  32
HETATM   32  C   UNL     1     -10.280  11.720  63.875  1.00  0.00    -0.373 C  
HETATM   33  O   UNL     1      -9.671  12.457  63.110  1.00  0.00    -0.254 OA 
BRANCH  32  34
HETATM   34  O   UNL     1     -11.021  12.112  64.941  1.00  0.00    -0.292 OA 
BRANCH  34  35
HETATM   35  C   UNL     1     -12.323  12.655  64.650  1.00  0.00    -0.476 C  
HETATM   36  C   UNL     1     -12.842  11.956  63.396  1.00  0.00    -0.393 C  
HETATM   37  C   UNL     1     -12.232  14.158  64.408  1.00  0.00    -0.466 C  
ENDBRANCH  34  35
ENDBRANCH  32  34
ENDBRANCH  31  32
ENDBRANCH  30  31
ENDBRANCH  21  30
ENDBRANCH  16  17
ENDBRANCH   1  16
TORSDOF 14
ENDMDL
MODEL      321
REMARK 921   NORMALIZED FREE ENERGY PREDICTED BY IDOCK:   -3.34 KCAL/MOL
REMARK 922        TOTAL FREE ENERGY PREDICTED BY IDOCK:   -7.91 KCAL/MOL
REMARK 923 INTER-LIGAND FREE ENERGY PREDICTED BY IDOCK:   -6.66 KCAL/MOL
REMARK 924 INTRA-LIGAND FREE ENERGY PREDICTED BY IDOCK:   -1.25 KCAL/MOL
REMARK 927      BINDING AFFINITY PREDICTED BY RF-SCORE:    0.00 PKD
ROOT
HETATM    1  C   UNL     1      -7.486   7.871  63.513  1.00  0.00    -0.118 C  
HETATM    2  C   UNL     1      -7.921   6.469  63.089  1.00  0.00    -0.086 C  
ENDROOT
BRANCH   1   3
HETATM    3  C   UNL     1      -6.799   7.916  64.871  1.00  0.00    -0.054 C  
BRANCH   3   4
HETATM    4  N   UNL     1      -6.248   6.675  65.344  1.00  0.00    -0.037 NA 
HETATM    5  C   UNL     1      -6.657   6.083  66.499  1.00  0.00    -0.058 A  
HETATM    6  N   UNL     1      -7.109   4.498  68.583  1.00  0.00    -0.052 NA 
HETATM    7  C   UNL     1      -5.401   5.812  64.708  1.00  0.00    -0.016 A  
HETATM    8  N   UNL     1      -5.659   2.811  67.797  1.00  0.00    -0.018 NA 
HETATM    9  N   UNL     1      -7.522   6.569  67.404  1.00  0.00    -0.090 NA 
HETATM   10  C   UNL     1      -6.261   4.052  67.630  1.00  0.00    -0.036 A  
HETATM   11  N   UNL     1      -5.202   4.719  65.409  1.00  0.00    -0.012 NA 
HETATM   12  C   UNL     1      -7.692   5.704  68.413  1.00  0.00    -0.092 A  
HETATM   13  C   UNL     1      -6.002   4.868  66.522  1.00  0.00    -0.023 A  
HETATM   14  H1  UNL     1      -5.848   2.216  68.603  1.00  0.00     0.000 HD 
HETATM   15  H2  UNL     1      -4.650   2.947  67.745  1.00  0.00     0.000 HD 
ENDBRANCH   3   4
ENDBRANCH   1   3
BRANCH   1  16
HETATM   16  O   UNL     1      -8.622   8.755  63.403  1.00  0.00    -0.159 OA 
BRANCH  16  17
HETATM   17  C   UNL     1      -8.329  10.173  63.377  1.00  0.00    -0.168 C  
HETATM   18  O   UNL     1     -10.415  11.263  62.938  1.00  0.00    -0.199 OA 
HETATM   19  O   UNL     1     -10.098   9.911  65.158  1.00  0.00    -0.309 OA 
HETATM   20  P   UNL     1      -9.598  11.177  64.229  1.00  0.00    -0.228 P  
HETATM   21  O   UNL     1     -10.799  12.127  65.036  1.00  0.00    -0.282 OA 
BRANCH  19  22
HETATM   22  C   UNL     1      -9.551   9.726  66.446  1.00  0.00    -0.200 C  
BRANCH  22  23
HETATM   23  O   UNL     1     -10.554   9.788  67.467  1.00  0.00    -0.246 OA 
BRANCH  23  24
HETATM   24  C   UNL     1     -10.539   8.734  68.322  1.00  0.00    -0.142 C  
HETATM   25  O   UNL     1     -10.745   7.567  68.019  1.00  0.00    -0.186 OA 
BRANCH  24  26
HETATM   26  O   UNL     1     -10.277   9.182  69.579  1.00  0.00    -0.190 OA 
BRANCH  26  27
HETATM   27  C   UNL     1     -11.415   9.225  70.467  1.00  0.00    -0.248 C  
HETATM   28  C   UNL     1     -10.975   8.783  71.859  1.00  0.00    -0.435 C  
HETATM   29  C   UNL     1     -11.967  10.646  70.512  1.00  0.00    -0.446 C  
ENDBRANCH  26  27
ENDBRANCH  24  26
ENDBRANCH  23  24
ENDBRANCH  22  23
ENDBRANCH  19  22
BRANCH  21  30
HETATM   30  C   UNL     1     -10.344  13.425  65.354  1.00  0.00    -0.312 C  
BRANCH  30  31
HETATM   31  O   UNL     1     -10.499  13.713  66.740  1.00  0.00    -0.266 OA 
BRANCH  31  32
HETATM   32  C   UNL     1     -11.751  14.089  67.089  1.00  0.00    -0.393 C  
HETATM   33  O   UNL     1     -12.665  14.339  66.313  1.00  0.00    -0.360 OA 
BRANCH  32  34
HETATM   34  O   UNL     1     -11.832  14.080  68.443  1.00  0.00    -0.332 OA 
BRANCH  34  35
HETATM   35  C   UNL     1     -12.155  15.335  69.073  1.00  0.00    -0.213 C  
HETATM   36  C   UNL     1     -10.847  16.095  69.275  1.00  0.00    -0.310 C  
HETATM   37  C   UNL     1     -12.832  15.098  70.418  1.00  0.00    -0.346 C  
ENDBRANCH  34  35
ENDBRANCH  32  34
ENDBRANCH  31  32
ENDBRANCH  30  31
ENDBRANCH  21  30
ENDBRANCH  16  17
ENDBRANCH   1  16
TORSDOF 14
ENDMDL
MODEL      322
REMARK 921   NORMALIZED FREE ENERGY PREDICTED BY IDOCK:   -3.33 KCAL/MOL
REMARK 922        TOTAL FREE ENERGY PREDICTED BY IDOCK:   -7.90 KCAL/MOL
REMARK 923 INTER-LIGAND FREE ENERGY PREDICTED BY IDOCK:   -6.11 KCAL/MOL
REMARK 924 INTRA-LIGAND FREE ENERGY PREDICTED BY IDOCK:   -1.79 KCAL/MOL
REMARK 927      BINDING AFFINITY PREDICTED BY RF-SCORE:    0.00 PKD
ROOT
HETATM    1  C   UNL     1     -10.526  11.799  66.658  1.00  0.00    -0.224 C  
HETATM    2  C   UNL     1     -11.275  10.747  65.842  1.00  0.00     0.257 C  
ENDROOT
BRANCH   1   3
HETATM    3  C   UNL     1      -9.712  12.768  65.811  1.00  0.00    -0.159 C  
BRANCH   3   4
HETATM    4  N   UNL     1     -10.342  14.025  65.506  1.00  0.00    -0.322 NA 
HETATM    5  C   UNL     1      -9.823  15.220  65.898  1.00  0.00    -0.354 A  
HETATM    6  N   UNL     1      -9.238  17.773  66.343  1.00  0.00    -0.373 NA 
HETATM    7  C   UNL     1     -11.404  14.278  64.683  1.00  0.00    -0.373 A  
HETATM    8  N   UNL     1     -11.031  18.563  65.028  1.00  0.00    -0.372 NA 
HETATM    9  N   UNL     1      -8.751  15.428  66.678  1.00  0.00    -0.278 NA 
HETATM   10  C   UNL     1     -10.297  17.503  65.548  1.00  0.00    -0.019 A  
HETATM   11  N   UNL     1     -11.628  15.566  64.560  1.00  0.00    -0.355 NA 
HETATM   12  C   UNL     1      -8.528  16.739  66.844  1.00  0.00    -0.212 A  
HETATM   13  C   UNL     1     -10.630  16.167  65.299  1.00  0.00    -0.369 A  
HETATM   14  H1  UNL     1     -10.789  19.537  65.209  1.00  0.00     0.000 HD 
HETATM   15  H2  UNL     1     -12.003  18.431  65.305  1.00  0.00     0.000 HD 
ENDBRANCH   3   4
ENDBRANCH   1   3
BRANCH   1  16
HETATM   16  O   UNL     1      -9.756  11.124  67.675  1.00  0.00    -0.167 OA 
BRANCH  16  17
HETATM   17  C   UNL     1      -9.683   9.681  67.570  1.00  0.00    -0.158 C  
HETATM   18  O   UNL     1      -7.866   9.227  66.077  1.00  0.00    -0.100 OA 
HETATM   19  O   UNL     1      -7.397  10.388  68.377  1.00  0.00    -0.081 OA 
HETATM   20  P   UNL     1      -7.964   9.053  67.594  1.00  0.00    -0.100 P  
HETATM   21  O   UNL     1      -6.340   8.459  67.618  1.00  0.00    -0.051 OA 
BRANCH  19  22
HETATM   22  C   UNL     1      -7.291  10.385  69.784  1.00  0.00    -0.154 C  
BRANCH  22  23
HETATM   23  O   UNL     1      -8.277   9.542  70.393  1.00  0.00    -0.173 OA 
BRANCH  23  24
HETATM   24  C   UNL     1      -7.945   9.111  71.635  1.00  0.00     0.227 C  
HETATM   25  O   UNL     1      -6.808   8.904  72.039  1.00  0.00    -0.230 OA 
BRANCH  24  26
HETATM   26  O   UNL     1      -9.080   8.923  72.361  1.00  0.00    -0.372 OA 
BRANCH  26  27
HETATM   27  C   UNL     1     -10.025   7.988  71.796  1.00  0.00    -0.187 C  
HETATM   28  C   UNL     1      -9.815   6.621  72.438  1.00  0.00    -0.169 C  
HETATM   29  C   UNL     1     -11.443   8.484  72.058  1.00  0.00    -0.431 C  
ENDBRANCH  26  27
ENDBRANCH  24  26
ENDBRANCH  23  24
ENDBRANCH  22  23
ENDBRANCH  19  22
BRANCH  21  30
HETATM   30  C   UNL     1      -6.268   7.079  67.906  1.00  0.00    -0.038 C  
BRANCH  30  31
HETATM   31  O   UNL     1      -6.389   6.826  69.302  1.00  0.00    -0.035 OA 
BRANCH  31  32
HETATM   32  C   UNL     1      -7.152   5.750  69.605  1.00  0.00    -0.064 C  
HETATM   33  O   UNL     1      -7.065   5.076  70.623  1.00  0.00    -0.050 OA 
BRANCH  32  34
HETATM   34  O   UNL     1      -8.065   5.590  68.615  1.00  0.00    -0.100 OA 
BRANCH  34  35
HETATM   35  C   UNL     1      -8.987   4.492  68.767  1.00  0.00    -0.111 C  
HETATM   36  C   UNL     1      -9.240   3.911  67.379  1.00  0.00    -0.199 C  
HETATM   37  C   UNL     1     -10.299   4.978  69.376  1.00  0.00    -0.215 C  
ENDBRANCH  34  35
ENDBRANCH  32  34
ENDBRANCH  31  32
ENDBRANCH  30  31
ENDBRANCH  21  30
ENDBRANCH  16  17
ENDBRANCH   1  16
TORSDOF 14
ENDMDL
MODEL      323
REMARK 921   NORMALIZED FREE ENERGY PREDICTED BY IDOCK:   -3.32 KCAL/MOL
REMARK 922        TOTAL FREE ENERGY PREDICTED BY IDOCK:   -7.88 KCAL/MOL
REMARK 923 INTER-LIGAND FREE ENERGY PREDICTED BY IDOCK:   -6.03 KCAL/MOL
REMARK 924 INTRA-LIGAND FREE ENERGY PREDICTED BY IDOCK:   -1.85 KCAL/MOL
REMARK 927      BINDING AFFINITY PREDICTED BY RF-SCORE:    0.00 PKD
ROOT
HETATM    1  C   UNL     1     -10.220   8.358  72.006  1.00  0.00    -0.294 C  
HETATM    2  C   UNL     1     -10.239   7.539  73.295  1.00  0.00    -0.398 C  
ENDROOT
BRANCH   1   3
HETATM    3  C   UNL     1     -11.602   8.609  71.418  1.00  0.00    -0.293 C  
BRANCH   3   4
HETATM    4  N   UNL     1     -12.052   9.975  71.420  1.00  0.00    -0.394 NA 
HETATM    5  C   UNL     1     -11.650  10.881  70.487  1.00  0.00    -0.300 A  
HETATM    6  N   UNL     1     -11.253  12.994  68.926  1.00  0.00    -0.266 NA 
HETATM    7  C   UNL     1     -13.025  10.560  72.181  1.00  0.00    -0.263 A  
HETATM    8  N   UNL     1     -12.840  14.316  70.066  1.00  0.00    -0.447 NA 
HETATM    9  N   UNL     1     -10.740  10.705  69.516  1.00  0.00    -0.244 NA 
HETATM   10  C   UNL     1     -12.173  13.107  69.910  1.00  0.00    -0.225 A  
HETATM   11  N   UNL     1     -13.240  11.806  71.824  1.00  0.00    -0.420 NA 
HETATM   12  C   UNL     1     -10.609  11.816  68.778  1.00  0.00    -0.206 A  
HETATM   13  C   UNL     1     -12.401  12.011  70.749  1.00  0.00    -0.308 A  
HETATM   14  H1  UNL     1     -12.675  15.115  69.454  1.00  0.00     0.000 HD 
HETATM   15  H2  UNL     1     -12.694  14.628  71.026  1.00  0.00     0.000 HD 
ENDBRANCH   3   4
ENDBRANCH   1   3
BRANCH   1  16
HETATM   16  O   UNL     1      -9.297   7.740  71.085  1.00  0.00    -0.149 OA 
BRANCH  16  17
HETATM   17  C   UNL     1      -8.824   6.419  71.444  1.00  0.00    -0.138 C  
HETATM   18  O   UNL     1     -10.675   4.943  71.085  1.00  0.00    -0.090 OA 
HETATM   19  O   UNL     1      -9.604   6.199  69.053  1.00  0.00    -0.126 OA 
HETATM   20  P   UNL     1      -9.386   5.123  70.281  1.00  0.00    -0.179 P  
HETATM   21  O   UNL     1      -9.917   3.897  69.182  1.00  0.00    -0.047 OA 
BRANCH  19  22
HETATM   22  C   UNL     1      -8.569   6.419  68.120  1.00  0.00    -0.117 C  
BRANCH  22  23
HETATM   23  O   UNL     1      -8.273   7.812  67.966  1.00  0.00    -0.121 OA 
BRANCH  23  24
HETATM   24  C   UNL     1      -6.981   8.135  68.225  1.00  0.00    -0.076 C  
HETATM   25  O   UNL     1      -6.317   7.723  69.166  1.00  0.00    -0.034 OA 
BRANCH  24  26
HETATM   26  O   UNL     1      -6.542   9.009  67.280  1.00  0.00    -0.060 OA 
BRANCH  26  27
HETATM   27  C   UNL     1      -7.376  10.171  67.080  1.00  0.00    -0.091 C  
HETATM   28  C   UNL     1      -6.487  11.382  66.817  1.00  0.00    -0.140 C  
HETATM   29  C   UNL     1      -8.304   9.927  65.895  1.00  0.00    -0.126 C  
ENDBRANCH  26  27
ENDBRANCH  24  26
ENDBRANCH  23  24
ENDBRANCH  22  23
ENDBRANCH  19  22
BRANCH  21  30
HETATM   30  C   UNL     1      -9.166   2.707  69.287  1.00  0.00    -0.135 C  
BRANCH  30  31
HETATM   31  O   UNL     1      -8.019   2.731  68.443  1.00  0.00    -0.054 OA 
BRANCH  31  32
HETATM   32  C   UNL     1      -8.295   2.543  67.132  1.00  0.00    -0.086 C  
HETATM   33  O   UNL     1      -9.196   1.846  66.684  1.00  0.00    -0.083 OA 
BRANCH  32  34
HETATM   34  O   UNL     1      -7.440   3.307  66.407  1.00  0.00    -0.074 OA 
BRANCH  34  35
HETATM   35  C   UNL     1      -6.094   3.413  66.910  1.00  0.00    -0.025 C  
HETATM   36  C   UNL     1      -5.591   4.816  66.582  1.00  0.00    -0.014 C  
HETATM   37  C   UNL     1      -5.195   2.371  66.252  1.00  0.00    -0.005 C  
ENDBRANCH  34  35
ENDBRANCH  32  34
ENDBRANCH  31  32
ENDBRANCH  30  31
ENDBRANCH  21  30
ENDBRANCH  16  17
ENDBRANCH   1  16
TORSDOF 14
ENDMDL
MODEL      324
REMARK 921   NORMALIZED FREE ENERGY PREDICTED BY IDOCK:   -3.30 KCAL/MOL
REMARK 922        TOTAL FREE ENERGY PREDICTED BY IDOCK:   -7.83 KCAL/MOL
REMARK 923 INTER-LIGAND FREE ENERGY PREDICTED BY IDOCK:   -6.45 KCAL/MOL
REMARK 924 INTRA-LIGAND FREE ENERGY PREDICTED BY IDOCK:   -1.38 KCAL/MOL
REMARK 927      BINDING AFFINITY PREDICTED BY RF-SCORE:    0.00 PKD
ROOT
HETATM    1  C   UNL     1      -9.778   8.357  69.352  1.00  0.00    -0.177 C  
HETATM    2  C   UNL     1      -9.259   8.760  70.731  1.00  0.00    -0.242 C  
ENDROOT
BRANCH   1   3
HETATM    3  C   UNL     1      -8.780   7.551  68.531  1.00  0.00    -0.128 C  
BRANCH   3   4
HETATM    4  N   UNL     1      -8.932   6.121  68.576  1.00  0.00    -0.116 NA 
HETATM    5  C   UNL     1      -9.170   5.374  67.464  1.00  0.00    -0.112 A  
HETATM    6  N   UNL     1      -9.569   3.469  65.655  1.00  0.00    -0.150 NA 
HETATM    7  C   UNL     1      -8.716   5.265  69.618  1.00  0.00    -0.101 A  
HETATM    8  N   UNL     1      -9.309   1.725  67.223  1.00  0.00    -0.353 NA 
HETATM    9  N   UNL     1      -9.393   5.815  66.216  1.00  0.00    -0.157 NA 
HETATM   10  C   UNL     1      -9.321   3.082  66.927  1.00  0.00    -0.109 A  
HETATM   11  N   UNL     1      -8.848   4.010  69.254  1.00  0.00    -0.087 NA 
HETATM   12  C   UNL     1      -9.578   4.790  65.373  1.00  0.00    -0.140 A  
HETATM   13  C   UNL     1      -9.109   4.065  67.900  1.00  0.00    -0.141 A  
HETATM   14  H1  UNL     1      -9.462   1.009  66.514  1.00  0.00     0.000 HD 
HETATM   15  H2  UNL     1      -9.983   1.567  67.972  1.00  0.00     0.000 HD 
ENDBRANCH   3   4
ENDBRANCH   1   3
BRANCH   1  16
HETATM   16  O   UNL     1     -10.265   9.540  68.683  1.00  0.00    -0.181 OA 
BRANCH  16  17
HETATM   17  C   UNL     1     -10.280  10.757  69.468  1.00  0.00    -0.113 C  
HETATM   18  O   UNL     1      -8.089  11.700  69.251  1.00  0.00     0.107 OA 
HETATM   19  O   UNL     1      -9.628  11.493  67.142  1.00  0.00    -0.175 OA 
HETATM   20  P   UNL     1      -9.420  12.145  68.641  1.00  0.00     0.132 P  
HETATM   21  O   UNL     1      -8.608  13.458  67.860  1.00  0.00    -0.161 OA 
BRANCH  19  22
HETATM   22  C   UNL     1     -10.739  11.872  66.359  1.00  0.00    -0.266 C  
BRANCH  22  23
HETATM   23  O   UNL     1     -10.817  11.123  65.141  1.00  0.00    -0.248 OA 
BRANCH  23  24
HETATM   24  C   UNL     1     -10.298  11.764  64.063  1.00  0.00    -0.356 C  
HETATM   25  O   UNL     1     -10.846  12.658  63.433  1.00  0.00    -0.410 OA 
BRANCH  24  26
HETATM   26  O   UNL     1      -9.076  11.240  63.779  1.00  0.00    -0.123 OA 
BRANCH  26  27
HETATM   27  C   UNL     1      -9.024   9.798  63.710  1.00  0.00    -0.240 C  
HETATM   28  C   UNL     1      -8.441   9.386  62.363  1.00  0.00    -0.201 C  
HETATM   29  C   UNL     1      -8.155   9.271  64.848  1.00  0.00    -0.130 C  
ENDBRANCH  26  27
ENDBRANCH  24  26
ENDBRANCH  23  24
ENDBRANCH  22  23
ENDBRANCH  19  22
BRANCH  21  30
HETATM   30  C   UNL     1      -8.944  14.713  68.412  1.00  0.00    -0.180 C  
BRANCH  30  31
HETATM   31  O   UNL     1      -9.132  15.699  67.401  1.00  0.00    -0.189 OA 
BRANCH  31  32
HETATM   32  C   UNL     1      -8.752  16.945  67.768  1.00  0.00    -0.212 C  
HETATM   33  O   UNL     1      -8.429  17.290  68.897  1.00  0.00    -0.257 OA 
BRANCH  32  34
HETATM   34  O   UNL     1      -8.734  17.723  66.657  1.00  0.00    -0.245 OA 
BRANCH  34  35
HETATM   35  C   UNL     1      -8.040  18.982  66.770  1.00  0.00    -0.269 C  
HETATM   36  C   UNL     1      -9.032  20.085  66.414  1.00  0.00    -0.408 C  
HETATM   37  C   UNL     1      -6.851  19.022  65.815  1.00  0.00    -0.311 C  
ENDBRANCH  34  35
ENDBRANCH  32  34
ENDBRANCH  31  32
ENDBRANCH  30  31
ENDBRANCH  21  30
ENDBRANCH  16  17
ENDBRANCH   1  16
TORSDOF 14
ENDMDL
MODEL      325
REMARK 921   NORMALIZED FREE ENERGY PREDICTED BY IDOCK:   -3.25 KCAL/MOL
REMARK 922        TOTAL FREE ENERGY PREDICTED BY IDOCK:   -7.76 KCAL/MOL
REMARK 923 INTER-LIGAND FREE ENERGY PREDICTED BY IDOCK:   -6.88 KCAL/MOL
REMARK 924 INTRA-LIGAND FREE ENERGY PREDICTED BY IDOCK:   -0.87 KCAL/MOL
REMARK 927      BINDING AFFINITY PREDICTED BY RF-SCORE:    0.00 PKD
ROOT
HETATM    1  C   UNL     1      -9.031  11.891  68.109  1.00  0.00    -0.185 C  
HETATM    2  C   UNL     1     -10.466  11.650  68.573  1.00  0.00    -0.236 C  
ENDROOT
BRANCH   1   3
HETATM    3  C   UNL     1      -8.918  12.849  66.931  1.00  0.00    -0.210 C  
BRANCH   3   4
HETATM    4  N   UNL     1      -8.541  14.201  67.249  1.00  0.00    -0.208 NA 
HETATM    5  C   UNL     1      -9.453  15.165  67.552  1.00  0.00    -0.206 A  
HETATM    6  N   UNL     1     -10.763  17.366  68.257  1.00  0.00    -0.360 NA 
HETATM    7  C   UNL     1      -7.295  14.718  67.467  1.00  0.00    -0.201 A  
HETATM    8  N   UNL     1      -8.785  18.583  68.675  1.00  0.00    -0.322 NA 
HETATM    9  N   UNL     1     -10.791  15.064  67.513  1.00  0.00    -0.289 NA 
HETATM   10  C   UNL     1      -9.412  17.403  68.295  1.00  0.00    -0.290 A  
HETATM   11  N   UNL     1      -7.349  15.974  67.846  1.00  0.00    -0.125 NA 
HETATM   12  C   UNL     1     -11.366  16.215  67.888  1.00  0.00    -0.182 A  
HETATM   13  C   UNL     1      -8.696  16.258  67.925  1.00  0.00    -0.175 A  
HETATM   14  H1  UNL     1      -9.306  19.417  68.945  1.00  0.00     0.000 HD 
HETATM   15  H2  UNL     1      -8.146  18.848  67.926  1.00  0.00     0.000 HD 
ENDBRANCH   3   4
ENDBRANCH   1   3
BRANCH   1  16
HETATM   16  O   UNL     1      -8.403  10.611  67.883  1.00  0.00    -0.117 OA 
BRANCH  16  17
HETATM   17  C   UNL     1      -8.804   9.906  66.682  1.00  0.00    -0.135 C  
HETATM   18  O   UNL     1      -6.788   9.019  65.742  1.00  0.00    -0.074 OA 
HETATM   19  O   UNL     1      -7.610   8.176  68.081  1.00  0.00    -0.101 OA 
HETATM   20  P   UNL     1      -7.932   8.311  66.471  1.00  0.00    -0.104 P  
HETATM   21  O   UNL     1      -7.109   6.803  66.271  1.00  0.00    -0.064 OA 
BRANCH  19  22
HETATM   22  C   UNL     1      -8.487   7.450  68.914  1.00  0.00    -0.129 C  
BRANCH  22  23
HETATM   23  O   UNL     1      -9.844   7.889  68.776  1.00  0.00    -0.160 OA 
BRANCH  23  24
HETATM   24  C   UNL     1     -10.651   7.526  69.804  1.00  0.00    -0.241 C  
HETATM   25  O   UNL     1     -10.694   6.417  70.320  1.00  0.00    -0.228 OA 
BRANCH  24  26
HETATM   26  O   UNL     1     -11.422   8.587  70.161  1.00  0.00    -0.154 OA 
BRANCH  26  27
HETATM   27  C   UNL     1     -11.275   9.023  71.531  1.00  0.00    -0.348 C  
HETATM   28  C   UNL     1     -12.370   8.381  72.376  1.00  0.00    -0.412 C  
HETATM   29  C   UNL     1      -9.899   8.613  72.045  1.00  0.00    -0.396 C  
ENDBRANCH  26  27
ENDBRANCH  24  26
ENDBRANCH  23  24
ENDBRANCH  22  23
ENDBRANCH  19  22
BRANCH  21  30
HETATM   30  C   UNL     1      -7.752   5.948  65.349  1.00  0.00    -0.093 C  
BRANCH  30  31
HETATM   31  O   UNL     1      -9.134   5.791  65.654  1.00  0.00    -0.149 OA 
BRANCH  31  32
HETATM   32  C   UNL     1      -9.597   4.531  65.487  1.00  0.00    -0.185 C  
HETATM   33  O   UNL     1     -10.657   4.223  64.956  1.00  0.00    -0.250 OA 
BRANCH  32  34
HETATM   34  O   UNL     1      -8.657   3.671  65.953  1.00  0.00    -0.109 OA 
BRANCH  34  35
HETATM   35  C   UNL     1      -9.128   2.613  66.810  1.00  0.00    -0.129 C  
HETATM   36  C   UNL     1      -9.377   3.216  68.189  1.00  0.00    -0.247 C  
HETATM   37  C   UNL     1      -8.086   1.503  66.907  1.00  0.00    -0.073 C  
ENDBRANCH  34  35
ENDBRANCH  32  34
ENDBRANCH  31  32
ENDBRANCH  30  31
ENDBRANCH  21  30
ENDBRANCH  16  17
ENDBRANCH   1  16
TORSDOF 14
ENDMDL
MODEL      326
REMARK 921   NORMALIZED FREE ENERGY PREDICTED BY IDOCK:   -3.25 KCAL/MOL
REMARK 922        TOTAL FREE ENERGY PREDICTED BY IDOCK:   -7.75 KCAL/MOL
REMARK 923 INTER-LIGAND FREE ENERGY PREDICTED BY IDOCK:   -6.72 KCAL/MOL
REMARK 924 INTRA-LIGAND FREE ENERGY PREDICTED BY IDOCK:   -1.03 KCAL/MOL
REMARK 927      BINDING AFFINITY PREDICTED BY RF-SCORE:    0.00 PKD
ROOT
HETATM    1  C   UNL     1     -10.370  10.846  64.877  1.00  0.00    -0.304 C  
HETATM    2  C   UNL     1      -9.289  11.641  64.147  1.00  0.00     0.040 C  
ENDROOT
BRANCH   1   3
HETATM    3  C   UNL     1     -11.067  11.628  65.982  1.00  0.00    -0.270 C  
BRANCH   3   4
HETATM    4  N   UNL     1     -11.024  13.061  65.867  1.00  0.00    -0.269 NA 
HETATM    5  C   UNL     1     -10.885  13.878  66.946  1.00  0.00    -0.286 A  
HETATM    6  N   UNL     1     -10.576  15.892  68.652  1.00  0.00    -0.239 NA 
HETATM    7  C   UNL     1     -10.943  13.832  64.742  1.00  0.00    -0.392 A  
HETATM    8  N   UNL     1     -10.453  17.512  66.941  1.00  0.00    -0.315 NA 
HETATM    9  N   UNL     1     -10.866  13.526  68.241  1.00  0.00    -0.251 NA 
HETATM   10  C   UNL     1     -10.583  16.185  67.332  1.00  0.00    -0.311 A  
HETATM   11  N   UNL     1     -10.808  15.106  65.034  1.00  0.00    -0.417 NA 
HETATM   12  C   UNL     1     -10.702  14.600  69.026  1.00  0.00    -0.249 A  
HETATM   13  C   UNL     1     -10.748  15.144  66.411  1.00  0.00    -0.317 A  
HETATM   14  H1  UNL     1     -10.332  18.271  67.612  1.00  0.00     0.000 HD 
HETATM   15  H2  UNL     1     -11.256  17.742  66.357  1.00  0.00     0.000 HD 
ENDBRANCH   3   4
ENDBRANCH   1   3
BRANCH   1  16
HETATM   16  O   UNL     1      -9.799   9.595  65.317  1.00  0.00    -0.310 OA 
BRANCH  16  17
HETATM   17  C   UNL     1     -10.411   8.987  66.481  1.00  0.00    -0.193 C  
HETATM   18  O   UNL     1      -9.130   7.016  66.938  1.00  0.00    -0.130 OA 
HETATM   19  O   UNL     1      -8.004   9.372  67.141  1.00  0.00    -0.102 OA 
HETATM   20  P   UNL     1      -9.183   8.353  67.680  1.00  0.00    -0.135 P  
HETATM   21  O   UNL     1      -8.022   7.754  68.814  1.00  0.00    -0.120 OA 
BRANCH  19  22
HETATM   22  C   UNL     1      -7.807  10.615  67.779  1.00  0.00    -0.108 C  
BRANCH  22  23
HETATM   23  O   UNL     1      -7.596  11.673  66.835  1.00  0.00    -0.150 OA 
BRANCH  23  24
HETATM   24  C   UNL     1      -7.160  12.831  67.391  1.00  0.00    -0.132 C  
HETATM   25  O   UNL     1      -7.669  13.933  67.236  1.00  0.00    -0.164 OA 
BRANCH  24  26
HETATM   26  O   UNL     1      -6.050  12.579  68.135  1.00  0.00    -0.057 OA 
BRANCH  26  27
HETATM   27  C   UNL     1      -6.147  12.943  69.529  1.00  0.00    -0.117 C  
HETATM   28  C   UNL     1      -5.855  11.714  70.384  1.00  0.00    -0.156 C  
HETATM   29  C   UNL     1      -5.144  14.050  69.833  1.00  0.00    -0.092 C  
ENDBRANCH  26  27
ENDBRANCH  24  26
ENDBRANCH  23  24
ENDBRANCH  22  23
ENDBRANCH  19  22
BRANCH  21  30
HETATM   30  C   UNL     1      -8.577   7.524  70.092  1.00  0.00    -0.141 C  
BRANCH  30  31
HETATM   31  O   UNL     1      -8.443   6.162  70.486  1.00  0.00    -0.132 OA 
BRANCH  31  32
HETATM   32  C   UNL     1      -9.454   5.364  70.070  1.00  0.00    -0.160 C  
HETATM   33  O   UNL     1     -10.618   5.710  69.913  1.00  0.00    -0.281 OA 
BRANCH  32  34
HETATM   34  O   UNL     1      -8.941   4.138  69.802  1.00  0.00    -0.081 OA 
BRANCH  34  35
HETATM   35  C   UNL     1      -8.303   3.978  68.519  1.00  0.00    -0.086 C  
HETATM   36  C   UNL     1      -9.307   3.303  67.589  1.00  0.00    -0.245 C  
HETATM   37  C   UNL     1      -7.052   3.116  68.649  1.00  0.00    -0.049 C  
ENDBRANCH  34  35
ENDBRANCH  32  34
ENDBRANCH  31  32
ENDBRANCH  30  31
ENDBRANCH  21  30
ENDBRANCH  16  17
ENDBRANCH   1  16
TORSDOF 14
ENDMDL
MODEL      327
REMARK 921   NORMALIZED FREE ENERGY PREDICTED BY IDOCK:   -3.23 KCAL/MOL
REMARK 922        TOTAL FREE ENERGY PREDICTED BY IDOCK:   -7.71 KCAL/MOL
REMARK 923 INTER-LIGAND FREE ENERGY PREDICTED BY IDOCK:   -7.09 KCAL/MOL
REMARK 924 INTRA-LIGAND FREE ENERGY PREDICTED BY IDOCK:   -0.62 KCAL/MOL
REMARK 927      BINDING AFFINITY PREDICTED BY RF-SCORE:    0.00 PKD
ROOT
HETATM    1  C   UNL     1     -12.023   7.699  70.583  1.00  0.00    -0.099 C  
HETATM    2  C   UNL     1     -13.039   8.123  71.641  1.00  0.00    -0.358 C  
ENDROOT
BRANCH   1   3
HETATM    3  C   UNL     1     -11.457   6.302  70.799  1.00  0.00    -0.316 C  
BRANCH   3   4
HETATM    4  N   UNL     1     -10.598   6.136  71.940  1.00  0.00    -0.214 NA 
HETATM    5  C   UNL     1      -9.513   5.315  71.928  1.00  0.00    -0.146 A  
HETATM    6  N   UNL     1      -7.296   3.939  72.429  1.00  0.00    -0.056 NA 
HETATM    7  C   UNL     1     -10.583   6.834  73.115  1.00  0.00    -0.287 A  
HETATM    8  N   UNL     1      -6.998   4.915  74.556  1.00  0.00    -0.072 NA 
HETATM    9  N   UNL     1      -9.128   4.485  70.947  1.00  0.00    -0.125 NA 
HETATM   10  C   UNL     1      -7.721   4.805  73.375  1.00  0.00    -0.095 A  
HETATM   11  N   UNL     1      -9.579   6.476  73.882  1.00  0.00    -0.181 NA 
HETATM   12  C   UNL     1      -8.003   3.838  71.282  1.00  0.00    -0.064 A  
HETATM   13  C   UNL     1      -8.889   5.541  73.139  1.00  0.00    -0.119 A  
HETATM   14  H1  UNL     1      -6.147   4.379  74.728  1.00  0.00     0.000 HD 
HETATM   15  H2  UNL     1      -7.638   4.732  75.328  1.00  0.00     0.000 HD 
ENDBRANCH   3   4
ENDBRANCH   1   3
BRANCH   1  16
HETATM   16  O   UNL     1     -11.015   8.728  70.480  1.00  0.00    -0.230 OA 
BRANCH  16  17
HETATM   17  C   UNL     1      -9.852   8.405  69.679  1.00  0.00    -0.184 C  
HETATM   18  O   UNL     1     -10.700   7.476  67.641  1.00  0.00    -0.239 OA 
HETATM   19  O   UNL     1     -11.212   9.973  68.242  1.00  0.00    -0.229 OA 
HETATM   20  P   UNL     1     -10.061   8.840  67.914  1.00  0.00    -0.229 P  
HETATM   21  O   UNL     1     -10.259   9.252  66.245  1.00  0.00    -0.273 OA 
BRANCH  19  22
HETATM   22  C   UNL     1     -10.839  11.324  68.408  1.00  0.00    -0.205 C  
BRANCH  22  23
HETATM   23  O   UNL     1     -11.315  11.863  69.647  1.00  0.00    -0.252 OA 
BRANCH  23  24
HETATM   24  C   UNL     1     -11.602  13.188  69.600  1.00  0.00    -0.253 C  
HETATM   25  O   UNL     1     -10.864  14.063  69.169  1.00  0.00    -0.245 OA 
BRANCH  24  26
HETATM   26  O   UNL     1     -12.838  13.395  70.129  1.00  0.00    -0.035 OA 
BRANCH  26  27
HETATM   27  C   UNL     1     -12.855  14.056  71.414  1.00  0.00    -0.359 C  
HETATM   28  C   UNL     1     -13.457  15.447  71.249  1.00  0.00    -0.598 C  
HETATM   29  C   UNL     1     -13.685  13.231  72.393  1.00  0.00    -0.678 C  
ENDBRANCH  26  27
ENDBRANCH  24  26
ENDBRANCH  23  24
ENDBRANCH  22  23
ENDBRANCH  19  22
BRANCH  21  30
HETATM   30  C   UNL     1      -9.032   9.308  65.549  1.00  0.00    -0.205 C  
BRANCH  30  31
HETATM   31  O   UNL     1      -7.921   9.158  66.427  1.00  0.00    -0.099 OA 
BRANCH  31  32
HETATM   32  C   UNL     1      -7.006  10.151  66.334  1.00  0.00    -0.105 C  
HETATM   33  O   UNL     1      -6.366  10.442  65.332  1.00  0.00    -0.116 OA 
BRANCH  32  34
HETATM   34  O   UNL     1      -6.969  10.803  67.523  1.00  0.00    -0.080 OA 
BRANCH  34  35
HETATM   35  C   UNL     1      -7.129  12.234  67.474  1.00  0.00    -0.142 C  
HETATM   36  C   UNL     1      -7.024  12.756  68.904  1.00  0.00    -0.084 C  
HETATM   37  C   UNL     1      -8.487  12.599  66.884  1.00  0.00    -0.118 C  
ENDBRANCH  34  35
ENDBRANCH  32  34
ENDBRANCH  31  32
ENDBRANCH  30  31
ENDBRANCH  21  30
ENDBRANCH  16  17
ENDBRANCH   1  16
TORSDOF 14
ENDMDL
MODEL      328
REMARK 921   NORMALIZED FREE ENERGY PREDICTED BY IDOCK:   -3.21 KCAL/MOL
REMARK 922        TOTAL FREE ENERGY PREDICTED BY IDOCK:   -7.68 KCAL/MOL
REMARK 923 INTER-LIGAND FREE ENERGY PREDICTED BY IDOCK:   -7.32 KCAL/MOL
REMARK 924 INTRA-LIGAND FREE ENERGY PREDICTED BY IDOCK:   -0.36 KCAL/MOL
REMARK 927      BINDING AFFINITY PREDICTED BY RF-SCORE:    0.00 PKD
ROOT
HETATM    1  C   UNL     1     -10.144  13.176  67.356  1.00  0.00    -0.229 C  
HETATM    2  C   UNL     1     -10.995  12.218  66.523  1.00  0.00    -0.320 C  
ENDROOT
BRANCH   1   3
HETATM    3  C   UNL     1      -9.623  14.373  66.573  1.00  0.00    -0.293 C  
BRANCH   3   4
HETATM    4  N   UNL     1      -9.826  15.662  67.178  1.00  0.00    -0.227 NA 
HETATM    5  C   UNL     1      -9.090  16.755  66.839  1.00  0.00    -0.229 A  
HETATM    6  N   UNL     1      -8.023  19.169  66.527  1.00  0.00    -0.272 NA 
HETATM    7  C   UNL     1     -10.824  16.071  68.017  1.00  0.00    -0.335 A  
HETATM    8  N   UNL     1      -9.567  20.199  67.983  1.00  0.00    -0.335 NA 
HETATM    9  N   UNL     1      -8.040  16.806  66.005  1.00  0.00    -0.423 NA 
HETATM   10  C   UNL     1      -9.096  19.060  67.341  1.00  0.00    -0.293 A  
HETATM   11  N   UNL     1     -10.745  17.357  68.277  1.00  0.00    -0.360 NA 
HETATM   12  C   UNL     1      -7.570  18.058  65.905  1.00  0.00    -0.136 A  
HETATM   13  C   UNL     1      -9.677  17.800  67.526  1.00  0.00    -0.284 A  
HETATM   14  H1  UNL     1      -9.145  21.117  67.848  1.00  0.00     0.000 HD 
HETATM   15  H2  UNL     1      -9.575  20.008  68.984  1.00  0.00     0.000 HD 
ENDBRANCH   3   4
ENDBRANCH   1   3
BRANCH   1  16
HETATM   16  O   UNL     1      -9.110  12.413  68.014  1.00  0.00    -0.183 OA 
BRANCH  16  17
HETATM   17  C   UNL     1      -8.456  11.398  67.214  1.00  0.00    -0.148 C  
HETATM   18  O   UNL     1      -6.209  11.270  68.031  1.00  0.00    -0.049 OA 
HETATM   19  O   UNL     1      -8.200  10.608  69.598  1.00  0.00    -0.092 OA 
HETATM   20  P   UNL     1      -7.379  10.299  68.203  1.00  0.00    -0.087 P  
HETATM   21  O   UNL     1      -6.361   9.259  69.138  1.00  0.00    -0.042 OA 
BRANCH  19  22
HETATM   22  C   UNL     1      -9.245   9.750  70.003  1.00  0.00    -0.229 C  
BRANCH  22  23
HETATM   23  O   UNL     1      -9.404   9.735  71.427  1.00  0.00     0.067 OA 
BRANCH  23  24
HETATM   24  C   UNL     1      -9.326   8.498  71.979  1.00  0.00    -0.283 C  
HETATM   25  O   UNL     1      -8.766   8.220  73.030  1.00  0.00    -0.209 OA 
BRANCH  24  26
HETATM   26  O   UNL     1      -9.955   7.607  71.167  1.00  0.00    -0.178 OA 
BRANCH  26  27
HETATM   27  C   UNL     1     -11.320   7.301  71.527  1.00  0.00    -0.251 C  
HETATM   28  C   UNL     1     -11.364   5.923  72.179  1.00  0.00    -0.344 C  
HETATM   29  C   UNL     1     -11.836   8.361  72.494  1.00  0.00    -0.427 C  
ENDBRANCH  26  27
ENDBRANCH  24  26
ENDBRANCH  23  24
ENDBRANCH  22  23
ENDBRANCH  19  22
BRANCH  21  30
HETATM   30  C   UNL     1      -6.038   8.061  68.464  1.00  0.00    -0.040 C  
BRANCH  30  31
HETATM   31  O   UNL     1      -6.982   7.031  68.741  1.00  0.00    -0.073 OA 
BRANCH  31  32
HETATM   32  C   UNL     1      -7.648   6.584  67.651  1.00  0.00    -0.105 C  
HETATM   33  O   UNL     1      -7.218   6.576  66.505  1.00  0.00    -0.070 OA 
BRANCH  32  34
HETATM   34  O   UNL     1      -8.845   6.094  68.060  1.00  0.00    -0.114 OA 
BRANCH  34  35
HETATM   35  C   UNL     1     -10.011   6.847  67.673  1.00  0.00    -0.144 C  
HETATM   36  C   UNL     1     -10.941   5.899  66.922  1.00  0.00    -0.304 C  
HETATM   37  C   UNL     1      -9.618   8.013  66.771  1.00  0.00    -0.281 C  
ENDBRANCH  34  35
ENDBRANCH  32  34
ENDBRANCH  31  32
ENDBRANCH  30  31
ENDBRANCH  21  30
ENDBRANCH  16  17
ENDBRANCH   1  16
TORSDOF 14
ENDMDL
MODEL      329
REMARK 921   NORMALIZED FREE ENERGY PREDICTED BY IDOCK:   -3.21 KCAL/MOL
REMARK 922        TOTAL FREE ENERGY PREDICTED BY IDOCK:   -7.68 KCAL/MOL
REMARK 923 INTER-LIGAND FREE ENERGY PREDICTED BY IDOCK:   -6.67 KCAL/MOL
REMARK 924 INTRA-LIGAND FREE ENERGY PREDICTED BY IDOCK:   -1.01 KCAL/MOL
REMARK 927      BINDING AFFINITY PREDICTED BY RF-SCORE:    0.00 PKD
ROOT
HETATM    1  C   UNL     1      -8.010   7.641  67.896  1.00  0.00    -0.118 C  
HETATM    2  C   UNL     1      -6.638   7.328  67.301  1.00  0.00    -0.063 C  
ENDROOT
BRANCH   1   3
HETATM    3  C   UNL     1      -9.048   6.554  67.651  1.00  0.00    -0.112 C  
BRANCH   3   4
HETATM    4  N   UNL     1      -9.475   5.815  68.809  1.00  0.00    -0.121 NA 
HETATM    5  C   UNL     1      -9.399   4.458  68.881  1.00  0.00    -0.153 A  
HETATM    6  N   UNL     1      -9.420   1.893  69.571  1.00  0.00    -0.085 NA 
HETATM    7  C   UNL     1      -9.850   6.281  70.037  1.00  0.00    -0.169 A  
HETATM    8  N   UNL     1     -10.129   2.342  71.776  1.00  0.00    -0.138 NA 
HETATM    9  N   UNL     1      -9.030   3.608  67.911  1.00  0.00    -0.118 NA 
HETATM   10  C   UNL     1      -9.764   2.797  70.515  1.00  0.00     0.002 A  
HETATM   11  N   UNL     1     -10.067   5.301  70.885  1.00  0.00    -0.213 NA 
HETATM   12  C   UNL     1      -9.065   2.341  68.347  1.00  0.00    -0.165 A  
HETATM   13  C   UNL     1      -9.765   4.155  70.178  1.00  0.00    -0.208 A  
HETATM   14  H1  UNL     1     -10.128   1.352  72.022  1.00  0.00     0.000 HD 
HETATM   15  H2  UNL     1     -11.058   2.709  71.980  1.00  0.00     0.000 HD 
ENDBRANCH   3   4
ENDBRANCH   1   3
BRANCH   1  16
HETATM   16  O   UNL     1      -8.417   8.950  67.442  1.00  0.00    -0.115 OA 
BRANCH  16  17
HETATM   17  C   UNL     1      -8.957   9.838  68.452  1.00  0.00    -0.123 C  
HETATM   18  O   UNL     1      -7.471  11.714  68.533  1.00  0.00    -0.099 OA 
HETATM   19  O   UNL     1      -8.842  11.237  66.354  1.00  0.00    -0.172 OA 
HETATM   20  P   UNL     1      -8.885  11.599  67.961  1.00  0.00    -0.171 P  
HETATM   21  O   UNL     1      -8.819  13.264  67.497  1.00  0.00    -0.184 OA 
BRANCH  19  22
HETATM   22  C   UNL     1     -10.041  11.202  65.610  1.00  0.00    -0.253 C  
BRANCH  22  23
HETATM   23  O   UNL     1     -10.008  10.196  64.590  1.00  0.00    -0.328 OA 
BRANCH  23  24
HETATM   24  C   UNL     1      -9.719  10.672  63.352  1.00  0.00    -0.339 C  
HETATM   25  O   UNL     1      -9.846  11.833  62.987  1.00  0.00    -0.398 OA 
BRANCH  24  26
HETATM   26  O   UNL     1      -9.283   9.649  62.571  1.00  0.00    -0.281 OA 
BRANCH  26  27
HETATM   27  C   UNL     1      -7.855   9.434  62.576  1.00  0.00    -0.117 C  
HETATM   28  C   UNL     1      -7.150  10.783  62.477  1.00  0.00    -0.051 C  
HETATM   29  C   UNL     1      -7.457   8.722  63.865  1.00  0.00    -0.117 C  
ENDBRANCH  26  27
ENDBRANCH  24  26
ENDBRANCH  23  24
ENDBRANCH  22  23
ENDBRANCH  19  22
BRANCH  21  30
HETATM   30  C   UNL     1      -9.672  14.080  68.271  1.00  0.00    -0.225 C  
BRANCH  30  31
HETATM   31  O   UNL     1     -10.986  13.539  68.353  1.00  0.00    -0.247 OA 
BRANCH  31  32
HETATM   32  C   UNL     1     -11.636  13.836  69.502  1.00  0.00    -0.297 C  
HETATM   33  O   UNL     1     -11.482  14.852  70.167  1.00  0.00    -0.255 OA 
BRANCH  32  34
HETATM   34  O   UNL     1     -12.525  12.843  69.753  1.00  0.00    -0.095 OA 
BRANCH  34  35
HETATM   35  C   UNL     1     -12.089  11.806  70.653  1.00  0.00    -0.311 C  
HETATM   36  C   UNL     1     -12.009  10.509  69.853  1.00  0.00    -0.339 C  
HETATM   37  C   UNL     1     -13.078  11.648  71.804  1.00  0.00    -0.487 C  
ENDBRANCH  34  35
ENDBRANCH  32  34
ENDBRANCH  31  32
ENDBRANCH  30  31
ENDBRANCH  21  30
ENDBRANCH  16  17
ENDBRANCH   1  16
TORSDOF 14
ENDMDL
MODEL      330
REMARK 921   NORMALIZED FREE ENERGY PREDICTED BY IDOCK:   -3.18 KCAL/MOL
REMARK 922        TOTAL FREE ENERGY PREDICTED BY IDOCK:   -7.63 KCAL/MOL
REMARK 923 INTER-LIGAND FREE ENERGY PREDICTED BY IDOCK:   -6.82 KCAL/MOL
REMARK 924 INTRA-LIGAND FREE ENERGY PREDICTED BY IDOCK:   -0.81 KCAL/MOL
REMARK 927      BINDING AFFINITY PREDICTED BY RF-SCORE:    0.00 PKD
ROOT
HETATM    1  C   UNL     1     -10.020  15.155  67.417  1.00  0.00    -0.226 C  
HETATM    2  C   UNL     1     -11.350  14.489  67.766  1.00  0.00    -0.335 C  
ENDROOT
BRANCH   1   3
HETATM    3  C   UNL     1      -9.764  15.268  65.920  1.00  0.00    -0.355 C  
BRANCH   3   4
HETATM    4  N   UNL     1     -10.712  14.608  65.064  1.00  0.00    -0.404 NA 
HETATM    5  C   UNL     1     -10.525  13.342  64.601  1.00  0.00    -0.402 A  
HETATM    6  N   UNL     1     -10.697  10.935  63.489  1.00  0.00    -0.160 NA 
HETATM    7  C   UNL     1     -11.970  15.004  64.706  1.00  0.00    -0.311 A  
HETATM    8  N   UNL     1     -12.875  11.311  62.665  1.00  0.00    -0.323 NA 
HETATM    9  N   UNL     1      -9.444  12.564  64.766  1.00  0.00     0.211 NA 
HETATM   10  C   UNL     1     -11.764  11.756  63.372  1.00  0.00    -0.322 A  
HETATM   11  N   UNL     1     -12.588  14.086  63.998  1.00  0.00    -0.678 NA 
HETATM   12  C   UNL     1      -9.620  11.372  64.179  1.00  0.00    -0.191 A  
HETATM   13  C   UNL     1     -11.700  13.031  63.946  1.00  0.00    -0.468 A  
HETATM   14  H1  UNL     1     -12.922  10.382  62.248  1.00  0.00     0.000 HD 
HETATM   15  H2  UNL     1     -13.064  11.990  61.929  1.00  0.00     0.000 HD 
ENDBRANCH   3   4
ENDBRANCH   1   3
BRANCH   1  16
HETATM   16  O   UNL     1      -8.968  14.482  68.141  1.00  0.00    -0.169 OA 
BRANCH  16  17
HETATM   17  C   UNL     1      -7.882  13.951  67.342  1.00  0.00    -0.161 C  
HETATM   18  O   UNL     1      -6.179  13.311  68.900  1.00  0.00    -0.077 OA 
HETATM   19  O   UNL     1      -8.492  12.084  68.928  1.00  0.00     0.004 OA 
HETATM   20  P   UNL     1      -7.133  12.449  68.071  1.00  0.00    -0.131 P  
HETATM   21  O   UNL     1      -6.425  11.028  68.759  1.00  0.00    -0.047 OA 
BRANCH  19  22
HETATM   22  C   UNL     1      -9.448  11.199  68.385  1.00  0.00    -0.189 C  
BRANCH  22  23
HETATM   23  O   UNL     1      -9.095   9.828  68.607  1.00  0.00    -0.126 OA 
BRANCH  23  24
HETATM   24  C   UNL     1      -9.752   9.249  69.643  1.00  0.00    -0.182 C  
HETATM   25  O   UNL     1     -10.436   9.834  70.471  1.00  0.00    -0.278 OA 
BRANCH  24  26
HETATM   26  O   UNL     1      -9.512   7.910  69.631  1.00  0.00    -0.160 OA 
BRANCH  26  27
HETATM   27  C   UNL     1     -10.618   7.082  70.050  1.00  0.00    -0.230 C  
HETATM   28  C   UNL     1     -10.864   6.010  68.994  1.00  0.00    -0.412 C  
HETATM   29  C   UNL     1     -10.286   6.437  71.392  1.00  0.00    -0.228 C  
ENDBRANCH  26  27
ENDBRANCH  24  26
ENDBRANCH  23  24
ENDBRANCH  22  23
ENDBRANCH  19  22
BRANCH  21  30
HETATM   30  C   UNL     1      -5.657  10.296  67.828  1.00  0.00    -0.041 C  
BRANCH  30  31
HETATM   31  O   UNL     1      -5.618   8.910  68.151  1.00  0.00    -0.038 OA 
BRANCH  31  32
HETATM   32  C   UNL     1      -5.922   8.092  67.117  1.00  0.00    -0.050 C  
HETATM   33  O   UNL     1      -5.873   6.869  67.135  1.00  0.00    -0.016 OA 
BRANCH  32  34
HETATM   34  O   UNL     1      -6.348   8.860  66.084  1.00  0.00    -0.062 OA 
BRANCH  34  35
HETATM   35  C   UNL     1      -7.347   8.278  65.223  1.00  0.00    -0.081 C  
HETATM   36  C   UNL     1      -8.395   7.621  66.117  1.00  0.00    -0.134 C  
HETATM   37  C   UNL     1      -6.718   7.235  64.305  1.00  0.00    -0.047 C  
ENDBRANCH  34  35
ENDBRANCH  32  34
ENDBRANCH  31  32
ENDBRANCH  30  31
ENDBRANCH  21  30
ENDBRANCH  16  17
ENDBRANCH   1  16
TORSDOF 14
ENDMDL
MODEL      331
REMARK 921   NORMALIZED FREE ENERGY PREDICTED BY IDOCK:   -3.10 KCAL/MOL
REMARK 922        TOTAL FREE ENERGY PREDICTED BY IDOCK:   -7.48 KCAL/MOL
REMARK 923 INTER-LIGAND FREE ENERGY PREDICTED BY IDOCK:   -9.56 KCAL/MOL
REMARK 924 INTRA-LIGAND FREE ENERGY PREDICTED BY IDOCK:    2.08 KCAL/MOL
REMARK 927      BINDING AFFINITY PREDICTED BY RF-SCORE:    0.00 PKD
ROOT
HETATM    1  C   UNL     1     -11.419  13.602  68.226  1.00  0.00    -0.313 C  
HETATM    2  C   UNL     1     -11.794  12.171  68.605  1.00  0.00    -0.358 C  
ENDROOT
BRANCH   1   3
HETATM    3  C   UNL     1     -11.970  14.043  66.876  1.00  0.00    -0.447 C  
BRANCH   3   4
HETATM    4  N   UNL     1     -11.750  13.142  65.777  1.00  0.00    -0.355 NA 
HETATM    5  C   UNL     1     -10.608  12.413  65.644  1.00  0.00    -0.265 A  
HETATM    6  N   UNL     1      -8.661  10.748  64.938  1.00  0.00    -0.162 NA 
HETATM    7  C   UNL     1     -12.627  12.727  64.815  1.00  0.00    -0.446 A  
HETATM    8  N   UNL     1      -9.890   9.843  63.139  1.00  0.00    -0.472 NA 
HETATM    9  N   UNL     1      -9.507  12.473  66.408  1.00  0.00    -0.240 NA 
HETATM   10  C   UNL     1      -9.803  10.718  64.215  1.00  0.00    -0.326 A  
HETATM   11  N   UNL     1     -12.101  11.808  64.039  1.00  0.00    -0.304 NA 
HETATM   12  C   UNL     1      -8.583  11.599  65.984  1.00  0.00     0.006 A  
HETATM   13  C   UNL     1     -10.844  11.587  64.563  1.00  0.00    -0.327 A  
HETATM   14  H1  UNL     1      -9.132   9.210  62.885  1.00  0.00     0.000 HD 
HETATM   15  H2  UNL     1     -10.121  10.394  62.312  1.00  0.00     0.000 HD 
ENDBRANCH   3   4
ENDBRANCH   1   3
BRANCH   1  16
HETATM   16  O   UNL     1      -9.988  13.748  68.349  1.00  0.00    -0.224 OA 
BRANCH  16  17
HETATM   17  C   UNL     1      -9.526  14.850  69.167  1.00  0.00    -0.158 C  
HETATM   18  O   UNL     1      -7.169  14.522  69.434  1.00  0.00    -0.145 OA 
HETATM   19  O   UNL     1      -8.153  14.993  67.053  1.00  0.00    -0.204 OA 
HETATM   20  P   UNL     1      -7.934  15.544  68.591  1.00  0.00    -0.175 P  
HETATM   21  O   UNL     1      -6.430  16.201  68.046  1.00  0.00    -0.117 OA 
BRANCH  19  22
HETATM   22  C   UNL     1      -8.735  15.836  66.082  1.00  0.00    -0.258 C  
BRANCH  22  23
HETATM   23  O   UNL     1     -10.068  16.222  66.439  1.00  0.00    -0.274 OA 
BRANCH  23  24
HETATM   24  C   UNL     1     -10.454  17.416  65.923  1.00  0.00    -0.252 C  
HETATM   25  O   UNL     1     -10.967  17.588  64.825  1.00  0.00    -0.950 OA 
BRANCH  24  26
HETATM   26  O   UNL     1     -10.163  18.402  66.814  1.00  0.00    -0.346 OA 
BRANCH  26  27
HETATM   27  C   UNL     1      -9.914  19.702  66.236  1.00  0.00    -0.466 C  
HETATM   28  C   UNL     1     -10.155  20.771  67.295  1.00  0.00    -0.229 C  
HETATM   29  C   UNL     1      -8.474  19.764  65.738  1.00  0.00    -0.034 C  
ENDBRANCH  26  27
ENDBRANCH  24  26
ENDBRANCH  23  24
ENDBRANCH  22  23
ENDBRANCH  19  22
BRANCH  21  30
HETATM   30  C   UNL     1      -6.172  17.485  68.575  1.00  0.00    -0.176 C  
BRANCH  30  31
HETATM   31  O   UNL     1      -7.374  18.153  68.944  1.00  0.00    -0.275 OA 
BRANCH  31  32
HETATM   32  C   UNL     1      -7.221  19.478  69.175  1.00  0.00    -0.347 C  
HETATM   33  O   UNL     1      -7.128  20.347  68.318  1.00  0.00    -0.263 OA 
BRANCH  32  34
HETATM   34  O   UNL     1      -7.251  19.677  70.516  1.00  0.00     0.295 OA 
BRANCH  34  35
HETATM   35  C   UNL     1      -6.019  20.109  71.127  1.00  0.00    -0.277 C  
HETATM   36  C   UNL     1      -5.185  20.788  70.044  1.00  0.00    -0.389 C  
HETATM   37  C   UNL     1      -5.260  18.916  71.697  1.00  0.00    -0.285 C  
ENDBRANCH  34  35
ENDBRANCH  32  34
ENDBRANCH  31  32
ENDBRANCH  30  31
ENDBRANCH  21  30
ENDBRANCH  16  17
ENDBRANCH   1  16
TORSDOF 14
ENDMDL
MODEL      332
REMARK 921   NORMALIZED FREE ENERGY PREDICTED BY IDOCK:   -3.07 KCAL/MOL
REMARK 922        TOTAL FREE ENERGY PREDICTED BY IDOCK:   -7.43 KCAL/MOL
REMARK 923 INTER-LIGAND FREE ENERGY PREDICTED BY IDOCK:   -6.71 KCAL/MOL
REMARK 924 INTRA-LIGAND FREE ENERGY PREDICTED BY IDOCK:   -0.72 KCAL/MOL
REMARK 927      BINDING AFFINITY PREDICTED BY RF-SCORE:    0.00 PKD
ROOT
HETATM    1  C   UNL     1     -10.502  10.732  65.023  1.00  0.00    -0.237 C  
HETATM    2  C   UNL     1      -9.627  11.184  63.856  1.00  0.00    -0.286 C  
ENDROOT
BRANCH   1   3
HETATM    3  C   UNL     1     -10.842  11.846  66.004  1.00  0.00    -0.299 C  
BRANCH   3   4
HETATM    4  N   UNL     1     -11.201  13.112  65.424  1.00  0.00    -0.289 NA 
HETATM    5  C   UNL     1     -10.762  14.299  65.925  1.00  0.00    -0.303 A  
HETATM    6  N   UNL     1     -10.164  16.838  66.433  1.00  0.00    -0.313 NA 
HETATM    7  C   UNL     1     -11.854  13.368  64.251  1.00  0.00    -0.423 A  
HETATM    8  N   UNL     1     -11.263  17.634  64.503  1.00  0.00    -0.413 NA 
HETATM    9  N   UNL     1     -10.043  14.499  67.040  1.00  0.00    -0.252 NA 
HETATM   10  C   UNL     1     -10.871  16.574  65.312  1.00  0.00    -0.221 A  
HETATM   11  N   UNL     1     -11.903  14.654  63.990  1.00  0.00    -0.290 NA 
HETATM   12  C   UNL     1      -9.785  15.803  67.214  1.00  0.00    -0.223 A  
HETATM   13  C   UNL     1     -11.203  15.246  65.021  1.00  0.00    -0.403 A  
HETATM   14  H1  UNL     1     -11.021  18.602  64.715  1.00  0.00     0.000 HD 
HETATM   15  H2  UNL     1     -12.276  17.586  64.400  1.00  0.00     0.000 HD 
ENDBRANCH   3   4
ENDBRANCH   1   3
BRANCH   1  16
HETATM   16  O   UNL     1      -9.884   9.581  65.639  1.00  0.00    -0.297 OA 
BRANCH  16  17
HETATM   17  C   UNL     1      -9.511   9.724  67.031  1.00  0.00    -0.157 C  
HETATM   18  O   UNL     1      -9.891   7.581  68.031  1.00  0.00    -0.143 OA 
HETATM   19  O   UNL     1      -8.072   7.839  66.166  1.00  0.00    -0.103 OA 
HETATM   20  P   UNL     1      -8.581   8.283  67.669  1.00  0.00    -0.130 P  
HETATM   21  O   UNL     1      -7.701   6.921  68.272  1.00  0.00    -0.108 OA 
BRANCH  19  22
HETATM   22  C   UNL     1      -6.821   8.285  65.688  1.00  0.00    -0.066 C  
BRANCH  22  23
HETATM   23  O   UNL     1      -6.286   7.408  64.690  1.00  0.00    -0.037 OA 
BRANCH  23  24
HETATM   24  C   UNL     1      -7.162   7.094  63.702  1.00  0.00    -0.075 C  
HETATM   25  O   UNL     1      -7.382   7.766  62.704  1.00  0.00    -0.088 OA 
BRANCH  24  26
HETATM   26  O   UNL     1      -7.775   5.919  64.006  1.00  0.00    -0.089 OA 
BRANCH  26  27
HETATM   27  C   UNL     1      -7.724   4.911  62.973  1.00  0.00    -0.066 C  
HETATM   28  C   UNL     1      -7.263   3.594  63.586  1.00  0.00    -0.050 C  
HETATM   29  C   UNL     1      -9.110   4.752  62.355  1.00  0.00    -0.108 C  
ENDBRANCH  26  27
ENDBRANCH  24  26
ENDBRANCH  23  24
ENDBRANCH  22  23
ENDBRANCH  19  22
BRANCH  21  30
HETATM   30  C   UNL     1      -7.010   7.205  69.470  1.00  0.00    -0.058 C  
BRANCH  30  31
HETATM   31  O   UNL     1      -7.400   6.329  70.523  1.00  0.00    -0.081 OA 
BRANCH  31  32
HETATM   32  C   UNL     1      -7.946   6.955  71.590  1.00  0.00    -0.101 C  
HETATM   33  O   UNL     1      -7.602   8.044  72.032  1.00  0.00    -0.077 OA 
BRANCH  32  34
HETATM   34  O   UNL     1      -8.975   6.197  72.043  1.00  0.00    -0.139 OA 
BRANCH  34  35
HETATM   35  C   UNL     1     -10.165   6.183  71.231  1.00  0.00    -0.207 C  
HETATM   36  C   UNL     1     -11.358   6.376  72.163  1.00  0.00    -0.332 C  
HETATM   37  C   UNL     1     -10.291   4.855  70.492  1.00  0.00    -0.242 C  
ENDBRANCH  34  35
ENDBRANCH  32  34
ENDBRANCH  31  32
ENDBRANCH  30  31
ENDBRANCH  21  30
ENDBRANCH  16  17
ENDBRANCH   1  16
TORSDOF 14
ENDMDL
MODEL      333
REMARK 921   NORMALIZED FREE ENERGY PREDICTED BY IDOCK:   -3.07 KCAL/MOL
REMARK 922        TOTAL FREE ENERGY PREDICTED BY IDOCK:   -7.43 KCAL/MOL
REMARK 923 INTER-LIGAND FREE ENERGY PREDICTED BY IDOCK:   -6.94 KCAL/MOL
REMARK 924 INTRA-LIGAND FREE ENERGY PREDICTED BY IDOCK:   -0.49 KCAL/MOL
REMARK 927      BINDING AFFINITY PREDICTED BY RF-SCORE:    0.00 PKD
ROOT
HETATM    1  C   UNL     1      -9.486   7.897  68.863  1.00  0.00    -0.150 C  
HETATM    2  C   UNL     1     -10.360   7.107  67.892  1.00  0.00    -0.248 C  
ENDROOT
BRANCH   1   3
HETATM    3  C   UNL     1     -10.213   8.334  70.128  1.00  0.00    -0.199 C  
BRANCH   3   4
HETATM    4  N   UNL     1     -10.693   7.279  70.979  1.00  0.00    -0.229 NA 
HETATM    5  C   UNL     1      -9.929   6.205  71.317  1.00  0.00    -0.182 A  
HETATM    6  N   UNL     1      -8.885   3.978  72.323  1.00  0.00    -0.105 NA 
HETATM    7  C   UNL     1     -11.849   7.218  71.706  1.00  0.00    -0.295 A  
HETATM    8  N   UNL     1     -10.767   3.535  73.675  1.00  0.00    -0.199 NA 
HETATM    9  N   UNL     1      -8.702   5.901  70.867  1.00  0.00    -0.130 NA 
HETATM   10  C   UNL     1     -10.113   4.344  72.755  1.00  0.00    -0.168 A  
HETATM   11  N   UNL     1     -11.895   6.142  72.457  1.00  0.00    -0.231 NA 
HETATM   12  C   UNL     1      -8.254   4.770  71.428  1.00  0.00    -0.103 A  
HETATM   13  C   UNL     1     -10.688   5.511  72.239  1.00  0.00    -0.231 A  
HETATM   14  H1  UNL     1     -10.348   2.685  74.051  1.00  0.00     0.000 HD 
HETATM   15  H2  UNL     1     -11.671   3.282  73.277  1.00  0.00     0.000 HD 
ENDBRANCH   3   4
ENDBRANCH   1   3
BRANCH   1  16
HETATM   16  O   UNL     1      -8.866   8.983  68.141  1.00  0.00    -0.133 OA 
BRANCH  16  17
HETATM   17  C   UNL     1      -8.136   9.947  68.938  1.00  0.00    -0.105 C  
HETATM   18  O   UNL     1      -6.245  10.589  67.617  1.00  0.00    -0.055 OA 
HETATM   19  O   UNL     1      -8.662  11.154  66.784  1.00  0.00    -0.147 OA 
HETATM   20  P   UNL     1      -7.521  11.362  67.955  1.00  0.00    -0.114 P  
HETATM   21  O   UNL     1      -6.940  12.701  67.026  1.00  0.00    -0.076 OA 
BRANCH  19  22
HETATM   22  C   UNL     1      -9.872  11.877  66.847  1.00  0.00    -0.202 C  
BRANCH  22  23
HETATM   23  O   UNL     1      -9.930  12.725  68.001  1.00  0.00    -0.212 OA 
BRANCH  23  24
HETATM   24  C   UNL     1     -11.177  13.168  68.300  1.00  0.00    -0.274 C  
HETATM   25  O   UNL     1     -12.176  13.004  67.613  1.00  0.00    -0.263 OA 
BRANCH  24  26
HETATM   26  O   UNL     1     -11.139  13.844  69.479  1.00  0.00    -0.218 OA 
BRANCH  26  27
HETATM   27  C   UNL     1     -12.122  14.893  69.620  1.00  0.00    -0.295 C  
HETATM   28  C   UNL     1     -12.296  15.215  71.100  1.00  0.00    -0.404 C  
HETATM   29  C   UNL     1     -11.653  16.129  68.860  1.00  0.00    -0.298 C  
ENDBRANCH  26  27
ENDBRANCH  24  26
ENDBRANCH  23  24
ENDBRANCH  22  23
ENDBRANCH  19  22
BRANCH  21  30
HETATM   30  C   UNL     1      -6.583  13.807  67.827  1.00  0.00    -0.172 C  
BRANCH  30  31
HETATM   31  O   UNL     1      -7.392  14.944  67.545  1.00  0.00    -0.175 OA 
BRANCH  31  32
HETATM   32  C   UNL     1      -7.306  15.927  68.472  1.00  0.00    -0.127 C  
HETATM   33  O   UNL     1      -7.912  15.960  69.535  1.00  0.00    -0.224 OA 
BRANCH  32  34
HETATM   34  O   UNL     1      -6.390  16.831  68.044  1.00  0.00    -0.135 OA 
BRANCH  34  35
HETATM   35  C   UNL     1      -6.909  18.014  67.406  1.00  0.00    -0.190 C  
HETATM   36  C   UNL     1      -7.341  18.978  68.508  1.00  0.00    -0.341 C  
HETATM   37  C   UNL     1      -8.102  17.665  66.523  1.00  0.00    -0.306 C  
ENDBRANCH  34  35
ENDBRANCH  32  34
ENDBRANCH  31  32
ENDBRANCH  30  31
ENDBRANCH  21  30
ENDBRANCH  16  17
ENDBRANCH   1  16
TORSDOF 14
ENDMDL
MODEL      334
REMARK 921   NORMALIZED FREE ENERGY PREDICTED BY IDOCK:   -3.07 KCAL/MOL
REMARK 922        TOTAL FREE ENERGY PREDICTED BY IDOCK:   -7.41 KCAL/MOL
REMARK 923 INTER-LIGAND FREE ENERGY PREDICTED BY IDOCK:   -7.71 KCAL/MOL
REMARK 924 INTRA-LIGAND FREE ENERGY PREDICTED BY IDOCK:    0.29 KCAL/MOL
REMARK 927      BINDING AFFINITY PREDICTED BY RF-SCORE:    0.00 PKD
ROOT
HETATM    1  C   UNL     1      -9.169  16.375  68.797  1.00  0.00    -0.239 C  
HETATM    2  C   UNL     1     -10.319  16.884  69.664  1.00  0.00    -0.111 C  
ENDROOT
BRANCH   1   3
HETATM    3  C   UNL     1      -7.921  17.246  68.859  1.00  0.00    -0.196 C  
BRANCH   3   4
HETATM    4  N   UNL     1      -7.894  18.377  67.971  1.00  0.00    -0.266 NA 
HETATM    5  C   UNL     1      -7.032  18.464  66.922  1.00  0.00    -0.194 A  
HETATM    6  N   UNL     1      -5.650  19.115  64.748  1.00  0.00    -0.213 NA 
HETATM    7  C   UNL     1      -8.764  19.428  67.889  1.00  0.00    -0.317 A  
HETATM    8  N   UNL     1      -6.927  21.057  64.341  1.00  0.00    -0.441 NA 
HETATM    9  N   UNL     1      -6.044  17.614  66.603  1.00  0.00    -0.167 NA 
HETATM   10  C   UNL     1      -6.671  19.926  65.106  1.00  0.00    -0.272 A  
HETATM   11  N   UNL     1      -8.482  20.215  66.876  1.00  0.00    -0.318 NA 
HETATM   12  C   UNL     1      -5.406  18.016  65.495  1.00  0.00    -0.160 A  
HETATM   13  C   UNL     1      -7.414  19.609  66.249  1.00  0.00    -0.290 A  
HETATM   14  H1  UNL     1      -6.386  21.288  63.508  1.00  0.00     0.000 HD 
HETATM   15  H2  UNL     1      -6.895  21.864  64.963  1.00  0.00     0.000 HD 
ENDBRANCH   3   4
ENDBRANCH   1   3
BRANCH   1  16
HETATM   16  O   UNL     1      -9.665  16.159  67.459  1.00  0.00    -0.229 OA 
BRANCH  16  17
HETATM   17  C   UNL     1      -8.838  15.343  66.594  1.00  0.00    -0.295 C  
HETATM   18  O   UNL     1      -7.363  14.140  68.047  1.00  0.00    -0.109 OA 
HETATM   19  O   UNL     1      -9.943  13.706  68.167  1.00  0.00    -0.232 OA 
HETATM   20  P   UNL     1      -8.575  13.655  67.249  1.00  0.00    -0.173 P  
HETATM   21  O   UNL     1      -8.327  12.059  67.868  1.00  0.00    -0.137 OA 
BRANCH  19  22
HETATM   22  C   UNL     1     -11.152  13.190  67.655  1.00  0.00    -0.270 C  
BRANCH  22  23
HETATM   23  O   UNL     1     -10.976  11.894  67.070  1.00  0.00    -0.248 OA 
BRANCH  23  24
HETATM   24  C   UNL     1     -11.217  10.866  67.922  1.00  0.00    -0.321 C  
HETATM   25  O   UNL     1     -11.090   9.677  67.659  1.00  0.00    -0.214 OA 
BRANCH  24  26
HETATM   26  O   UNL     1     -11.644  11.363  69.113  1.00  0.00    -0.255 OA 
BRANCH  26  27
HETATM   27  C   UNL     1     -11.998  10.373  70.103  1.00  0.00    -0.276 C  
HETATM   28  C   UNL     1     -10.722   9.771  70.682  1.00  0.00    -0.394 C  
HETATM   29  C   UNL     1     -12.820  11.034  71.205  1.00  0.00    -0.528 C  
ENDBRANCH  26  27
ENDBRANCH  24  26
ENDBRANCH  23  24
ENDBRANCH  22  23
ENDBRANCH  19  22
BRANCH  21  30
HETATM   30  C   UNL     1      -7.870  11.157  66.883  1.00  0.00    -0.152 C  
BRANCH  30  31
HETATM   31  O   UNL     1      -6.459  11.242  66.705  1.00  0.00    -0.119 OA 
BRANCH  31  32
HETATM   32  C   UNL     1      -5.972  10.418  65.749  1.00  0.00    -0.117 C  
HETATM   33  O   UNL     1      -5.167  10.728  64.880  1.00  0.00    -0.147 OA 
BRANCH  32  34
HETATM   34  O   UNL     1      -6.485   9.180  65.959  1.00  0.00    -0.066 OA 
BRANCH  34  35
HETATM   35  C   UNL     1      -6.678   8.361  64.789  1.00  0.00    -0.068 C  
HETATM   36  C   UNL     1      -8.150   7.958  64.750  1.00  0.00    -0.141 C  
HETATM   37  C   UNL     1      -5.800   7.116  64.858  1.00  0.00    -0.037 C  
ENDBRANCH  34  35
ENDBRANCH  32  34
ENDBRANCH  31  32
ENDBRANCH  30  31
ENDBRANCH  21  30
ENDBRANCH  16  17
ENDBRANCH   1  16
TORSDOF 14
ENDMDL
MODEL      335
REMARK 921   NORMALIZED FREE ENERGY PREDICTED BY IDOCK:   -2.85 KCAL/MOL
REMARK 922        TOTAL FREE ENERGY PREDICTED BY IDOCK:   -7.01 KCAL/MOL
REMARK 923 INTER-LIGAND FREE ENERGY PREDICTED BY IDOCK:   -6.96 KCAL/MOL
REMARK 924 INTRA-LIGAND FREE ENERGY PREDICTED BY IDOCK:   -0.06 KCAL/MOL
REMARK 927      BINDING AFFINITY PREDICTED BY RF-SCORE:    0.00 PKD
ROOT
HETATM    1  C   UNL     1      -6.337  14.485  69.089  1.00  0.00    -0.100 C  
HETATM    2  C   UNL     1      -5.203  13.707  68.426  1.00  0.00    -0.098 C  
ENDROOT
BRANCH   1   3
HETATM    3  C   UNL     1      -7.339  13.604  69.824  1.00  0.00     0.561 C  
BRANCH   3   4
HETATM    4  N   UNL     1      -8.613  13.424  69.182  1.00  0.00     0.431 NA 
HETATM    5  C   UNL     1      -8.893  12.348  68.397  1.00  0.00    -0.129 A  
HETATM    6  N   UNL     1      -9.973  10.471  66.858  1.00  0.00    -0.193 NA 
HETATM    7  C   UNL     1      -9.769  14.134  69.347  1.00  0.00     0.363 A  
HETATM    8  N   UNL     1     -12.108  11.475  66.883  1.00  0.00    -0.135 NA 
HETATM    9  N   UNL     1      -8.052  11.372  68.019  1.00  0.00    -0.127 NA 
HETATM   10  C   UNL     1     -10.778  11.470  67.285  1.00  0.00    -0.244 A  
HETATM   11  N   UNL     1     -10.766  13.606  68.675  1.00  0.00    -0.253 NA 
HETATM   12  C   UNL     1      -8.681  10.470  67.252  1.00  0.00    -0.126 A  
HETATM   13  C   UNL     1     -10.234  12.474  68.094  1.00  0.00    -0.231 A  
HETATM   14  H1  UNL     1     -12.505  10.744  66.294  1.00  0.00     0.000 HD 
HETATM   15  H2  UNL     1     -12.290  12.369  66.428  1.00  0.00     0.000 HD 
ENDBRANCH   3   4
ENDBRANCH   1   3
BRANCH   1  16
HETATM   16  O   UNL     1      -6.936  15.352  68.102  1.00  0.00    -0.109 OA 
BRANCH  16  17
HETATM   17  C   UNL     1      -6.673  16.769  68.251  1.00  0.00    -0.154 C  
HETATM   18  O   UNL     1      -5.356  17.392  66.351  1.00  0.00    -0.172 OA 
HETATM   19  O   UNL     1      -7.813  16.554  66.009  1.00  0.00    -0.216 OA 
HETATM   20  P   UNL     1      -6.821  17.688  66.677  1.00  0.00    -0.271 P  
HETATM   21  O   UNL     1      -6.962  18.559  65.188  1.00  0.00    -0.516 OA 
BRANCH  19  22
HETATM   22  C   UNL     1      -9.214  16.710  66.094  1.00  0.00    -0.277 C  
BRANCH  22  23
HETATM   23  O   UNL     1      -9.904  15.478  65.851  1.00  0.00    -0.301 OA 
BRANCH  23  24
HETATM   24  C   UNL     1     -10.985  15.601  65.040  1.00  0.00    -0.431 C  
HETATM   25  O   UNL     1     -11.180  16.510  64.244  1.00  0.00    -0.992 OA 
BRANCH  24  26
HETATM   26  O   UNL     1     -11.832  14.561  65.265  1.00  0.00    -0.356 OA 
BRANCH  26  27
HETATM   27  C   UNL     1     -11.905  13.585  64.202  1.00  0.00    -0.437 C  
HETATM   28  C   UNL     1     -10.519  12.991  63.978  1.00  0.00    -0.337 C  
HETATM   29  C   UNL     1     -12.894  12.491  64.591  1.00  0.00    -0.325 C  
ENDBRANCH  26  27
ENDBRANCH  24  26
ENDBRANCH  23  24
ENDBRANCH  22  23
ENDBRANCH  19  22
BRANCH  21  30
HETATM   30  C   UNL     1      -7.095  19.951  65.381  1.00  0.00    -0.261 C  
BRANCH  30  31
HETATM   31  O   UNL     1      -7.815  20.251  66.572  1.00  0.00    -0.287 OA 
BRANCH  31  32
HETATM   32  C   UNL     1      -9.134  20.482  66.378  1.00  0.00    -0.008 C  
HETATM   33  O   UNL     1      -9.759  20.232  65.355  1.00  0.00    -0.101 OA 
BRANCH  32  34
HETATM   34  O   UNL     1      -9.649  20.979  67.529  1.00  0.00    -0.366 OA 
BRANCH  34  35
HETATM   35  C   UNL     1     -10.030  20.014  68.529  1.00  0.00    -0.336 C  
HETATM   36  C   UNL     1      -8.747  19.421  69.105  1.00  0.00    -0.149 C  
HETATM   37  C   UNL     1     -10.881  18.910  67.908  1.00  0.00    -0.272 C  
ENDBRANCH  34  35
ENDBRANCH  32  34
ENDBRANCH  31  32
ENDBRANCH  30  31
ENDBRANCH  21  30
ENDBRANCH  16  17
ENDBRANCH   1  16
TORSDOF 14
ENDMDL
MODEL      336
REMARK 921   NORMALIZED FREE ENERGY PREDICTED BY IDOCK:   -2.79 KCAL/MOL
REMARK 922        TOTAL FREE ENERGY PREDICTED BY IDOCK:   -6.91 KCAL/MOL
REMARK 923 INTER-LIGAND FREE ENERGY PREDICTED BY IDOCK:   -7.24 KCAL/MOL
REMARK 924 INTRA-LIGAND FREE ENERGY PREDICTED BY IDOCK:    0.33 KCAL/MOL
REMARK 927      BINDING AFFINITY PREDICTED BY RF-SCORE:    0.00 PKD
ROOT
HETATM    1  C   UNL     1      -8.503  13.088  68.229  1.00  0.00    -0.159 C  
HETATM    2  C   UNL     1      -8.176  11.598  68.158  1.00  0.00    -0.151 C  
ENDROOT
BRANCH   1   3
HETATM    3  C   UNL     1      -9.953  13.416  67.896  1.00  0.00    -0.236 C  
BRANCH   3   4
HETATM    4  N   UNL     1     -10.879  13.379  68.996  1.00  0.00    -0.222 NA 
HETATM    5  C   UNL     1     -11.428  12.221  69.453  1.00  0.00    -0.277 A  
HETATM    6  N   UNL     1     -12.719  10.301  70.761  1.00  0.00    -0.348 NA 
HETATM    7  C   UNL     1     -11.238  14.381  69.853  1.00  0.00    -0.177 A  
HETATM    8  N   UNL     1     -13.566  11.782  72.391  1.00  0.00    -0.449 NA 
HETATM    9  N   UNL     1     -11.295  10.992  68.931  1.00  0.00    -0.254 NA 
HETATM   10  C   UNL     1     -12.802  11.558  71.252  1.00  0.00    -0.360 A  
HETATM   11  N   UNL     1     -12.026  13.945  70.809  1.00  0.00    -0.310 NA 
HETATM   12  C   UNL     1     -11.973  10.090  69.655  1.00  0.00     0.104 A  
HETATM   13  C   UNL     1     -12.134  12.589  70.582  1.00  0.00    -0.221 A  
HETATM   14  H1  UNL     1     -14.052  11.031  72.880  1.00  0.00     0.000 HD 
HETATM   15  H2  UNL     1     -14.256  12.498  72.163  1.00  0.00     0.000 HD 
ENDBRANCH   3   4
ENDBRANCH   1   3
BRANCH   1  16
HETATM   16  O   UNL     1      -7.543  13.806  67.424  1.00  0.00    -0.173 OA 
BRANCH  16  17
HETATM   17  C   UNL     1      -7.110  15.089  67.937  1.00  0.00    -0.151 C  
HETATM   18  O   UNL     1      -5.662  16.006  66.265  1.00  0.00     0.591 OA 
HETATM   19  O   UNL     1      -8.192  15.612  65.717  1.00  0.00     0.538 OA 
HETATM   20  P   UNL     1      -7.089  16.396  66.657  1.00  0.00     0.135 P  
HETATM   21  O   UNL     1      -7.069  17.632  65.447  1.00  0.00    -0.290 OA 
BRANCH  19  22
HETATM   22  C   UNL     1      -9.563  15.920  65.839  1.00  0.00    -0.343 C  
BRANCH  22  23
HETATM   23  O   UNL     1     -10.307  15.519  64.682  1.00  0.00    -0.318 OA 
BRANCH  23  24
HETATM   24  C   UNL     1     -11.385  14.743  64.958  1.00  0.00    -0.391 C  
HETATM   25  O   UNL     1     -11.961  14.680  66.036  1.00  0.00    -0.337 OA 
BRANCH  24  26
HETATM   26  O   UNL     1     -11.714  14.026  63.851  1.00  0.00    -0.301 OA 
BRANCH  26  27
HETATM   27  C   UNL     1     -11.579  12.593  63.981  1.00  0.00    -0.418 C  
HETATM   28  C   UNL     1     -10.341  12.140  63.215  1.00  0.00    -0.352 C  
HETATM   29  C   UNL     1     -11.450  12.231  65.458  1.00  0.00    -0.408 C  
ENDBRANCH  26  27
ENDBRANCH  24  26
ENDBRANCH  23  24
ENDBRANCH  22  23
ENDBRANCH  19  22
BRANCH  21  30
HETATM   30  C   UNL     1      -7.032  18.932  65.996  1.00  0.00    -0.262 C  
BRANCH  30  31
HETATM   31  O   UNL     1      -7.176  18.909  67.413  1.00  0.00    -0.212 OA 
BRANCH  31  32
HETATM   32  C   UNL     1      -7.468  20.113  67.958  1.00  0.00    -0.261 C  
HETATM   33  O   UNL     1      -6.652  20.931  68.362  1.00  0.00    -0.248 OA 
BRANCH  32  34
HETATM   34  O   UNL     1      -8.814  20.278  67.921  1.00  0.00    -0.267 OA 
BRANCH  34  35
HETATM   35  C   UNL     1      -9.605  19.073  67.899  1.00  0.00    -0.318 C  
HETATM   36  C   UNL     1     -11.019  19.462  67.476  1.00  0.00    -0.416 C  
HETATM   37  C   UNL     1      -9.633  18.428  69.280  1.00  0.00     0.027 C  
ENDBRANCH  34  35
ENDBRANCH  32  34
ENDBRANCH  31  32
ENDBRANCH  30  31
ENDBRANCH  21  30
ENDBRANCH  16  17
ENDBRANCH   1  16
TORSDOF 14
ENDMDL
MODEL      337
REMARK 921   NORMALIZED FREE ENERGY PREDICTED BY IDOCK:   -2.75 KCAL/MOL
REMARK 922        TOTAL FREE ENERGY PREDICTED BY IDOCK:   -6.84 KCAL/MOL
REMARK 923 INTER-LIGAND FREE ENERGY PREDICTED BY IDOCK:   -6.41 KCAL/MOL
REMARK 924 INTRA-LIGAND FREE ENERGY PREDICTED BY IDOCK:   -0.43 KCAL/MOL
REMARK 927      BINDING AFFINITY PREDICTED BY RF-SCORE:    0.00 PKD
ROOT
HETATM    1  C   UNL     1     -10.095   4.890  72.155  1.00  0.00    -0.192 C  
HETATM    2  C   UNL     1      -9.490   5.278  73.503  1.00  0.00    -0.135 C  
ENDROOT
BRANCH   1   3
HETATM    3  C   UNL     1      -9.609   3.547  71.626  1.00  0.00    -0.158 C  
BRANCH   3   4
HETATM    4  N   UNL     1      -8.988   3.565  70.329  1.00  0.00    -0.094 NA 
HETATM    5  C   UNL     1      -7.647   3.726  70.160  1.00  0.00    -0.048 A  
HETATM    6  N   UNL     1      -5.151   3.936  69.273  1.00  0.00    -0.007 NA 
HETATM    7  C   UNL     1      -9.533   3.275  69.110  1.00  0.00    -0.119 A  
HETATM    8  N   UNL     1      -5.760   3.522  67.031  1.00  0.00    -0.022 NA 
HETATM    9  N   UNL     1      -6.730   3.982  71.106  1.00  0.00    -0.030 NA 
HETATM   10  C   UNL     1      -6.116   3.659  68.367  1.00  0.00    -0.031 A  
HETATM   11  N   UNL     1      -8.629   3.287  68.157  1.00  0.00    -0.089 NA 
HETATM   12  C   UNL     1      -5.504   4.067  70.571  1.00  0.00    -0.012 A  
HETATM   13  C   UNL     1      -7.440   3.546  68.807  1.00  0.00    -0.053 A  
HETATM   14  H1  UNL     1      -4.795   3.604  66.711  1.00  0.00     0.000 HD 
HETATM   15  H2  UNL     1      -6.320   4.183  66.493  1.00  0.00     0.000 HD 
ENDBRANCH   3   4
ENDBRANCH   1   3
BRANCH   1  16
HETATM   16  O   UNL     1      -9.901   5.985  71.234  1.00  0.00    -0.174 OA 
BRANCH  16  17
HETATM   17  C   UNL     1     -11.016   6.896  71.080  1.00  0.00    -0.251 C  
HETATM   18  O   UNL     1     -10.242   9.016  71.881  1.00  0.00    -0.343 OA 
HETATM   19  O   UNL     1      -9.135   7.946  69.763  1.00  0.00    -0.146 OA 
HETATM   20  P   UNL     1     -10.510   8.539  70.452  1.00  0.00    -0.219 P  
HETATM   21  O   UNL     1     -10.032  10.091  69.858  1.00  0.00    -0.237 OA 
BRANCH  19  22
HETATM   22  C   UNL     1      -9.140   7.561  68.405  1.00  0.00    -0.133 C  
BRANCH  22  23
HETATM   23  O   UNL     1     -10.352   6.887  68.045  1.00  0.00    -0.169 OA 
BRANCH  23  24
HETATM   24  C   UNL     1     -10.294   6.247  66.850  1.00  0.00    -0.244 C  
HETATM   25  O   UNL     1     -11.221   5.655  66.312  1.00  0.00    -0.024 OA 
BRANCH  24  26
HETATM   26  O   UNL     1      -9.034   6.348  66.350  1.00  0.00    -0.144 OA 
BRANCH  26  27
HETATM   27  C   UNL     1      -8.777   5.564  65.164  1.00  0.00    -0.117 C  
HETATM   28  C   UNL     1      -7.273   5.519  64.915  1.00  0.00    -0.062 C  
HETATM   29  C   UNL     1      -9.323   4.154  65.364  1.00  0.00    -0.163 C  
ENDBRANCH  26  27
ENDBRANCH  24  26
ENDBRANCH  23  24
ENDBRANCH  22  23
ENDBRANCH  19  22
BRANCH  21  30
HETATM   30  C   UNL     1     -11.115  10.836  69.343  1.00  0.00    -0.268 C  
BRANCH  30  31
HETATM   31  O   UNL     1     -11.796  11.552  70.369  1.00  0.00    -0.346 OA 
BRANCH  31  32
HETATM   32  C   UNL     1     -12.094  12.831  70.045  1.00  0.00    -0.285 C  
HETATM   33  O   UNL     1     -12.265  13.260  68.911  1.00  0.00    -0.275 OA 
BRANCH  32  34
HETATM   34  O   UNL     1     -12.230  13.537  71.195  1.00  0.00    -0.330 OA 
BRANCH  34  35
HETATM   35  C   UNL     1     -13.246  14.559  71.203  1.00  0.00    -0.361 C  
HETATM   36  C   UNL     1     -12.603  15.839  71.729  1.00  0.00    -0.524 C  
HETATM   37  C   UNL     1     -14.406  14.151  72.104  1.00  0.00    -0.606 C  
ENDBRANCH  34  35
ENDBRANCH  32  34
ENDBRANCH  31  32
ENDBRANCH  30  31
ENDBRANCH  21  30
ENDBRANCH  16  17
ENDBRANCH   1  16
TORSDOF 14
ENDMDL
MODEL      338
REMARK 921   NORMALIZED FREE ENERGY PREDICTED BY IDOCK:   -2.70 KCAL/MOL
REMARK 922        TOTAL FREE ENERGY PREDICTED BY IDOCK:   -6.75 KCAL/MOL
REMARK 923 INTER-LIGAND FREE ENERGY PREDICTED BY IDOCK:   -5.54 KCAL/MOL
REMARK 924 INTRA-LIGAND FREE ENERGY PREDICTED BY IDOCK:   -1.21 KCAL/MOL
REMARK 927      BINDING AFFINITY PREDICTED BY RF-SCORE:    0.00 PKD
ROOT
HETATM    1  C   UNL     1      -9.248  12.260  67.983  1.00  0.00    -0.195 C  
HETATM    2  C   UNL     1     -10.637  11.684  68.253  1.00  0.00    -0.232 C  
ENDROOT
BRANCH   1   3
HETATM    3  C   UNL     1      -9.240  13.392  66.964  1.00  0.00    -0.242 C  
BRANCH   3   4
HETATM    4  N   UNL     1      -9.749  14.658  67.420  1.00  0.00    -0.217 NA 
HETATM    5  C   UNL     1      -8.954  15.748  67.592  1.00  0.00    -0.187 A  
HETATM    6  N   UNL     1      -7.903  18.149  68.030  1.00  0.00    -0.254 NA 
HETATM    7  C   UNL     1     -11.046  15.052  67.594  1.00  0.00    -0.316 A  
HETATM    8  N   UNL     1      -9.999  19.149  68.450  1.00  0.00    -0.394 NA 
HETATM    9  N   UNL     1      -7.619  15.813  67.472  1.00  0.00    -0.152 NA 
HETATM   10  C   UNL     1      -9.247  18.029  68.117  1.00  0.00    -0.279 A  
HETATM   11  N   UNL     1     -11.130  16.323  67.916  1.00  0.00    -0.310 NA 
HETATM   12  C   UNL     1      -7.178  17.057  67.705  1.00  0.00    -0.153 A  
HETATM   13  C   UNL     1      -9.827  16.775  67.894  1.00  0.00    -0.257 A  
HETATM   14  H1  UNL     1      -9.576  20.063  68.612  1.00  0.00     0.000 HD 
HETATM   15  H2  UNL     1     -10.553  18.915  69.274  1.00  0.00     0.000 HD 
ENDBRANCH   3   4
ENDBRANCH   1   3
BRANCH   1  16
HETATM   16  O   UNL     1      -8.358  11.172  67.653  1.00  0.00    -0.119 OA 
BRANCH  16  17
HETATM   17  C   UNL     1      -8.679  10.425  66.454  1.00  0.00    -0.141 C  
HETATM   18  O   UNL     1      -6.671   9.267  65.851  1.00  0.00    -0.077 OA 
HETATM   19  O   UNL     1      -7.877   8.689  68.103  1.00  0.00    -0.100 OA 
HETATM   20  P   UNL     1      -7.972   8.737  66.458  1.00  0.00    -0.105 P  
HETATM   21  O   UNL     1      -7.305   7.141  66.462  1.00  0.00    -0.080 OA 
BRANCH  19  22
HETATM   22  C   UNL     1      -8.930   8.121  68.850  1.00  0.00    -0.141 C  
BRANCH  22  23
HETATM   23  O   UNL     1      -8.452   7.439  70.016  1.00  0.00    -0.135 OA 
BRANCH  23  24
HETATM   24  C   UNL     1      -8.167   8.259  71.059  1.00  0.00    -0.112 C  
HETATM   25  O   UNL     1      -8.433   9.452  71.122  1.00  0.00    -0.303 OA 
BRANCH  24  26
HETATM   26  O   UNL     1      -7.517   7.550  72.019  1.00  0.00    -0.076 OA 
BRANCH  26  27
HETATM   27  C   UNL     1      -6.331   6.854  71.576  1.00  0.00    -0.041 C  
HETATM   28  C   UNL     1      -5.358   7.863  70.976  1.00  0.00    -0.030 C  
HETATM   29  C   UNL     1      -5.691   6.141  72.763  1.00  0.00    -0.037 C  
ENDBRANCH  26  27
ENDBRANCH  24  26
ENDBRANCH  23  24
ENDBRANCH  22  23
ENDBRANCH  19  22
BRANCH  21  30
HETATM   30  C   UNL     1      -7.916   6.292  65.515  1.00  0.00    -0.115 C  
BRANCH  30  31
HETATM   31  O   UNL     1      -9.095   5.685  66.035  1.00  0.00    -0.154 OA 
BRANCH  31  32
HETATM   32  C   UNL     1      -9.025   4.337  66.133  1.00  0.00    -0.123 C  
HETATM   33  O   UNL     1      -9.660   3.644  66.917  1.00  0.00    -0.205 OA 
BRANCH  32  34
HETATM   34  O   UNL     1      -8.180   3.888  65.172  1.00  0.00    -0.100 OA 
BRANCH  34  35
HETATM   35  C   UNL     1      -7.710   2.534  65.316  1.00  0.00    -0.077 C  
HETATM   36  C   UNL     1      -6.363   2.590  66.031  1.00  0.00    -0.024 C  
HETATM   37  C   UNL     1      -7.546   1.878  63.948  1.00  0.00    -0.059 C  
ENDBRANCH  34  35
ENDBRANCH  32  34
ENDBRANCH  31  32
ENDBRANCH  30  31
ENDBRANCH  21  30
ENDBRANCH  16  17
ENDBRANCH   1  16
TORSDOF 14
ENDMDL
MODEL      339
REMARK 921   NORMALIZED FREE ENERGY PREDICTED BY IDOCK:   -2.61 KCAL/MOL
REMARK 922        TOTAL FREE ENERGY PREDICTED BY IDOCK:   -6.58 KCAL/MOL
REMARK 923 INTER-LIGAND FREE ENERGY PREDICTED BY IDOCK:   -5.75 KCAL/MOL
REMARK 924 INTRA-LIGAND FREE ENERGY PREDICTED BY IDOCK:   -0.83 KCAL/MOL
REMARK 927      BINDING AFFINITY PREDICTED BY RF-SCORE:    0.00 PKD
ROOT
HETATM    1  C   UNL     1     -11.690   8.549  69.975  1.00  0.00     0.308 C  
HETATM    2  C   UNL     1     -12.582   9.214  71.020  1.00  0.00    -0.211 C  
ENDROOT
BRANCH   1   3
HETATM    3  C   UNL     1     -11.140   7.197  70.407  1.00  0.00    -0.280 C  
BRANCH   3   4
HETATM    4  N   UNL     1     -10.348   7.190  71.607  1.00  0.00    -0.198 NA 
HETATM    5  C   UNL     1      -9.211   6.452  71.732  1.00  0.00    -0.143 A  
HETATM    6  N   UNL     1      -6.943   5.288  72.480  1.00  0.00    -0.078 NA 
HETATM    7  C   UNL     1     -10.457   7.982  72.715  1.00  0.00    -0.345 A  
HETATM    8  N   UNL     1      -6.851   6.457  74.528  1.00  0.00    -0.089 NA 
HETATM    9  N   UNL     1      -8.707   5.574  70.850  1.00  0.00    -0.133 NA 
HETATM   10  C   UNL     1      -7.487   6.197  73.320  1.00  0.00    -0.092 A  
HETATM   11  N   UNL     1      -9.482   7.763  73.569  1.00  0.00    -0.287 NA 
HETATM   12  C   UNL     1      -7.565   5.041  71.307  1.00  0.00    -0.090 A  
HETATM   13  C   UNL     1      -8.683   6.823  72.952  1.00  0.00    -0.120 A  
HETATM   14  H1  UNL     1      -5.979   6.001  74.796  1.00  0.00     0.000 HD 
HETATM   15  H2  UNL     1      -7.526   6.292  75.274  1.00  0.00     0.000 HD 
ENDBRANCH   3   4
ENDBRANCH   1   3
BRANCH   1  16
HETATM   16  O   UNL     1     -10.672   9.493  69.575  1.00  0.00    -0.218 OA 
BRANCH  16  17
HETATM   17  C   UNL     1      -9.548   8.948  68.842  1.00  0.00    -0.160 C  
HETATM   18  O   UNL     1     -10.487   7.837  66.939  1.00  0.00    -0.319 OA 
HETATM   19  O   UNL     1     -10.745  10.431  67.186  1.00  0.00    -0.259 OA 
HETATM   20  P   UNL     1      -9.715   9.155  67.031  1.00  0.00    -0.227 P  
HETATM   21  O   UNL     1      -9.871   9.350  65.319  1.00  0.00    -0.231 OA 
BRANCH  19  22
HETATM   22  C   UNL     1     -10.239  11.748  67.169  1.00  0.00    -0.212 C  
BRANCH  22  23
HETATM   23  O   UNL     1     -10.617  12.482  68.340  1.00  0.00    -0.229 OA 
BRANCH  23  24
HETATM   24  C   UNL     1     -10.677  13.825  68.156  1.00  0.00    -0.248 C  
HETATM   25  O   UNL     1     -11.340  14.399  67.302  1.00  0.00    -0.313 OA 
BRANCH  24  26
HETATM   26  O   UNL     1      -9.864  14.436  69.059  1.00  0.00    -0.193 OA 
BRANCH  26  27
HETATM   27  C   UNL     1      -9.602  15.834  68.806  1.00  0.00    -0.216 C  
HETATM   28  C   UNL     1     -10.455  16.678  69.746  1.00  0.00    -0.182 C  
HETATM   29  C   UNL     1      -8.121  16.118  69.034  1.00  0.00    -0.237 C  
ENDBRANCH  26  27
ENDBRANCH  24  26
ENDBRANCH  23  24
ENDBRANCH  22  23
ENDBRANCH  19  22
BRANCH  21  30
HETATM   30  C   UNL     1      -8.646   9.187  64.638  1.00  0.00    -0.182 C  
BRANCH  30  31
HETATM   31  O   UNL     1      -8.618   7.978  63.886  1.00  0.00     0.072 OA 
BRANCH  31  32
HETATM   32  C   UNL     1      -7.608   7.142  64.221  1.00  0.00    -0.112 C  
HETATM   33  O   UNL     1      -6.445   7.469  64.417  1.00  0.00    -0.047 OA 
BRANCH  32  34
HETATM   34  O   UNL     1      -8.123   5.895  64.361  1.00  0.00    -0.128 OA 
BRANCH  34  35
HETATM   35  C   UNL     1      -8.277   5.415  65.711  1.00  0.00    -0.121 C  
HETATM   36  C   UNL     1      -6.925   4.870  66.161  1.00  0.00    -0.070 C  
HETATM   37  C   UNL     1      -9.328   4.312  65.768  1.00  0.00    -0.164 C  
ENDBRANCH  34  35
ENDBRANCH  32  34
ENDBRANCH  31  32
ENDBRANCH  30  31
ENDBRANCH  21  30
ENDBRANCH  16  17
ENDBRANCH   1  16
TORSDOF 14
ENDMDL
MODEL      340
REMARK 921   NORMALIZED FREE ENERGY PREDICTED BY IDOCK:   -2.54 KCAL/MOL
REMARK 922        TOTAL FREE ENERGY PREDICTED BY IDOCK:   -6.46 KCAL/MOL
REMARK 923 INTER-LIGAND FREE ENERGY PREDICTED BY IDOCK:   -6.12 KCAL/MOL
REMARK 924 INTRA-LIGAND FREE ENERGY PREDICTED BY IDOCK:   -0.34 KCAL/MOL
REMARK 927      BINDING AFFINITY PREDICTED BY RF-SCORE:    0.00 PKD
ROOT
HETATM    1  C   UNL     1      -9.056   8.410  71.643  1.00  0.00    -0.205 C  
HETATM    2  C   UNL     1      -8.997   8.243  73.160  1.00  0.00    -0.301 C  
ENDROOT
BRANCH   1   3
HETATM    3  C   UNL     1     -10.467   8.357  71.074  1.00  0.00    -0.206 C  
BRANCH   3   4
HETATM    4  N   UNL     1     -11.075   9.625  70.769  1.00  0.00    -0.306 NA 
HETATM    5  C   UNL     1     -10.673  10.399  69.725  1.00  0.00    -0.278 A  
HETATM    6  N   UNL     1     -10.342  12.237  67.835  1.00  0.00    -0.203 NA 
HETATM    7  C   UNL     1     -12.197  10.192  71.304  1.00  0.00    -0.398 A  
HETATM    8  N   UNL     1     -12.205  13.503  68.537  1.00  0.00    -0.308 NA 
HETATM    9  N   UNL     1      -9.635  10.184  68.901  1.00  0.00    -0.175 NA 
HETATM   10  C   UNL     1     -11.383  12.392  68.683  1.00  0.00    -0.288 A  
HETATM   11  N   UNL     1     -12.514  11.313  70.696  1.00  0.00    -0.352 NA 
HETATM   12  C   UNL     1      -9.548  11.154  67.980  1.00  0.00    -0.176 A  
HETATM   13  C   UNL     1     -11.579  11.440  69.690  1.00  0.00    -0.330 A  
HETATM   14  H1  UNL     1     -12.062  14.196  67.803  1.00  0.00     0.000 HD 
HETATM   15  H2  UNL     1     -12.216  13.997  69.429  1.00  0.00     0.000 HD 
ENDBRANCH   3   4
ENDBRANCH   1   3
BRANCH   1  16
HETATM   16  O   UNL     1      -8.148   7.461  71.044  1.00  0.00    -0.100 OA 
BRANCH  16  17
HETATM   17  C   UNL     1      -8.679   6.670  69.952  1.00  0.00    -0.141 C  
HETATM   18  O   UNL     1      -6.930   6.552  68.321  1.00  0.00    -0.075 OA 
HETATM   19  O   UNL     1      -6.587   5.455  70.674  1.00  0.00    -0.036 OA 
HETATM   20  P   UNL     1      -7.462   5.483  69.278  1.00  0.00    -0.080 P  
HETATM   21  O   UNL     1      -6.312   4.359  68.640  1.00  0.00    -0.034 OA 
BRANCH  19  22
HETATM   22  C   UNL     1      -6.843   4.461  71.642  1.00  0.00    -0.031 C  
BRANCH  22  23
HETATM   23  O   UNL     1      -7.164   5.026  72.919  1.00  0.00    -0.081 OA 
BRANCH  23  24
HETATM   24  C   UNL     1      -8.377   4.653  73.399  1.00  0.00    -0.103 C  
HETATM   25  O   UNL     1      -8.874   5.029  74.453  1.00  0.00    -0.112 OA 
BRANCH  24  26
HETATM   26  O   UNL     1      -8.949   3.775  72.533  1.00  0.00    -0.102 OA 
BRANCH  26  27
HETATM   27  C   UNL     1     -10.384   3.881  72.406  1.00  0.00    -0.124 C  
HETATM   28  C   UNL     1     -11.011   3.832  73.795  1.00  0.00    -0.312 C  
HETATM   29  C   UNL     1     -10.733   5.195  71.713  1.00  0.00    -0.203 C  
ENDBRANCH  26  27
ENDBRANCH  24  26
ENDBRANCH  23  24
ENDBRANCH  22  23
ENDBRANCH  19  22
BRANCH  21  30
HETATM   30  C   UNL     1      -6.913   3.342  67.868  1.00  0.00    -0.050 C  
BRANCH  30  31
HETATM   31  O   UNL     1      -8.050   3.822  67.157  1.00  0.00    -0.090 OA 
BRANCH  31  32
HETATM   32  C   UNL     1      -7.777   4.250  65.903  1.00  0.00    -0.090 C  
HETATM   33  O   UNL     1      -6.797   3.938  65.239  1.00  0.00    -0.050 OA 
BRANCH  32  34
HETATM   34  O   UNL     1      -8.807   5.030  65.490  1.00  0.00    -0.137 OA 
BRANCH  34  35
HETATM   35  C   UNL     1     -10.125   4.624  65.908  1.00  0.00    -0.258 C  
HETATM   36  C   UNL     1     -10.905   4.239  64.654  1.00  0.00    -0.097 C  
HETATM   37  C   UNL     1     -10.831   5.766  66.630  1.00  0.00    -0.290 C  
ENDBRANCH  34  35
ENDBRANCH  32  34
ENDBRANCH  31  32
ENDBRANCH  30  31
ENDBRANCH  21  30
ENDBRANCH  16  17
ENDBRANCH   1  16
TORSDOF 14
ENDMDL
MODEL      341
REMARK 921   NORMALIZED FREE ENERGY PREDICTED BY IDOCK:   -2.51 KCAL/MOL
REMARK 922        TOTAL FREE ENERGY PREDICTED BY IDOCK:   -6.40 KCAL/MOL
REMARK 923 INTER-LIGAND FREE ENERGY PREDICTED BY IDOCK:   -5.60 KCAL/MOL
REMARK 924 INTRA-LIGAND FREE ENERGY PREDICTED BY IDOCK:   -0.80 KCAL/MOL
REMARK 927      BINDING AFFINITY PREDICTED BY RF-SCORE:    0.00 PKD
ROOT
HETATM    1  C   UNL     1      -9.764   8.358  72.375  1.00  0.00    -0.306 C  
HETATM    2  C   UNL     1      -9.761   7.529  73.658  1.00  0.00    -0.341 C  
ENDROOT
BRANCH   1   3
HETATM    3  C   UNL     1     -11.118   8.408  71.679  1.00  0.00    -0.278 C  
BRANCH   3   4
HETATM    4  N   UNL     1     -11.612   9.717  71.348  1.00  0.00    -0.382 NA 
HETATM    5  C   UNL     1     -11.083  10.468  70.344  1.00  0.00    -0.244 A  
HETATM    6  N   UNL     1     -10.490  12.292  68.505  1.00  0.00    -0.232 NA 
HETATM    7  C   UNL     1     -12.727  10.359  71.809  1.00  0.00    -0.421 A  
HETATM    8  N   UNL     1     -12.305  13.682  69.089  1.00  0.00    -0.303 NA 
HETATM    9  N   UNL     1     -10.007  10.186  69.593  1.00  0.00    -0.233 NA 
HETATM   10  C   UNL     1     -11.576  12.514  69.279  1.00  0.00    -0.319 A  
HETATM   11  N   UNL     1     -12.921  11.503  71.194  1.00  0.00    -0.302 NA 
HETATM   12  C   UNL     1      -9.786  11.154  68.692  1.00  0.00    -0.202 A  
HETATM   13  C   UNL     1     -11.910  11.571  70.258  1.00  0.00    -0.342 A  
HETATM   14  H1  UNL     1     -12.062  14.368  68.376  1.00  0.00     0.000 HD 
HETATM   15  H2  UNL     1     -12.345  14.168  69.984  1.00  0.00     0.000 HD 
ENDBRANCH   3   4
ENDBRANCH   1   3
BRANCH   1  16
HETATM   16  O   UNL     1      -8.689   7.896  71.529  1.00  0.00    -0.116 OA 
BRANCH  16  17
HETATM   17  C   UNL     1      -8.030   6.674  71.943  1.00  0.00    -0.102 C  
HETATM   18  O   UNL     1      -9.758   5.026  72.116  1.00  0.00    -0.153 OA 
HETATM   19  O   UNL     1      -9.199   6.080  69.786  1.00  0.00    -0.141 OA 
HETATM   20  P   UNL     1      -8.658   5.196  71.067  1.00  0.00    -0.127 P  
HETATM   21  O   UNL     1      -9.251   3.798  70.238  1.00  0.00    -0.116 OA 
BRANCH  19  22
HETATM   22  C   UNL     1      -8.374   6.253  68.654  1.00  0.00    -0.112 C  
BRANCH  22  23
HETATM   23  O   UNL     1      -8.958   5.689  67.474  1.00  0.00    -0.110 OA 
BRANCH  23  24
HETATM   24  C   UNL     1      -9.138   6.579  66.465  1.00  0.00    -0.152 C  
HETATM   25  O   UNL     1      -9.674   7.674  66.567  1.00  0.00    -0.208 OA 
BRANCH  24  26
HETATM   26  O   UNL     1      -8.644   6.053  65.313  1.00  0.00    -0.151 OA 
BRANCH  26  27
HETATM   27  C   UNL     1      -9.596   5.314  64.516  1.00  0.00     0.547 C  
HETATM   28  C   UNL     1      -8.839   4.412  63.548  1.00  0.00    -0.131 C  
HETATM   29  C   UNL     1     -10.484   4.481  65.434  1.00  0.00    -0.212 C  
ENDBRANCH  26  27
ENDBRANCH  24  26
ENDBRANCH  23  24
ENDBRANCH  22  23
ENDBRANCH  19  22
BRANCH  21  30
HETATM   30  C   UNL     1      -8.378   2.694  70.337  1.00  0.00    -0.045 C  
BRANCH  30  31
HETATM   31  O   UNL     1      -7.490   2.623  69.225  1.00  0.00    -0.044 OA 
BRANCH  31  32
HETATM   32  C   UNL     1      -8.112   2.520  68.028  1.00  0.00    -0.058 C  
HETATM   33  O   UNL     1      -9.192   1.977  67.828  1.00  0.00    -0.158 OA 
BRANCH  32  34
HETATM   34  O   UNL     1      -7.363   3.173  67.106  1.00  0.00    -0.061 OA 
BRANCH  34  35
HETATM   35  C   UNL     1      -5.956   3.295  67.395  1.00  0.00    -0.024 C  
HETATM   36  C   UNL     1      -5.513   4.681  66.934  1.00  0.00    -0.013 C  
HETATM   37  C   UNL     1      -5.164   2.222  66.655  1.00  0.00    -0.008 C  
ENDBRANCH  34  35
ENDBRANCH  32  34
ENDBRANCH  31  32
ENDBRANCH  30  31
ENDBRANCH  21  30
ENDBRANCH  16  17
ENDBRANCH   1  16
TORSDOF 14
ENDMDL
MODEL      342
REMARK 921   NORMALIZED FREE ENERGY PREDICTED BY IDOCK:   -2.48 KCAL/MOL
REMARK 922        TOTAL FREE ENERGY PREDICTED BY IDOCK:   -6.36 KCAL/MOL
REMARK 923 INTER-LIGAND FREE ENERGY PREDICTED BY IDOCK:   -5.86 KCAL/MOL
REMARK 924 INTRA-LIGAND FREE ENERGY PREDICTED BY IDOCK:   -0.50 KCAL/MOL
REMARK 927      BINDING AFFINITY PREDICTED BY RF-SCORE:    0.00 PKD
ROOT
HETATM    1  C   UNL     1      -8.389  10.575  69.035  1.00  0.00    -0.154 C  
HETATM    2  C   UNL     1      -8.739   9.597  67.916  1.00  0.00    -0.119 C  
ENDROOT
BRANCH   1   3
HETATM    3  C   UNL     1      -7.706  11.846  68.549  1.00  0.00    -0.135 C  
BRANCH   3   4
HETATM    4  N   UNL     1      -8.567  12.850  67.983  1.00  0.00    -0.178 NA 
HETATM    5  C   UNL     1      -8.477  14.166  68.317  1.00  0.00    -0.169 A  
HETATM    6  N   UNL     1      -8.696  16.804  68.550  1.00  0.00    -0.236 NA 
HETATM    7  C   UNL     1      -9.460  12.738  66.954  1.00  0.00    -0.235 A  
HETATM    8  N   UNL     1     -10.316  16.966  66.842  1.00  0.00    -0.311 NA 
HETATM    9  N   UNL     1      -7.687  14.720  69.250  1.00  0.00    -0.150 NA 
HETATM   10  C   UNL     1      -9.454  16.194  67.612  1.00  0.00    -0.220 A  
HETATM   11  N   UNL     1      -9.987  13.899  66.638  1.00  0.00    -0.271 NA 
HETATM   12  C   UNL     1      -7.860  16.048  69.295  1.00  0.00    -0.222 A  
HETATM   13  C   UNL     1      -9.361  14.804  67.470  1.00  0.00    -0.194 A  
HETATM   14  H1  UNL     1     -10.383  17.978  66.946  1.00  0.00     0.000 HD 
HETATM   15  H2  UNL     1     -11.254  16.582  66.950  1.00  0.00     0.000 HD 
ENDBRANCH   3   4
ENDBRANCH   1   3
BRANCH   1  16
HETATM   16  O   UNL     1      -7.644   9.863  70.047  1.00  0.00    -0.142 OA 
BRANCH  16  17
HETATM   17  C   UNL     1      -7.422   8.453  69.804  1.00  0.00    -0.072 C  
HETATM   18  O   UNL     1      -5.796   7.761  71.420  1.00  0.00    -0.035 OA 
HETATM   19  O   UNL     1      -8.148   8.587  72.218  1.00  0.00    -0.232 OA 
HETATM   20  P   UNL     1      -7.297   7.477  71.347  1.00  0.00    -0.082 P  
HETATM   21  O   UNL     1      -7.180   6.554  72.806  1.00  0.00    -0.080 OA 
BRANCH  19  22
HETATM   22  C   UNL     1      -9.543   8.436  72.377  1.00  0.00    -0.303 C  
BRANCH  22  23
HETATM   23  O   UNL     1     -10.215   8.327  71.116  1.00  0.00    -0.191 OA 
BRANCH  23  24
HETATM   24  C   UNL     1     -11.141   9.295  70.898  1.00  0.00    -0.306 C  
HETATM   25  O   UNL     1     -11.486   9.717  69.803  1.00  0.00    -0.201 OA 
BRANCH  24  26
HETATM   26  O   UNL     1     -11.613   9.738  72.093  1.00  0.00     0.012 OA 
BRANCH  26  27
HETATM   27  C   UNL     1     -13.046   9.910  72.165  1.00  0.00    -0.403 C  
HETATM   28  C   UNL     1     -13.399  11.324  71.718  1.00  0.00    -0.371 C  
HETATM   29  C   UNL     1     -13.722   8.884  71.261  1.00  0.00    -0.235 C  
ENDBRANCH  26  27
ENDBRANCH  24  26
ENDBRANCH  23  24
ENDBRANCH  22  23
ENDBRANCH  19  22
BRANCH  21  30
HETATM   30  C   UNL     1      -7.354   5.170  72.590  1.00  0.00    -0.094 C  
BRANCH  30  31
HETATM   31  O   UNL     1      -7.324   4.845  71.204  1.00  0.00    -0.064 OA 
BRANCH  31  32
HETATM   32  C   UNL     1      -7.836   3.627  70.911  1.00  0.00    -0.047 C  
HETATM   33  O   UNL     1      -7.766   2.632  71.622  1.00  0.00    -0.043 OA 
BRANCH  32  34
HETATM   34  O   UNL     1      -8.490   3.718  69.726  1.00  0.00    -0.058 OA 
BRANCH  34  35
HETATM   35  C   UNL     1      -8.304   2.624  68.807  1.00  0.00    -0.064 C  
HETATM   36  C   UNL     1      -6.885   2.726  68.254  1.00  0.00    -0.048 C  
HETATM   37  C   UNL     1      -9.314   2.708  67.667  1.00  0.00    -0.209 C  
ENDBRANCH  34  35
ENDBRANCH  32  34
ENDBRANCH  31  32
ENDBRANCH  30  31
ENDBRANCH  21  30
ENDBRANCH  16  17
ENDBRANCH   1  16
TORSDOF 14
ENDMDL
MODEL      343
REMARK 921   NORMALIZED FREE ENERGY PREDICTED BY IDOCK:   -2.46 KCAL/MOL
REMARK 922        TOTAL FREE ENERGY PREDICTED BY IDOCK:   -6.32 KCAL/MOL
REMARK 923 INTER-LIGAND FREE ENERGY PREDICTED BY IDOCK:   -4.68 KCAL/MOL
REMARK 924 INTRA-LIGAND FREE ENERGY PREDICTED BY IDOCK:   -1.64 KCAL/MOL
REMARK 927      BINDING AFFINITY PREDICTED BY RF-SCORE:    0.00 PKD
ROOT
HETATM    1  C   UNL     1      -7.049   7.454  68.534  1.00  0.00    -0.084 C  
HETATM    2  C   UNL     1      -6.656   5.997  68.294  1.00  0.00    -0.055 C  
ENDROOT
BRANCH   1   3
HETATM    3  C   UNL     1      -5.875   8.356  68.887  1.00  0.00    -0.040 C  
BRANCH   3   4
HETATM    4  N   UNL     1      -5.862   9.652  68.263  1.00  0.00    -0.043 NA 
HETATM    5  C   UNL     1      -5.613  10.797  68.955  1.00  0.00    -0.040 A  
HETATM    6  N   UNL     1      -5.139  13.277  69.782  1.00  0.00    -0.081 NA 
HETATM    7  C   UNL     1      -5.917   9.968  66.935  1.00  0.00    -0.055 A  
HETATM    8  N   UNL     1      -5.228  14.175  67.602  1.00  0.00    -0.330 NA 
HETATM    9  N   UNL     1      -5.444  10.930  70.280  1.00  0.00    -0.068 NA 
HETATM   10  C   UNL     1      -5.298  13.080  68.454  1.00  0.00    -0.070 A  
HETATM   11  N   UNL     1      -5.766  11.258  66.734  1.00  0.00    -0.104 NA 
HETATM   12  C   UNL     1      -5.206  12.209  70.605  1.00  0.00    -0.138 A  
HETATM   13  C   UNL     1      -5.552  11.784  67.991  1.00  0.00    -0.046 A  
HETATM   14  H1  UNL     1      -5.043  15.120  67.939  1.00  0.00     0.000 HD 
HETATM   15  H2  UNL     1      -6.095  14.204  67.065  1.00  0.00     0.000 HD 
ENDBRANCH   3   4
ENDBRANCH   1   3
BRANCH   1  16
HETATM   16  O   UNL     1      -8.121   7.485  69.500  1.00  0.00    -0.123 OA 
BRANCH  16  17
HETATM   17  C   UNL     1      -8.335   8.748  70.178  1.00  0.00    -0.131 C  
HETATM   18  O   UNL     1      -9.383  10.181  68.571  1.00  0.00    -0.143 OA 
HETATM   19  O   UNL     1     -10.629   8.033  69.402  1.00  0.00    -0.229 OA 
HETATM   20  P   UNL     1      -9.966   9.487  69.804  1.00  0.00    -0.246 P  
HETATM   21  O   UNL     1     -11.508  10.187  69.451  1.00  0.00    -0.218 OA 
BRANCH  19  22
HETATM   22  C   UNL     1     -11.324   7.285  70.376  1.00  0.00    -0.271 C  
BRANCH  22  23
HETATM   23  O   UNL     1     -10.596   6.118  70.776  1.00  0.00    -0.218 OA 
BRANCH  23  24
HETATM   24  C   UNL     1     -10.338   6.055  72.106  1.00  0.00    -0.197 C  
HETATM   25  O   UNL     1     -10.927   5.350  72.915  1.00  0.00    -0.246 OA 
BRANCH  24  26
HETATM   26  O   UNL     1      -9.331   6.918  72.407  1.00  0.00    -0.138 OA 
BRANCH  26  27
HETATM   27  C   UNL     1      -8.988   7.001  73.807  1.00  0.00    -0.176 C  
HETATM   28  C   UNL     1      -7.554   6.517  73.997  1.00  0.00    -0.086 C  
HETATM   29  C   UNL     1      -9.126   8.446  74.275  1.00  0.00     0.947 C  
ENDBRANCH  26  27
ENDBRANCH  24  26
ENDBRANCH  23  24
ENDBRANCH  22  23
ENDBRANCH  19  22
BRANCH  21  30
HETATM   30  C   UNL     1     -11.880  11.183  70.379  1.00  0.00    -0.369 C  
BRANCH  30  31
HETATM   31  O   UNL     1     -11.191  12.406  70.143  1.00  0.00     0.086 OA 
BRANCH  31  32
HETATM   32  C   UNL     1     -11.936  13.350  69.522  1.00  0.00    -0.319 C  
HETATM   33  O   UNL     1     -12.933  13.891  69.984  1.00  0.00    -0.058 OA 
BRANCH  32  34
HETATM   34  O   UNL     1     -11.353  13.632  68.331  1.00  0.00    -0.260 OA 
BRANCH  34  35
HETATM   35  C   UNL     1     -11.852  12.912  67.187  1.00  0.00    -0.362 C  
HETATM   36  C   UNL     1     -10.678  12.150  66.578  1.00  0.00    -0.290 C  
HETATM   37  C   UNL     1     -12.435  13.878  66.161  1.00  0.00    -0.478 C  
ENDBRANCH  34  35
ENDBRANCH  32  34
ENDBRANCH  31  32
ENDBRANCH  30  31
ENDBRANCH  21  30
ENDBRANCH  16  17
ENDBRANCH   1  16
TORSDOF 14
ENDMDL
MODEL      344
REMARK 921   NORMALIZED FREE ENERGY PREDICTED BY IDOCK:   -2.30 KCAL/MOL
REMARK 922        TOTAL FREE ENERGY PREDICTED BY IDOCK:   -6.02 KCAL/MOL
REMARK 923 INTER-LIGAND FREE ENERGY PREDICTED BY IDOCK:   -4.84 KCAL/MOL
REMARK 924 INTRA-LIGAND FREE ENERGY PREDICTED BY IDOCK:   -1.18 KCAL/MOL
REMARK 927      BINDING AFFINITY PREDICTED BY RF-SCORE:    0.00 PKD
ROOT
HETATM    1  C   UNL     1      -8.285   8.686  64.965  1.00  0.00    -0.157 C  
HETATM    2  C   UNL     1      -6.870   9.116  64.585  1.00  0.00    -0.086 C  
ENDROOT
BRANCH   1   3
HETATM    3  C   UNL     1      -8.890   9.500  66.101  1.00  0.00    -0.152 C  
BRANCH   3   4
HETATM    4  N   UNL     1      -9.719  10.609  65.713  1.00  0.00    -0.208 NA 
HETATM    5  C   UNL     1      -9.446  11.892  66.078  1.00  0.00    -0.229 A  
HETATM    6  N   UNL     1      -9.357  14.522  66.440  1.00  0.00    -0.287 NA 
HETATM    7  C   UNL     1     -10.763  10.637  64.832  1.00  0.00    -0.002 A  
HETATM    8  N   UNL     1     -11.189  14.927  65.010  1.00  0.00    -0.384 NA 
HETATM    9  N   UNL     1      -8.472  12.318  66.897  1.00  0.00    -0.182 NA 
HETATM   10  C   UNL     1     -10.305  14.037  65.608  1.00  0.00    -0.329 A  
HETATM   11  N   UNL     1     -11.210  11.858  64.644  1.00  0.00    -0.313 NA 
HETATM   12  C   UNL     1      -8.499  13.653  67.017  1.00  0.00    -0.125 A  
HETATM   13  C   UNL     1     -10.377  12.655  65.402  1.00  0.00    -0.291 A  
HETATM   14  H1  UNL     1     -11.137  15.934  65.160  1.00  0.00     0.000 HD 
HETATM   15  H2  UNL     1     -12.135  14.629  65.247  1.00  0.00     0.000 HD 
ENDBRANCH   3   4
ENDBRANCH   1   3
BRANCH   1  16
HETATM   16  O   UNL     1      -8.282   7.262  65.204  1.00  0.00    -0.131 OA 
BRANCH  16  17
HETATM   17  C   UNL     1      -8.857   6.823  66.459  1.00  0.00    -0.143 C  
HETATM   18  O   UNL     1      -9.017   4.439  66.305  1.00  0.00    -0.115 OA 
HETATM   19  O   UNL     1      -6.663   5.587  66.284  1.00  0.00    -0.054 OA 
HETATM   20  P   UNL     1      -8.059   5.314  67.117  1.00  0.00    -0.099 P  
HETATM   21  O   UNL     1      -7.304   3.887  67.739  1.00  0.00    -0.065 OA 
BRANCH  19  22
HETATM   22  C   UNL     1      -5.599   6.275  66.905  1.00  0.00    -0.013 C  
BRANCH  22  23
HETATM   23  O   UNL     1      -6.021   7.530  67.452  1.00  0.00    -0.043 OA 
BRANCH  23  24
HETATM   24  C   UNL     1      -5.809   7.651  68.787  1.00  0.00    -0.023 C  
HETATM   25  O   UNL     1      -5.715   6.725  69.581  1.00  0.00    -0.014 OA 
BRANCH  24  26
HETATM   26  O   UNL     1      -5.738   8.970  69.110  1.00  0.00    -0.036 OA 
BRANCH  26  27
HETATM   27  C   UNL     1      -6.728   9.426  70.059  1.00  0.00    -0.063 C  
HETATM   28  C   UNL     1      -8.065   8.769  69.736  1.00  0.00    -0.111 C  
HETATM   29  C   UNL     1      -6.281   9.055  71.469  1.00  0.00    -0.075 C  
ENDBRANCH  26  27
ENDBRANCH  24  26
ENDBRANCH  23  24
ENDBRANCH  22  23
ENDBRANCH  19  22
BRANCH  21  30
HETATM   30  C   UNL     1      -7.576   3.680  69.109  1.00  0.00    -0.052 C  
BRANCH  30  31
HETATM   31  O   UNL     1      -8.958   3.860  69.405  1.00  0.00    -0.090 OA 
BRANCH  31  32
HETATM   32  C   UNL     1      -9.304   3.504  70.663  1.00  0.00    -0.160 C  
HETATM   33  O   UNL     1      -9.910   2.488  70.977  1.00  0.00    -0.127 OA 
BRANCH  32  34
HETATM   34  O   UNL     1      -8.811   4.436  71.516  1.00  0.00    -0.113 OA 
BRANCH  34  35
HETATM   35  C   UNL     1      -9.377   5.758  71.417  1.00  0.00    -0.146 C  
HETATM   36  C   UNL     1      -8.776   6.599  72.539  1.00  0.00    -0.126 C  
HETATM   37  C   UNL     1     -10.894   5.700  71.564  1.00  0.00    -0.297 C  
ENDBRANCH  34  35
ENDBRANCH  32  34
ENDBRANCH  31  32
ENDBRANCH  30  31
ENDBRANCH  21  30
ENDBRANCH  16  17
ENDBRANCH   1  16
TORSDOF 14
ENDMDL
MODEL      345
REMARK 921   NORMALIZED FREE ENERGY PREDICTED BY IDOCK:   -2.29 KCAL/MOL
REMARK 922        TOTAL FREE ENERGY PREDICTED BY IDOCK:   -6.00 KCAL/MOL
REMARK 923 INTER-LIGAND FREE ENERGY PREDICTED BY IDOCK:   -5.79 KCAL/MOL
REMARK 924 INTRA-LIGAND FREE ENERGY PREDICTED BY IDOCK:   -0.21 KCAL/MOL
REMARK 927      BINDING AFFINITY PREDICTED BY RF-SCORE:    0.00 PKD
ROOT
HETATM    1  C   UNL     1     -10.100  13.048  67.792  1.00  0.00    -0.229 C  
HETATM    2  C   UNL     1     -10.610  11.658  68.165  1.00  0.00    -0.230 C  
ENDROOT
BRANCH   1   3
HETATM    3  C   UNL     1     -10.185  13.354  66.302  1.00  0.00    -0.298 C  
BRANCH   3   4
HETATM    4  N   UNL     1     -10.087  12.225  65.417  1.00  0.00    -0.269 NA 
HETATM    5  C   UNL     1      -9.038  11.358  65.449  1.00  0.00    -0.103 A  
HETATM    6  N   UNL     1      -7.306   9.370  65.124  1.00  0.00    -0.101 NA 
HETATM    7  C   UNL     1     -11.020  11.723  64.554  1.00  0.00    -0.324 A  
HETATM    8  N   UNL     1      -8.657   8.258  63.541  1.00  0.00    -0.408 NA 
HETATM    9  N   UNL     1      -7.926  11.448  66.194  1.00  0.00    -0.048 NA 
HETATM   10  C   UNL     1      -8.454   9.321  64.412  1.00  0.00    -0.188 A  
HETATM   11  N   UNL     1     -10.614  10.608  63.991  1.00  0.00    -0.125 NA 
HETATM   12  C   UNL     1      -7.115  10.405  65.970  1.00  0.00    -0.133 A  
HETATM   13  C   UNL     1      -9.383  10.357  64.562  1.00  0.00    -0.264 A  
HETATM   14  H1  UNL     1      -7.980   7.503  63.432  1.00  0.00     0.000 HD 
HETATM   15  H2  UNL     1      -8.836   8.648  62.615  1.00  0.00     0.000 HD 
ENDBRANCH   3   4
ENDBRANCH   1   3
BRANCH   1  16
HETATM   16  O   UNL     1      -8.778  13.214  68.347  1.00  0.00    -0.174 OA 
BRANCH  16  17
HETATM   17  C   UNL     1      -8.673  14.092  69.495  1.00  0.00     0.675 C  
HETATM   18  O   UNL     1      -6.359  14.082  70.114  1.00  0.00    -0.147 OA 
HETATM   19  O   UNL     1      -7.078  15.058  67.792  1.00  0.00    -0.136 OA 
HETATM   20  P   UNL     1      -7.194  15.168  69.433  1.00  0.00    -0.207 P  
HETATM   21  O   UNL     1      -5.797  16.187  69.374  1.00  0.00    -0.126 OA 
BRANCH  19  22
HETATM   22  C   UNL     1      -7.681  16.041  66.978  1.00  0.00    -0.229 C  
BRANCH  22  23
HETATM   23  O   UNL     1      -8.297  17.075  67.755  1.00  0.00    -0.191 OA 
BRANCH  23  24
HETATM   24  C   UNL     1      -9.651  17.091  67.679  1.00  0.00    -0.249 C  
HETATM   25  O   UNL     1     -10.405  17.608  68.493  1.00  0.00    -0.351 OA 
BRANCH  24  26
HETATM   26  O   UNL     1     -10.044  16.422  66.563  1.00  0.00    -0.270 OA 
BRANCH  26  27
HETATM   27  C   UNL     1     -11.066  17.077  65.779  1.00  0.00     0.272 C  
HETATM   28  C   UNL     1     -10.619  18.502  65.472  1.00  0.00     0.009 C  
HETATM   29  C   UNL     1     -11.286  16.299  64.486  1.00  0.00    -0.218 C  
ENDBRANCH  26  27
ENDBRANCH  24  26
ENDBRANCH  23  24
ENDBRANCH  22  23
ENDBRANCH  19  22
BRANCH  21  30
HETATM   30  C   UNL     1      -5.886  17.287  70.254  1.00  0.00    -0.113 C  
BRANCH  30  31
HETATM   31  O   UNL     1      -5.199  18.425  69.745  1.00  0.00    -0.181 OA 
BRANCH  31  32
HETATM   32  C   UNL     1      -6.013  19.392  69.262  1.00  0.00    -0.262 C  
HETATM   33  O   UNL     1      -7.217  19.479  69.464  1.00  0.00    -0.309 OA 
BRANCH  32  34
HETATM   34  O   UNL     1      -5.253  20.276  68.569  1.00  0.00    -0.201 OA 
BRANCH  34  35
HETATM   35  C   UNL     1      -5.367  20.232  67.134  1.00  0.00    -0.166 C  
HETATM   36  C   UNL     1      -6.749  20.766  66.767  1.00  0.00    -0.351 C  
HETATM   37  C   UNL     1      -5.212  18.800  66.630  1.00  0.00    -0.150 C  
ENDBRANCH  34  35
ENDBRANCH  32  34
ENDBRANCH  31  32
ENDBRANCH  30  31
ENDBRANCH  21  30
ENDBRANCH  16  17
ENDBRANCH   1  16
TORSDOF 14
ENDMDL
MODEL      346
REMARK 921   NORMALIZED FREE ENERGY PREDICTED BY IDOCK:   -2.28 KCAL/MOL
REMARK 922        TOTAL FREE ENERGY PREDICTED BY IDOCK:   -5.99 KCAL/MOL
REMARK 923 INTER-LIGAND FREE ENERGY PREDICTED BY IDOCK:   -5.09 KCAL/MOL
REMARK 924 INTRA-LIGAND FREE ENERGY PREDICTED BY IDOCK:   -0.90 KCAL/MOL
REMARK 927      BINDING AFFINITY PREDICTED BY RF-SCORE:    0.00 PKD
ROOT
HETATM    1  C   UNL     1      -9.338   3.933  71.379  1.00  0.00    -0.139 C  
HETATM    2  C   UNL     1      -8.565   4.390  72.614  1.00  0.00    -0.110 C  
ENDROOT
BRANCH   1   3
HETATM    3  C   UNL     1      -8.946   2.546  70.887  1.00  0.00    -0.092 C  
BRANCH   3   4
HETATM    4  N   UNL     1      -8.633   2.435  69.488  1.00  0.00    -0.059 NA 
HETATM    5  C   UNL     1      -7.369   2.583  69.005  1.00  0.00    -0.044 A  
HETATM    6  N   UNL     1      -5.143   2.711  67.561  1.00  0.00    -0.008 NA 
HETATM    7  C   UNL     1      -9.430   2.023  68.457  1.00  0.00    -0.157 A  
HETATM    8  N   UNL     1      -6.228   2.072  65.566  1.00  0.00    -0.022 NA 
HETATM    9  N   UNL     1      -6.270   2.936  69.689  1.00  0.00    -0.027 NA 
HETATM   10  C   UNL     1      -6.278   2.341  66.928  1.00  0.00    -0.024 A  
HETATM   11  N   UNL     1      -8.764   1.942  67.328  1.00  0.00    -0.105 NA 
HETATM   12  C   UNL     1      -5.198   2.970  68.885  1.00  0.00    -0.012 A  
HETATM   13  C   UNL     1      -7.467   2.268  67.664  1.00  0.00    -0.056 A  
HETATM   14  H1  UNL     1      -5.362   2.124  65.029  1.00  0.00     0.000 HD 
HETATM   15  H2  UNL     1      -6.912   2.673  65.107  1.00  0.00     0.000 HD 
ENDBRANCH   3   4
ENDBRANCH   1   3
BRANCH   1  16
HETATM   16  O   UNL     1      -9.236   4.961  70.369  1.00  0.00    -0.122 OA 
BRANCH  16  17
HETATM   17  C   UNL     1     -10.329   5.910  70.310  1.00  0.00    -0.235 C  
HETATM   18  O   UNL     1      -9.425   7.993  71.069  1.00  0.00    -0.154 OA 
HETATM   19  O   UNL     1      -8.521   6.913  68.862  1.00  0.00    -0.124 OA 
HETATM   20  P   UNL     1      -9.818   7.542  69.661  1.00  0.00    -0.185 P  
HETATM   21  O   UNL     1      -9.335   9.085  69.046  1.00  0.00    -0.139 OA 
BRANCH  19  22
HETATM   22  C   UNL     1      -8.644   6.545  67.505  1.00  0.00    -0.119 C  
BRANCH  22  23
HETATM   23  O   UNL     1      -9.920   5.957  67.223  1.00  0.00    -0.129 OA 
BRANCH  23  24
HETATM   24  C   UNL     1     -10.030   5.450  65.970  1.00  0.00    -0.084 C  
HETATM   25  O   UNL     1     -11.028   4.918  65.501  1.00  0.00    -0.157 OA 
BRANCH  24  26
HETATM   26  O   UNL     1      -8.847   5.606  65.319  1.00  0.00    -0.147 OA 
BRANCH  26  27
HETATM   27  C   UNL     1      -8.776   4.993  64.013  1.00  0.00    -0.089 C  
HETATM   28  C   UNL     1      -7.498   5.450  63.318  1.00  0.00    -0.055 C  
HETATM   29  C   UNL     1      -8.782   3.475  64.167  1.00  0.00    -0.097 C  
ENDBRANCH  26  27
ENDBRANCH  24  26
ENDBRANCH  23  24
ENDBRANCH  22  23
ENDBRANCH  19  22
BRANCH  21  30
HETATM   30  C   UNL     1     -10.429   9.871  68.624  1.00  0.00    -0.206 C  
BRANCH  30  31
HETATM   31  O   UNL     1     -10.010  11.145  68.145  1.00  0.00    -0.168 OA 
BRANCH  31  32
HETATM   32  C   UNL     1     -10.798  11.656  67.172  1.00  0.00    -0.261 C  
HETATM   33  O   UNL     1     -11.996  11.442  67.035  1.00  0.00    -0.492 OA 
BRANCH  32  34
HETATM   34  O   UNL     1     -10.044  12.492  66.415  1.00  0.00    -0.233 OA 
BRANCH  34  35
HETATM   35  C   UNL     1     -10.736  13.597  65.800  1.00  0.00    -0.280 C  
HETATM   36  C   UNL     1     -11.232  13.125  64.436  1.00  0.00    -0.403 C  
HETATM   37  C   UNL     1      -9.796  14.786  65.629  1.00  0.00    -0.361 C  
ENDBRANCH  34  35
ENDBRANCH  32  34
ENDBRANCH  31  32
ENDBRANCH  30  31
ENDBRANCH  21  30
ENDBRANCH  16  17
ENDBRANCH   1  16
TORSDOF 14
ENDMDL
MODEL      347
REMARK 921   NORMALIZED FREE ENERGY PREDICTED BY IDOCK:   -2.24 KCAL/MOL
REMARK 922        TOTAL FREE ENERGY PREDICTED BY IDOCK:   -5.91 KCAL/MOL
REMARK 923 INTER-LIGAND FREE ENERGY PREDICTED BY IDOCK:   -7.64 KCAL/MOL
REMARK 924 INTRA-LIGAND FREE ENERGY PREDICTED BY IDOCK:    1.73 KCAL/MOL
REMARK 927      BINDING AFFINITY PREDICTED BY RF-SCORE:    0.00 PKD
ROOT
HETATM    1  C   UNL     1      -8.695  12.527  67.847  1.00  0.00    -0.180 C  
HETATM    2  C   UNL     1      -7.537  11.616  67.442  1.00  0.00    -0.139 C  
ENDROOT
BRANCH   1   3
HETATM    3  C   UNL     1     -10.066  11.882  67.695  1.00  0.00    -0.191 C  
BRANCH   3   4
HETATM    4  N   UNL     1     -10.129  10.465  67.933  1.00  0.00    -0.166 NA 
HETATM    5  C   UNL     1      -9.633   9.551  67.054  1.00  0.00    -0.164 A  
HETATM    6  N   UNL     1      -8.797   7.388  65.757  1.00  0.00    -0.121 NA 
HETATM    7  C   UNL     1     -10.504   9.798  69.065  1.00  0.00    -0.213 A  
HETATM    8  N   UNL     1      -9.387   5.929  67.515  1.00  0.00    -0.111 NA 
HETATM    9  N   UNL     1      -9.120   9.784  65.837  1.00  0.00    -0.157 NA 
HETATM   10  C   UNL     1      -9.307   7.216  66.997  1.00  0.00    -0.151 A  
HETATM   11  N   UNL     1     -10.325   8.502  68.949  1.00  0.00    -0.211 NA 
HETATM   12  C   UNL     1      -8.721   8.642  65.260  1.00  0.00    -0.165 A  
HETATM   13  C   UNL     1      -9.758   8.338  67.702  1.00  0.00    -0.159 A  
HETATM   14  H1  UNL     1      -9.058   5.112  67.002  1.00  0.00     0.000 HD 
HETATM   15  H2  UNL     1     -10.359   5.760  67.773  1.00  0.00     0.000 HD 
ENDBRANCH   3   4
ENDBRANCH   1   3
BRANCH   1  16
HETATM   16  O   UNL     1      -8.558  13.780  67.143  1.00  0.00    -0.206 OA 
BRANCH  16  17
HETATM   17  C   UNL     1      -8.146  14.918  67.938  1.00  0.00    -0.142 C  
HETATM   18  O   UNL     1      -6.508  16.072  66.627  1.00  0.00    -0.220 OA 
HETATM   19  O   UNL     1      -8.977  15.910  65.770  1.00  0.00    -0.283 OA 
HETATM   20  P   UNL     1      -7.957  16.445  66.948  1.00  0.00    -0.292 P  
HETATM   21  O   UNL     1      -7.778  17.890  66.013  1.00  0.00    -0.437 OA 
BRANCH  19  22
HETATM   22  C   UNL     1     -10.345  16.253  65.818  1.00  0.00    -0.374 C  
BRANCH  22  23
HETATM   23  O   UNL     1     -11.190  15.121  65.577  1.00  0.00    -0.345 OA 
BRANCH  23  24
HETATM   24  C   UNL     1     -11.671  15.049  64.311  1.00  0.00    -0.233 C  
HETATM   25  O   UNL     1     -11.977  16.003  63.608  1.00  0.00    -0.765 OA 
BRANCH  24  26
HETATM   26  O   UNL     1     -11.779  13.743  63.948  1.00  0.00    -0.363 OA 
BRANCH  26  27
HETATM   27  C   UNL     1     -11.341  12.790  64.941  1.00  0.00    -0.306 C  
HETATM   28  C   UNL     1     -12.143  11.502  64.781  1.00  0.00     0.285 C  
HETATM   29  C   UNL     1      -9.853  12.514  64.752  1.00  0.00    -0.084 C  
ENDBRANCH  26  27
ENDBRANCH  24  26
ENDBRANCH  23  24
ENDBRANCH  22  23
ENDBRANCH  19  22
BRANCH  21  30
HETATM   30  C   UNL     1      -7.764  19.056  66.808  1.00  0.00    -0.244 C  
BRANCH  30  31
HETATM   31  O   UNL     1      -6.577  19.145  67.591  1.00  0.00    -0.204 OA 
BRANCH  31  32
HETATM   32  C   UNL     1      -6.793  19.480  68.884  1.00  0.00    -0.341 C  
HETATM   33  O   UNL     1      -7.882  19.513  69.442  1.00  0.00    -0.243 OA 
BRANCH  32  34
HETATM   34  O   UNL     1      -5.590  19.713  69.465  1.00  0.00    -0.205 OA 
BRANCH  34  35
HETATM   35  C   UNL     1      -5.166  18.762  70.461  1.00  0.00    -0.229 C  
HETATM   36  C   UNL     1      -5.943  17.471  70.222  1.00  0.00    -0.024 C  
HETATM   37  C   UNL     1      -5.454  19.292  71.862  1.00  0.00    -0.253 C  
ENDBRANCH  34  35
ENDBRANCH  32  34
ENDBRANCH  31  32
ENDBRANCH  30  31
ENDBRANCH  21  30
ENDBRANCH  16  17
ENDBRANCH   1  16
TORSDOF 14
ENDMDL
MODEL      348
REMARK 921   NORMALIZED FREE ENERGY PREDICTED BY IDOCK:   -2.14 KCAL/MOL
REMARK 922        TOTAL FREE ENERGY PREDICTED BY IDOCK:   -5.73 KCAL/MOL
REMARK 923 INTER-LIGAND FREE ENERGY PREDICTED BY IDOCK:   -6.49 KCAL/MOL
REMARK 924 INTRA-LIGAND FREE ENERGY PREDICTED BY IDOCK:    0.76 KCAL/MOL
REMARK 927      BINDING AFFINITY PREDICTED BY RF-SCORE:    0.00 PKD
ROOT
HETATM    1  C   UNL     1      -8.197  14.597  67.142  1.00  0.00    -0.201 C  
HETATM    2  C   UNL     1      -7.861  14.732  68.626  1.00  0.00    -0.140 C  
ENDROOT
BRANCH   1   3
HETATM    3  C   UNL     1      -8.729  15.879  66.514  1.00  0.00    -0.315 C  
BRANCH   3   4
HETATM    4  N   UNL     1      -7.859  17.023  66.578  1.00  0.00    -0.266 NA 
HETATM    5  C   UNL     1      -8.250  18.212  67.112  1.00  0.00    -0.229 A  
HETATM    6  N   UNL     1      -8.460  20.680  68.073  1.00  0.00     0.086 NA 
HETATM    7  C   UNL     1      -6.523  17.105  66.303  1.00  0.00    -0.131 A  
HETATM    8  N   UNL     1      -6.189  21.183  67.675  1.00  0.00    -0.345 NA 
HETATM    9  N   UNL     1      -9.472  18.545  67.557  1.00  0.00    -0.275 NA 
HETATM   10  C   UNL     1      -7.247  20.283  67.628  1.00  0.00    -0.301 A  
HETATM   11  N   UNL     1      -6.040  18.294  66.585  1.00  0.00    -0.153 NA 
HETATM   12  C   UNL     1      -9.484  19.800  68.026  1.00  0.00    -0.365 A  
HETATM   13  C   UNL     1      -7.108  18.988  67.114  1.00  0.00    -0.203 A  
HETATM   14  H1  UNL     1      -6.289  22.125  68.050  1.00  0.00     0.000 HD 
HETATM   15  H2  UNL     1      -5.812  21.265  66.731  1.00  0.00     0.000 HD 
ENDBRANCH   3   4
ENDBRANCH   1   3
BRANCH   1  16
HETATM   16  O   UNL     1      -9.069  13.459  66.972  1.00  0.00    -0.228 OA 
BRANCH  16  17
HETATM   17  C   UNL     1      -8.796  12.314  67.817  1.00  0.00    -0.174 C  
HETATM   18  O   UNL     1     -10.915  11.267  68.200  1.00  0.00    -0.198 OA 
HETATM   19  O   UNL     1      -9.932  11.357  65.775  1.00  0.00    -0.211 OA 
HETATM   20  P   UNL     1      -9.741  10.827  67.323  1.00  0.00    -0.166 P  
HETATM   21  O   UNL     1     -10.633   9.420  66.857  1.00  0.00    -0.231 OA 
BRANCH  19  22
HETATM   22  C   UNL     1      -9.015  10.959  64.779  1.00  0.00    -0.140 C  
BRANCH  22  23
HETATM   23  O   UNL     1      -8.566   9.612  64.972  1.00  0.00    -0.141 OA 
BRANCH  23  24
HETATM   24  C   UNL     1      -7.292   9.389  64.561  1.00  0.00    -0.105 C  
HETATM   25  O   UNL     1      -6.687  10.047  63.724  1.00  0.00    -0.123 OA 
BRANCH  24  26
HETATM   26  O   UNL     1      -6.797   8.302  65.211  1.00  0.00    -0.058 OA 
BRANCH  26  27
HETATM   27  C   UNL     1      -5.643   7.689  64.595  1.00  0.00    -0.033 C  
HETATM   28  C   UNL     1      -5.755   6.174  64.731  1.00  0.00    -0.022 C  
HETATM   29  C   UNL     1      -5.586   8.086  63.123  1.00  0.00    -0.063 C  
ENDBRANCH  26  27
ENDBRANCH  24  26
ENDBRANCH  23  24
ENDBRANCH  22  23
ENDBRANCH  19  22
BRANCH  21  30
HETATM   30  C   UNL     1     -10.102   8.231  67.402  1.00  0.00    -0.233 C  
BRANCH  30  31
HETATM   31  O   UNL     1     -11.083   7.502  68.133  1.00  0.00     0.033 OA 
BRANCH  31  32
HETATM   32  C   UNL     1     -10.665   7.079  69.348  1.00  0.00    -0.238 C  
HETATM   33  O   UNL     1     -11.090   6.100  69.949  1.00  0.00    -0.347 OA 
BRANCH  32  34
HETATM   34  O   UNL     1      -9.654   7.888  69.752  1.00  0.00    -0.167 OA 
BRANCH  34  35
HETATM   35  C   UNL     1      -9.874   8.625  70.971  1.00  0.00    -0.210 C  
HETATM   36  C   UNL     1      -9.690   7.654  72.133  1.00  0.00    -0.220 C  
HETATM   37  C   UNL     1     -11.283   9.207  70.996  1.00  0.00    -0.380 C  
ENDBRANCH  34  35
ENDBRANCH  32  34
ENDBRANCH  31  32
ENDBRANCH  30  31
ENDBRANCH  21  30
ENDBRANCH  16  17
ENDBRANCH   1  16
TORSDOF 14
ENDMDL
MODEL      349
REMARK 921   NORMALIZED FREE ENERGY PREDICTED BY IDOCK:   -2.06 KCAL/MOL
REMARK 922        TOTAL FREE ENERGY PREDICTED BY IDOCK:   -5.60 KCAL/MOL
REMARK 923 INTER-LIGAND FREE ENERGY PREDICTED BY IDOCK:   -4.89 KCAL/MOL
REMARK 924 INTRA-LIGAND FREE ENERGY PREDICTED BY IDOCK:   -0.70 KCAL/MOL
REMARK 927      BINDING AFFINITY PREDICTED BY RF-SCORE:    0.00 PKD
ROOT
HETATM    1  C   UNL     1      -8.007   7.512  65.183  1.00  0.00    -0.128 C  
HETATM    2  C   UNL     1      -8.676   6.154  65.386  1.00  0.00    -0.071 C  
ENDROOT
BRANCH   1   3
HETATM    3  C   UNL     1      -7.099   7.928  66.332  1.00  0.00    -0.071 C  
BRANCH   3   4
HETATM    4  N   UNL     1      -6.566   6.861  67.136  1.00  0.00    -0.049 NA 
HETATM    5  C   UNL     1      -6.989   6.619  68.407  1.00  0.00    -0.080 A  
HETATM    6  N   UNL     1      -7.471   5.682  70.846  1.00  0.00    -0.087 NA 
HETATM    7  C   UNL     1      -5.728   5.845  66.773  1.00  0.00    -0.017 A  
HETATM    8  N   UNL     1      -6.041   3.826  70.573  1.00  0.00    -0.018 NA 
HETATM    9  N   UNL     1      -7.851   7.348  69.134  1.00  0.00    -0.114 NA 
HETATM   10  C   UNL     1      -6.625   4.978  70.062  1.00  0.00    -0.036 A  
HETATM   11  N   UNL     1      -5.547   4.988  67.752  1.00  0.00    -0.012 NA 
HETATM   12  C   UNL     1      -8.038   6.800  70.343  1.00  0.00    -0.116 A  
HETATM   13  C   UNL     1      -6.350   5.451  68.773  1.00  0.00    -0.038 A  
HETATM   14  H1  UNL     1      -6.241   3.481  71.512  1.00  0.00     0.000 HD 
HETATM   15  H2  UNL     1      -5.030   3.931  70.493  1.00  0.00     0.000 HD 
ENDBRANCH   3   4
ENDBRANCH   1   3
BRANCH   1  16
HETATM   16  O   UNL     1      -9.029   8.482  64.867  1.00  0.00    -0.061 OA 
BRANCH  16  17
HETATM   17  C   UNL     1      -8.563   9.778  64.419  1.00  0.00    -0.188 C  
HETATM   18  O   UNL     1     -10.519  10.966  63.713  1.00  0.00    -0.353 OA 
HETATM   19  O   UNL     1     -10.252  10.285  66.227  1.00  0.00    -0.231 OA 
HETATM   20  P   UNL     1      -9.650  11.148  64.958  1.00  0.00    -0.234 P  
HETATM   21  O   UNL     1     -10.676  12.444  65.469  1.00  0.00    -0.266 OA 
BRANCH  19  22
HETATM   22  C   UNL     1      -9.662  10.409  67.503  1.00  0.00    -0.169 C  
BRANCH  22  23
HETATM   23  O   UNL     1      -8.557  11.322  67.496  1.00  0.00    -0.131 OA 
BRANCH  23  24
HETATM   24  C   UNL     1      -8.362  11.963  68.675  1.00  0.00    -0.058 C  
HETATM   25  O   UNL     1      -9.109  12.800  69.165  1.00  0.00     0.417 OA 
BRANCH  24  26
HETATM   26  O   UNL     1      -7.190  11.545  69.222  1.00  0.00    -0.110 OA 
BRANCH  26  27
HETATM   27  C   UNL     1      -6.147  12.542  69.282  1.00  0.00    -0.099 C  
HETATM   28  C   UNL     1      -6.573  13.756  68.464  1.00  0.00    -0.099 C  
HETATM   29  C   UNL     1      -5.911  12.938  70.736  1.00  0.00    -0.068 C  
ENDBRANCH  26  27
ENDBRANCH  24  26
ENDBRANCH  23  24
ENDBRANCH  22  23
ENDBRANCH  19  22
BRANCH  21  30
HETATM   30  C   UNL     1     -10.047  13.704  65.383  1.00  0.00    -0.271 C  
BRANCH  30  31
HETATM   31  O   UNL     1      -9.682  14.199  66.667  1.00  0.00    -0.268 OA 
BRANCH  31  32
HETATM   32  C   UNL     1     -10.408  15.266  67.076  1.00  0.00    -0.277 C  
HETATM   33  O   UNL     1     -11.620  15.282  67.247  1.00  0.00    -0.286 OA 
BRANCH  32  34
HETATM   34  O   UNL     1      -9.552  16.289  67.319  1.00  0.00    -0.226 OA 
BRANCH  34  35
HETATM   35  C   UNL     1     -10.144  17.595  67.472  1.00  0.00    -0.337 C  
HETATM   36  C   UNL     1     -10.196  18.239  66.089  1.00  0.00    -0.393 C  
HETATM   37  C   UNL     1      -9.306  18.453  68.414  1.00  0.00    -0.347 C  
ENDBRANCH  34  35
ENDBRANCH  32  34
ENDBRANCH  31  32
ENDBRANCH  30  31
ENDBRANCH  21  30
ENDBRANCH  16  17
ENDBRANCH   1  16
TORSDOF 14
ENDMDL
MODEL      350
REMARK 921   NORMALIZED FREE ENERGY PREDICTED BY IDOCK:   -1.70 KCAL/MOL
REMARK 922        TOTAL FREE ENERGY PREDICTED BY IDOCK:   -4.93 KCAL/MOL
REMARK 923 INTER-LIGAND FREE ENERGY PREDICTED BY IDOCK:   -7.40 KCAL/MOL
REMARK 924 INTRA-LIGAND FREE ENERGY PREDICTED BY IDOCK:    2.47 KCAL/MOL
REMARK 927      BINDING AFFINITY PREDICTED BY RF-SCORE:    0.00 PKD
ROOT
HETATM    1  C   UNL     1      -9.314  10.546  68.395  1.00  0.00    -0.158 C  
HETATM    2  C   UNL     1      -9.057  10.293  69.879  1.00  0.00    -0.007 C  
ENDROOT
BRANCH   1   3
HETATM    3  C   UNL     1      -9.487   9.274  67.575  1.00  0.00    -0.132 C  
BRANCH   3   4
HETATM    4  N   UNL     1      -9.657   8.057  68.323  1.00  0.00    -0.145 NA 
HETATM    5  C   UNL     1      -9.095   6.878  67.943  1.00  0.00    -0.122 A  
HETATM    6  N   UNL     1      -8.205   4.386  67.706  1.00  0.00    -0.098 NA 
HETATM    7  C   UNL     1     -10.220   7.876  69.555  1.00  0.00    -0.208 A  
HETATM    8  N   UNL     1      -9.108   3.713  69.779  1.00  0.00    -0.108 NA 
HETATM    9  N   UNL     1      -8.407   6.627  66.818  1.00  0.00    -0.113 NA 
HETATM   10  C   UNL     1      -8.889   4.702  68.828  1.00  0.00    -0.100 A  
HETATM   11  N   UNL     1     -10.096   6.636  69.970  1.00  0.00    -0.175 NA 
HETATM   12  C   UNL     1      -7.994   5.352  66.786  1.00  0.00    -0.101 A  
HETATM   13  C   UNL     1      -9.372   6.007  68.978  1.00  0.00    -0.124 A  
HETATM   14  H1  UNL     1      -8.756   2.762  69.671  1.00  0.00     0.000 HD 
HETATM   15  H2  UNL     1     -10.114   3.653  69.936  1.00  0.00     0.000 HD 
ENDBRANCH   3   4
ENDBRANCH   1   3
BRANCH   1  16
HETATM   16  O   UNL     1      -8.285  11.427  67.896  1.00  0.00    -0.122 OA 
BRANCH  16  17
HETATM   17  C   UNL     1      -8.606  12.170  66.695  1.00  0.00    -0.122 C  
HETATM   18  O   UNL     1     -10.982  12.011  66.445  1.00  0.00    -0.269 OA 
HETATM   19  O   UNL     1      -9.976  13.258  68.515  1.00  0.00    -0.234 OA 
HETATM   20  P   UNL     1     -10.112  13.193  66.874  1.00  0.00    -0.254 P  
HETATM   21  O   UNL     1     -11.535  14.162  67.044  1.00  0.00    -0.319 OA 
BRANCH  19  22
HETATM   22  C   UNL     1      -9.309  14.344  69.122  1.00  0.00     0.064 C  
BRANCH  22  23
HETATM   23  O   UNL     1     -10.228  15.328  69.613  1.00  0.00    -0.239 OA 
BRANCH  23  24
HETATM   24  C   UNL     1     -11.133  14.846  70.502  1.00  0.00    -0.159 C  
HETATM   25  O   UNL     1     -11.579  13.707  70.518  1.00  0.00    -0.155 OA 
BRANCH  24  26
HETATM   26  O   UNL     1     -11.483  15.837  71.364  1.00  0.00    -0.377 OA 
BRANCH  26  27
HETATM   27  C   UNL     1     -12.845  15.783  71.844  1.00  0.00    -0.446 C  
HETATM   28  C   UNL     1     -13.681  14.956  70.874  1.00  0.00    -0.266 C  
HETATM   29  C   UNL     1     -12.865  15.153  73.233  1.00  0.00    -0.640 C  
ENDBRANCH  26  27
ENDBRANCH  24  26
ENDBRANCH  23  24
ENDBRANCH  22  23
ENDBRANCH  19  22
BRANCH  21  30
HETATM   30  C   UNL     1     -11.636  15.162  66.052  1.00  0.00    -0.080 C  
BRANCH  30  31
HETATM   31  O   UNL     1     -11.243  16.438  66.550  1.00  0.00     0.076 OA 
BRANCH  31  32
HETATM   32  C   UNL     1     -10.897  17.323  65.587  1.00  0.00    -0.029 C  
HETATM   33  O   UNL     1     -11.090  17.185  64.386  1.00  0.00    -1.100 OA 
BRANCH  32  34
HETATM   34  O   UNL     1     -10.360  18.413  66.190  1.00  0.00    -0.406 OA 
BRANCH  34  35
HETATM   35  C   UNL     1      -8.973  18.314  66.572  1.00  0.00    -0.274 C  
HETATM   36  C   UNL     1      -8.254  19.534  66.004  1.00  0.00    -0.280 C  
HETATM   37  C   UNL     1      -8.356  17.037  66.011  1.00  0.00    -0.180 C  
ENDBRANCH  34  35
ENDBRANCH  32  34
ENDBRANCH  31  32
ENDBRANCH  30  31
ENDBRANCH  21  30
ENDBRANCH  16  17
ENDBRANCH   1  16
TORSDOF 14
ENDMDL
MODEL      351
REMARK 921   NORMALIZED FREE ENERGY PREDICTED BY IDOCK:   -1.69 KCAL/MOL
REMARK 922        TOTAL FREE ENERGY PREDICTED BY IDOCK:   -4.92 KCAL/MOL
REMARK 923 INTER-LIGAND FREE ENERGY PREDICTED BY IDOCK:   -4.59 KCAL/MOL
REMARK 924 INTRA-LIGAND FREE ENERGY PREDICTED BY IDOCK:   -0.33 KCAL/MOL
REMARK 927      BINDING AFFINITY PREDICTED BY RF-SCORE:    0.00 PKD
ROOT
HETATM    1  C   UNL     1     -10.086   8.396  67.606  1.00  0.00    -0.209 C  
HETATM    2  C   UNL     1     -10.054   9.040  66.221  1.00  0.00    -0.311 C  
ENDROOT
BRANCH   1   3
HETATM    3  C   UNL     1      -9.966   9.394  68.750  1.00  0.00    -0.179 C  
BRANCH   3   4
HETATM    4  N   UNL     1     -11.138   9.564  69.566  1.00  0.00    -0.191 NA 
HETATM    5  C   UNL     1     -11.319   8.895  70.737  1.00  0.00    -0.278 A  
HETATM    6  N   UNL     1     -12.142   7.925  73.070  1.00  0.00    -0.067 NA 
HETATM    7  C   UNL     1     -12.147  10.478  69.445  1.00  0.00    -0.104 A  
HETATM    8  N   UNL     1     -14.033   9.333  73.153  1.00  0.00    -1.020 NA 
HETATM    9  N   UNL     1     -10.536   7.939  71.261  1.00  0.00    -0.202 NA 
HETATM   10  C   UNL     1     -12.882   8.904  72.504  1.00  0.00    -0.334 A  
HETATM   11  N   UNL     1     -12.995  10.404  70.446  1.00  0.00    -0.232 NA 
HETATM   12  C   UNL     1     -11.022   7.514  72.435  1.00  0.00    -0.286 A  
HETATM   13  C   UNL     1     -12.473   9.431  71.273  1.00  0.00    -0.335 A  
HETATM   14  H1  UNL     1     -14.331   8.949  74.049  1.00  0.00     0.000 HD 
HETATM   15  H2  UNL     1     -14.811   9.231  72.501  1.00  0.00     0.000 HD 
ENDBRANCH   3   4
ENDBRANCH   1   3
BRANCH   1  16
HETATM   16  O   UNL     1      -9.098   7.344  67.643  1.00  0.00    -0.126 OA 
BRANCH  16  17
HETATM   17  C   UNL     1      -9.136   6.473  68.800  1.00  0.00    -0.126 C  
HETATM   18  O   UNL     1     -11.016   5.028  68.466  1.00  0.00     0.332 OA 
HETATM   19  O   UNL     1      -8.983   4.914  66.819  1.00  0.00    -0.110 OA 
HETATM   20  P   UNL     1      -9.517   4.736  68.368  1.00  0.00    -0.149 P  
HETATM   21  O   UNL     1      -9.877   3.094  67.961  1.00  0.00    -0.048 OA 
BRANCH  19  22
HETATM   22  C   UNL     1      -7.652   4.578  66.493  1.00  0.00    -0.090 C  
BRANCH  22  23
HETATM   23  O   UNL     1      -7.539   3.224  66.037  1.00  0.00    -0.076 OA 
BRANCH  23  24
HETATM   24  C   UNL     1      -8.203   2.972  64.881  1.00  0.00    -0.087 C  
HETATM   25  O   UNL     1      -8.284   1.884  64.328  1.00  0.00    -0.073 OA 
BRANCH  24  26
HETATM   26  O   UNL     1      -8.751   4.128  64.420  1.00  0.00    -0.119 OA 
BRANCH  26  27
HETATM   27  C   UNL     1     -10.015   3.980  63.735  1.00  0.00    -0.144 C  
HETATM   28  C   UNL     1     -11.140   4.399  64.674  1.00  0.00     0.123 C  
HETATM   29  C   UNL     1     -10.014   4.853  62.484  1.00  0.00     0.323 C  
ENDBRANCH  26  27
ENDBRANCH  24  26
ENDBRANCH  23  24
ENDBRANCH  22  23
ENDBRANCH  19  22
BRANCH  21  30
HETATM   30  C   UNL     1      -9.539   2.190  68.991  1.00  0.00     0.005 C  
BRANCH  30  31
HETATM   31  O   UNL     1      -8.651   2.778  69.937  1.00  0.00    -0.052 OA 
BRANCH  31  32
HETATM   32  C   UNL     1      -8.933   2.470  71.224  1.00  0.00    -0.082 C  
HETATM   33  O   UNL     1     -10.051   2.419  71.718  1.00  0.00    -0.161 OA 
BRANCH  32  34
HETATM   34  O   UNL     1      -7.768   2.169  71.850  1.00  0.00    -0.043 OA 
BRANCH  34  35
HETATM   35  C   UNL     1      -7.784   2.218  73.290  1.00  0.00    -0.042 C  
HETATM   36  C   UNL     1      -8.276   3.604  73.696  1.00  0.00    -0.083 C  
HETATM   37  C   UNL     1      -6.385   1.977  73.848  1.00  0.00    -0.012 C  
ENDBRANCH  34  35
ENDBRANCH  32  34
ENDBRANCH  31  32
ENDBRANCH  30  31
ENDBRANCH  21  30
ENDBRANCH  16  17
ENDBRANCH   1  16
TORSDOF 14
ENDMDL
MODEL      352
REMARK 921   NORMALIZED FREE ENERGY PREDICTED BY IDOCK:   -1.56 KCAL/MOL
REMARK 922        TOTAL FREE ENERGY PREDICTED BY IDOCK:   -4.68 KCAL/MOL
REMARK 923 INTER-LIGAND FREE ENERGY PREDICTED BY IDOCK:   -6.47 KCAL/MOL
REMARK 924 INTRA-LIGAND FREE ENERGY PREDICTED BY IDOCK:    1.79 KCAL/MOL
REMARK 927      BINDING AFFINITY PREDICTED BY RF-SCORE:    0.00 PKD
ROOT
HETATM    1  C   UNL     1     -10.020  13.215  65.636  1.00  0.00    -0.227 C  
HETATM    2  C   UNL     1     -10.890  13.106  64.385  1.00  0.00    -0.417 C  
ENDROOT
BRANCH   1   3
HETATM    3  C   UNL     1      -9.171  11.980  65.904  1.00  0.00    -0.102 C  
BRANCH   3   4
HETATM    4  N   UNL     1      -9.762  10.975  66.746  1.00  0.00    -0.190 NA 
HETATM    5  C   UNL     1      -9.031  10.219  67.609  1.00  0.00    -0.134 A  
HETATM    6  N   UNL     1      -8.122   8.547  69.464  1.00  0.00    -0.109 NA 
HETATM    7  C   UNL     1     -11.084  10.709  66.970  1.00  0.00    -0.145 A  
HETATM    8  N   UNL     1     -10.282   7.813  70.066  1.00  0.00    -0.206 NA 
HETATM    9  N   UNL     1      -7.696  10.201  67.750  1.00  0.00    -0.090 NA 
HETATM   10  C   UNL     1      -9.461   8.621  69.290  1.00  0.00    -0.158 A  
HETATM   11  N   UNL     1     -11.246   9.789  67.894  1.00  0.00    -0.096 NA 
HETATM   12  C   UNL     1      -7.329   9.337  68.707  1.00  0.00    -0.075 A  
HETATM   13  C   UNL     1      -9.967   9.491  68.318  1.00  0.00    -0.161 A  
HETATM   14  H1  UNL     1      -9.914   7.179  70.775  1.00  0.00     0.000 HD 
HETATM   15  H2  UNL     1     -10.862   7.263  69.433  1.00  0.00     0.000 HD 
ENDBRANCH   3   4
ENDBRANCH   1   3
BRANCH   1  16
HETATM   16  O   UNL     1     -10.861  13.597  66.746  1.00  0.00    -0.287 OA 
BRANCH  16  17
HETATM   17  C   UNL     1     -10.179  13.936  67.978  1.00  0.00    -0.246 C  
HETATM   18  O   UNL     1      -7.891  14.309  67.376  1.00  0.00    -0.181 OA 
HETATM   19  O   UNL     1      -9.755  15.895  66.444  1.00  0.00    -0.250 OA 
HETATM   20  P   UNL     1      -8.983  15.305  67.775  1.00  0.00    -0.183 P  
HETATM   21  O   UNL     1      -7.852  16.600  67.583  1.00  0.00    -0.167 OA 
BRANCH  19  22
HETATM   22  C   UNL     1     -10.718  16.917  66.586  1.00  0.00    -0.094 C  
BRANCH  22  23
HETATM   23  O   UNL     1     -10.574  17.932  65.586  1.00  0.00    -0.587 OA 
BRANCH  23  24
HETATM   24  C   UNL     1     -10.044  19.092  66.047  1.00  0.00    -0.373 C  
HETATM   25  O   UNL     1     -10.504  19.778  66.951  1.00  0.00    -0.430 OA 
BRANCH  24  26
HETATM   26  O   UNL     1      -8.926  19.388  65.332  1.00  0.00    -0.015 OA 
BRANCH  26  27
HETATM   27  C   UNL     1      -7.757  19.706  66.118  1.00  0.00    -0.321 C  
HETATM   28  C   UNL     1      -6.788  18.531  66.066  1.00  0.00    -0.303 C  
HETATM   29  C   UNL     1      -7.098  20.962  65.556  1.00  0.00     0.137 C  
ENDBRANCH  26  27
ENDBRANCH  24  26
ENDBRANCH  23  24
ENDBRANCH  22  23
ENDBRANCH  19  22
BRANCH  21  30
HETATM   30  C   UNL     1      -7.481  17.187  68.813  1.00  0.00    -0.250 C  
BRANCH  30  31
HETATM   31  O   UNL     1      -6.124  16.908  69.141  1.00  0.00    -0.162 OA 
BRANCH  31  32
HETATM   32  C   UNL     1      -5.775  17.266  70.398  1.00  0.00    -0.119 C  
HETATM   33  O   UNL     1      -5.937  18.373  70.897  1.00  0.00     0.067 OA 
BRANCH  32  34
HETATM   34  O   UNL     1      -5.274  16.173  71.025  1.00  0.00    -0.169 OA 
BRANCH  34  35
HETATM   35  C   UNL     1      -5.800  14.898  70.606  1.00  0.00    -0.126 C  
HETATM   36  C   UNL     1      -5.511  13.895  71.719  1.00  0.00    -0.226 C  
HETATM   37  C   UNL     1      -5.133  14.446  69.311  1.00  0.00    -0.079 C  
ENDBRANCH  34  35
ENDBRANCH  32  34
ENDBRANCH  31  32
ENDBRANCH  30  31
ENDBRANCH  21  30
ENDBRANCH  16  17
ENDBRANCH   1  16
TORSDOF 14
ENDMDL
MODEL      353
REMARK 921   NORMALIZED FREE ENERGY PREDICTED BY IDOCK:   -1.38 KCAL/MOL
REMARK 922        TOTAL FREE ENERGY PREDICTED BY IDOCK:   -4.35 KCAL/MOL
REMARK 923 INTER-LIGAND FREE ENERGY PREDICTED BY IDOCK:   -3.62 KCAL/MOL
REMARK 924 INTRA-LIGAND FREE ENERGY PREDICTED BY IDOCK:   -0.73 KCAL/MOL
REMARK 927      BINDING AFFINITY PREDICTED BY RF-SCORE:    0.00 PKD
ROOT
HETATM    1  C   UNL     1      -7.909   8.794  69.727  1.00  0.00    -0.090 C  
HETATM    2  C   UNL     1      -7.256   9.634  70.823  1.00  0.00    -0.072 C  
ENDROOT
BRANCH   1   3
HETATM    3  C   UNL     1      -6.920   7.980  68.904  1.00  0.00    -0.062 C  
BRANCH   3   4
HETATM    4  N   UNL     1      -6.983   6.553  69.068  1.00  0.00    -0.072 NA 
HETATM    5  C   UNL     1      -6.607   5.929  70.218  1.00  0.00    -0.044 A  
HETATM    6  N   UNL     1      -6.078   4.239  72.198  1.00  0.00    -0.019 NA 
HETATM    7  C   UNL     1      -7.548   5.617  68.248  1.00  0.00    -0.081 A  
HETATM    8  N   UNL     1      -6.928   2.375  71.028  1.00  0.00    -0.032 NA 
HETATM    9  N   UNL     1      -6.048   6.486  71.303  1.00  0.00    -0.039 NA 
HETATM   10  C   UNL     1      -6.660   3.737  71.086  1.00  0.00    -0.030 A  
HETATM   11  N   UNL     1      -7.513   4.417  68.782  1.00  0.00    -0.059 NA 
HETATM   12  C   UNL     1      -5.821   5.564  72.250  1.00  0.00    -0.026 A  
HETATM   13  C   UNL     1      -6.947   4.605  70.026  1.00  0.00    -0.048 A  
HETATM   14  H1  UNL     1      -6.720   1.743  71.800  1.00  0.00     0.000 HD 
HETATM   15  H2  UNL     1      -6.470   2.006  70.195  1.00  0.00     0.000 HD 
ENDBRANCH   3   4
ENDBRANCH   1   3
BRANCH   1  16
HETATM   16  O   UNL     1      -8.758   9.655  68.937  1.00  0.00    -0.124 OA 
BRANCH  16  17
HETATM   17  C   UNL     1      -8.791  11.050  69.323  1.00  0.00     0.109 C  
HETATM   18  O   UNL     1      -6.635  11.932  68.770  1.00  0.00    -0.068 OA 
HETATM   19  O   UNL     1      -8.213  11.073  66.866  1.00  0.00    -0.129 OA 
HETATM   20  P   UNL     1      -7.992  12.147  68.096  1.00  0.00    -0.164 P  
HETATM   21  O   UNL     1      -7.236  13.184  66.936  1.00  0.00     0.143 OA 
BRANCH  19  22
HETATM   22  C   UNL     1      -9.353  11.178  66.040  1.00  0.00    -0.206 C  
BRANCH  22  23
HETATM   23  O   UNL     1      -9.415  10.119  65.077  1.00  0.00    -0.225 OA 
BRANCH  23  24
HETATM   24  C   UNL     1      -8.202   9.681  64.656  1.00  0.00    -0.149 C  
HETATM   25  O   UNL     1      -7.384  10.340  64.029  1.00  0.00    -0.133 OA 
BRANCH  24  26
HETATM   26  O   UNL     1      -8.043   8.382  65.025  1.00  0.00    -0.130 OA 
BRANCH  26  27
HETATM   27  C   UNL     1      -7.170   7.603  64.179  1.00  0.00    -0.080 C  
HETATM   28  C   UNL     1      -6.226   6.787  65.056  1.00  0.00    -0.039 C  
HETATM   29  C   UNL     1      -8.009   6.680  63.302  1.00  0.00    -0.076 C  
ENDBRANCH  26  27
ENDBRANCH  24  26
ENDBRANCH  23  24
ENDBRANCH  22  23
ENDBRANCH  19  22
BRANCH  21  30
HETATM   30  C   UNL     1      -7.597  14.539  67.099  1.00  0.00    -0.012 C  
BRANCH  30  31
HETATM   31  O   UNL     1      -8.857  14.674  67.749  1.00  0.00    -0.167 OA 
BRANCH  31  32
HETATM   32  C   UNL     1      -8.999  15.825  68.446  1.00  0.00    -0.187 C  
HETATM   33  O   UNL     1      -9.799  16.017  69.352  1.00  0.00    -0.242 OA 
BRANCH  32  34
HETATM   34  O   UNL     1      -8.063  16.702  68.006  1.00  0.00    -0.173 OA 
BRANCH  34  35
HETATM   35  C   UNL     1      -8.554  17.935  67.446  1.00  0.00    -0.239 C  
HETATM   36  C   UNL     1      -9.103  18.775  68.596  1.00  0.00    -0.366 C  
HETATM   37  C   UNL     1      -9.659  17.658  66.432  1.00  0.00    -0.285 C  
ENDBRANCH  34  35
ENDBRANCH  32  34
ENDBRANCH  31  32
ENDBRANCH  30  31
ENDBRANCH  21  30
ENDBRANCH  16  17
ENDBRANCH   1  16
TORSDOF 14
ENDMDL
MODEL      354
REMARK 921   NORMALIZED FREE ENERGY PREDICTED BY IDOCK:   -1.07 KCAL/MOL
REMARK 922        TOTAL FREE ENERGY PREDICTED BY IDOCK:   -3.80 KCAL/MOL
REMARK 923 INTER-LIGAND FREE ENERGY PREDICTED BY IDOCK:   -4.56 KCAL/MOL
REMARK 924 INTRA-LIGAND FREE ENERGY PREDICTED BY IDOCK:    0.76 KCAL/MOL
REMARK 927      BINDING AFFINITY PREDICTED BY RF-SCORE:    0.00 PKD
ROOT
HETATM    1  C   UNL     1      -9.992  13.249  65.241  1.00  0.00    -0.173 C  
HETATM    2  C   UNL     1     -10.954  13.254  64.055  1.00  0.00    -0.317 C  
ENDROOT
BRANCH   1   3
HETATM    3  C   UNL     1      -9.784  11.872  65.858  1.00  0.00    -0.238 C  
BRANCH   3   4
HETATM    4  N   UNL     1     -10.658  11.527  66.946  1.00  0.00    -0.235 NA 
HETATM    5  C   UNL     1     -10.211  10.926  68.083  1.00  0.00    -0.176 A  
HETATM    6  N   UNL     1      -9.884   9.835  70.483  1.00  0.00    -0.230 NA 
HETATM    7  C   UNL     1     -11.971  11.856  67.134  1.00  0.00     0.032 A  
HETATM    8  N   UNL     1     -12.128  10.200  71.115  1.00  0.00    -0.358 NA 
HETATM    9  N   UNL     1      -8.971  10.482  68.338  1.00  0.00    -0.135 NA 
HETATM   10  C   UNL     1     -11.109  10.318  70.177  1.00  0.00    -0.319 A  
HETATM   11  N   UNL     1     -12.410  11.458  68.306  1.00  0.00    -0.331 NA 
HETATM   12  C   UNL     1      -8.897   9.953  69.568  1.00  0.00    -0.197 A  
HETATM   13  C   UNL     1     -11.310  10.895  68.918  1.00  0.00    -0.288 A  
HETATM   14  H1  UNL     1     -11.981   9.779  72.032  1.00  0.00     0.000 HD 
HETATM   15  H2  UNL     1     -12.901   9.706  70.670  1.00  0.00     0.000 HD 
ENDBRANCH   3   4
ENDBRANCH   1   3
BRANCH   1  16
HETATM   16  O   UNL     1     -10.425  14.252  66.185  1.00  0.00    -0.279 OA 
BRANCH  16  17
HETATM   17  C   UNL     1      -9.658  14.349  67.411  1.00  0.00    -0.216 C  
HETATM   18  O   UNL     1      -7.358  14.306  66.747  1.00  0.00     0.257 OA 
HETATM   19  O   UNL     1      -8.886  16.300  66.006  1.00  0.00    -0.333 OA 
HETATM   20  P   UNL     1      -8.216  15.465  67.259  1.00  0.00    -0.229 P  
HETATM   21  O   UNL     1      -6.852  16.520  67.117  1.00  0.00    -0.157 OA 
BRANCH  19  22
HETATM   22  C   UNL     1      -9.619  17.479  66.261  1.00  0.00    -0.237 C  
BRANCH  22  23
HETATM   23  O   UNL     1      -9.313  18.514  65.320  1.00  0.00     0.556 OA 
BRANCH  23  24
HETATM   24  C   UNL     1      -8.296  19.327  65.704  1.00  0.00     0.369 C  
HETATM   25  O   UNL     1      -8.294  20.047  66.693  1.00  0.00    -0.309 OA 
BRANCH  24  26
HETATM   26  O   UNL     1      -7.284  19.232  64.801  1.00  0.00    -0.083 OA 
BRANCH  26  27
HETATM   27  C   UNL     1      -5.953  19.340  65.354  1.00  0.00    -0.220 C  
HETATM   28  C   UNL     1      -5.143  18.116  64.941  1.00  0.00    -0.084 C  
HETATM   29  C   UNL     1      -5.294  20.613  64.835  1.00  0.00    -0.219 C  
ENDBRANCH  26  27
ENDBRANCH  24  26
ENDBRANCH  23  24
ENDBRANCH  22  23
ENDBRANCH  19  22
BRANCH  21  30
HETATM   30  C   UNL     1      -6.341  16.923  68.370  1.00  0.00    -0.140 C  
BRANCH  30  31
HETATM   31  O   UNL     1      -7.352  17.500  69.190  1.00  0.00    -0.224 OA 
BRANCH  31  32
HETATM   32  C   UNL     1      -7.169  18.815  69.449  1.00  0.00    -0.062 C  
HETATM   33  O   UNL     1      -6.100  19.410  69.403  1.00  0.00    -0.255 OA 
BRANCH  32  34
HETATM   34  O   UNL     1      -8.381  19.367  69.706  1.00  0.00     0.236 OA 
BRANCH  34  35
HETATM   35  C   UNL     1      -9.500  18.818  68.983  1.00  0.00    -0.217 C  
HETATM   36  C   UNL     1     -10.476  19.960  68.714  1.00  0.00    -0.203 C  
HETATM   37  C   UNL     1     -10.185  17.731  69.806  1.00  0.00     0.458 C  
ENDBRANCH  34  35
ENDBRANCH  32  34
ENDBRANCH  31  32
ENDBRANCH  30  31
ENDBRANCH  21  30
ENDBRANCH  16  17
ENDBRANCH   1  16
TORSDOF 14
ENDMDL
MODEL      355
REMARK 921   NORMALIZED FREE ENERGY PREDICTED BY IDOCK:   -0.98 KCAL/MOL
REMARK 922        TOTAL FREE ENERGY PREDICTED BY IDOCK:   -3.62 KCAL/MOL
REMARK 923 INTER-LIGAND FREE ENERGY PREDICTED BY IDOCK:   -4.12 KCAL/MOL
REMARK 924 INTRA-LIGAND FREE ENERGY PREDICTED BY IDOCK:    0.50 KCAL/MOL
REMARK 927      BINDING AFFINITY PREDICTED BY RF-SCORE:    0.00 PKD
ROOT
HETATM    1  C   UNL     1      -7.470   7.302  68.079  1.00  0.00    -0.102 C  
HETATM    2  C   UNL     1      -6.435   6.239  67.716  1.00  0.00    -0.049 C  
ENDROOT
BRANCH   1   3
HETATM    3  C   UNL     1      -7.000   8.729  67.828  1.00  0.00    -0.075 C  
BRANCH   3   4
HETATM    4  N   UNL     1      -6.835   9.108  66.451  1.00  0.00    -0.078 NA 
HETATM    5  C   UNL     1      -7.745   9.872  65.787  1.00  0.00    -0.112 A  
HETATM    6  N   UNL     1      -9.126  11.353  64.067  1.00  0.00     0.017 NA 
HETATM    7  C   UNL     1      -5.749   8.947  65.637  1.00  0.00    -0.050 A  
HETATM    8  N   UNL     1      -7.461  11.229  62.400  1.00  0.00    -0.422 NA 
HETATM    9  N   UNL     1      -8.935  10.300  66.236  1.00  0.00    -0.150 NA 
HETATM   10  C   UNL     1      -7.911  10.910  63.675  1.00  0.00     0.354 A  
HETATM   11  N   UNL     1      -5.925   9.522  64.469  1.00  0.00    -0.076 NA 
HETATM   12  C   UNL     1      -9.557  11.041  65.308  1.00  0.00    -0.227 A  
HETATM   13  C   UNL     1      -7.162  10.124  64.560  1.00  0.00    -0.119 A  
HETATM   14  H1  UNL     1      -8.005  11.801  61.755  1.00  0.00     0.000 HD 
HETATM   15  H2  UNL     1      -7.238  10.355  61.924  1.00  0.00     0.000 HD 
ENDBRANCH   3   4
ENDBRANCH   1   3
BRANCH   1  16
HETATM   16  O   UNL     1      -7.916   7.064  69.432  1.00  0.00    -0.114 OA 
BRANCH  16  17
HETATM   17  C   UNL     1      -8.246   8.238  70.212  1.00  0.00    -0.121 C  
HETATM   18  O   UNL     1      -9.311   9.753  68.694  1.00  0.00    -0.142 OA 
HETATM   19  O   UNL     1     -10.447   7.460  69.251  1.00  0.00    -0.213 OA 
HETATM   20  P   UNL     1      -9.904   8.907  69.823  1.00  0.00    -0.197 P  
HETATM   21  O   UNL     1     -11.471   9.540  69.455  1.00  0.00    -0.069 OA 
BRANCH  19  22
HETATM   22  C   UNL     1     -11.136   6.579  70.111  1.00  0.00    -0.351 C  
BRANCH  22  23
HETATM   23  O   UNL     1     -10.555   5.270  70.114  1.00  0.00    -0.290 OA 
BRANCH  23  24
HETATM   24  C   UNL     1     -10.384   4.743  71.352  1.00  0.00    -0.122 C  
HETATM   25  O   UNL     1     -11.162   4.858  72.290  1.00  0.00    -0.070 OA 
BRANCH  24  26
HETATM   26  O   UNL     1      -9.198   4.080  71.396  1.00  0.00    -0.114 OA 
BRANCH  26  27
HETATM   27  C   UNL     1      -8.889   3.451  72.660  1.00  0.00    -0.085 C  
HETATM   28  C   UNL     1      -7.909   2.308  72.419  1.00  0.00    -0.053 C  
HETATM   29  C   UNL     1      -8.279   4.485  73.601  1.00  0.00    -0.101 C  
ENDBRANCH  26  27
ENDBRANCH  24  26
ENDBRANCH  23  24
ENDBRANCH  22  23
ENDBRANCH  19  22
BRANCH  21  30
HETATM   30  C   UNL     1     -11.953  10.416  70.451  1.00  0.00    -0.320 C  
BRANCH  30  31
HETATM   31  O   UNL     1     -11.273  11.666  70.427  1.00  0.00     0.065 OA 
BRANCH  31  32
HETATM   32  C   UNL     1     -11.595  12.451  69.373  1.00  0.00    -0.307 C  
HETATM   33  O   UNL     1     -12.727  12.797  69.060  1.00  0.00     0.503 OA 
BRANCH  32  34
HETATM   34  O   UNL     1     -10.445  12.832  68.764  1.00  0.00    -0.228 OA 
BRANCH  34  35
HETATM   35  C   UNL     1     -10.447  14.138  68.154  1.00  0.00    -0.244 C  
HETATM   36  C   UNL     1     -10.627  13.941  66.651  1.00  0.00    -0.274 C  
HETATM   37  C   UNL     1      -9.131  14.858  68.431  1.00  0.00    -0.185 C  
ENDBRANCH  34  35
ENDBRANCH  32  34
ENDBRANCH  31  32
ENDBRANCH  30  31
ENDBRANCH  21  30
ENDBRANCH  16  17
ENDBRANCH   1  16
TORSDOF 14
ENDMDL
MODEL      356
REMARK 921   NORMALIZED FREE ENERGY PREDICTED BY IDOCK:   -0.59 KCAL/MOL
REMARK 922        TOTAL FREE ENERGY PREDICTED BY IDOCK:   -2.91 KCAL/MOL
REMARK 923 INTER-LIGAND FREE ENERGY PREDICTED BY IDOCK:   -4.21 KCAL/MOL
REMARK 924 INTRA-LIGAND FREE ENERGY PREDICTED BY IDOCK:    1.30 KCAL/MOL
REMARK 927      BINDING AFFINITY PREDICTED BY RF-SCORE:    0.00 PKD
ROOT
HETATM    1  C   UNL     1      -8.111   8.672  71.491  1.00  0.00    -0.142 C  
HETATM    2  C   UNL     1      -8.169   8.537  73.011  1.00  0.00    -0.096 C  
ENDROOT
BRANCH   1   3
HETATM    3  C   UNL     1      -9.465   8.531  70.809  1.00  0.00    -0.178 C  
BRANCH   3   4
HETATM    4  N   UNL     1      -9.702   9.397  69.686  1.00  0.00    -0.179 NA 
HETATM    5  C   UNL     1      -8.773  10.284  69.235  1.00  0.00    -0.174 A  
HETATM    6  N   UNL     1      -7.341  12.101  67.928  1.00  0.00    -0.098 NA 
HETATM    7  C   UNL     1     -10.743   9.395  68.801  1.00  0.00    -0.171 A  
HETATM    8  N   UNL     1      -8.973  12.391  66.250  1.00  0.00    -0.411 NA 
HETATM    9  N   UNL     1      -7.580  10.566  69.783  1.00  0.00    -0.133 NA 
HETATM   10  C   UNL     1      -8.543  11.762  67.412  1.00  0.00    -0.160 A  
HETATM   11  N   UNL     1     -10.562  10.264  67.833  1.00  0.00    -0.220 NA 
HETATM   12  C   UNL     1      -6.927  11.485  69.058  1.00  0.00    -0.112 A  
HETATM   13  C   UNL     1      -9.320  10.810  68.082  1.00  0.00    -0.155 A  
HETATM   14  H1  UNL     1      -8.407  13.084  65.761  1.00  0.00     0.000 HD 
HETATM   15  H2  UNL     1      -9.879  12.815  66.445  1.00  0.00     0.000 HD 
ENDBRANCH   3   4
ENDBRANCH   1   3
BRANCH   1  16
HETATM   16  O   UNL     1      -7.107   7.764  70.989  1.00  0.00    -0.052 OA 
BRANCH  16  17
HETATM   17  C   UNL     1      -7.505   6.920  69.882  1.00  0.00    -0.094 C  
HETATM   18  O   UNL     1      -5.479   5.989  69.009  1.00  0.00    -0.004 OA 
HETATM   19  O   UNL     1      -6.242   5.388  71.441  1.00  0.00    -0.031 OA 
HETATM   20  P   UNL     1      -6.591   5.336  69.832  1.00  0.00    -0.045 P  
HETATM   21  O   UNL     1      -5.728   3.837  69.784  1.00  0.00    -0.016 OA 
BRANCH  19  22
HETATM   22  C   UNL     1      -7.085   4.735  72.364  1.00  0.00    -0.079 C  
BRANCH  22  23
HETATM   23  O   UNL     1      -8.367   5.369  72.460  1.00  0.00    -0.113 OA 
BRANCH  23  24
HETATM   24  C   UNL     1      -9.282   4.662  73.169  1.00  0.00    -0.118 C  
HETATM   25  O   UNL     1     -10.497   4.772  73.076  1.00  0.00    -0.178 OA 
BRANCH  24  26
HETATM   26  O   UNL     1      -8.635   3.821  74.020  1.00  0.00    -0.089 OA 
BRANCH  26  27
HETATM   27  C   UNL     1      -9.012   2.430  73.917  1.00  0.00    -0.073 C  
HETATM   28  C   UNL     1     -10.436   2.340  73.378  1.00  0.00    -0.222 C  
HETATM   29  C   UNL     1      -8.045   1.715  72.980  1.00  0.00    -0.052 C  
ENDBRANCH  26  27
ENDBRANCH  24  26
ENDBRANCH  23  24
ENDBRANCH  22  23
ENDBRANCH  19  22
BRANCH  21  30
HETATM   30  C   UNL     1      -6.360   2.869  68.974  1.00  0.00    -0.029 C  
BRANCH  30  31
HETATM   31  O   UNL     1      -6.907   3.447  67.793  1.00  0.00    -0.048 OA 
BRANCH  31  32
HETATM   32  C   UNL     1      -7.790   2.651  67.146  1.00  0.00    -0.070 C  
HETATM   33  O   UNL     1      -7.599   1.485  66.826  1.00  0.00    -0.058 OA 
BRANCH  32  34
HETATM   34  O   UNL     1      -8.939   3.350  66.972  1.00  0.00    -0.131 OA 
BRANCH  34  35
HETATM   35  C   UNL     1      -9.269   3.711  65.617  1.00  0.00    -0.156 C  
HETATM   36  C   UNL     1      -8.143   4.597  65.091  1.00  0.00    -0.104 C  
HETATM   37  C   UNL     1     -10.592   4.469  65.574  1.00  0.00    -0.218 C  
ENDBRANCH  34  35
ENDBRANCH  32  34
ENDBRANCH  31  32
ENDBRANCH  30  31
ENDBRANCH  21  30
ENDBRANCH  16  17
ENDBRANCH   1  16
TORSDOF 14
ENDMDL
MODEL      357
REMARK 921   NORMALIZED FREE ENERGY PREDICTED BY IDOCK:   -0.20 KCAL/MOL
REMARK 922        TOTAL FREE ENERGY PREDICTED BY IDOCK:   -2.20 KCAL/MOL
REMARK 923 INTER-LIGAND FREE ENERGY PREDICTED BY IDOCK:   -4.53 KCAL/MOL
REMARK 924 INTRA-LIGAND FREE ENERGY PREDICTED BY IDOCK:    2.33 KCAL/MOL
REMARK 927      BINDING AFFINITY PREDICTED BY RF-SCORE:    0.00 PKD
ROOT
HETATM    1  C   UNL     1      -8.095  13.076  66.839  1.00  0.00     0.061 C  
HETATM    2  C   UNL     1      -6.896  12.179  67.141  1.00  0.00    -0.119 C  
ENDROOT
BRANCH   1   3
HETATM    3  C   UNL     1      -8.535  13.932  68.019  1.00  0.00    -0.173 C  
BRANCH   3   4
HETATM    4  N   UNL     1      -7.517  14.750  68.622  1.00  0.00    -0.119 NA 
HETATM    5  C   UNL     1      -7.411  16.085  68.379  1.00  0.00    -0.131 A  
HETATM    6  N   UNL     1      -6.793  18.669  68.315  1.00  0.00    -0.236 NA 
HETATM    7  C   UNL     1      -6.630  14.431  69.611  1.00  0.00    -0.147 A  
HETATM    8  N   UNL     1      -5.131  18.461  69.977  1.00  0.00    -0.195 NA 
HETATM    9  N   UNL     1      -8.126  16.817  67.511  1.00  0.00    -0.170 NA 
HETATM   10  C   UNL     1      -6.118  17.885  69.186  1.00  0.00    -0.225 A  
HETATM   11  N   UNL     1      -5.924  15.473  69.987  1.00  0.00    -0.144 NA 
HETATM   12  C   UNL     1      -7.752  18.104  67.550  1.00  0.00    -0.218 A  
HETATM   13  C   UNL     1      -6.421  16.520  69.238  1.00  0.00    -0.201 A  
HETATM   14  H1  UNL     1      -4.911  19.455  69.939  1.00  0.00     0.000 HD 
HETATM   15  H2  UNL     1      -4.266  17.947  69.813  1.00  0.00     0.000 HD 
ENDBRANCH   3   4
ENDBRANCH   1   3
BRANCH   1  16
HETATM   16  O   UNL     1      -9.148  12.259  66.285  1.00  0.00    -0.206 OA 
BRANCH  16  17
HETATM   17  C   UNL     1      -9.234  10.901  66.783  1.00  0.00    -0.158 C  
HETATM   18  O   UNL     1      -8.181  10.928  68.933  1.00  0.00    -0.140 OA 
HETATM   19  O   UNL     1     -10.371  12.310  68.543  1.00  0.00    -0.226 OA 
HETATM   20  P   UNL     1      -9.661  10.823  68.560  1.00  0.00    -0.195 P  
HETATM   21  O   UNL     1     -10.065  10.748  70.241  1.00  0.00     0.304 OA 
BRANCH  19  22
HETATM   22  C   UNL     1     -11.762  12.421  68.336  1.00  0.00    -0.336 C  
BRANCH  22  23
HETATM   23  O   UNL     1     -12.152  13.765  68.028  1.00  0.00    -0.362 OA 
BRANCH  23  24
HETATM   24  C   UNL     1     -12.490  14.506  69.113  1.00  0.00     0.010 C  
HETATM   25  O   UNL     1     -12.752  14.065  70.224  1.00  0.00    -0.318 OA 
BRANCH  24  26
HETATM   26  O   UNL     1     -12.511  15.820  68.767  1.00  0.00     0.074 OA 
BRANCH  26  27
HETATM   27  C   UNL     1     -11.246  16.363  68.329  1.00  0.00    -0.300 C  
HETATM   28  C   UNL     1     -11.499  17.386  67.226  1.00  0.00     0.833 C  
HETATM   29  C   UNL     1     -10.544  17.023  69.512  1.00  0.00    -0.168 C  
ENDBRANCH  26  27
ENDBRANCH  24  26
ENDBRANCH  23  24
ENDBRANCH  22  23
ENDBRANCH  19  22
BRANCH  21  30
HETATM   30  C   UNL     1     -10.526   9.473  70.634  1.00  0.00    -0.308 C  
BRANCH  30  31
HETATM   31  O   UNL     1      -9.457   8.637  71.068  1.00  0.00    -0.173 OA 
BRANCH  31  32
HETATM   32  C   UNL     1      -9.347   8.533  72.412  1.00  0.00    -0.278 C  
HETATM   33  O   UNL     1     -10.137   7.961  73.152  1.00  0.00    -0.297 OA 
BRANCH  32  34
HETATM   34  O   UNL     1      -8.182   9.119  72.786  1.00  0.00    -0.062 OA 
BRANCH  34  35
HETATM   35  C   UNL     1      -6.985   8.339  72.599  1.00  0.00    -0.096 C  
HETATM   36  C   UNL     1      -5.942   8.856  73.585  1.00  0.00    -0.064 C  
HETATM   37  C   UNL     1      -6.470   8.486  71.171  1.00  0.00    -0.049 C  
ENDBRANCH  34  35
ENDBRANCH  32  34
ENDBRANCH  31  32
ENDBRANCH  30  31
ENDBRANCH  21  30
ENDBRANCH  16  17
ENDBRANCH   1  16
TORSDOF 14
ENDMDL
MODEL      358
REMARK 921   NORMALIZED FREE ENERGY PREDICTED BY IDOCK:   -0.03 KCAL/MOL
REMARK 922        TOTAL FREE ENERGY PREDICTED BY IDOCK:   -1.90 KCAL/MOL
REMARK 923 INTER-LIGAND FREE ENERGY PREDICTED BY IDOCK:   -3.50 KCAL/MOL
REMARK 924 INTRA-LIGAND FREE ENERGY PREDICTED BY IDOCK:    1.60 KCAL/MOL
REMARK 927      BINDING AFFINITY PREDICTED BY RF-SCORE:    0.00 PKD
ROOT
HETATM    1  C   UNL     1      -9.189   8.399  69.253  1.00  0.00    -0.154 C  
HETATM    2  C   UNL     1      -8.432   8.852  70.500  1.00  0.00    -0.198 C  
ENDROOT
BRANCH   1   3
HETATM    3  C   UNL     1      -8.499   7.277  68.489  1.00  0.00    -0.125 C  
BRANCH   3   4
HETATM    4  N   UNL     1      -8.759   7.220  67.076  1.00  0.00    -0.121 NA 
HETATM    5  C   UNL     1      -7.925   6.594  66.202  1.00  0.00    -0.110 A  
HETATM    6  N   UNL     1      -6.714   5.489  64.111  1.00  0.00    -0.041 NA 
HETATM    7  C   UNL     1      -9.880   7.595  66.391  1.00  0.00    -0.104 A  
HETATM    8  N   UNL     1      -8.463   6.037  62.625  1.00  0.00    -0.296 NA 
HETATM    9  N   UNL     1      -6.732   6.037  66.467  1.00  0.00    -0.058 NA 
HETATM   10  C   UNL     1      -7.927   6.049  63.907  1.00  0.00    -0.114 A  
HETATM   11  N   UNL     1      -9.798   7.289  65.116  1.00  0.00     1.757 NA 
HETATM   12  C   UNL     1      -6.199   5.502  65.360  1.00  0.00    -0.034 A  
HETATM   13  C   UNL     1      -8.586   6.641  64.991  1.00  0.00     0.086 A  
HETATM   14  H1  UNL     1      -7.983   5.606  61.836  1.00  0.00     0.000 HD 
HETATM   15  H2  UNL     1      -8.671   7.002  62.369  1.00  0.00     0.000 HD 
ENDBRANCH   3   4
ENDBRANCH   1   3
BRANCH   1  16
HETATM   16  O   UNL     1      -9.479   9.561  68.447  1.00  0.00    -0.137 OA 
BRANCH  16  17
HETATM   17  C   UNL     1      -9.201  10.847  69.055  1.00  0.00    -0.115 C  
HETATM   18  O   UNL     1      -6.954  11.391  68.430  1.00  0.00    -0.067 OA 
HETATM   19  O   UNL     1      -8.804  11.198  66.586  1.00  0.00    -0.156 OA 
HETATM   20  P   UNL     1      -8.283  11.974  67.943  1.00  0.00    -0.174 P  
HETATM   21  O   UNL     1      -7.415  13.040  66.893  1.00  0.00     0.049 OA 
BRANCH  19  22
HETATM   22  C   UNL     1      -9.953  11.661  65.911  1.00  0.00    -0.231 C  
BRANCH  22  23
HETATM   23  O   UNL     1     -10.309  10.810  64.814  1.00  0.00    -0.321 OA 
BRANCH  23  24
HETATM   24  C   UNL     1     -10.339  11.439  63.613  1.00  0.00    -0.410 C  
HETATM   25  O   UNL     1     -11.010  12.425  63.340  1.00  0.00    -0.456 OA 
BRANCH  24  26
HETATM   26  O   UNL     1      -9.517  10.787  62.747  1.00  0.00    -0.295 OA 
BRANCH  26  27
HETATM   27  C   UNL     1      -8.787   9.675  63.310  1.00  0.00    -0.238 C  
HETATM   28  C   UNL     1      -8.907   8.477  62.373  1.00  0.00     0.025 C  
HETATM   29  C   UNL     1      -7.323  10.068  63.482  1.00  0.00    -0.138 C  
ENDBRANCH  26  27
ENDBRANCH  24  26
ENDBRANCH  23  24
ENDBRANCH  22  23
ENDBRANCH  19  22
BRANCH  21  30
HETATM   30  C   UNL     1      -7.481  14.387  67.309  1.00  0.00    -0.074 C  
BRANCH  30  31
HETATM   31  O   UNL     1      -8.826  14.821  67.478  1.00  0.00    -0.175 OA 
BRANCH  31  32
HETATM   32  C   UNL     1      -8.961  16.159  67.630  1.00  0.00    -0.191 C  
HETATM   33  O   UNL     1      -8.044  16.970  67.659  1.00  0.00    -0.177 OA 
BRANCH  32  34
HETATM   34  O   UNL     1     -10.285  16.447  67.681  1.00  0.00    -0.258 OA 
BRANCH  34  35
HETATM   35  C   UNL     1     -10.807  16.829  68.968  1.00  0.00    -0.291 C  
HETATM   36  C   UNL     1      -9.917  17.944  69.512  1.00  0.00     0.167 C  
HETATM   37  C   UNL     1     -10.794  15.640  69.924  1.00  0.00    -0.324 C  
ENDBRANCH  34  35
ENDBRANCH  32  34
ENDBRANCH  31  32
ENDBRANCH  30  31
ENDBRANCH  21  30
ENDBRANCH  16  17
ENDBRANCH   1  16
TORSDOF 14
ENDMDL
MODEL      359
REMARK 921   NORMALIZED FREE ENERGY PREDICTED BY IDOCK:    0.40 KCAL/MOL
REMARK 922        TOTAL FREE ENERGY PREDICTED BY IDOCK:   -1.11 KCAL/MOL
REMARK 923 INTER-LIGAND FREE ENERGY PREDICTED BY IDOCK:   -4.65 KCAL/MOL
REMARK 924 INTRA-LIGAND FREE ENERGY PREDICTED BY IDOCK:    3.55 KCAL/MOL
REMARK 927      BINDING AFFINITY PREDICTED BY RF-SCORE:    0.00 PKD
ROOT
HETATM    1  C   UNL     1      -8.160   4.747  68.438  1.00  0.00    -0.084 C  
HETATM    2  C   UNL     1      -9.657   4.450  68.382  1.00  0.00    -0.203 C  
ENDROOT
BRANCH   1   3
HETATM    3  C   UNL     1      -7.588   4.761  69.850  1.00  0.00    -0.055 C  
BRANCH   3   4
HETATM    4  N   UNL     1      -8.467   5.237  70.884  1.00  0.00    -0.119 NA 
HETATM    5  C   UNL     1      -9.291   6.307  70.711  1.00  0.00    -0.158 A  
HETATM    6  N   UNL     1     -11.098   8.245  70.896  1.00  0.00    -0.256 NA 
HETATM    7  C   UNL     1      -8.767   4.667  72.089  1.00  0.00    -0.119 A  
HETATM    8  N   UNL     1     -11.825   7.561  73.034  1.00  0.00    -0.573 NA 
HETATM    9  N   UNL     1      -9.356   7.123  69.648  1.00  0.00    -0.150 NA 
HETATM   10  C   UNL     1     -11.000   7.380  71.930  1.00  0.00    -0.233 A  
HETATM   11  N   UNL     1      -9.702   5.335  72.725  1.00  0.00    -0.149 NA 
HETATM   12  C   UNL     1     -10.295   8.064  69.825  1.00  0.00    -0.219 A  
HETATM   13  C   UNL     1     -10.054   6.351  71.861  1.00  0.00    -0.183 A  
HETATM   14  H1  UNL     1     -12.515   8.310  73.084  1.00  0.00     0.000 HD 
HETATM   15  H2  UNL     1     -11.228   7.636  73.857  1.00  0.00     0.000 HD 
ENDBRANCH   3   4
ENDBRANCH   1   3
BRANCH   1  16
HETATM   16  O   UNL     1      -7.906   5.958  67.694  1.00  0.00    -0.096 OA 
BRANCH  16  17
HETATM   17  C   UNL     1      -6.951   6.879  68.278  1.00  0.00    -0.080 C  
HETATM   18  O   UNL     1      -5.433   7.448  66.516  1.00  0.00    -0.023 OA 
HETATM   19  O   UNL     1      -7.953   8.133  66.329  1.00  0.00    -0.096 OA 
HETATM   20  P   UNL     1      -6.542   8.275  67.169  1.00  0.00    -0.059 P  
HETATM   21  O   UNL     1      -6.155   9.596  66.121  1.00  0.00    -0.061 OA 
BRANCH  19  22
HETATM   22  C   UNL     1      -9.071   8.911  66.700  1.00  0.00    -0.156 C  
BRANCH  22  23
HETATM   23  O   UNL     1      -9.404   9.881  65.699  1.00  0.00    -0.179 OA 
BRANCH  23  24
HETATM   24  C   UNL     1     -10.534  10.584  65.964  1.00  0.00    -0.156 C  
HETATM   25  O   UNL     1     -11.479  10.730  65.201  1.00  0.00     0.405 OA 
BRANCH  24  26
HETATM   26  O   UNL     1     -10.443  11.121  67.210  1.00  0.00    -0.205 OA 
BRANCH  26  27
HETATM   27  C   UNL     1     -11.151  12.366  67.397  1.00  0.00    -0.272 C  
HETATM   28  C   UNL     1     -11.544  12.498  68.865  1.00  0.00    -0.364 C  
HETATM   29  C   UNL     1     -10.250  13.526  66.984  1.00  0.00    -0.249 C  
ENDBRANCH  26  27
ENDBRANCH  24  26
ENDBRANCH  23  24
ENDBRANCH  22  23
ENDBRANCH  19  22
BRANCH  21  30
HETATM   30  C   UNL     1      -5.553  10.675  66.803  1.00  0.00    -0.060 C  
BRANCH  30  31
HETATM   31  O   UNL     1      -5.166  10.312  68.125  1.00  0.00    -0.036 OA 
BRANCH  31  32
HETATM   32  C   UNL     1      -5.986  10.788  69.091  1.00  0.00    -0.041 C  
HETATM   33  O   UNL     1      -6.857  10.149  69.666  1.00  0.00    -0.062 OA 
BRANCH  32  34
HETATM   34  O   UNL     1      -5.632  12.071  69.350  1.00  0.00    -0.061 OA 
BRANCH  34  35
HETATM   35  C   UNL     1      -6.481  13.093  68.792  1.00  0.00    -0.095 C  
HETATM   36  C   UNL     1      -7.655  12.394  68.113  1.00  0.00    -0.129 C  
HETATM   37  C   UNL     1      -5.712  13.928  67.773  1.00  0.00    -0.079 C  
ENDBRANCH  34  35
ENDBRANCH  32  34
ENDBRANCH  31  32
ENDBRANCH  30  31
ENDBRANCH  21  30
ENDBRANCH  16  17
ENDBRANCH   1  16
TORSDOF 14
ENDMDL
MODEL      360
REMARK 921   NORMALIZED FREE ENERGY PREDICTED BY IDOCK:    0.64 KCAL/MOL
REMARK 922        TOTAL FREE ENERGY PREDICTED BY IDOCK:   -0.68 KCAL/MOL
REMARK 923 INTER-LIGAND FREE ENERGY PREDICTED BY IDOCK:   -1.72 KCAL/MOL
REMARK 924 INTRA-LIGAND FREE ENERGY PREDICTED BY IDOCK:    1.04 KCAL/MOL
REMARK 927      BINDING AFFINITY PREDICTED BY RF-SCORE:    0.00 PKD
ROOT
HETATM    1  C   UNL     1      -7.254  12.662  68.158  1.00  0.00    -0.109 C  
HETATM    2  C   UNL     1      -6.566  11.669  67.223  1.00  0.00    -0.122 C  
ENDROOT
BRANCH   1   3
HETATM    3  C   UNL     1      -8.623  12.203  68.642  1.00  0.00     0.004 C  
BRANCH   3   4
HETATM    4  N   UNL     1      -9.741  12.564  67.812  1.00  0.00    -0.196 NA 
HETATM    5  C   UNL     1     -10.072  11.874  66.687  1.00  0.00    -0.200 A  
HETATM    6  N   UNL     1     -11.179  10.877  64.486  1.00  0.00     0.148 NA 
HETATM    7  C   UNL     1     -10.726  13.483  68.045  1.00  0.00    -0.251 A  
HETATM    8  N   UNL     1     -13.005  12.370  64.555  1.00  0.00    -0.810 NA 
HETATM    9  N   UNL     1      -9.400  10.857  66.125  1.00  0.00    -0.180 NA 
HETATM   10  C   UNL     1     -11.823  11.891  65.106  1.00  0.00    -0.121 A  
HETATM   11  N   UNL     1     -11.647  13.457  67.110  1.00  0.00    -0.338 NA 
HETATM   12  C   UNL     1     -10.031  10.415  65.028  1.00  0.00    -0.330 A  
HETATM   13  C   UNL     1     -11.260  12.437  66.266  1.00  0.00    -0.317 A  
HETATM   14  H1  UNL     1     -13.415  11.972  63.710  1.00  0.00     0.000 HD 
HETATM   15  H2  UNL     1     -12.890  13.371  64.399  1.00  0.00     0.000 HD 
ENDBRANCH   3   4
ENDBRANCH   1   3
BRANCH   1  16
HETATM   16  O   UNL     1      -7.264  13.958  67.522  1.00  0.00    -0.170 OA 
BRANCH  16  17
HETATM   17  C   UNL     1      -6.292  14.916  68.009  1.00  0.00    -0.152 C  
HETATM   18  O   UNL     1      -5.710  16.271  66.122  1.00  0.00     0.448 OA 
HETATM   19  O   UNL     1      -8.159  16.318  67.047  1.00  0.00    -0.170 OA 
HETATM   20  P   UNL     1      -6.564  16.601  67.348  1.00  0.00    -0.203 P  
HETATM   21  O   UNL     1      -6.820  18.194  66.724  1.00  0.00    -0.180 OA 
BRANCH  19  22
HETATM   22  C   UNL     1      -9.128  16.669  68.011  1.00  0.00    -0.218 C  
BRANCH  22  23
HETATM   23  O   UNL     1     -10.408  16.921  67.417  1.00  0.00    -0.296 OA 
BRANCH  23  24
HETATM   24  C   UNL     1     -10.357  17.688  66.299  1.00  0.00    -0.342 C  
HETATM   25  O   UNL     1     -10.768  18.837  66.203  1.00  0.00    -0.393 OA 
BRANCH  24  26
HETATM   26  O   UNL     1      -9.793  16.972  65.290  1.00  0.00    -0.385 OA 
BRANCH  26  27
HETATM   27  C   UNL     1     -10.677  16.041  64.627  1.00  0.00    -0.042 C  
HETATM   28  C   UNL     1     -10.037  14.657  64.634  1.00  0.00     0.146 C  
HETATM   29  C   UNL     1     -12.016  16.010  65.357  1.00  0.00     0.920 C  
ENDBRANCH  26  27
ENDBRANCH  24  26
ENDBRANCH  23  24
ENDBRANCH  22  23
ENDBRANCH  19  22
BRANCH  21  30
HETATM   30  C   UNL     1      -6.150  19.186  67.471  1.00  0.00    -0.191 C  
BRANCH  30  31
HETATM   31  O   UNL     1      -5.660  18.675  68.707  1.00  0.00    -0.190 OA 
BRANCH  31  32
HETATM   32  C   UNL     1      -6.194  19.267  69.800  1.00  0.00    -0.265 C  
HETATM   33  O   UNL     1      -5.588  19.967  70.601  1.00  0.00    -0.239 OA 
BRANCH  32  34
HETATM   34  O   UNL     1      -7.524  19.001  69.817  1.00  0.00     0.109 OA 
BRANCH  34  35
HETATM   35  C   UNL     1      -8.404  20.142  69.836  1.00  0.00     1.057 C  
HETATM   36  C   UNL     1      -8.784  20.402  71.291  1.00  0.00     2.094 C  
HETATM   37  C   UNL     1      -9.657  19.863  69.013  1.00  0.00    -0.231 C  
ENDBRANCH  34  35
ENDBRANCH  32  34
ENDBRANCH  31  32
ENDBRANCH  30  31
ENDBRANCH  21  30
ENDBRANCH  16  17
ENDBRANCH   1  16
TORSDOF 14
ENDMDL
MODEL      361
REMARK 921   NORMALIZED FREE ENERGY PREDICTED BY IDOCK:    1.54 KCAL/MOL
REMARK 922        TOTAL FREE ENERGY PREDICTED BY IDOCK:    0.95 KCAL/MOL
REMARK 923 INTER-LIGAND FREE ENERGY PREDICTED BY IDOCK:    0.68 KCAL/MOL
REMARK 924 INTRA-LIGAND FREE ENERGY PREDICTED BY IDOCK:    0.28 KCAL/MOL
REMARK 927      BINDING AFFINITY PREDICTED BY RF-SCORE:    0.00 PKD
ROOT
HETATM    1  C   UNL     1      -8.233  10.543  65.370  1.00  0.00    -0.152 C  
HETATM    2  C   UNL     1      -8.812   9.719  66.518  1.00  0.00    -0.154 C  
ENDROOT
BRANCH   1   3
HETATM    3  C   UNL     1      -7.041   9.889  64.684  1.00  0.00    -0.137 C  
BRANCH   3   4
HETATM    4  N   UNL     1      -7.065   8.453  64.606  1.00  0.00    -0.079 NA 
HETATM    5  C   UNL     1      -6.446   7.659  65.522  1.00  0.00    -0.042 A  
HETATM    6  N   UNL     1      -5.495   5.680  67.018  1.00  0.00    -0.008 NA 
HETATM    7  C   UNL     1      -7.793   7.648  63.776  1.00  0.00    -0.117 A  
HETATM    8  N   UNL     1      -6.577   4.009  65.750  1.00  0.00    -0.043 NA 
HETATM    9  N   UNL     1      -5.664   8.045  66.542  1.00  0.00    -0.039 NA 
HETATM   10  C   UNL     1      -6.305   5.351  65.986  1.00  0.00    -0.035 A  
HETATM   11  N   UNL     1      -7.641   6.377  64.073  1.00  0.00    -0.092 NA 
HETATM   12  C   UNL     1      -5.235   6.986  67.242  1.00  0.00    -0.013 A  
HETATM   13  C   UNL     1      -6.817   6.374  65.180  1.00  0.00    -0.047 A  
HETATM   14  H1  UNL     1      -6.204   3.264  66.338  1.00  0.00     0.000 HD 
HETATM   15  H2  UNL     1      -6.311   3.804  64.788  1.00  0.00     0.000 HD 
ENDBRANCH   3   4
ENDBRANCH   1   3
BRANCH   1  16
HETATM   16  O   UNL     1      -7.969  11.878  65.853  1.00  0.00     0.336 OA 
BRANCH  16  17
HETATM   17  C   UNL     1      -7.974  12.049  67.292  1.00  0.00    -0.174 C  
HETATM   18  O   UNL     1      -6.626  13.981  67.723  1.00  0.00    -0.154 OA 
HETATM   19  O   UNL     1      -8.857  14.230  66.375  1.00  0.00    -0.139 OA 
HETATM   20  P   UNL     1      -8.144  13.800  67.797  1.00  0.00    -0.211 P  
HETATM   21  O   UNL     1      -8.304  15.454  68.276  1.00  0.00    -0.145 OA 
BRANCH  19  22
HETATM   22  C   UNL     1     -10.265  14.247  66.274  1.00  0.00    -0.301 C  
BRANCH  22  23
HETATM   23  O   UNL     1     -10.819  15.487  66.731  1.00  0.00    -0.311 OA 
BRANCH  23  24
HETATM   24  C   UNL     1     -10.630  16.525  65.878  1.00  0.00    -0.270 C  
HETATM   25  O   UNL     1     -11.087  16.611  64.746  1.00  0.00    -0.643 OA 
BRANCH  24  26
HETATM   26  O   UNL     1      -9.834  17.453  66.474  1.00  0.00    -0.278 OA 
BRANCH  26  27
HETATM   27  C   UNL     1      -8.782  17.987  65.641  1.00  0.00     0.687 C  
HETATM   28  C   UNL     1      -8.329  19.326  66.212  1.00  0.00    -0.327 C  
HETATM   29  C   UNL     1      -7.616  17.003  65.607  1.00  0.00     0.750 C  
ENDBRANCH  26  27
ENDBRANCH  24  26
ENDBRANCH  23  24
ENDBRANCH  22  23
ENDBRANCH  19  22
BRANCH  21  30
HETATM   30  C   UNL     1      -8.697  15.596  69.624  1.00  0.00    -0.100 C  
BRANCH  30  31
HETATM   31  O   UNL     1      -9.781  16.510  69.764  1.00  0.00    -0.026 OA 
BRANCH  31  32
HETATM   32  C   UNL     1     -10.952  15.928  70.110  1.00  0.00    -0.364 C  
HETATM   33  O   UNL     1     -11.511  16.036  71.194  1.00  0.00    -0.396 OA 
BRANCH  32  34
HETATM   34  O   UNL     1     -11.426  15.258  69.030  1.00  0.00    -0.285 OA 
BRANCH  34  35
HETATM   35  C   UNL     1     -12.207  14.078  69.301  1.00  0.00    -0.278 C  
HETATM   36  C   UNL     1     -11.369  12.870  68.895  1.00  0.00    -0.335 C  
HETATM   37  C   UNL     1     -13.506  14.104  68.502  1.00  0.00     4.597 C  
ENDBRANCH  34  35
ENDBRANCH  32  34
ENDBRANCH  31  32
ENDBRANCH  30  31
ENDBRANCH  21  30
ENDBRANCH  16  17
ENDBRANCH   1  16
TORSDOF 14
ENDMDL
MODEL      362
REMARK 921   NORMALIZED FREE ENERGY PREDICTED BY IDOCK:    3.53 KCAL/MOL
REMARK 922        TOTAL FREE ENERGY PREDICTED BY IDOCK:    4.58 KCAL/MOL
REMARK 923 INTER-LIGAND FREE ENERGY PREDICTED BY IDOCK:   -0.14 KCAL/MOL
REMARK 924 INTRA-LIGAND FREE ENERGY PREDICTED BY IDOCK:    4.72 KCAL/MOL
REMARK 927      BINDING AFFINITY PREDICTED BY RF-SCORE:    0.00 PKD
ROOT
HETATM    1  C   UNL     1      -8.087   9.423  71.942  1.00  0.00     0.914 C  
HETATM    2  C   UNL     1      -8.132   9.109  73.436  1.00  0.00     1.244 C  
ENDROOT
BRANCH   1   3
HETATM    3  C   UNL     1      -9.411   9.191  71.226  1.00  0.00    -0.243 C  
BRANCH   3   4
HETATM    4  N   UNL     1      -9.618   9.946  70.019  1.00  0.00    -0.236 NA 
HETATM    5  C   UNL     1      -8.662  10.755  69.487  1.00  0.00     0.147 A  
HETATM    6  N   UNL     1      -7.173  12.389  68.012  1.00  0.00    -0.094 NA 
HETATM    7  C   UNL     1     -10.657   9.885  69.133  1.00  0.00    -0.220 A  
HETATM    8  N   UNL     1      -8.791  12.555  66.303  1.00  0.00    -0.426 NA 
HETATM    9  N   UNL     1      -7.464  11.057  70.011  1.00  0.00     0.119 NA 
HETATM   10  C   UNL     1      -8.383  12.034  67.525  1.00  0.00    -0.166 A  
HETATM   11  N   UNL     1     -10.447  10.645  68.083  1.00  0.00    -0.174 NA 
HETATM   12  C   UNL     1      -6.782  11.878  69.201  1.00  0.00    -0.105 A  
HETATM   13  C   UNL     1      -9.190  11.177  68.283  1.00  0.00    -0.169 A  
HETATM   14  H1  UNL     1      -8.203  13.179  65.751  1.00  0.00     0.000 HD 
HETATM   15  H2  UNL     1      -9.685  13.023  66.450  1.00  0.00     0.000 HD 
ENDBRANCH   3   4
ENDBRANCH   1   3
BRANCH   1  16
HETATM   16  O   UNL     1      -6.975   8.711  71.359  1.00  0.00    -0.071 OA 
BRANCH  16  17
HETATM   17  C   UNL     1      -7.237   8.032  70.106  1.00  0.00    -0.056 C  
HETATM   18  O   UNL     1      -5.429   6.490  69.809  1.00  0.00    -0.013 OA 
HETATM   19  O   UNL     1      -7.077   6.186  71.821  1.00  0.00    -0.081 OA 
HETATM   20  P   UNL     1      -6.891   6.237  70.185  1.00  0.00    -0.057 P  
HETATM   21  O   UNL     1      -6.564   4.540  70.258  1.00  0.00    -0.033 OA 
BRANCH  19  22
HETATM   22  C   UNL     1      -8.330   5.847  72.375  1.00  0.00    -0.117 C  
BRANCH  22  23
HETATM   23  O   UNL     1      -9.331   5.672  71.365  1.00  0.00    -0.145 OA 
BRANCH  23  24
HETATM   24  C   UNL     1     -10.400   4.939  71.767  1.00  0.00    -0.179 C  
HETATM   25  O   UNL     1     -10.350   3.858  72.338  1.00  0.00    -0.174 OA 
BRANCH  24  26
HETATM   26  O   UNL     1     -11.543   5.587  71.417  1.00  0.00     0.047 OA 
BRANCH  26  27
HETATM   27  C   UNL     1     -11.883   6.724  72.240  1.00  0.00    -0.242 C  
HETATM   28  C   UNL     1     -11.496   6.426  73.684  1.00  0.00     0.759 C  
HETATM   29  C   UNL     1     -11.137   7.954  71.734  1.00  0.00    -0.299 C  
ENDBRANCH  26  27
ENDBRANCH  24  26
ENDBRANCH  23  24
ENDBRANCH  22  23
ENDBRANCH  19  22
BRANCH  21  30
HETATM   30  C   UNL     1      -7.169   3.822  69.204  1.00  0.00    -0.050 C  
BRANCH  30  31
HETATM   31  O   UNL     1      -7.302   4.619  68.032  1.00  0.00    -0.065 OA 
BRANCH  31  32
HETATM   32  C   UNL     1      -8.555   4.646  67.521  1.00  0.00    -0.103 C  
HETATM   33  O   UNL     1      -9.197   3.671  67.152  1.00  0.00    -0.159 OA 
BRANCH  32  34
HETATM   34  O   UNL     1      -8.994   5.929  67.548  1.00  0.00    -0.111 OA 
BRANCH  34  35
HETATM   35  C   UNL     1      -9.193   6.564  66.269  1.00  0.00    -0.133 C  
HETATM   36  C   UNL     1     -10.522   6.062  65.712  1.00  0.00     0.684 C  
HETATM   37  C   UNL     1      -8.060   6.207  65.314  1.00  0.00    -0.132 C  
ENDBRANCH  34  35
ENDBRANCH  32  34
ENDBRANCH  31  32
ENDBRANCH  30  31
ENDBRANCH  21  30
ENDBRANCH  16  17
ENDBRANCH   1  16
TORSDOF 14
ENDMDL
MODEL      363
REMARK 921   NORMALIZED FREE ENERGY PREDICTED BY IDOCK:    9.45 KCAL/MOL
REMARK 922        TOTAL FREE ENERGY PREDICTED BY IDOCK:   15.35 KCAL/MOL
REMARK 923 INTER-LIGAND FREE ENERGY PREDICTED BY IDOCK:    2.01 KCAL/MOL
REMARK 924 INTRA-LIGAND FREE ENERGY PREDICTED BY IDOCK:   13.34 KCAL/MOL
REMARK 927      BINDING AFFINITY PREDICTED BY RF-SCORE:    0.00 PKD
ROOT
HETATM    1  C   UNL     1     -11.175  10.264  69.327  1.00  0.00    -0.228 C  
HETATM    2  C   UNL     1     -12.425  11.122  69.517  1.00  0.00    -0.142 C  
ENDROOT
BRANCH   1   3
HETATM    3  C   UNL     1      -9.949  10.797  70.056  1.00  0.00     0.468 C  
BRANCH   3   4
HETATM    4  N   UNL     1      -8.990   9.813  70.484  1.00  0.00    -0.112 NA 
HETATM    5  C   UNL     1      -8.683   8.716  69.739  1.00  0.00    -0.132 A  
HETATM    6  N   UNL     1      -7.683   6.488  68.694  1.00  0.00    -0.100 NA 
HETATM    7  C   UNL     1      -8.132   9.853  71.547  1.00  0.00     1.870 A  
HETATM    8  N   UNL     1      -6.098   6.217  70.421  1.00  0.00    -0.033 NA 
HETATM    9  N   UNL     1      -9.255   8.323  68.590  1.00  0.00    -0.143 NA 
HETATM   10  C   UNL     1      -7.132   6.942  69.842  1.00  0.00    -0.071 A  
HETATM   11  N   UNL     1      -7.321   8.819  71.556  1.00  0.00    -0.168 NA 
HETATM   12  C   UNL     1      -8.687   7.198  68.135  1.00  0.00    -0.127 A  
HETATM   13  C   UNL     1      -7.642   8.113  70.416  1.00  0.00    -0.076 A  
HETATM   14  H1  UNL     1      -5.726   5.365  70.003  1.00  0.00     0.000 HD 
HETATM   15  H2  UNL     1      -6.374   5.996  71.377  1.00  0.00     0.000 HD 
ENDBRANCH   3   4
ENDBRANCH   1   3
BRANCH   1  16
HETATM   16  O   UNL     1     -10.971  10.061  67.913  1.00  0.00    -0.274 OA 
BRANCH  16  17
HETATM   17  C   UNL     1      -9.752  10.613  67.357  1.00  0.00    -0.167 C  
HETATM   18  O   UNL     1     -10.448  12.161  65.668  1.00  0.00    -0.240 OA 
HETATM   19  O   UNL     1     -11.056  12.615  68.174  1.00  0.00    -0.223 OA 
HETATM   20  P   UNL     1      -9.860  12.415  67.058  1.00  0.00    -0.219 P  
HETATM   21  O   UNL     1      -9.962  14.119  66.775  1.00  0.00    -0.254 OA 
BRANCH  19  22
HETATM   22  C   UNL     1     -10.726  12.975  69.498  1.00  0.00     0.306 C  
BRANCH  22  23
HETATM   23  O   UNL     1      -9.820  14.084  69.541  1.00  0.00     0.266 OA 
BRANCH  23  24
HETATM   24  C   UNL     1      -8.511  13.731  69.484  1.00  0.00     0.958 C  
HETATM   25  O   UNL     1      -8.085  12.592  69.352  1.00  0.00     0.567 OA 
BRANCH  24  26
HETATM   26  O   UNL     1      -7.743  14.845  69.619  1.00  0.00    -0.167 OA 
BRANCH  26  27
HETATM   27  C   UNL     1      -6.548  14.677  70.414  1.00  0.00    -0.055 C  
HETATM   28  C   UNL     1      -5.699  13.566  69.806  1.00  0.00    -0.110 C  
HETATM   29  C   UNL     1      -5.769  15.988  70.436  1.00  0.00    -0.104 C  
ENDBRANCH  26  27
ENDBRANCH  24  26
ENDBRANCH  23  24
ENDBRANCH  22  23
ENDBRANCH  19  22
BRANCH  21  30
HETATM   30  C   UNL     1      -8.695  14.721  66.611  1.00  0.00    -0.194 C  
BRANCH  30  31
HETATM   31  O   UNL     1      -8.576  15.913  67.381  1.00  0.00    -0.163 OA 
BRANCH  31  32
HETATM   32  C   UNL     1      -8.372  17.029  66.643  1.00  0.00    -0.250 C  
HETATM   33  O   UNL     1      -7.426  17.225  65.891  1.00  0.00    -0.405 OA 
BRANCH  32  34
HETATM   34  O   UNL     1      -9.426  17.860  66.835  1.00  0.00    -0.263 OA 
BRANCH  34  35
HETATM   35  C   UNL     1     -10.735  17.259  66.772  1.00  0.00    -0.095 C  
HETATM   36  C   UNL     1     -11.381  17.705  65.464  1.00  0.00     1.077 C  
HETATM   37  C   UNL     1     -11.586  17.710  67.954  1.00  0.00     1.015 C  
ENDBRANCH  34  35
ENDBRANCH  32  34
ENDBRANCH  31  32
ENDBRANCH  30  31
ENDBRANCH  21  30
ENDBRANCH  16  17
ENDBRANCH   1  16
TORSDOF 14
ENDMDL
MODEL      364
REMARK 921   NORMALIZED FREE ENERGY PREDICTED BY IDOCK:   11.67 KCAL/MOL
REMARK 922        TOTAL FREE ENERGY PREDICTED BY IDOCK:   19.39 KCAL/MOL
REMARK 923 INTER-LIGAND FREE ENERGY PREDICTED BY IDOCK:    3.66 KCAL/MOL
REMARK 924 INTRA-LIGAND FREE ENERGY PREDICTED BY IDOCK:   15.73 KCAL/MOL
REMARK 927      BINDING AFFINITY PREDICTED BY RF-SCORE:    0.00 PKD
ROOT
HETATM    1  C   UNL     1      -9.788  13.596  68.565  1.00  0.00    -0.196 C  
HETATM    2  C   UNL     1     -11.206  13.036  68.654  1.00  0.00    -0.316 C  
ENDROOT
BRANCH   1   3
HETATM    3  C   UNL     1      -9.617  14.672  67.501  1.00  0.00    -0.206 C  
BRANCH   3   4
HETATM    4  N   UNL     1     -10.348  14.476  66.279  1.00  0.00    -0.285 NA 
HETATM    5  C   UNL     1     -10.150  13.399  65.470  1.00  0.00    -0.266 A  
HETATM    6  N   UNL     1     -10.213  11.512  63.601  1.00  0.00    -0.362 NA 
HETATM    7  C   UNL     1     -11.423  15.169  65.797  1.00  0.00    -0.172 A  
HETATM    8  N   UNL     1     -12.045  12.485  62.476  1.00  0.00     0.374 NA 
HETATM    9  N   UNL     1      -9.223  12.437  65.605  1.00  0.00     0.051 NA 
HETATM   10  C   UNL     1     -11.135  12.497  63.527  1.00  0.00    -0.439 A  
HETATM   11  N   UNL     1     -11.899  14.628  64.698  1.00  0.00    -0.441 NA 
HETATM   12  C   UNL     1      -9.332  11.529  64.625  1.00  0.00    -0.022 A  
HETATM   13  C   UNL     1     -11.123  13.506  64.497  1.00  0.00    -0.381 A  
HETATM   14  H1  UNL     1     -12.054  11.750  61.770  1.00  0.00     0.000 HD 
HETATM   15  H2  UNL     1     -11.968  13.378  61.991  1.00  0.00     0.000 HD 
ENDBRANCH   3   4
ENDBRANCH   1   3
BRANCH   1  16
HETATM   16  O   UNL     1      -8.868  12.491  68.430  1.00  0.00    -0.181 OA 
BRANCH  16  17
HETATM   17  C   UNL     1      -7.481  12.772  68.739  1.00  0.00    -0.048 C  
HETATM   18  O   UNL     1      -6.527  13.642  66.722  1.00  0.00     0.435 OA 
HETATM   19  O   UNL     1      -8.425  14.973  67.939  1.00  0.00    -0.140 OA 
HETATM   20  P   UNL     1      -6.901  14.353  68.024  1.00  0.00    -0.176 P  
HETATM   21  O   UNL     1      -6.351  15.848  67.349  1.00  0.00    -0.164 OA 
BRANCH  19  22
HETATM   22  C   UNL     1      -8.919  15.769  68.994  1.00  0.00    -0.246 C  
BRANCH  22  23
HETATM   23  O   UNL     1      -8.017  15.804  70.106  1.00  0.00     0.328 OA 
BRANCH  23  24
HETATM   24  C   UNL     1      -8.336  14.942  71.105  1.00  0.00     3.218 C  
HETATM   25  O   UNL     1      -7.541  14.401  71.862  1.00  0.00     2.702 OA 
BRANCH  24  26
HETATM   26  O   UNL     1      -9.683  14.758  71.121  1.00  0.00     1.512 OA 
BRANCH  26  27
HETATM   27  C   UNL     1     -10.453  15.878  71.610  1.00  0.00     1.399 C  
HETATM   28  C   UNL     1     -10.831  16.771  70.434  1.00  0.00     0.159 C  
HETATM   29  C   UNL     1     -11.707  15.361  72.308  1.00  0.00    -0.564 C  
ENDBRANCH  26  27
ENDBRANCH  24  26
ENDBRANCH  23  24
ENDBRANCH  22  23
ENDBRANCH  19  22
BRANCH  21  30
HETATM   30  C   UNL     1      -5.162  16.314  67.951  1.00  0.00    -0.120 C  
BRANCH  30  31
HETATM   31  O   UNL     1      -5.223  17.710  68.225  1.00  0.00    -0.144 OA 
BRANCH  31  32
HETATM   32  C   UNL     1      -6.455  18.249  68.078  1.00  0.00    -0.193 C  
HETATM   33  O   UNL     1      -7.107  18.270  67.042  1.00  0.00    -0.191 OA 
BRANCH  32  34
HETATM   34  O   UNL     1      -6.863  18.705  69.288  1.00  0.00    -0.278 OA 
BRANCH  34  35
HETATM   35  C   UNL     1      -6.385  20.009  69.675  1.00  0.00    -0.352 C  
HETATM   36  C   UNL     1      -5.831  20.684  68.423  1.00  0.00    -0.355 C  
HETATM   37  C   UNL     1      -5.289  19.885  70.728  1.00  0.00    -0.278 C  
ENDBRANCH  34  35
ENDBRANCH  32  34
ENDBRANCH  31  32
ENDBRANCH  30  31
ENDBRANCH  21  30
ENDBRANCH  16  17
ENDBRANCH   1  16
TORSDOF 14
ENDMDL
MODEL      365
REMARK 921   NORMALIZED FREE ENERGY PREDICTED BY IDOCK:   13.27 KCAL/MOL
REMARK 922        TOTAL FREE ENERGY PREDICTED BY IDOCK:   22.30 KCAL/MOL
REMARK 923 INTER-LIGAND FREE ENERGY PREDICTED BY IDOCK:   16.51 KCAL/MOL
REMARK 924 INTRA-LIGAND FREE ENERGY PREDICTED BY IDOCK:    5.79 KCAL/MOL
REMARK 927      BINDING AFFINITY PREDICTED BY RF-SCORE:    0.00 PKD
ROOT
HETATM    1  C   UNL     1      -7.732  10.352  72.050  1.00  0.00     4.905 C  
HETATM    2  C   UNL     1      -7.915   9.624  73.380  1.00  0.00     3.250 C  
ENDROOT
BRANCH   1   3
HETATM    3  C   UNL     1      -9.026  10.543  71.271  1.00  0.00     4.246 C  
BRANCH   3   4
HETATM    4  N   UNL     1      -8.983  11.498  70.196  1.00  0.00     2.214 NA 
HETATM    5  C   UNL     1      -7.822  12.052  69.754  1.00  0.00     1.345 A  
HETATM    6  N   UNL     1      -5.894  13.364  68.481  1.00  0.00    -0.082 NA 
HETATM    7  C   UNL     1      -9.983  11.887  69.350  1.00  0.00     0.568 A  
HETATM    8  N   UNL     1      -7.368  14.265  66.875  1.00  0.00    -0.278 NA 
HETATM    9  N   UNL     1      -6.593  11.896  70.272  1.00  0.00    -0.013 NA 
HETATM   10  C   UNL     1      -7.149  13.468  67.992  1.00  0.00    -0.127 A  
HETATM   11  N   UNL     1      -9.542  12.698  68.415  1.00  0.00    -0.204 NA 
HETATM   12  C   UNL     1      -5.687  12.587  69.566  1.00  0.00    -0.097 A  
HETATM   13  C   UNL     1      -8.185  12.790  68.645  1.00  0.00     0.012 A  
HETATM   14  H1  UNL     1      -6.614  14.759  66.399  1.00  0.00     0.000 HD 
HETATM   15  H2  UNL     1      -8.080  14.953  67.121  1.00  0.00     0.000 HD 
ENDBRANCH   3   4
ENDBRANCH   1   3
BRANCH   1  16
HETATM   16  O   UNL     1      -6.694   9.683  71.302  1.00  0.00    -0.293 OA 
BRANCH  16  17
HETATM   17  C   UNL     1      -6.755   9.820  69.861  1.00  0.00    -0.078 C  
HETATM   18  O   UNL     1      -5.131   8.290  68.991  1.00  0.00    -0.026 OA 
HETATM   19  O   UNL     1      -7.207   7.375  70.298  1.00  0.00    -0.063 OA 
HETATM   20  P   UNL     1      -6.660   8.214  68.990  1.00  0.00    -0.049 P  
HETATM   21  O   UNL     1      -6.570   6.695  68.166  1.00  0.00    -0.053 OA 
BRANCH  19  22
HETATM   22  C   UNL     1      -8.584   7.090  70.423  1.00  0.00    -0.142 C  
BRANCH  22  23
HETATM   23  O   UNL     1      -9.331   7.555  69.293  1.00  0.00    -0.151 OA 
BRANCH  23  24
HETATM   24  C   UNL     1     -10.341   6.729  68.920  1.00  0.00    -0.192 C  
HETATM   25  O   UNL     1     -10.324   5.507  68.984  1.00  0.00    -0.210 OA 
BRANCH  24  26
HETATM   26  O   UNL     1     -11.373   7.473  68.442  1.00  0.00     0.303 OA 
BRANCH  26  27
HETATM   27  C   UNL     1     -12.346   7.884  69.428  1.00  0.00     2.341 C  
HETATM   28  C   UNL     1     -12.637   6.710  70.357  1.00  0.00     0.331 C  
HETATM   29  C   UNL     1     -11.791   9.063  70.222  1.00  0.00     0.076 C  
ENDBRANCH  26  27
ENDBRANCH  24  26
ENDBRANCH  23  24
ENDBRANCH  22  23
ENDBRANCH  19  22
BRANCH  21  30
HETATM   30  C   UNL     1      -7.012   6.774  66.827  1.00  0.00    -0.067 C  
BRANCH  30  31
HETATM   31  O   UNL     1      -6.786   8.067  66.274  1.00  0.00    -0.053 OA 
BRANCH  31  32
HETATM   32  C   UNL     1      -7.894   8.650  65.761  1.00  0.00    -0.100 C  
HETATM   33  O   UNL     1      -9.048   8.299  65.971  1.00  0.00    -0.179 OA 
BRANCH  32  34
HETATM   34  O   UNL     1      -7.505   9.722  65.027  1.00  0.00    -0.115 OA 
BRANCH  34  35
HETATM   35  C   UNL     1      -7.712   9.632  63.603  1.00  0.00    -0.129 C  
HETATM   36  C   UNL     1      -9.189   9.910  63.337  1.00  0.00    -0.278 C  
HETATM   37  C   UNL     1      -7.345   8.241  63.098  1.00  0.00    -0.105 C  
ENDBRANCH  34  35
ENDBRANCH  32  34
ENDBRANCH  31  32
ENDBRANCH  30  31
ENDBRANCH  21  30
ENDBRANCH  16  17
ENDBRANCH   1  16
TORSDOF 14
ENDMDL
MODEL      366
REMARK 921   NORMALIZED FREE ENERGY PREDICTED BY IDOCK:   13.59 KCAL/MOL
REMARK 922        TOTAL FREE ENERGY PREDICTED BY IDOCK:   22.88 KCAL/MOL
REMARK 923 INTER-LIGAND FREE ENERGY PREDICTED BY IDOCK:    1.31 KCAL/MOL
REMARK 924 INTRA-LIGAND FREE ENERGY PREDICTED BY IDOCK:   21.57 KCAL/MOL
REMARK 927      BINDING AFFINITY PREDICTED BY RF-SCORE:    0.00 PKD
ROOT
HETATM    1  C   UNL     1      -8.516  12.400  68.280  1.00  0.00    -0.170 C  
HETATM    2  C   UNL     1      -7.268  11.544  68.077  1.00  0.00    -0.085 C  
ENDROOT
BRANCH   1   3
HETATM    3  C   UNL     1      -8.651  13.538  67.277  1.00  0.00    -0.213 C  
BRANCH   3   4
HETATM    4  N   UNL     1      -9.684  14.501  67.547  1.00  0.00    -0.209 NA 
HETATM    5  C   UNL     1     -10.726  14.244  68.383  1.00  0.00    -0.251 A  
HETATM    6  N   UNL     1     -12.888  14.300  69.928  1.00  0.00    -0.056 NA 
HETATM    7  C   UNL     1      -9.743  15.821  67.196  1.00  0.00    -0.223 A  
HETATM    8  N   UNL     1     -13.322  16.576  69.485  1.00  0.00     1.702 NA 
HETATM    9  N   UNL     1     -11.018  13.083  68.991  1.00  0.00    -0.228 NA 
HETATM   10  C   UNL     1     -12.534  15.446  69.305  1.00  0.00     0.031 A  
HETATM   11  N   UNL     1     -10.791  16.417  67.718  1.00  0.00    -0.328 NA 
HETATM   12  C   UNL     1     -12.117  13.205  69.750  1.00  0.00    -0.270 A  
HETATM   13  C   UNL     1     -11.401  15.445  68.483  1.00  0.00    -0.335 A  
HETATM   14  H1  UNL     1     -14.147  16.578  70.084  1.00  0.00     0.000 HD 
HETATM   15  H2  UNL     1     -13.611  16.901  68.563  1.00  0.00     0.000 HD 
ENDBRANCH   3   4
ENDBRANCH   1   3
BRANCH   1  16
HETATM   16  O   UNL     1      -8.557  12.829  69.658  1.00  0.00     1.358 OA 
BRANCH  16  17
HETATM   17  C   UNL     1      -8.552  14.260  69.883  1.00  0.00     1.102 C  
HETATM   18  O   UNL     1      -6.627  14.700  71.238  1.00  0.00     0.257 OA 
HETATM   19  O   UNL     1      -6.320  13.763  68.812  1.00  0.00    -0.082 OA 
HETATM   20  P   UNL     1      -6.879  14.992  69.757  1.00  0.00    -0.113 P  
HETATM   21  O   UNL     1      -5.298  15.685  69.638  1.00  0.00    -0.104 OA 
BRANCH  19  22
HETATM   22  C   UNL     1      -6.350  13.889  67.406  1.00  0.00     0.141 C  
BRANCH  22  23
HETATM   23  O   UNL     1      -5.565  12.880  66.761  1.00  0.00    -0.112 OA 
BRANCH  23  24
HETATM   24  C   UNL     1      -6.296  11.945  66.105  1.00  0.00     0.827 C  
HETATM   25  O   UNL     1      -7.504  11.990  65.912  1.00  0.00     0.704 OA 
BRANCH  24  26
HETATM   26  O   UNL     1      -5.478  10.933  65.711  1.00  0.00    -0.122 OA 
BRANCH  26  27
HETATM   27  C   UNL     1      -6.031   9.605  65.843  1.00  0.00    -0.059 C  
HETATM   28  C   UNL     1      -5.689   9.060  67.225  1.00  0.00    -0.042 C  
HETATM   29  C   UNL     1      -7.544   9.669  65.657  1.00  0.00    -0.107 C  
ENDBRANCH  26  27
ENDBRANCH  24  26
ENDBRANCH  23  24
ENDBRANCH  22  23
ENDBRANCH  19  22
BRANCH  21  30
HETATM   30  C   UNL     1      -5.328  17.085  69.466  1.00  0.00    -0.159 C  
BRANCH  30  31
HETATM   31  O   UNL     1      -6.128  17.720  70.459  1.00  0.00     0.035 OA 
BRANCH  31  32
HETATM   32  C   UNL     1      -5.691  18.950  70.818  1.00  0.00    -0.109 C  
HETATM   33  O   UNL     1      -5.173  19.239  71.888  1.00  0.00    -0.495 OA 
BRANCH  32  34
HETATM   34  O   UNL     1      -5.872  19.785  69.765  1.00  0.00    -0.246 OA 
BRANCH  34  35
HETATM   35  C   UNL     1      -6.705  19.296  68.696  1.00  0.00    -0.286 C  
HETATM   36  C   UNL     1      -6.614  20.298  67.549  1.00  0.00    -0.273 C  
HETATM   37  C   UNL     1      -8.151  19.168  69.162  1.00  0.00    -0.172 C  
ENDBRANCH  34  35
ENDBRANCH  32  34
ENDBRANCH  31  32
ENDBRANCH  30  31
ENDBRANCH  21  30
ENDBRANCH  16  17
ENDBRANCH   1  16
TORSDOF 14
ENDMDL
MODEL      367
REMARK 921   NORMALIZED FREE ENERGY PREDICTED BY IDOCK:   14.59 KCAL/MOL
REMARK 922        TOTAL FREE ENERGY PREDICTED BY IDOCK:   24.68 KCAL/MOL
REMARK 923 INTER-LIGAND FREE ENERGY PREDICTED BY IDOCK:    0.88 KCAL/MOL
REMARK 924 INTRA-LIGAND FREE ENERGY PREDICTED BY IDOCK:   23.80 KCAL/MOL
REMARK 927      BINDING AFFINITY PREDICTED BY RF-SCORE:    0.00 PKD
ROOT
HETATM    1  C   UNL     1      -9.005  12.843  65.338  1.00  0.00     0.958 C  
HETATM    2  C   UNL     1     -10.421  12.781  64.768  1.00  0.00    -0.357 C  
ENDROOT
BRANCH   1   3
HETATM    3  C   UNL     1      -8.902  12.364  66.780  1.00  0.00    -0.189 C  
BRANCH   3   4
HETATM    4  N   UNL     1      -9.786  11.294  67.157  1.00  0.00    -0.188 NA 
HETATM    5  C   UNL     1      -9.334  10.103  67.635  1.00  0.00    -0.148 A  
HETATM    6  N   UNL     1      -9.015   7.670  68.654  1.00  0.00    -0.133 NA 
HETATM    7  C   UNL     1     -11.148  11.303  67.272  1.00  0.00    -0.305 A  
HETATM    8  N   UNL     1     -11.332   7.328  68.939  1.00  0.00    -0.393 NA 
HETATM    9  N   UNL     1      -8.060   9.696  67.741  1.00  0.00    -0.112 NA 
HETATM   10  C   UNL     1     -10.277   8.140  68.541  1.00  0.00    -0.208 A  
HETATM   11  N   UNL     1     -11.604  10.169  67.752  1.00  0.00    -0.094 NA 
HETATM   12  C   UNL     1      -7.993   8.465  68.267  1.00  0.00    -0.119 A  
HETATM   13  C   UNL     1     -10.475   9.418  68.005  1.00  0.00    -0.228 A  
HETATM   14  H1  UNL     1     -11.188   6.397  69.330  1.00  0.00     0.000 HD 
HETATM   15  H2  UNL     1     -11.965   7.234  68.145  1.00  0.00     0.000 HD 
ENDBRANCH   3   4
ENDBRANCH   1   3
BRANCH   1  16
HETATM   16  O   UNL     1      -8.485  14.173  65.126  1.00  0.00     2.923 OA 
BRANCH  16  17
HETATM   17  C   UNL     1      -9.234  15.256  65.731  1.00  0.00    -0.098 C  
HETATM   18  O   UNL     1      -9.647  14.581  67.991  1.00  0.00    -0.207 OA 
HETATM   19  O   UNL     1      -7.188  14.990  67.187  1.00  0.00    -0.177 OA 
HETATM   20  P   UNL     1      -8.685  15.633  67.435  1.00  0.00    -0.201 P  
HETATM   21  O   UNL     1      -8.166  15.991  69.046  1.00  0.00    -0.209 OA 
BRANCH  19  22
HETATM   22  C   UNL     1      -6.123  15.824  66.787  1.00  0.00     0.757 C  
BRANCH  22  23
HETATM   23  O   UNL     1      -6.548  16.824  65.853  1.00  0.00     0.108 OA 
BRANCH  23  24
HETATM   24  C   UNL     1      -7.431  17.718  66.363  1.00  0.00    -0.279 C  
HETATM   25  O   UNL     1      -8.469  18.082  65.825  1.00  0.00    -0.499 OA 
BRANCH  24  26
HETATM   26  O   UNL     1      -6.972  18.165  67.562  1.00  0.00    -0.194 OA 
BRANCH  26  27
HETATM   27  C   UNL     1      -6.336  19.461  67.534  1.00  0.00    -0.199 C  
HETATM   28  C   UNL     1      -5.219  19.443  66.496  1.00  0.00    -0.164 C  
HETATM   29  C   UNL     1      -7.371  20.524  67.180  1.00  0.00    -0.374 C  
ENDBRANCH  26  27
ENDBRANCH  24  26
ENDBRANCH  23  24
ENDBRANCH  22  23
ENDBRANCH  19  22
BRANCH  21  30
HETATM   30  C   UNL     1      -8.600  17.259  69.490  1.00  0.00     0.623 C  
BRANCH  30  31
HETATM   31  O   UNL     1      -9.978  17.476  69.199  1.00  0.00    -0.281 OA 
BRANCH  31  32
HETATM   32  C   UNL     1     -10.306  17.279  67.901  1.00  0.00    -0.360 C  
HETATM   33  O   UNL     1      -9.778  16.474  67.144  1.00  0.00    -0.237 OA 
BRANCH  32  34
HETATM   34  O   UNL     1     -11.357  18.083  67.606  1.00  0.00     0.095 OA 
BRANCH  34  35
HETATM   35  C   UNL     1     -11.217  18.918  66.440  1.00  0.00     0.545 C  
HETATM   36  C   UNL     1     -11.365  18.022  65.214  1.00  0.00     1.360 C  
HETATM   37  C   UNL     1      -9.849  19.593  66.429  1.00  0.00    -0.536 C  
ENDBRANCH  34  35
ENDBRANCH  32  34
ENDBRANCH  31  32
ENDBRANCH  30  31
ENDBRANCH  21  30
ENDBRANCH  16  17
ENDBRANCH   1  16
TORSDOF 14
ENDMDL
MODEL      368
REMARK 921   NORMALIZED FREE ENERGY PREDICTED BY IDOCK:   58.13 KCAL/MOL
REMARK 922        TOTAL FREE ENERGY PREDICTED BY IDOCK:  103.87 KCAL/MOL
REMARK 923 INTER-LIGAND FREE ENERGY PREDICTED BY IDOCK:   32.29 KCAL/MOL
REMARK 924 INTRA-LIGAND FREE ENERGY PREDICTED BY IDOCK:   71.58 KCAL/MOL
REMARK 927      BINDING AFFINITY PREDICTED BY RF-SCORE:    0.00 PKD
ROOT
HETATM    1  C   UNL     1      -8.557  12.442  68.284  1.00  0.00    -0.172 C  
HETATM    2  C   UNL     1      -7.297  11.596  68.113  1.00  0.00    -0.092 C  
ENDROOT
BRANCH   1   3
HETATM    3  C   UNL     1      -8.471  13.813  67.629  1.00  0.00    -0.183 C  
BRANCH   3   4
HETATM    4  N   UNL     1      -9.534  14.731  67.938  1.00  0.00    -0.199 NA 
HETATM    5  C   UNL     1     -10.737  14.322  68.424  1.00  0.00    -0.251 A  
HETATM    6  N   UNL     1     -13.189  14.092  69.422  1.00  0.00     1.291 NA 
HETATM    7  C   UNL     1      -9.508  16.097  67.976  1.00  0.00    -0.211 A  
HETATM    8  N   UNL     1     -13.505  16.425  69.570  1.00  0.00     1.607 NA 
HETATM    9  N   UNL     1     -11.163  13.061  68.596  1.00  0.00    -0.260 NA 
HETATM   10  C   UNL     1     -12.700  15.340  69.245  1.00  0.00     0.302 A  
HETATM   11  N   UNL     1     -10.643  16.594  68.413  1.00  0.00    -0.324 NA 
HETATM   12  C   UNL     1     -12.402  13.040  69.106  1.00  0.00     0.100 A  
HETATM   13  C   UNL     1     -11.413  15.490  68.717  1.00  0.00    -0.355 A  
HETATM   14  H1  UNL     1     -14.443  16.316  69.954  1.00  0.00     0.000 HD 
HETATM   15  H2  UNL     1     -13.579  17.014  68.740  1.00  0.00     0.000 HD 
ENDBRANCH   3   4
ENDBRANCH   1   3
BRANCH   1  16
HETATM   16  O   UNL     1      -8.890  12.486  69.688  1.00  0.00     1.412 OA 
BRANCH  16  17
HETATM   17  C   UNL     1      -9.006  13.805  70.277  1.00  0.00     3.251 C  
HETATM   18  O   UNL     1      -6.971  14.159  71.488  1.00  0.00     0.975 OA 
HETATM   19  O   UNL     1      -6.903  13.899  68.883  1.00  0.00    -0.099 OA 
HETATM   20  P   UNL     1      -7.454  14.768  70.170  1.00  0.00     0.733 P  
HETATM   21  O   UNL     1      -5.988  15.680  70.069  1.00  0.00    -0.151 OA 
BRANCH  19  22
HETATM   22  C   UNL     1      -7.140  14.362  67.571  1.00  0.00    -0.175 C  
BRANCH  22  23
HETATM   23  O   UNL     1      -8.488  14.119  67.153  1.00  0.00    -0.206 OA 
BRANCH  23  24
HETATM   24  C   UNL     1      -9.168  15.239  66.799  1.00  0.00    -0.250 C  
HETATM   25  O   UNL     1      -8.680  16.350  66.643  1.00  0.00    -0.206 OA 
BRANCH  24  26
HETATM   26  O   UNL     1     -10.486  14.936  66.663  1.00  0.00    -0.281 OA 
BRANCH  26  27
HETATM   27  C   UNL     1     -11.112  15.435  65.460  1.00  0.00    -0.298 C  
HETATM   28  C   UNL     1     -11.681  16.822  65.735  1.00  0.00     1.545 C  
HETATM   29  C   UNL     1     -10.076  15.499  64.342  1.00  0.00     1.477 C  
ENDBRANCH  26  27
ENDBRANCH  24  26
ENDBRANCH  23  24
ENDBRANCH  22  23
ENDBRANCH  19  22
BRANCH  21  30
HETATM   30  C   UNL     1      -6.190  17.062  70.274  1.00  0.00     0.231 C  
BRANCH  30  31
HETATM   31  O   UNL     1      -6.951  17.314  71.450  1.00  0.00     3.873 OA 
BRANCH  31  32
HETATM   32  C   UNL     1      -6.576  18.426  72.124  1.00  0.00     3.583 C  
HETATM   33  O   UNL     1      -5.427  18.831  72.252  1.00  0.00    -0.543 OA 
BRANCH  32  34
HETATM   34  O   UNL     1      -7.696  19.043  72.577  1.00  0.00     4.992 OA 
BRANCH  34  35
HETATM   35  C   UNL     1      -8.471  19.762  71.597  1.00  0.00     3.210 C  
HETATM   36  C   UNL     1      -8.216  21.251  71.815  1.00  0.00     4.592 C  
HETATM   37  C   UNL     1      -9.956  19.458  71.764  1.00  0.00     3.367 C  
ENDBRANCH  34  35
ENDBRANCH  32  34
ENDBRANCH  31  32
ENDBRANCH  30  31
ENDBRANCH  21  30
ENDBRANCH  16  17
ENDBRANCH   1  16
TORSDOF 14
ENDMDL
