MODEL        1
REMARK 921   NORMALIZED FREE ENERGY PREDICTED BY IDOCK:   -7.21 KCAL/MOL
REMARK 922        TOTAL FREE ENERGY PREDICTED BY IDOCK:   -8.42 KCAL/MOL
REMARK 923 INTER-LIGAND FREE ENERGY PREDICTED BY IDOCK:   -8.05 KCAL/MOL
REMARK 924 INTRA-LIGAND FREE ENERGY PREDICTED BY IDOCK:   -0.36 KCAL/MOL
REMARK 927      BINDING AFFINITY PREDICTED BY RF-SCORE:    0.00 PKD
ROOT
HETATM    1  C   UNL     1      -9.720  10.437  69.247  1.00  0.00    -0.214 C  
HETATM    2  N   UNL     1     -10.298  11.214  68.145  1.00  0.00    -0.181 N  
HETATM    3  C   UNL     1     -11.189  12.357  68.272  1.00  0.00    -0.263 C  
HETATM    4  C   UNL     1     -11.339  12.286  63.370  1.00  0.00    -0.428 A  
HETATM    5  C   UNL     1     -11.694  13.011  67.190  1.00  0.00    -0.382 C  
HETATM    6  O   UNL     1     -10.255   9.328  66.423  1.00  0.00    -0.273 OA 
HETATM    7  C   UNL     1     -11.421  12.611  65.840  1.00  0.00    -0.363 A  
HETATM    8  O   UNL     1     -12.528  14.109  67.264  1.00  0.00    -0.569 OA 
HETATM    9  C   UNL     1     -10.543  11.378  64.032  1.00  0.00    -0.444 A  
HETATM   10  C   UNL     1     -10.607  11.587  65.430  1.00  0.00    -0.282 A  
HETATM   11  S   UNL     1     -12.126  13.356  64.452  1.00  0.00    -0.416 SA 
HETATM   12  S   UNL     1      -9.782  10.686  66.626  1.00  0.00    -0.190 S  
HETATM   13  H   UNL     1     -12.881  14.565  66.509  1.00  0.00     0.000 HD 
HETATM   14  O   UNL     1      -8.401  11.055  66.455  1.00  0.00    -0.156 OA 
ENDROOT
BRANCH   3  15
HETATM   15  C   UNL     1     -11.692  12.846  69.616  1.00  0.00    -0.299 C  
HETATM   16  O   UNL     1     -12.257  12.048  70.368  1.00  0.00    -0.334 OA 
HETATM   17  N   UNL     1     -11.627  14.195  69.853  1.00  0.00    -0.323 N  
HETATM   18  H   UNL     1     -11.165  14.783  69.158  1.00  0.00     0.000 HD 
BRANCH  17  19
HETATM   19  C   UNL     1     -12.157  14.814  70.993  1.00  0.00    -0.330 A  
HETATM   20  C   UNL     1     -11.371  15.300  72.036  1.00  0.00    -0.431 A  
HETATM   21  C   UNL     1     -13.388  15.846  73.219  1.00  0.00    -0.660 A  
HETATM   22  C   UNL     1     -12.001  15.839  73.159  1.00  0.00    -0.574 A  
HETATM   23  C   UNL     1     -14.087  15.365  72.124  1.00  0.00    -0.553 A  
HETATM   24  N   UNL     1     -13.502  14.891  70.999  1.00  0.00    -0.387 NA 
ENDBRANCH  17  19
ENDBRANCH   3  15
TORSDOF 2
ENDMDL
MODEL        2
REMARK 921   NORMALIZED FREE ENERGY PREDICTED BY IDOCK:   -7.07 KCAL/MOL
REMARK 922        TOTAL FREE ENERGY PREDICTED BY IDOCK:   -8.26 KCAL/MOL
REMARK 923 INTER-LIGAND FREE ENERGY PREDICTED BY IDOCK:   -7.72 KCAL/MOL
REMARK 924 INTRA-LIGAND FREE ENERGY PREDICTED BY IDOCK:   -0.53 KCAL/MOL
REMARK 927      BINDING AFFINITY PREDICTED BY RF-SCORE:    0.00 PKD
ROOT
HETATM    1  C   UNL     1      -9.419  12.823  67.173  1.00  0.00    -0.223 C  
HETATM    2  N   UNL     1     -10.351  13.005  68.292  1.00  0.00    -0.246 N  
HETATM    3  C   UNL     1     -10.714  14.270  68.912  1.00  0.00    -0.257 C  
HETATM    4  C   UNL     1     -13.374  11.538  71.999  1.00  0.00    -0.292 A  
HETATM    5  C   UNL     1     -11.578  14.344  69.963  1.00  0.00    -0.275 C  
HETATM    6  O   UNL     1     -10.004  10.693  69.319  1.00  0.00    -0.218 OA 
HETATM    7  C   UNL     1     -12.172  13.187  70.566  1.00  0.00    -0.328 A  
HETATM    8  O   UNL     1     -11.964  15.523  70.570  1.00  0.00    -0.313 OA 
HETATM    9  C   UNL     1     -12.690  10.923  70.974  1.00  0.00    -0.505 A  
HETATM   10  C   UNL     1     -12.020  11.882  70.177  1.00  0.00    -0.332 A  
HETATM   11  S   UNL     1     -13.189  13.242  71.960  1.00  0.00    -0.433 SA 
HETATM   12  S   UNL     1     -11.052  11.558  68.806  1.00  0.00    -0.256 S  
HETATM   13  H   UNL     1     -12.566  15.575  71.303  1.00  0.00     0.000 HD 
HETATM   14  O   UNL     1     -11.992  11.121  67.806  1.00  0.00    -0.630 OA 
ENDROOT
BRANCH   3  15
HETATM   15  C   UNL     1     -10.090  15.587  68.494  1.00  0.00    -0.211 C  
HETATM   16  O   UNL     1      -8.892  15.776  68.720  1.00  0.00    -0.180 OA 
HETATM   17  N   UNL     1     -10.937  16.558  68.026  1.00  0.00    -0.346 N  
HETATM   18  H   UNL     1     -11.920  16.317  67.898  1.00  0.00     0.000 HD 
BRANCH  17  19
HETATM   19  C   UNL     1     -10.531  17.862  67.712  1.00  0.00    -0.400 A  
HETATM   20  C   UNL     1     -10.121  18.787  68.670  1.00  0.00    -0.432 A  
HETATM   21  C   UNL     1      -9.934  20.422  66.922  1.00  0.00    -0.549 A  
HETATM   22  C   UNL     1      -9.801  20.084  68.261  1.00  0.00    -0.475 A  
HETATM   23  C   UNL     1     -10.324  19.430  66.037  1.00  0.00    -0.497 A  
HETATM   24  N   UNL     1     -10.583  18.151  66.398  1.00  0.00    -0.328 NA 
ENDBRANCH  17  19
ENDBRANCH   3  15
TORSDOF 2
ENDMDL
MODEL        3
REMARK 921   NORMALIZED FREE ENERGY PREDICTED BY IDOCK:   -6.71 KCAL/MOL
REMARK 922        TOTAL FREE ENERGY PREDICTED BY IDOCK:   -7.85 KCAL/MOL
REMARK 923 INTER-LIGAND FREE ENERGY PREDICTED BY IDOCK:   -7.45 KCAL/MOL
REMARK 924 INTRA-LIGAND FREE ENERGY PREDICTED BY IDOCK:   -0.40 KCAL/MOL
REMARK 927      BINDING AFFINITY PREDICTED BY RF-SCORE:    0.00 PKD
ROOT
HETATM    1  C   UNL     1     -12.551  14.796  65.542  1.00  0.00     0.038 C  
HETATM    2  N   UNL     1     -11.838  13.617  66.049  1.00  0.00    -0.365 N  
HETATM    3  C   UNL     1     -11.487  13.355  67.436  1.00  0.00    -0.333 C  
HETATM    4  C   UNL     1      -9.284   9.329  65.703  1.00  0.00    -0.231 A  
HETATM    5  C   UNL     1     -10.805  12.239  67.816  1.00  0.00    -0.221 C  
HETATM    6  O   UNL     1     -10.568  13.113  63.892  1.00  0.00    -0.361 OA 
HETATM    7  C   UNL     1     -10.349  11.249  66.884  1.00  0.00    -0.234 A  
HETATM    8  O   UNL     1     -10.466  11.941  69.122  1.00  0.00    -0.396 OA 
HETATM    9  C   UNL     1      -9.958  10.155  64.832  1.00  0.00    -0.358 A  
HETATM   10  C   UNL     1     -10.553  11.234  65.529  1.00  0.00    -0.246 A  
HETATM   11  S   UNL     1      -9.398   9.877  67.323  1.00  0.00    -0.146 SA 
HETATM   12  S   UNL     1     -11.478  12.496  64.840  1.00  0.00    -0.339 S  
HETATM   13  H   UNL     1      -9.991  11.162  69.387  1.00  0.00     0.000 HD 
HETATM   14  O   UNL     1     -12.700  11.853  64.429  1.00  0.00    -0.319 OA 
ENDROOT
BRANCH   3  15
HETATM   15  C   UNL     1     -11.772  14.347  68.546  1.00  0.00    -0.335 C  
HETATM   16  O   UNL     1     -11.289  15.480  68.472  1.00  0.00    -0.313 OA 
HETATM   17  N   UNL     1     -12.427  13.873  69.653  1.00  0.00    -0.362 N  
HETATM   18  H   UNL     1     -12.767  12.911  69.635  1.00  0.00     0.000 HD 
BRANCH  17  19
HETATM   19  C   UNL     1     -12.659  14.633  70.808  1.00  0.00    -0.350 A  
HETATM   20  C   UNL     1     -11.640  15.100  71.634  1.00  0.00    -0.463 A  
HETATM   21  C   UNL     1     -13.320  15.962  73.117  1.00  0.00    -0.681 A  
HETATM   22  C   UNL     1     -11.980  15.790  72.799  1.00  0.00    -0.598 A  
HETATM   23  C   UNL     1     -14.265  15.486  72.223  1.00  0.00    -0.524 A  
HETATM   24  N   UNL     1     -13.963  14.865  71.059  1.00  0.00    -0.312 NA 
ENDBRANCH  17  19
ENDBRANCH   3  15
TORSDOF 2
ENDMDL
MODEL        4
REMARK 921   NORMALIZED FREE ENERGY PREDICTED BY IDOCK:   -6.55 KCAL/MOL
REMARK 922        TOTAL FREE ENERGY PREDICTED BY IDOCK:   -7.67 KCAL/MOL
REMARK 923 INTER-LIGAND FREE ENERGY PREDICTED BY IDOCK:   -7.07 KCAL/MOL
REMARK 924 INTRA-LIGAND FREE ENERGY PREDICTED BY IDOCK:   -0.61 KCAL/MOL
REMARK 927      BINDING AFFINITY PREDICTED BY RF-SCORE:    0.00 PKD
ROOT
HETATM    1  C   UNL     1     -13.286  13.104  72.466  1.00  0.00    -0.421 C  
HETATM    2  N   UNL     1     -12.621  13.388  71.189  1.00  0.00    -0.367 N  
HETATM    3  C   UNL     1     -12.170  12.404  70.216  1.00  0.00    -0.267 C  
HETATM    4  C   UNL     1     -10.429  16.253  67.722  1.00  0.00    -0.295 A  
HETATM    5  C   UNL     1     -11.542  12.757  69.060  1.00  0.00    -0.316 C  
HETATM    6  O   UNL     1     -11.583  15.608  71.906  1.00  0.00    -0.401 OA 
HETATM    7  C   UNL     1     -11.243  14.118  68.721  1.00  0.00    -0.268 A  
HETATM    8  O   UNL     1     -11.114  11.860  68.102  1.00  0.00    -0.211 OA 
HETATM    9  C   UNL     1     -11.113  16.467  68.898  1.00  0.00    -0.328 A  
HETATM   10  C   UNL     1     -11.565  15.240  69.440  1.00  0.00    -0.330 A  
HETATM   11  S   UNL     1     -10.360  14.589  67.314  1.00  0.00    -0.261 SA 
HETATM   12  S   UNL     1     -12.450  15.040  70.889  1.00  0.00    -0.380 S  
HETATM   13  H   UNL     1     -10.676  12.107  67.296  1.00  0.00     0.000 HD 
HETATM   14  O   UNL     1     -13.747  15.589  70.587  1.00  0.00    -0.397 OA 
ENDROOT
BRANCH   3  15
HETATM   15  C   UNL     1     -12.284  10.912  70.459  1.00  0.00    -0.367 C  
HETATM   16  O   UNL     1     -13.406  10.407  70.553  1.00  0.00    -0.238 OA 
HETATM   17  N   UNL     1     -11.122  10.232  70.718  1.00  0.00    -0.380 N  
HETATM   18  H   UNL     1     -10.241  10.741  70.644  1.00  0.00     0.000 HD 
BRANCH  17  19
HETATM   19  C   UNL     1     -11.073   8.878  71.077  1.00  0.00    -0.276 A  
HETATM   20  C   UNL     1     -11.057   7.840  70.148  1.00  0.00    -0.216 A  
HETATM   21  C   UNL     1     -11.145   6.286  71.976  1.00  0.00    -0.313 A  
HETATM   22  C   UNL     1     -11.077   6.522  70.610  1.00  0.00    -0.364 A  
HETATM   23  C   UNL     1     -11.131   7.380  72.825  1.00  0.00    -0.346 A  
HETATM   24  N   UNL     1     -11.054   8.664  72.407  1.00  0.00    -0.324 NA 
ENDBRANCH  17  19
ENDBRANCH   3  15
TORSDOF 2
ENDMDL
MODEL        5
REMARK 921   NORMALIZED FREE ENERGY PREDICTED BY IDOCK:   -6.53 KCAL/MOL
REMARK 922        TOTAL FREE ENERGY PREDICTED BY IDOCK:   -7.66 KCAL/MOL
REMARK 923 INTER-LIGAND FREE ENERGY PREDICTED BY IDOCK:   -7.16 KCAL/MOL
REMARK 924 INTRA-LIGAND FREE ENERGY PREDICTED BY IDOCK:   -0.50 KCAL/MOL
REMARK 927      BINDING AFFINITY PREDICTED BY RF-SCORE:    0.00 PKD
ROOT
HETATM    1  C   UNL     1     -11.872  14.839  64.379  1.00  0.00    -0.380 C  
HETATM    2  N   UNL     1     -11.243  13.879  65.294  1.00  0.00    -0.304 N  
HETATM    3  C   UNL     1     -10.663  14.183  66.593  1.00  0.00    -0.289 C  
HETATM    4  C   UNL     1      -9.430   9.436  66.710  1.00  0.00    -0.165 A  
HETATM    5  C   UNL     1     -10.081  13.229  67.372  1.00  0.00    -0.233 C  
HETATM    6  O   UNL     1     -10.510  12.221  63.496  1.00  0.00    -0.426 OA 
HETATM    7  C   UNL     1      -9.962  11.858  66.967  1.00  0.00    -0.202 A  
HETATM    8  O   UNL     1      -9.534  13.468  68.617  1.00  0.00    -0.349 OA 
HETATM    9  C   UNL     1     -10.143   9.920  65.635  1.00  0.00    -0.307 A  
HETATM   10  C   UNL     1     -10.432  11.295  65.809  1.00  0.00    -0.254 A  
HETATM   11  S   UNL     1      -9.142  10.649  67.886  1.00  0.00    -0.147 SA 
HETATM   12  S   UNL     1     -11.290  12.293  64.719  1.00  0.00    -0.332 S  
HETATM   13  H   UNL     1      -9.128  12.802  69.160  1.00  0.00     0.000 HD 
HETATM   14  O   UNL     1     -12.647  11.815  64.797  1.00  0.00    -0.189 OA 
ENDROOT
BRANCH   3  15
HETATM   15  C   UNL     1     -10.581  15.597  67.134  1.00  0.00    -0.308 C  
HETATM   16  O   UNL     1     -11.329  15.926  68.057  1.00  0.00    -0.342 OA 
HETATM   17  N   UNL     1      -9.780  16.478  66.455  1.00  0.00    -0.257 N  
HETATM   18  H   UNL     1      -9.216  16.120  65.684  1.00  0.00     0.000 HD 
BRANCH  17  19
HETATM   19  C   UNL     1      -9.690  17.844  66.758  1.00  0.00    -0.314 A  
HETATM   20  C   UNL     1      -9.032  18.337  67.883  1.00  0.00    -0.285 A  
HETATM   21  C   UNL     1      -9.765  20.540  67.270  1.00  0.00    -0.600 A  
HETATM   22  C   UNL     1      -9.058  19.711  68.130  1.00  0.00    -0.392 A  
HETATM   23  C   UNL     1     -10.367  19.964  66.164  1.00  0.00    -0.494 A  
HETATM   24  N   UNL     1     -10.308  18.645  65.868  1.00  0.00    -0.588 NA 
ENDBRANCH  17  19
ENDBRANCH   3  15
TORSDOF 2
ENDMDL
MODEL        6
REMARK 921   NORMALIZED FREE ENERGY PREDICTED BY IDOCK:   -6.50 KCAL/MOL
REMARK 922        TOTAL FREE ENERGY PREDICTED BY IDOCK:   -7.62 KCAL/MOL
REMARK 923 INTER-LIGAND FREE ENERGY PREDICTED BY IDOCK:   -6.96 KCAL/MOL
REMARK 924 INTRA-LIGAND FREE ENERGY PREDICTED BY IDOCK:   -0.67 KCAL/MOL
REMARK 927      BINDING AFFINITY PREDICTED BY RF-SCORE:    0.00 PKD
ROOT
HETATM    1  C   UNL     1      -9.700  15.459  69.684  1.00  0.00    -0.246 C  
HETATM    2  N   UNL     1     -10.177  15.192  68.322  1.00  0.00    -0.221 N  
HETATM    3  C   UNL     1     -10.109  16.106  67.192  1.00  0.00    -0.269 C  
HETATM    4  C   UNL     1     -12.485  12.598  64.720  1.00  0.00    -0.484 A  
HETATM    5  C   UNL     1     -10.594  15.781  65.962  1.00  0.00    -0.326 C  
HETATM    6  O   UNL     1     -11.972  13.501  68.983  1.00  0.00    -0.327 OA 
HETATM    7  C   UNL     1     -11.238  14.530  65.684  1.00  0.00    -0.335 A  
HETATM    8  O   UNL     1     -10.536  16.609  64.858  1.00  0.00    -0.694 OA 
HETATM    9  C   UNL     1     -12.130  12.374  66.031  1.00  0.00    -0.327 A  
HETATM   10  C   UNL     1     -11.423  13.484  66.552  1.00  0.00    -0.339 A  
HETATM   11  S   UNL     1     -11.952  14.129  64.164  1.00  0.00    -0.323 SA 
HETATM   12  S   UNL     1     -10.799  13.634  68.136  1.00  0.00    -0.254 S  
HETATM   13  H   UNL     1     -10.874  16.382  64.000  1.00  0.00     0.000 HD 
HETATM   14  O   UNL     1      -9.709  12.694  68.176  1.00  0.00    -0.210 OA 
ENDROOT
BRANCH   3  15
HETATM   15  C   UNL     1      -9.579  17.520  67.324  1.00  0.00    -0.273 C  
HETATM   16  O   UNL     1     -10.381  18.455  67.384  1.00  0.00    -0.354 OA 
HETATM   17  N   UNL     1      -8.223  17.691  67.211  1.00  0.00    -0.210 N  
HETATM   18  H   UNL     1      -7.639  16.858  67.136  1.00  0.00     0.000 HD 
BRANCH  17  19
HETATM   19  C   UNL     1      -7.592  18.942  67.192  1.00  0.00    -0.229 A  
HETATM   20  C   UNL     1      -7.330  19.650  66.021  1.00  0.00    -0.308 A  
HETATM   21  C   UNL     1      -6.198  21.302  67.345  1.00  0.00    -0.428 A  
HETATM   22  C   UNL     1      -6.635  20.858  66.105  1.00  0.00    -0.230 A  
HETATM   23  C   UNL     1      -6.527  20.545  68.458  1.00  0.00    -0.275 A  
HETATM   24  N   UNL     1      -7.249  19.401  68.411  1.00  0.00    -0.297 NA 
ENDBRANCH  17  19
ENDBRANCH   3  15
TORSDOF 2
ENDMDL
MODEL        7
REMARK 921   NORMALIZED FREE ENERGY PREDICTED BY IDOCK:   -6.49 KCAL/MOL
REMARK 922        TOTAL FREE ENERGY PREDICTED BY IDOCK:   -7.62 KCAL/MOL
REMARK 923 INTER-LIGAND FREE ENERGY PREDICTED BY IDOCK:   -7.33 KCAL/MOL
REMARK 924 INTRA-LIGAND FREE ENERGY PREDICTED BY IDOCK:   -0.29 KCAL/MOL
REMARK 927      BINDING AFFINITY PREDICTED BY RF-SCORE:    0.00 PKD
ROOT
HETATM    1  C   UNL     1      -9.985  13.796  67.498  1.00  0.00    -0.233 C  
HETATM    2  N   UNL     1     -10.822  13.722  68.701  1.00  0.00    -0.256 N  
HETATM    3  C   UNL     1     -11.452  12.526  69.240  1.00  0.00    -0.293 C  
HETATM    4  C   UNL     1     -13.390  15.537  72.594  1.00  0.00    -0.522 A  
HETATM    5  C   UNL     1     -12.230  12.553  70.357  1.00  0.00    -0.286 C  
HETATM    6  O   UNL     1     -11.651  16.136  68.610  1.00  0.00    -0.376 OA 
HETATM    7  C   UNL     1     -12.522  13.760  71.075  1.00  0.00    -0.380 A  
HETATM    8  O   UNL     1     -12.833  11.441  70.912  1.00  0.00    -0.313 OA 
HETATM    9  C   UNL     1     -12.529  16.048  71.648  1.00  0.00    -0.428 A  
HETATM   10  C   UNL     1     -12.052  15.018  70.802  1.00  0.00    -0.322 A  
HETATM   11  S   UNL     1     -13.585  13.842  72.432  1.00  0.00    -0.601 SA 
HETATM   12  S   UNL     1     -10.968  15.206  69.493  1.00  0.00    -0.288 S  
HETATM   13  H   UNL     1     -13.376  11.460  71.692  1.00  0.00     0.000 HD 
HETATM   14  O   UNL     1      -9.710  15.520  70.119  1.00  0.00    -0.191 OA 
ENDROOT
BRANCH   3  15
HETATM   15  C   UNL     1     -11.363  11.181  68.546  1.00  0.00    -0.282 C  
HETATM   16  O   UNL     1     -11.982  11.012  67.493  1.00  0.00    -0.529 OA 
HETATM   17  N   UNL     1     -10.719  10.175  69.218  1.00  0.00    -0.218 N  
HETATM   18  H   UNL     1     -10.259  10.403  70.100  1.00  0.00     0.000 HD 
BRANCH  17  19
HETATM   19  C   UNL     1     -10.656   8.850  68.766  1.00  0.00    -0.157 A  
HETATM   20  C   UNL     1     -10.426   8.505  67.436  1.00  0.00    -0.351 A  
HETATM   21  C   UNL     1     -10.733   6.203  68.042  1.00  0.00    -0.370 A  
HETATM   22  C   UNL     1     -10.450   7.157  67.075  1.00  0.00    -0.392 A  
HETATM   23  C   UNL     1     -10.923   6.636  69.344  1.00  0.00    -0.309 A  
HETATM   24  N   UNL     1     -10.848   7.931  69.732  1.00  0.00    -0.235 NA 
ENDBRANCH  17  19
ENDBRANCH   3  15
TORSDOF 2
ENDMDL
MODEL        8
REMARK 921   NORMALIZED FREE ENERGY PREDICTED BY IDOCK:   -6.44 KCAL/MOL
REMARK 922        TOTAL FREE ENERGY PREDICTED BY IDOCK:   -7.55 KCAL/MOL
REMARK 923 INTER-LIGAND FREE ENERGY PREDICTED BY IDOCK:   -7.05 KCAL/MOL
REMARK 924 INTRA-LIGAND FREE ENERGY PREDICTED BY IDOCK:   -0.51 KCAL/MOL
REMARK 927      BINDING AFFINITY PREDICTED BY RF-SCORE:    0.00 PKD
ROOT
HETATM    1  C   UNL     1     -11.884  15.078  64.082  1.00  0.00    -0.167 C  
HETATM    2  N   UNL     1     -11.076  14.184  64.920  1.00  0.00    -0.365 N  
HETATM    3  C   UNL     1     -10.079  14.589  65.898  1.00  0.00    -0.326 C  
HETATM    4  C   UNL     1      -9.292   9.785  66.500  1.00  0.00    -0.162 A  
HETATM    5  C   UNL     1      -9.359  13.687  66.621  1.00  0.00    -0.254 C  
HETATM    6  O   UNL     1     -11.119  12.193  63.320  1.00  0.00    -0.410 OA 
HETATM    7  C   UNL     1      -9.498  12.269  66.458  1.00  0.00    -0.236 A  
HETATM    8  O   UNL     1      -8.415  14.026  67.571  1.00  0.00    -0.170 OA 
HETATM    9  C   UNL     1     -10.272  10.202  65.627  1.00  0.00    -0.288 A  
HETATM   10  C   UNL     1     -10.368  11.614  65.625  1.00  0.00    -0.262 A  
HETATM   11  S   UNL     1      -8.531  11.104  67.286  1.00  0.00    -0.141 SA 
HETATM   12  S   UNL     1     -11.446  12.553  64.689  1.00  0.00    -0.344 S  
HETATM   13  H   UNL     1      -7.914  13.397  68.075  1.00  0.00     0.000 HD 
HETATM   14  O   UNL     1     -12.739  12.287  65.267  1.00  0.00    -0.543 OA 
ENDROOT
BRANCH   3  15
HETATM   15  C   UNL     1      -9.702  16.041  66.117  1.00  0.00    -0.324 C  
HETATM   16  O   UNL     1      -8.558  16.408  65.839  1.00  0.00    -0.407 OA 
HETATM   17  N   UNL     1     -10.616  16.832  66.764  1.00  0.00    -0.253 N  
HETATM   18  H   UNL     1     -11.530  16.431  66.980  1.00  0.00     0.000 HD 
BRANCH  17  19
HETATM   19  C   UNL     1     -10.371  18.158  67.144  1.00  0.00    -0.379 A  
HETATM   20  C   UNL     1     -10.219  19.201  66.233  1.00  0.00    -0.527 A  
HETATM   21  C   UNL     1      -9.729  20.659  68.076  1.00  0.00    -0.186 A  
HETATM   22  C   UNL     1      -9.909  20.475  66.712  1.00  0.00    -0.460 A  
HETATM   23  C   UNL     1      -9.925  19.570  68.909  1.00  0.00    -0.448 A  
HETATM   24  N   UNL     1     -10.283  18.338  68.477  1.00  0.00    -0.391 NA 
ENDBRANCH  17  19
ENDBRANCH   3  15
TORSDOF 2
ENDMDL
MODEL        9
REMARK 921   NORMALIZED FREE ENERGY PREDICTED BY IDOCK:   -6.36 KCAL/MOL
REMARK 922        TOTAL FREE ENERGY PREDICTED BY IDOCK:   -7.46 KCAL/MOL
REMARK 923 INTER-LIGAND FREE ENERGY PREDICTED BY IDOCK:   -7.25 KCAL/MOL
REMARK 924 INTRA-LIGAND FREE ENERGY PREDICTED BY IDOCK:   -0.21 KCAL/MOL
REMARK 927      BINDING AFFINITY PREDICTED BY RF-SCORE:    0.00 PKD
ROOT
HETATM    1  C   UNL     1     -10.059   8.987  69.098  1.00  0.00    -0.195 C  
HETATM    2  N   UNL     1     -10.252   9.808  67.897  1.00  0.00    -0.182 N  
HETATM    3  C   UNL     1     -11.045  11.025  67.806  1.00  0.00    -0.295 C  
HETATM    4  C   UNL     1      -9.881  10.952  63.041  1.00  0.00    -0.321 A  
HETATM    5  C   UNL     1     -11.184  11.717  66.641  1.00  0.00    -0.323 C  
HETATM    6  O   UNL     1      -9.910   7.920  66.212  1.00  0.00    -0.182 OA 
HETATM    7  C   UNL     1     -10.594  11.291  65.406  1.00  0.00    -0.250 A  
HETATM    8  O   UNL     1     -11.912  12.884  66.512  1.00  0.00    -0.396 OA 
HETATM    9  C   UNL     1      -9.372   9.980  63.873  1.00  0.00    -0.315 A  
HETATM   10  C   UNL     1      -9.791  10.198  65.207  1.00  0.00    -0.319 A  
HETATM   11  S   UNL     1     -10.836  12.090  63.895  1.00  0.00    -0.445 SA 
HETATM   12  S   UNL     1      -9.396   9.233  66.562  1.00  0.00    -0.195 S  
HETATM   13  H   UNL     1     -12.009  13.367  65.699  1.00  0.00     0.000 HD 
HETATM   14  O   UNL     1      -7.992   9.480  66.773  1.00  0.00    -0.107 OA 
ENDROOT
BRANCH   3  15
HETATM   15  C   UNL     1     -11.846  11.561  68.976  1.00  0.00    -0.343 C  
HETATM   16  O   UNL     1     -12.832  10.928  69.362  1.00  0.00    -0.201 OA 
HETATM   17  N   UNL     1     -11.515  12.808  69.439  1.00  0.00    -0.373 N  
HETATM   18  H   UNL     1     -10.698  13.269  69.038  1.00  0.00     0.000 HD 
BRANCH  17  19
HETATM   19  C   UNL     1     -12.234  13.488  70.432  1.00  0.00    -0.356 A  
HETATM   20  C   UNL     1     -12.808  12.854  71.532  1.00  0.00    -0.380 A  
HETATM   21  C   UNL     1     -13.746  14.965  72.183  1.00  0.00    -0.550 A  
HETATM   22  C   UNL     1     -13.562  13.612  72.429  1.00  0.00    -0.703 A  
HETATM   23  C   UNL     1     -13.117  15.515  71.078  1.00  0.00    -0.489 A  
HETATM   24  N   UNL     1     -12.333  14.815  70.225  1.00  0.00    -0.331 NA 
ENDBRANCH  17  19
ENDBRANCH   3  15
TORSDOF 2
ENDMDL
MODEL       10
REMARK 921   NORMALIZED FREE ENERGY PREDICTED BY IDOCK:   -6.35 KCAL/MOL
REMARK 922        TOTAL FREE ENERGY PREDICTED BY IDOCK:   -7.45 KCAL/MOL
REMARK 923 INTER-LIGAND FREE ENERGY PREDICTED BY IDOCK:   -6.86 KCAL/MOL
REMARK 924 INTRA-LIGAND FREE ENERGY PREDICTED BY IDOCK:   -0.60 KCAL/MOL
REMARK 927      BINDING AFFINITY PREDICTED BY RF-SCORE:    0.00 PKD
ROOT
HETATM    1  C   UNL     1     -11.781  12.787  68.475  1.00  0.00    -0.333 C  
HETATM    2  N   UNL     1     -11.170  11.991  67.404  1.00  0.00    -0.286 N  
HETATM    3  C   UNL     1     -10.551  10.683  67.551  1.00  0.00    -0.252 C  
HETATM    4  C   UNL     1      -9.499  11.084  62.776  1.00  0.00    -0.334 A  
HETATM    5  C   UNL     1      -9.990  10.021  66.501  1.00  0.00    -0.225 C  
HETATM    6  O   UNL     1     -10.539  13.968  65.915  1.00  0.00    -0.288 OA 
HETATM    7  C   UNL     1      -9.932  10.567  65.176  1.00  0.00    -0.309 A  
HETATM    8  O   UNL     1      -9.407   8.772  66.591  1.00  0.00    -0.162 OA 
HETATM    9  C   UNL     1     -10.215  12.085  63.394  1.00  0.00    -0.457 A  
HETATM   10  C   UNL     1     -10.447  11.765  64.753  1.00  0.00    -0.293 A  
HETATM   11  S   UNL     1      -9.139   9.798  63.850  1.00  0.00    -0.184 SA 
HETATM   12  S   UNL     1     -11.290  12.725  65.888  1.00  0.00    -0.342 S  
HETATM   13  H   UNL     1      -9.016   8.310  65.858  1.00  0.00     0.000 HD 
HETATM   14  O   UNL     1     -12.662  12.662  65.453  1.00  0.00    -0.635 OA 
ENDROOT
BRANCH   3  15
HETATM   15  C   UNL     1     -10.404  10.002  68.897  1.00  0.00    -0.202 C  
HETATM   16  O   UNL     1      -9.358  10.159  69.533  1.00  0.00    -0.210 OA 
HETATM   17  N   UNL     1     -11.388   9.119  69.261  1.00  0.00    -0.420 N  
HETATM   18  H   UNL     1     -12.205   9.035  68.656  1.00  0.00     0.000 HD 
BRANCH  17  19
HETATM   19  C   UNL     1     -11.337   8.326  70.415  1.00  0.00    -0.175 A  
HETATM   20  C   UNL     1     -11.395   8.848  71.705  1.00  0.00    -0.431 A  
HETATM   21  C   UNL     1     -11.056   6.627  72.553  1.00  0.00    -0.296 A  
HETATM   22  C   UNL     1     -11.268   7.978  72.790  1.00  0.00    -0.448 A  
HETATM   23  C   UNL     1     -11.038   6.195  71.237  1.00  0.00    -0.291 A  
HETATM   24  N   UNL     1     -11.217   7.007  70.169  1.00  0.00    -0.284 NA 
ENDBRANCH  17  19
ENDBRANCH   3  15
TORSDOF 2
ENDMDL
MODEL       11
REMARK 921   NORMALIZED FREE ENERGY PREDICTED BY IDOCK:   -6.33 KCAL/MOL
REMARK 922        TOTAL FREE ENERGY PREDICTED BY IDOCK:   -7.44 KCAL/MOL
REMARK 923 INTER-LIGAND FREE ENERGY PREDICTED BY IDOCK:   -6.98 KCAL/MOL
REMARK 924 INTRA-LIGAND FREE ENERGY PREDICTED BY IDOCK:   -0.45 KCAL/MOL
REMARK 927      BINDING AFFINITY PREDICTED BY RF-SCORE:    0.00 PKD
ROOT
HETATM    1  C   UNL     1     -12.518  13.477  66.433  1.00  0.00    -0.292 C  
HETATM    2  N   UNL     1     -11.123  13.676  66.845  1.00  0.00    -0.299 N  
HETATM    3  C   UNL     1     -10.370  12.835  67.763  1.00  0.00    -0.221 C  
HETATM    4  C   UNL     1      -6.755  16.094  67.154  1.00  0.00    -0.192 A  
HETATM    5  C   UNL     1      -9.080  13.105  68.105  1.00  0.00    -0.200 C  
HETATM    6  O   UNL     1     -11.093  16.207  66.509  1.00  0.00    -0.125 OA 
HETATM    7  C   UNL     1      -8.369  14.252  67.621  1.00  0.00    -0.181 A  
HETATM    8  O   UNL     1      -8.321  12.326  68.957  1.00  0.00    -0.345 OA 
HETATM    9  C   UNL     1      -7.930  16.256  66.456  1.00  0.00    -0.326 A  
HETATM   10  C   UNL     1      -8.826  15.197  66.738  1.00  0.00    -0.271 A  
HETATM   11  S   UNL     1      -6.770  14.676  68.115  1.00  0.00    -0.148 SA 
HETATM   12  S   UNL     1     -10.397  15.001  66.094  1.00  0.00    -0.318 S  
HETATM   13  H   UNL     1      -7.421  12.515  69.196  1.00  0.00     0.000 HD 
HETATM   14  O   UNL     1     -10.172  14.679  64.708  1.00  0.00    -0.367 OA 
ENDROOT
BRANCH   3  15
HETATM   15  C   UNL     1     -10.993  11.650  68.475  1.00  0.00    -0.220 C  
HETATM   16  O   UNL     1     -11.624  10.822  67.813  1.00  0.00    -0.521 OA 
HETATM   17  N   UNL     1     -10.948  11.653  69.845  1.00  0.00    -0.454 N  
HETATM   18  H   UNL     1     -10.425  12.396  70.308  1.00  0.00     0.000 HD 
BRANCH  17  19
HETATM   19  C   UNL     1     -11.580  10.693  70.648  1.00  0.00    -0.336 A  
HETATM   20  C   UNL     1     -12.892  10.815  71.098  1.00  0.00    -0.513 A  
HETATM   21  C   UNL     1     -12.587   8.790  72.350  1.00  0.00    -0.430 A  
HETATM   22  C   UNL     1     -13.406   9.836  71.951  1.00  0.00    -0.530 A  
HETATM   23  C   UNL     1     -11.304   8.736  71.831  1.00  0.00    -0.361 A  
HETATM   24  N   UNL     1     -10.800   9.639  70.959  1.00  0.00    -0.335 NA 
ENDBRANCH  17  19
ENDBRANCH   3  15
TORSDOF 2
ENDMDL
MODEL       12
REMARK 921   NORMALIZED FREE ENERGY PREDICTED BY IDOCK:   -6.30 KCAL/MOL
REMARK 922        TOTAL FREE ENERGY PREDICTED BY IDOCK:   -7.40 KCAL/MOL
REMARK 923 INTER-LIGAND FREE ENERGY PREDICTED BY IDOCK:   -6.85 KCAL/MOL
REMARK 924 INTRA-LIGAND FREE ENERGY PREDICTED BY IDOCK:   -0.55 KCAL/MOL
REMARK 927      BINDING AFFINITY PREDICTED BY RF-SCORE:    0.00 PKD
ROOT
HETATM    1  C   UNL     1      -7.861  14.529  68.981  1.00  0.00    -0.106 C  
HETATM    2  N   UNL     1      -8.121  15.932  68.639  1.00  0.00    -0.151 N  
HETATM    3  C   UNL     1      -9.395  16.624  68.754  1.00  0.00    -0.256 C  
HETATM    4  C   UNL     1      -7.042  20.455  66.791  1.00  0.00    -0.269 A  
HETATM    5  C   UNL     1      -9.551  17.929  68.395  1.00  0.00    -0.320 C  
HETATM    6  O   UNL     1      -6.274  16.136  66.887  1.00  0.00    -0.316 OA 
HETATM    7  C   UNL     1      -8.487  18.718  67.845  1.00  0.00    -0.292 A  
HETATM    8  O   UNL     1     -10.736  18.630  68.503  1.00  0.00    -0.325 OA 
HETATM    9  C   UNL     1      -6.345  19.295  67.044  1.00  0.00    -0.189 A  
HETATM   10  C   UNL     1      -7.188  18.329  67.643  1.00  0.00    -0.210 A  
HETATM   11  S   UNL     1      -8.678  20.340  67.288  1.00  0.00    -0.330 SA 
HETATM   12  S   UNL     1      -6.738  16.749  68.119  1.00  0.00    -0.152 S  
HETATM   13  H   UNL     1     -10.844  19.540  68.252  1.00  0.00     0.000 HD 
HETATM   14  O   UNL     1      -5.872  16.956  69.251  1.00  0.00    -0.151 OA 
ENDROOT
BRANCH   3  15
HETATM   15  C   UNL     1     -10.663  15.920  69.195  1.00  0.00    -0.259 C  
HETATM   16  O   UNL     1     -11.594  15.812  68.393  1.00  0.00    -0.373 OA 
HETATM   17  N   UNL     1     -10.759  15.580  70.519  1.00  0.00    -0.381 N  
HETATM   18  H   UNL     1      -9.946  15.733  71.115  1.00  0.00     0.000 HD 
BRANCH  17  19
HETATM   19  C   UNL     1     -11.910  15.032  71.103  1.00  0.00    -0.333 A  
HETATM   20  C   UNL     1     -12.784  15.764  71.904  1.00  0.00    -0.516 A  
HETATM   21  C   UNL     1     -14.021  13.744  72.294  1.00  0.00    -0.672 A  
HETATM   22  C   UNL     1     -13.866  15.108  72.494  1.00  0.00    -0.602 A  
HETATM   23  C   UNL     1     -13.117  13.104  71.461  1.00  0.00    -0.315 A  
HETATM   24  N   UNL     1     -12.095  13.726  70.830  1.00  0.00    -0.331 NA 
ENDBRANCH  17  19
ENDBRANCH   3  15
TORSDOF 2
ENDMDL
MODEL       13
REMARK 921   NORMALIZED FREE ENERGY PREDICTED BY IDOCK:   -6.30 KCAL/MOL
REMARK 922        TOTAL FREE ENERGY PREDICTED BY IDOCK:   -7.40 KCAL/MOL
REMARK 923 INTER-LIGAND FREE ENERGY PREDICTED BY IDOCK:   -6.87 KCAL/MOL
REMARK 924 INTRA-LIGAND FREE ENERGY PREDICTED BY IDOCK:   -0.53 KCAL/MOL
REMARK 927      BINDING AFFINITY PREDICTED BY RF-SCORE:    0.00 PKD
ROOT
HETATM    1  C   UNL     1      -9.609  13.937  66.601  1.00  0.00    -0.289 C  
HETATM    2  N   UNL     1      -9.955  12.549  66.930  1.00  0.00    -0.220 N  
HETATM    3  C   UNL     1     -10.967  12.117  67.882  1.00  0.00    -0.229 C  
HETATM    4  C   UNL     1      -9.456   7.572  66.822  1.00  0.00    -0.179 A  
HETATM    5  C   UNL     1     -11.210  10.802  68.139  1.00  0.00    -0.302 C  
HETATM    6  O   UNL     1      -7.670  11.554  66.371  1.00  0.00    -0.108 OA 
HETATM    7  C   UNL     1     -10.472   9.738  67.523  1.00  0.00    -0.251 A  
HETATM    8  O   UNL     1     -12.171  10.347  69.021  1.00  0.00    -0.701 OA 
HETATM    9  C   UNL     1      -8.884   8.640  66.168  1.00  0.00    -0.204 A  
HETATM   10  C   UNL     1      -9.481   9.855  66.583  1.00  0.00    -0.173 A  
HETATM   11  S   UNL     1     -10.688   8.068  67.904  1.00  0.00     0.004 SA 
HETATM   12  S   UNL     1      -9.076  11.422  66.032  1.00  0.00    -0.190 S  
HETATM   13  H   UNL     1     -12.341   9.429  69.200  1.00  0.00     0.000 HD 
HETATM   14  O   UNL     1      -9.547  11.449  64.671  1.00  0.00    -0.232 OA 
ENDROOT
BRANCH   3  15
HETATM   15  C   UNL     1     -11.760  13.098  68.723  1.00  0.00    -0.324 C  
HETATM   16  O   UNL     1     -12.407  13.982  68.157  1.00  0.00    -0.248 OA 
HETATM   17  N   UNL     1     -11.584  13.038  70.082  1.00  0.00    -0.536 N  
HETATM   18  H   UNL     1     -11.006  12.287  70.459  1.00  0.00     0.000 HD 
BRANCH  17  19
HETATM   19  C   UNL     1     -12.152  13.949  70.983  1.00  0.00    -0.277 A  
HETATM   20  C   UNL     1     -11.515  15.117  71.395  1.00  0.00    -0.405 A  
HETATM   21  C   UNL     1     -13.354  15.523  72.883  1.00  0.00    -0.646 A  
HETATM   22  C   UNL     1     -12.137  15.923  72.349  1.00  0.00    -0.605 A  
HETATM   23  C   UNL     1     -13.925  14.360  72.394  1.00  0.00    -0.486 A  
HETATM   24  N   UNL     1     -13.372  13.590  71.429  1.00  0.00    -0.271 NA 
ENDBRANCH  17  19
ENDBRANCH   3  15
TORSDOF 2
ENDMDL
MODEL       14
REMARK 921   NORMALIZED FREE ENERGY PREDICTED BY IDOCK:   -6.29 KCAL/MOL
REMARK 922        TOTAL FREE ENERGY PREDICTED BY IDOCK:   -7.38 KCAL/MOL
REMARK 923 INTER-LIGAND FREE ENERGY PREDICTED BY IDOCK:   -6.71 KCAL/MOL
REMARK 924 INTRA-LIGAND FREE ENERGY PREDICTED BY IDOCK:   -0.67 KCAL/MOL
REMARK 927      BINDING AFFINITY PREDICTED BY RF-SCORE:    0.00 PKD
ROOT
HETATM    1  C   UNL     1     -10.761  18.649  65.714  1.00  0.00    -0.179 C  
HETATM    2  N   UNL     1      -9.675  18.177  66.580  1.00  0.00    -0.319 N  
HETATM    3  C   UNL     1      -9.400  16.794  66.939  1.00  0.00    -0.236 C  
HETATM    4  C   UNL     1      -5.823  18.646  69.738  1.00  0.00    -0.252 A  
HETATM    5  C   UNL     1      -8.377  16.446  67.768  1.00  0.00    -0.165 C  
HETATM    6  O   UNL     1      -9.465  20.320  67.953  1.00  0.00    -0.335 OA 
HETATM    7  C   UNL     1      -7.510  17.409  68.382  1.00  0.00    -0.234 A  
HETATM    8  O   UNL     1      -8.069  15.147  68.122  1.00  0.00    -0.130 OA 
HETATM    9  C   UNL     1      -6.584  19.498  68.968  1.00  0.00    -0.355 A  
HETATM   10  C   UNL     1      -7.530  18.769  68.209  1.00  0.00    -0.275 A  
HETATM   11  S   UNL     1      -6.271  17.007  69.514  1.00  0.00    -0.232 SA 
HETATM   12  S   UNL     1      -8.677  19.425  67.124  1.00  0.00    -0.306 S  
HETATM   13  H   UNL     1      -7.356  14.904  68.700  1.00  0.00     0.000 HD 
HETATM   14  O   UNL     1      -7.885  19.896  66.017  1.00  0.00    -0.330 OA 
ENDROOT
BRANCH   3  15
HETATM   15  C   UNL     1     -10.286  15.648  66.491  1.00  0.00    -0.291 C  
HETATM   16  O   UNL     1     -11.232  15.311  67.207  1.00  0.00    -0.335 OA 
HETATM   17  N   UNL     1      -9.887  14.949  65.381  1.00  0.00    -0.429 N  
HETATM   18  H   UNL     1      -9.073  15.287  64.867  1.00  0.00     0.000 HD 
BRANCH  17  19
HETATM   19  C   UNL     1     -10.531  13.796  64.912  1.00  0.00    -0.418 A  
HETATM   20  C   UNL     1     -10.053  12.507  65.136  1.00  0.00    -0.266 A  
HETATM   21  C   UNL     1     -11.842  11.671  63.770  1.00  0.00    -0.382 A  
HETATM   22  C   UNL     1     -10.732  11.428  64.567  1.00  0.00    -0.391 A  
HETATM   23  C   UNL     1     -12.260  12.984  63.624  1.00  0.00    -0.491 A  
HETATM   24  N   UNL     1     -11.655  14.042  64.211  1.00  0.00    -0.361 NA 
ENDBRANCH  17  19
ENDBRANCH   3  15
TORSDOF 2
ENDMDL
MODEL       15
REMARK 921   NORMALIZED FREE ENERGY PREDICTED BY IDOCK:   -6.27 KCAL/MOL
REMARK 922        TOTAL FREE ENERGY PREDICTED BY IDOCK:   -7.36 KCAL/MOL
REMARK 923 INTER-LIGAND FREE ENERGY PREDICTED BY IDOCK:   -7.78 KCAL/MOL
REMARK 924 INTRA-LIGAND FREE ENERGY PREDICTED BY IDOCK:    0.42 KCAL/MOL
REMARK 927      BINDING AFFINITY PREDICTED BY RF-SCORE:    0.00 PKD
ROOT
HETATM    1  C   UNL     1     -12.607  13.847  65.944  1.00  0.00    -0.456 C  
HETATM    2  N   UNL     1     -11.734  12.669  65.889  1.00  0.00    -0.398 N  
HETATM    3  C   UNL     1     -11.375  11.811  67.008  1.00  0.00    -0.321 C  
HETATM    4  C   UNL     1      -8.551   9.442  63.772  1.00  0.00    -0.211 A  
HETATM    5  C   UNL     1     -10.539  10.745  66.869  1.00  0.00    -0.258 C  
HETATM    6  O   UNL     1     -10.358  13.438  63.880  1.00  0.00    -0.275 OA 
HETATM    7  C   UNL     1      -9.919  10.398  65.623  1.00  0.00    -0.272 A  
HETATM    8  O   UNL     1     -10.185   9.894  67.898  1.00  0.00    -0.171 OA 
HETATM    9  C   UNL     1      -9.324  10.497  63.344  1.00  0.00    -0.335 A  
HETATM   10  C   UNL     1     -10.091  11.018  64.413  1.00  0.00    -0.334 A  
HETATM   11  S   UNL     1      -8.779   9.115  65.439  1.00  0.00    -0.196 SA 
HETATM   12  S   UNL     1     -11.183  12.331  64.330  1.00  0.00    -0.381 S  
HETATM   13  H   UNL     1      -9.602   9.151  67.802  1.00  0.00     0.000 HD 
HETATM   14  O   UNL     1     -12.284  11.824  63.552  1.00  0.00    -0.500 OA 
ENDROOT
BRANCH   3  15
HETATM   15  C   UNL     1     -11.830  12.095  68.426  1.00  0.00    -0.303 C  
HETATM   16  O   UNL     1     -12.361  11.190  69.074  1.00  0.00    -0.479 OA 
HETATM   17  N   UNL     1     -11.764  13.396  68.853  1.00  0.00    -0.307 N  
HETATM   18  H   UNL     1     -11.333  14.084  68.235  1.00  0.00     0.000 HD 
BRANCH  17  19
HETATM   19  C   UNL     1     -12.255  13.837  70.090  1.00  0.00    -0.356 A  
HETATM   20  C   UNL     1     -12.726  12.976  71.078  1.00  0.00    -0.347 A  
HETATM   21  C   UNL     1     -13.332  14.900  72.380  1.00  0.00    -0.502 A  
HETATM   22  C   UNL     1     -13.258  13.520  72.248  1.00  0.00    -0.571 A  
HETATM   23  C   UNL     1     -12.815  15.678  71.357  1.00  0.00    -0.482 A  
HETATM   24  N   UNL     1     -12.242  15.176  70.238  1.00  0.00    -0.327 NA 
ENDBRANCH  17  19
ENDBRANCH   3  15
TORSDOF 2
ENDMDL
MODEL       16
REMARK 921   NORMALIZED FREE ENERGY PREDICTED BY IDOCK:   -6.23 KCAL/MOL
REMARK 922        TOTAL FREE ENERGY PREDICTED BY IDOCK:   -7.32 KCAL/MOL
REMARK 923 INTER-LIGAND FREE ENERGY PREDICTED BY IDOCK:   -6.63 KCAL/MOL
REMARK 924 INTRA-LIGAND FREE ENERGY PREDICTED BY IDOCK:   -0.69 KCAL/MOL
REMARK 927      BINDING AFFINITY PREDICTED BY RF-SCORE:    0.00 PKD
ROOT
HETATM    1  C   UNL     1      -9.612  11.752  66.229  1.00  0.00    -0.225 C  
HETATM    2  N   UNL     1      -9.959  12.828  67.166  1.00  0.00    -0.215 N  
HETATM    3  C   UNL     1     -10.678  12.676  68.421  1.00  0.00    -0.242 C  
HETATM    4  C   UNL     1     -10.365  17.562  68.732  1.00  0.00    -0.358 A  
HETATM    5  C   UNL     1     -10.975  13.736  69.223  1.00  0.00    -0.163 C  
HETATM    6  O   UNL     1     -10.032  14.696  65.426  1.00  0.00    -0.359 OA 
HETATM    7  C   UNL     1     -10.635  15.088  68.885  1.00  0.00    -0.242 A  
HETATM    8  O   UNL     1     -11.640  13.638  70.430  1.00  0.00    -0.503 OA 
HETATM    9  C   UNL     1      -9.781  16.917  67.665  1.00  0.00    -0.249 A  
HETATM   10  C   UNL     1      -9.948  15.516  67.779  1.00  0.00    -0.222 A  
HETATM   11  S   UNL     1     -11.086  16.460  69.830  1.00  0.00    -0.236 SA 
HETATM   12  S   UNL     1      -9.384  14.337  66.676  1.00  0.00    -0.270 S  
HETATM   13  H   UNL     1     -11.847  14.377  70.989  1.00  0.00     0.000 HD 
HETATM   14  O   UNL     1      -7.953  14.360  66.837  1.00  0.00    -0.089 OA 
ENDROOT
BRANCH   3  15
HETATM   15  C   UNL     1     -11.230  11.342  68.884  1.00  0.00    -0.253 C  
HETATM   16  O   UNL     1     -12.280  10.927  68.387  1.00  0.00    -0.540 OA 
HETATM   17  N   UNL     1     -10.606  10.744  69.948  1.00  0.00    -0.451 N  
HETATM   18  H   UNL     1      -9.756  11.177  70.312  1.00  0.00     0.000 HD 
BRANCH  17  19
HETATM   19  C   UNL     1     -11.065   9.573  70.565  1.00  0.00    -0.283 A  
HETATM   20  C   UNL     1     -11.907   9.573  71.675  1.00  0.00    -0.468 A  
HETATM   21  C   UNL     1     -11.724   7.180  71.737  1.00  0.00    -0.324 A  
HETATM   22  C   UNL     1     -12.253   8.352  72.258  1.00  0.00    -0.449 A  
HETATM   23  C   UNL     1     -10.916   7.275  70.616  1.00  0.00    -0.256 A  
HETATM   24  N   UNL     1     -10.612   8.439  69.996  1.00  0.00    -0.232 NA 
ENDBRANCH  17  19
ENDBRANCH   3  15
TORSDOF 2
ENDMDL
MODEL       17
REMARK 921   NORMALIZED FREE ENERGY PREDICTED BY IDOCK:   -6.22 KCAL/MOL
REMARK 922        TOTAL FREE ENERGY PREDICTED BY IDOCK:   -7.31 KCAL/MOL
REMARK 923 INTER-LIGAND FREE ENERGY PREDICTED BY IDOCK:   -6.79 KCAL/MOL
REMARK 924 INTRA-LIGAND FREE ENERGY PREDICTED BY IDOCK:   -0.52 KCAL/MOL
REMARK 927      BINDING AFFINITY PREDICTED BY RF-SCORE:    0.00 PKD
ROOT
HETATM    1  C   UNL     1      -7.434  10.183  68.611  1.00  0.00    -0.084 C  
HETATM    2  N   UNL     1      -8.681   9.846  69.306  1.00  0.00    -0.156 N  
HETATM    3  C   UNL     1     -10.011  10.334  68.973  1.00  0.00    -0.213 C  
HETATM    4  C   UNL     1     -11.492   7.809  72.909  1.00  0.00    -0.303 A  
HETATM    5  C   UNL     1     -11.116   9.982  69.686  1.00  0.00    -0.259 C  
HETATM    6  O   UNL     1      -7.612   9.362  71.574  1.00  0.00    -0.329 OA 
HETATM    7  C   UNL     1     -11.060   9.133  70.841  1.00  0.00    -0.291 A  
HETATM    8  O   UNL     1     -12.398  10.406  69.396  1.00  0.00    -0.590 OA 
HETATM    9  C   UNL     1     -10.166   7.766  72.542  1.00  0.00    -0.320 A  
HETATM   10  C   UNL     1      -9.950   8.523  71.366  1.00  0.00    -0.233 A  
HETATM   11  S   UNL     1     -12.427   8.751  71.824  1.00  0.00    -0.374 SA 
HETATM   12  S   UNL     1      -8.456   8.745  70.565  1.00  0.00    -0.185 S  
HETATM   13  H   UNL     1     -13.169  10.161  69.894  1.00  0.00     0.000 HD 
HETATM   14  O   UNL     1      -8.164   7.452  70.001  1.00  0.00    -0.126 OA 
ENDROOT
BRANCH   3  15
HETATM   15  C   UNL     1     -10.251  11.340  67.864  1.00  0.00    -0.181 C  
HETATM   16  O   UNL     1      -9.920  12.515  68.044  1.00  0.00    -0.206 OA 
HETATM   17  N   UNL     1     -10.970  10.912  66.778  1.00  0.00    -0.228 N  
HETATM   18  H   UNL     1     -11.225   9.925  66.730  1.00  0.00     0.000 HD 
BRANCH  17  19
HETATM   19  C   UNL     1     -11.374  11.750  65.730  1.00  0.00    -0.250 A  
HETATM   20  C   UNL     1     -10.894  11.634  64.428  1.00  0.00    -0.399 A  
HETATM   21  C   UNL     1     -12.160  13.590  63.851  1.00  0.00    -0.493 A  
HETATM   22  C   UNL     1     -11.309  12.562  63.471  1.00  0.00    -0.556 A  
HETATM   23  C   UNL     1     -12.606  13.612  65.162  1.00  0.00    -0.430 A  
HETATM   24  N   UNL     1     -12.266  12.692  66.095  1.00  0.00    -0.586 NA 
ENDBRANCH  17  19
ENDBRANCH   3  15
TORSDOF 2
ENDMDL
MODEL       18
REMARK 921   NORMALIZED FREE ENERGY PREDICTED BY IDOCK:   -6.21 KCAL/MOL
REMARK 922        TOTAL FREE ENERGY PREDICTED BY IDOCK:   -7.30 KCAL/MOL
REMARK 923 INTER-LIGAND FREE ENERGY PREDICTED BY IDOCK:   -6.69 KCAL/MOL
REMARK 924 INTRA-LIGAND FREE ENERGY PREDICTED BY IDOCK:   -0.60 KCAL/MOL
REMARK 927      BINDING AFFINITY PREDICTED BY RF-SCORE:    0.00 PKD
ROOT
HETATM    1  C   UNL     1     -11.381  15.283  64.698  1.00  0.00    -0.358 C  
HETATM    2  N   UNL     1     -10.908  14.301  65.681  1.00  0.00    -0.298 N  
HETATM    3  C   UNL     1     -10.247  14.597  66.943  1.00  0.00    -0.262 C  
HETATM    4  C   UNL     1      -9.875   9.731  67.435  1.00  0.00    -0.174 A  
HETATM    5  C   UNL     1      -9.823  13.619  67.791  1.00  0.00    -0.232 C  
HETATM    6  O   UNL     1     -10.530  12.401  64.017  1.00  0.00    -0.356 OA 
HETATM    7  C   UNL     1      -9.961  12.221  67.498  1.00  0.00    -0.199 A  
HETATM    8  O   UNL     1      -9.208  13.853  69.005  1.00  0.00    -0.394 OA 
HETATM    9  C   UNL     1     -10.519  10.248  66.334  1.00  0.00    -0.233 A  
HETATM   10  C   UNL     1     -10.555  11.662  66.397  1.00  0.00    -0.258 A  
HETATM   11  S   UNL     1      -9.344  10.961  68.503  1.00  0.00    -0.187 SA 
HETATM   12  S   UNL     1     -11.252  12.709  65.239  1.00  0.00    -0.311 S  
HETATM   13  H   UNL     1      -8.912  13.171  69.596  1.00  0.00     0.000 HD 
HETATM   14  O   UNL     1     -12.669  12.489  65.374  1.00  0.00    -0.624 OA 
ENDROOT
BRANCH   3  15
HETATM   15  C   UNL     1      -9.900  16.012  67.365  1.00  0.00    -0.236 C  
HETATM   16  O   UNL     1     -10.781  16.720  67.857  1.00  0.00    -0.344 OA 
HETATM   17  N   UNL     1      -8.655  16.475  67.027  1.00  0.00    -0.182 N  
HETATM   18  H   UNL     1      -8.000  15.822  66.595  1.00  0.00     0.000 HD 
BRANCH  17  19
HETATM   19  C   UNL     1      -8.228  17.793  67.240  1.00  0.00    -0.215 A  
HETATM   20  C   UNL     1      -7.757  18.256  68.467  1.00  0.00    -0.319 A  
HETATM   21  C   UNL     1      -7.594  20.450  67.506  1.00  0.00    -0.346 A  
HETATM   22  C   UNL     1      -7.420  19.605  68.593  1.00  0.00    -0.368 A  
HETATM   23  C   UNL     1      -8.044  19.896  66.319  1.00  0.00    -0.329 A  
HETATM   24  N   UNL     1      -8.323  18.582  66.153  1.00  0.00    -0.469 NA 
ENDBRANCH  17  19
ENDBRANCH   3  15
TORSDOF 2
ENDMDL
MODEL       19
REMARK 921   NORMALIZED FREE ENERGY PREDICTED BY IDOCK:   -6.17 KCAL/MOL
REMARK 922        TOTAL FREE ENERGY PREDICTED BY IDOCK:   -7.25 KCAL/MOL
REMARK 923 INTER-LIGAND FREE ENERGY PREDICTED BY IDOCK:   -6.62 KCAL/MOL
REMARK 924 INTRA-LIGAND FREE ENERGY PREDICTED BY IDOCK:   -0.63 KCAL/MOL
REMARK 927      BINDING AFFINITY PREDICTED BY RF-SCORE:    0.00 PKD
ROOT
HETATM    1  C   UNL     1     -13.024  10.573  71.627  1.00  0.00    -0.476 C  
HETATM    2  N   UNL     1     -12.140   9.666  70.887  1.00  0.00    -0.302 N  
HETATM    3  C   UNL     1     -11.403   9.983  69.673  1.00  0.00    -0.202 C  
HETATM    4  C   UNL     1      -9.966   5.294  69.795  1.00  0.00    -0.236 A  
HETATM    5  C   UNL     1     -10.616   9.069  69.040  1.00  0.00    -0.190 C  
HETATM    6  O   UNL     1     -13.292   7.505  71.612  1.00  0.00    -0.353 OA 
HETATM    7  C   UNL     1     -10.474   7.716  69.492  1.00  0.00    -0.227 A  
HETATM    8  O   UNL     1      -9.886   9.331  67.897  1.00  0.00    -0.155 OA 
HETATM    9  C   UNL     1     -10.767   5.778  70.805  1.00  0.00    -0.342 A  
HETATM   10  C   UNL     1     -11.037   7.154  70.608  1.00  0.00    -0.267 A  
HETATM   11  S   UNL     1      -9.566   6.510  68.655  1.00  0.00    -0.124 SA 
HETATM   12  S   UNL     1     -11.991   8.151  71.617  1.00  0.00    -0.316 S  
HETATM   13  H   UNL     1      -9.337   8.693  67.455  1.00  0.00     0.000 HD 
HETATM   14  O   UNL     1     -11.206   8.293  72.816  1.00  0.00    -0.371 OA 
ENDROOT
BRANCH   3  15
HETATM   15  C   UNL     1     -11.528  11.322  68.975  1.00  0.00    -0.302 C  
HETATM   16  O   UNL     1     -12.106  11.375  67.887  1.00  0.00    -0.646 OA 
HETATM   17  N   UNL     1     -10.850  12.379  69.526  1.00  0.00    -0.452 N  
HETATM   18  H   UNL     1     -10.375  12.232  70.418  1.00  0.00     0.000 HD 
BRANCH  17  19
HETATM   19  C   UNL     1     -10.770  13.648  68.937  1.00  0.00    -0.212 A  
HETATM   20  C   UNL     1      -9.724  14.041  68.105  1.00  0.00    -0.220 A  
HETATM   21  C   UNL     1     -10.703  16.231  68.012  1.00  0.00    -0.331 A  
HETATM   22  C   UNL     1      -9.703  15.352  67.623  1.00  0.00    -0.211 A  
HETATM   23  C   UNL     1     -11.716  15.745  68.822  1.00  0.00    -0.378 A  
HETATM   24  N   UNL     1     -11.792  14.465  69.255  1.00  0.00    -0.307 NA 
ENDBRANCH  17  19
ENDBRANCH   3  15
TORSDOF 2
ENDMDL
MODEL       20
REMARK 921   NORMALIZED FREE ENERGY PREDICTED BY IDOCK:   -6.14 KCAL/MOL
REMARK 922        TOTAL FREE ENERGY PREDICTED BY IDOCK:   -7.23 KCAL/MOL
REMARK 923 INTER-LIGAND FREE ENERGY PREDICTED BY IDOCK:   -6.59 KCAL/MOL
REMARK 924 INTRA-LIGAND FREE ENERGY PREDICTED BY IDOCK:   -0.63 KCAL/MOL
REMARK 927      BINDING AFFINITY PREDICTED BY RF-SCORE:    0.00 PKD
ROOT
HETATM    1  C   UNL     1     -12.426  13.935  66.295  1.00  0.00    -0.409 C  
HETATM    2  N   UNL     1     -11.239  13.372  66.948  1.00  0.00    -0.300 N  
HETATM    3  C   UNL     1     -10.239  14.112  67.702  1.00  0.00    -0.241 C  
HETATM    4  C   UNL     1      -7.938   9.800  68.122  1.00  0.00    -0.100 A  
HETATM    5  C   UNL     1      -9.154  13.507  68.262  1.00  0.00    -0.189 C  
HETATM    6  O   UNL     1     -10.990  11.366  65.387  1.00  0.00    -0.262 OA 
HETATM    7  C   UNL     1      -8.888  12.105  68.128  1.00  0.00    -0.187 A  
HETATM    8  O   UNL     1      -8.190  14.167  69.000  1.00  0.00    -0.307 OA 
HETATM    9  C   UNL     1      -9.149   9.855  67.469  1.00  0.00    -0.145 A  
HETATM   10  C   UNL     1      -9.665  11.173  67.489  1.00  0.00    -0.176 A  
HETATM   11  S   UNL     1      -7.472  11.329  68.738  1.00  0.00    -0.127 SA 
HETATM   12  S   UNL     1     -11.137  11.694  66.794  1.00  0.00    -0.306 S  
HETATM   13  H   UNL     1      -7.434  13.745  69.390  1.00  0.00     0.000 HD 
HETATM   14  O   UNL     1     -12.150  11.093  67.624  1.00  0.00    -0.537 OA 
ENDROOT
BRANCH   3  15
HETATM   15  C   UNL     1     -10.282  15.621  67.843  1.00  0.00    -0.239 C  
HETATM   16  O   UNL     1     -11.095  16.123  68.623  1.00  0.00    -0.318 OA 
HETATM   17  N   UNL     1      -9.515  16.350  66.973  1.00  0.00    -0.225 N  
HETATM   18  H   UNL     1      -8.891  15.845  66.342  1.00  0.00     0.000 HD 
BRANCH  17  19
HETATM   19  C   UNL     1      -9.536  17.750  66.898  1.00  0.00    -0.271 A  
HETATM   20  C   UNL     1      -8.777  18.572  67.728  1.00  0.00    -0.290 A  
HETATM   21  C   UNL     1      -9.837  20.472  66.712  1.00  0.00    -0.460 A  
HETATM   22  C   UNL     1      -8.921  19.957  67.618  1.00  0.00    -0.416 A  
HETATM   23  C   UNL     1     -10.529  19.579  65.910  1.00  0.00    -0.491 A  
HETATM   24  N   UNL     1     -10.366  18.236  65.955  1.00  0.00    -0.596 NA 
ENDBRANCH  17  19
ENDBRANCH   3  15
TORSDOF 2
ENDMDL
MODEL       21
REMARK 921   NORMALIZED FREE ENERGY PREDICTED BY IDOCK:   -5.98 KCAL/MOL
REMARK 922        TOTAL FREE ENERGY PREDICTED BY IDOCK:   -7.05 KCAL/MOL
REMARK 923 INTER-LIGAND FREE ENERGY PREDICTED BY IDOCK:   -6.42 KCAL/MOL
REMARK 924 INTRA-LIGAND FREE ENERGY PREDICTED BY IDOCK:   -0.63 KCAL/MOL
REMARK 927      BINDING AFFINITY PREDICTED BY RF-SCORE:    0.00 PKD
ROOT
HETATM    1  C   UNL     1      -7.262  13.928  68.281  1.00  0.00    -0.112 C  
HETATM    2  N   UNL     1      -8.390  14.154  67.370  1.00  0.00    -0.187 N  
HETATM    3  C   UNL     1      -8.663  15.373  66.624  1.00  0.00    -0.296 C  
HETATM    4  C   UNL     1     -12.711  13.060  65.096  1.00  0.00    -0.397 A  
HETATM    5  C   UNL     1      -9.749  15.502  65.811  1.00  0.00    -0.348 C  
HETATM    6  O   UNL     1      -9.983  12.500  68.487  1.00  0.00    -0.219 OA 
HETATM    7  C   UNL     1     -10.727  14.466  65.648  1.00  0.00    -0.320 A  
HETATM    8  O   UNL     1     -10.038  16.632  65.072  1.00  0.00    -0.432 OA 
HETATM    9  C   UNL     1     -11.827  12.397  65.919  1.00  0.00    -0.467 A  
HETATM   10  C   UNL     1     -10.712  13.217  66.214  1.00  0.00    -0.286 A  
HETATM   11  S   UNL     1     -12.163  14.636  64.706  1.00  0.00    -0.333 SA 
HETATM   12  S   UNL     1      -9.380  12.797  67.200  1.00  0.00    -0.223 S  
HETATM   13  H   UNL     1     -10.795  16.722  64.505  1.00  0.00     0.000 HD 
HETATM   14  O   UNL     1      -8.673  11.804  66.432  1.00  0.00    -0.193 OA 
ENDROOT
BRANCH   3  15
HETATM   15  C   UNL     1      -7.812  16.619  66.767  1.00  0.00    -0.255 C  
HETATM   16  O   UNL     1      -6.651  16.599  66.351  1.00  0.00    -0.223 OA 
HETATM   17  N   UNL     1      -8.339  17.653  67.497  1.00  0.00    -0.216 N  
HETATM   18  H   UNL     1      -9.301  17.569  67.825  1.00  0.00     0.000 HD 
BRANCH  17  19
HETATM   19  C   UNL     1      -7.633  18.821  67.818  1.00  0.00    -0.229 A  
HETATM   20  C   UNL     1      -7.601  19.946  66.997  1.00  0.00    -0.302 A  
HETATM   21  C   UNL     1      -6.059  20.951  68.538  1.00  0.00    -0.335 A  
HETATM   22  C   UNL     1      -6.812  21.034  67.376  1.00  0.00    -0.434 A  
HETATM   23  C   UNL     1      -6.173  19.803  69.305  1.00  0.00    -0.312 A  
HETATM   24  N   UNL     1      -6.974  18.758  68.991  1.00  0.00    -0.300 NA 
ENDBRANCH  17  19
ENDBRANCH   3  15
TORSDOF 2
ENDMDL
MODEL       22
REMARK 921   NORMALIZED FREE ENERGY PREDICTED BY IDOCK:   -5.97 KCAL/MOL
REMARK 922        TOTAL FREE ENERGY PREDICTED BY IDOCK:   -7.04 KCAL/MOL
REMARK 923 INTER-LIGAND FREE ENERGY PREDICTED BY IDOCK:   -7.11 KCAL/MOL
REMARK 924 INTRA-LIGAND FREE ENERGY PREDICTED BY IDOCK:    0.07 KCAL/MOL
REMARK 927      BINDING AFFINITY PREDICTED BY RF-SCORE:    0.00 PKD
ROOT
HETATM    1  C   UNL     1     -11.748  11.987  66.347  1.00  0.00    -0.252 C  
HETATM    2  N   UNL     1     -11.345  13.246  66.983  1.00  0.00    -0.299 N  
HETATM    3  C   UNL     1     -11.209  13.484  68.412  1.00  0.00    -0.278 C  
HETATM    4  C   UNL     1     -10.158  18.104  67.141  1.00  0.00    -0.351 A  
HETATM    5  C   UNL     1     -10.845  14.695  68.917  1.00  0.00    -0.250 C  
HETATM    6  O   UNL     1     -12.181  14.778  65.118  1.00  0.00    -0.308 OA 
HETATM    7  C   UNL     1     -10.598  15.842  68.092  1.00  0.00    -0.275 A  
HETATM    8  O   UNL     1     -10.687  14.961  70.263  1.00  0.00    -0.442 OA 
HETATM    9  C   UNL     1     -10.392  17.172  66.155  1.00  0.00    -0.327 A  
HETATM   10  C   UNL     1     -10.637  15.899  66.723  1.00  0.00    -0.309 A  
HETATM   11  S   UNL     1     -10.235  17.413  68.708  1.00  0.00    -0.357 SA 
HETATM   12  S   UNL     1     -10.978  14.459  65.867  1.00  0.00    -0.321 S  
HETATM   13  H   UNL     1     -10.434  15.806  70.616  1.00  0.00     0.000 HD 
HETATM   14  O   UNL     1      -9.732  14.129  65.222  1.00  0.00    -0.214 OA 
ENDROOT
BRANCH   3  15
HETATM   15  C   UNL     1     -11.551  12.429  69.445  1.00  0.00    -0.307 C  
HETATM   16  O   UNL     1     -12.363  12.704  70.331  1.00  0.00    -0.312 OA 
HETATM   17  N   UNL     1     -10.814  11.273  69.424  1.00  0.00    -0.365 N  
HETATM   18  H   UNL     1     -10.142  11.145  68.666  1.00  0.00     0.000 HD 
BRANCH  17  19
HETATM   19  C   UNL     1     -10.928  10.257  70.382  1.00  0.00    -0.296 A  
HETATM   20  C   UNL     1     -12.088  10.026  71.119  1.00  0.00    -0.475 A  
HETATM   21  C   UNL     1     -10.905   8.325  72.332  1.00  0.00    -0.421 A  
HETATM   22  C   UNL     1     -12.077   9.031  72.098  1.00  0.00    -0.412 A  
HETATM   23  C   UNL     1      -9.809   8.605  71.534  1.00  0.00    -0.272 A  
HETATM   24  N   UNL     1      -9.809   9.523  70.539  1.00  0.00    -0.265 NA 
ENDBRANCH  17  19
ENDBRANCH   3  15
TORSDOF 2
ENDMDL
MODEL       23
REMARK 921   NORMALIZED FREE ENERGY PREDICTED BY IDOCK:   -5.97 KCAL/MOL
REMARK 922        TOTAL FREE ENERGY PREDICTED BY IDOCK:   -7.03 KCAL/MOL
REMARK 923 INTER-LIGAND FREE ENERGY PREDICTED BY IDOCK:   -6.96 KCAL/MOL
REMARK 924 INTRA-LIGAND FREE ENERGY PREDICTED BY IDOCK:   -0.07 KCAL/MOL
REMARK 927      BINDING AFFINITY PREDICTED BY RF-SCORE:    0.00 PKD
ROOT
HETATM    1  C   UNL     1     -10.922  15.055  70.958  1.00  0.00    -0.092 C  
HETATM    2  N   UNL     1     -11.061  14.560  69.584  1.00  0.00    -0.250 N  
HETATM    3  C   UNL     1     -11.498  13.230  69.189  1.00  0.00    -0.305 C  
HETATM    4  C   UNL     1     -10.637  14.742  64.602  1.00  0.00    -0.206 A  
HETATM    5  C   UNL     1     -11.581  12.848  67.884  1.00  0.00    -0.345 C  
HETATM    6  O   UNL     1      -9.307  16.105  68.555  1.00  0.00    -0.196 OA 
HETATM    7  C   UNL     1     -11.215  13.708  66.796  1.00  0.00    -0.314 A  
HETATM    8  O   UNL     1     -12.006  11.603  67.462  1.00  0.00    -0.622 OA 
HETATM    9  C   UNL     1     -10.452  15.620  65.646  1.00  0.00    -0.402 A  
HETATM   10  C   UNL     1     -10.789  15.008  66.877  1.00  0.00    -0.315 A  
HETATM   11  S   UNL     1     -11.213  13.220  65.140  1.00  0.00    -0.311 SA 
HETATM   12  S   UNL     1     -10.705  15.732  68.423  1.00  0.00    -0.296 S  
HETATM   13  H   UNL     1     -12.064  11.337  66.552  1.00  0.00     0.000 HD 
HETATM   14  O   UNL     1     -11.765  16.708  68.413  1.00  0.00    -0.059 OA 
ENDROOT
BRANCH   3  15
HETATM   15  C   UNL     1     -11.804  12.143  70.200  1.00  0.00    -0.287 C  
HETATM   16  O   UNL     1     -12.489  12.423  71.187  1.00  0.00    -0.343 OA 
HETATM   17  N   UNL     1     -11.167  10.940  70.036  1.00  0.00    -0.390 N  
HETATM   18  H   UNL     1     -10.596  10.809  69.200  1.00  0.00     0.000 HD 
BRANCH  17  19
HETATM   19  C   UNL     1     -11.253   9.880  70.948  1.00  0.00    -0.360 A  
HETATM   20  C   UNL     1     -12.459   9.405  71.458  1.00  0.00    -0.450 A  
HETATM   21  C   UNL     1     -11.208   7.904  72.853  1.00  0.00    -0.429 A  
HETATM   22  C   UNL     1     -12.433   8.388  72.414  1.00  0.00    -0.390 A  
HETATM   23  C   UNL     1     -10.061   8.418  72.271  1.00  0.00    -0.312 A  
HETATM   24  N   UNL     1     -10.060   9.362  71.301  1.00  0.00    -0.286 NA 
ENDBRANCH  17  19
ENDBRANCH   3  15
TORSDOF 2
ENDMDL
MODEL       24
REMARK 921   NORMALIZED FREE ENERGY PREDICTED BY IDOCK:   -5.95 KCAL/MOL
REMARK 922        TOTAL FREE ENERGY PREDICTED BY IDOCK:   -7.01 KCAL/MOL
REMARK 923 INTER-LIGAND FREE ENERGY PREDICTED BY IDOCK:   -6.48 KCAL/MOL
REMARK 924 INTRA-LIGAND FREE ENERGY PREDICTED BY IDOCK:   -0.52 KCAL/MOL
REMARK 927      BINDING AFFINITY PREDICTED BY RF-SCORE:    0.00 PKD
ROOT
HETATM    1  C   UNL     1      -9.133  10.772  68.552  1.00  0.00    -0.170 C  
HETATM    2  N   UNL     1      -9.820   9.741  69.339  1.00  0.00    -0.192 N  
HETATM    3  C   UNL     1     -11.134   9.861  69.953  1.00  0.00    -0.275 C  
HETATM    4  C   UNL     1     -10.272   5.371  71.733  1.00  0.00    -0.206 A  
HETATM    5  C   UNL     1     -11.690   8.855  70.684  1.00  0.00    -0.179 C  
HETATM    6  O   UNL     1      -7.707   8.563  70.157  1.00  0.00    -0.080 OA 
HETATM    7  C   UNL     1     -11.018   7.614  70.939  1.00  0.00    -0.250 A  
HETATM    8  O   UNL     1     -12.939   8.918  71.270  1.00  0.00    -0.438 OA 
HETATM    9  C   UNL     1      -9.338   5.959  70.910  1.00  0.00    -0.180 A  
HETATM   10  C   UNL     1      -9.788   7.228  70.473  1.00  0.00    -0.183 A  
HETATM   11  S   UNL     1     -11.654   6.363  71.945  1.00  0.00    -0.323 SA 
HETATM   12  S   UNL     1      -8.945   8.301  69.444  1.00  0.00    -0.147 S  
HETATM   13  H   UNL     1     -13.327   8.217  71.780  1.00  0.00     0.000 HD 
HETATM   14  O   UNL     1      -8.972   7.651  68.159  1.00  0.00    -0.128 OA 
ENDROOT
BRANCH   3  15
HETATM   15  C   UNL     1     -11.940  11.144  69.901  1.00  0.00    -0.363 C  
HETATM   16  O   UNL     1     -12.401  11.514  68.818  1.00  0.00    -0.425 OA 
HETATM   17  N   UNL     1     -11.977  11.903  71.041  1.00  0.00    -0.283 N  
HETATM   18  H   UNL     1     -11.541  11.527  71.884  1.00  0.00     0.000 HD 
BRANCH  17  19
HETATM   19  C   UNL     1     -12.578  13.167  71.118  1.00  0.00    -0.314 A  
HETATM   20  C   UNL     1     -12.049  14.304  70.511  1.00  0.00    -0.413 A  
HETATM   21  C   UNL     1     -13.810  15.587  71.521  1.00  0.00    -0.539 A  
HETATM   22  C   UNL     1     -12.689  15.530  70.705  1.00  0.00    -0.487 A  
HETATM   23  C   UNL     1     -14.278  14.401  72.062  1.00  0.00    -0.552 A  
HETATM   24  N   UNL     1     -13.712  13.191  71.844  1.00  0.00    -0.353 NA 
ENDBRANCH  17  19
ENDBRANCH   3  15
TORSDOF 2
ENDMDL
MODEL       25
REMARK 921   NORMALIZED FREE ENERGY PREDICTED BY IDOCK:   -5.94 KCAL/MOL
REMARK 922        TOTAL FREE ENERGY PREDICTED BY IDOCK:   -7.00 KCAL/MOL
REMARK 923 INTER-LIGAND FREE ENERGY PREDICTED BY IDOCK:   -6.58 KCAL/MOL
REMARK 924 INTRA-LIGAND FREE ENERGY PREDICTED BY IDOCK:   -0.42 KCAL/MOL
REMARK 927      BINDING AFFINITY PREDICTED BY RF-SCORE:    0.00 PKD
ROOT
HETATM    1  C   UNL     1      -9.720  15.661  65.976  1.00  0.00    -0.346 C  
HETATM    2  N   UNL     1     -10.343  15.101  67.181  1.00  0.00    -0.259 N  
HETATM    3  C   UNL     1     -10.872  13.754  67.329  1.00  0.00    -0.285 C  
HETATM    4  C   UNL     1     -12.224  15.204  71.816  1.00  0.00    -0.355 A  
HETATM    5  C   UNL     1     -11.452  13.322  68.483  1.00  0.00    -0.312 C  
HETATM    6  O   UNL     1     -11.179  17.324  68.119  1.00  0.00    -0.197 OA 
HETATM    7  C   UNL     1     -11.621  14.163  69.632  1.00  0.00    -0.292 A  
HETATM    8  O   UNL     1     -11.952  12.049  68.674  1.00  0.00    -0.316 OA 
HETATM    9  C   UNL     1     -11.535  16.079  71.005  1.00  0.00    -0.460 A  
HETATM   10  C   UNL     1     -11.205  15.461  69.775  1.00  0.00    -0.288 A  
HETATM   11  S   UNL     1     -12.442  13.676  71.071  1.00  0.00    -0.348 SA 
HETATM   12  S   UNL     1     -10.357  16.181  68.477  1.00  0.00    -0.268 S  
HETATM   13  H   UNL     1     -12.357  11.748  69.479  1.00  0.00     0.000 HD 
HETATM   14  O   UNL     1      -9.011  16.324  68.972  1.00  0.00    -0.246 OA 
ENDROOT
BRANCH   3  15
HETATM   15  C   UNL     1     -10.899  12.763  66.182  1.00  0.00    -0.279 C  
HETATM   16  O   UNL     1     -11.970  12.229  65.881  1.00  0.00    -0.555 OA 
HETATM   17  N   UNL     1      -9.692  12.399  65.644  1.00  0.00    -0.374 N  
HETATM   18  H   UNL     1      -8.854  12.876  65.977  1.00  0.00     0.000 HD 
BRANCH  17  19
HETATM   19  C   UNL     1      -9.541  11.409  64.663  1.00  0.00    -0.199 A  
HETATM   20  C   UNL     1      -9.059  10.130  64.932  1.00  0.00    -0.256 A  
HETATM   21  C   UNL     1      -9.159   9.663  62.580  1.00  0.00    -0.283 A  
HETATM   22  C   UNL     1      -8.882   9.240  63.872  1.00  0.00    -0.160 A  
HETATM   23  C   UNL     1      -9.658  10.944  62.410  1.00  0.00    -0.107 A  
HETATM   24  N   UNL     1      -9.894  11.807  63.425  1.00  0.00    -0.394 NA 
ENDBRANCH  17  19
ENDBRANCH   3  15
TORSDOF 2
ENDMDL
MODEL       26
REMARK 921   NORMALIZED FREE ENERGY PREDICTED BY IDOCK:   -5.91 KCAL/MOL
REMARK 922        TOTAL FREE ENERGY PREDICTED BY IDOCK:   -6.96 KCAL/MOL
REMARK 923 INTER-LIGAND FREE ENERGY PREDICTED BY IDOCK:   -6.55 KCAL/MOL
REMARK 924 INTRA-LIGAND FREE ENERGY PREDICTED BY IDOCK:   -0.41 KCAL/MOL
REMARK 927      BINDING AFFINITY PREDICTED BY RF-SCORE:    0.00 PKD
ROOT
HETATM    1  C   UNL     1     -10.558  15.438  67.052  1.00  0.00    -0.309 C  
HETATM    2  N   UNL     1     -11.138  14.532  68.050  1.00  0.00    -0.267 N  
HETATM    3  C   UNL     1     -11.447  13.123  67.855  1.00  0.00    -0.308 C  
HETATM    4  C   UNL     1     -13.229  13.292  72.423  1.00  0.00    -0.436 A  
HETATM    5  C   UNL     1     -12.004  12.358  68.835  1.00  0.00    -0.241 C  
HETATM    6  O   UNL     1     -12.368  16.333  69.379  1.00  0.00     0.003 OA 
HETATM    7  C   UNL     1     -12.362  12.879  70.122  1.00  0.00    -0.179 A  
HETATM    8  O   UNL     1     -12.298  11.015  68.700  1.00  0.00    -0.753 OA 
HETATM    9  C   UNL     1     -12.654  14.421  71.883  1.00  0.00    -0.413 A  
HETATM   10  C   UNL     1     -12.169  14.157  70.579  1.00  0.00    -0.361 A  
HETATM   11  S   UNL     1     -13.159  11.960  71.346  1.00  0.00    -0.065 SA 
HETATM   12  S   UNL     1     -11.389  15.272  69.546  1.00  0.00    -0.314 S  
HETATM   13  H   UNL     1     -12.686  10.481  69.384  1.00  0.00     0.000 HD 
HETATM   14  O   UNL     1     -10.110  15.496  70.169  1.00  0.00    -0.298 OA 
ENDROOT
BRANCH   3  15
HETATM   15  C   UNL     1     -11.258  12.428  66.521  1.00  0.00    -0.319 C  
HETATM   16  O   UNL     1     -12.255  12.115  65.866  1.00  0.00    -0.604 OA 
HETATM   17  N   UNL     1      -9.983  12.047  66.192  1.00  0.00    -0.225 N  
HETATM   18  H   UNL     1      -9.223  12.327  66.812  1.00  0.00     0.000 HD 
BRANCH  17  19
HETATM   19  C   UNL     1      -9.663  11.294  65.054  1.00  0.00    -0.251 A  
HETATM   20  C   UNL     1     -10.012  11.675  63.761  1.00  0.00    -0.378 A  
HETATM   21  C   UNL     1      -9.092   9.604  62.968  1.00  0.00    -0.235 A  
HETATM   22  C   UNL     1      -9.706  10.820  62.701  1.00  0.00    -0.246 A  
HETATM   23  C   UNL     1      -8.759   9.321  64.282  1.00  0.00    -0.175 A  
HETATM   24  N   UNL     1      -8.992  10.156  65.321  1.00  0.00    -0.173 NA 
ENDBRANCH  17  19
ENDBRANCH   3  15
TORSDOF 2
ENDMDL
MODEL       27
REMARK 921   NORMALIZED FREE ENERGY PREDICTED BY IDOCK:   -5.90 KCAL/MOL
REMARK 922        TOTAL FREE ENERGY PREDICTED BY IDOCK:   -6.96 KCAL/MOL
REMARK 923 INTER-LIGAND FREE ENERGY PREDICTED BY IDOCK:   -6.36 KCAL/MOL
REMARK 924 INTRA-LIGAND FREE ENERGY PREDICTED BY IDOCK:   -0.59 KCAL/MOL
REMARK 927      BINDING AFFINITY PREDICTED BY RF-SCORE:    0.00 PKD
ROOT
HETATM    1  C   UNL     1     -10.795  10.934  68.287  1.00  0.00    -0.225 C  
HETATM    2  N   UNL     1     -11.484  11.682  69.345  1.00  0.00    -0.283 N  
HETATM    3  C   UNL     1     -12.073  11.120  70.551  1.00  0.00    -0.381 C  
HETATM    4  C   UNL     1     -13.527  15.709  71.499  1.00  0.00    -0.416 A  
HETATM    5  C   UNL     1     -12.712  11.890  71.475  1.00  0.00    -0.274 C  
HETATM    6  O   UNL     1     -12.261  13.609  67.860  1.00  0.00    -0.320 OA 
HETATM    7  C   UNL     1     -12.888  13.305  71.324  1.00  0.00    -0.312 A  
HETATM    8  O   UNL     1     -13.271  11.403  72.641  1.00  0.00    -0.322 OA 
HETATM    9  C   UNL     1     -12.774  15.461  70.374  1.00  0.00    -0.407 A  
HETATM   10  C   UNL     1     -12.424  14.091  70.301  1.00  0.00    -0.338 A  
HETATM   11  S   UNL     1     -13.780  14.290  72.426  1.00  0.00    -0.526 SA 
HETATM   12  S   UNL     1     -11.500  13.347  69.070  1.00  0.00    -0.320 S  
HETATM   13  H   UNL     1     -13.716  11.940  73.286  1.00  0.00     0.000 HD 
HETATM   14  O   UNL     1     -10.169  13.860  69.270  1.00  0.00    -0.043 OA 
ENDROOT
BRANCH   3  15
HETATM   15  C   UNL     1     -12.099   9.629  70.822  1.00  0.00    -0.248 C  
HETATM   16  O   UNL     1     -13.188   9.054  70.884  1.00  0.00    -0.065 OA 
HETATM   17  N   UNL     1     -10.907   9.032  71.140  1.00  0.00    -0.267 N  
HETATM   18  H   UNL     1     -10.058   9.597  71.089  1.00  0.00     0.000 HD 
BRANCH  17  19
HETATM   19  C   UNL     1     -10.784   7.692  71.531  1.00  0.00    -0.221 A  
HETATM   20  C   UNL     1     -10.713   6.635  70.627  1.00  0.00    -0.286 A  
HETATM   21  C   UNL     1     -10.714   5.121  72.490  1.00  0.00    -0.286 A  
HETATM   22  C   UNL     1     -10.661   5.329  71.119  1.00  0.00    -0.243 A  
HETATM   23  C   UNL     1     -10.759   6.234  73.314  1.00  0.00    -0.260 A  
HETATM   24  N   UNL     1     -10.751   7.511  72.865  1.00  0.00    -0.324 NA 
ENDBRANCH  17  19
ENDBRANCH   3  15
TORSDOF 2
ENDMDL
MODEL       28
REMARK 921   NORMALIZED FREE ENERGY PREDICTED BY IDOCK:   -5.89 KCAL/MOL
REMARK 922        TOTAL FREE ENERGY PREDICTED BY IDOCK:   -6.94 KCAL/MOL
REMARK 923 INTER-LIGAND FREE ENERGY PREDICTED BY IDOCK:   -6.23 KCAL/MOL
REMARK 924 INTRA-LIGAND FREE ENERGY PREDICTED BY IDOCK:   -0.71 KCAL/MOL
REMARK 927      BINDING AFFINITY PREDICTED BY RF-SCORE:    0.00 PKD
ROOT
HETATM    1  C   UNL     1     -10.526  18.309  65.863  1.00  0.00    -0.307 C  
HETATM    2  N   UNL     1      -9.396  18.343  66.799  1.00  0.00    -0.287 N  
HETATM    3  C   UNL     1      -9.001  17.279  67.709  1.00  0.00    -0.234 C  
HETATM    4  C   UNL     1      -5.571  20.423  69.263  1.00  0.00    -0.317 A  
HETATM    5  C   UNL     1      -7.945  17.404  68.560  1.00  0.00    -0.266 C  
HETATM    6  O   UNL     1      -9.357  20.880  67.094  1.00  0.00    -0.341 OA 
HETATM    7  C   UNL     1      -7.158  18.599  68.655  1.00  0.00    -0.288 A  
HETATM    8  O   UNL     1      -7.524  16.415  69.428  1.00  0.00    -0.231 OA 
HETATM    9  C   UNL     1      -6.408  20.795  68.236  1.00  0.00    -0.343 A  
HETATM   10  C   UNL     1      -7.295  19.741  67.911  1.00  0.00    -0.284 A  
HETATM   11  S   UNL     1      -5.879  18.822  69.793  1.00  0.00    -0.242 SA 
HETATM   12  S   UNL     1      -8.503  19.772  66.701  1.00  0.00    -0.347 S  
HETATM   13  H   UNL     1      -6.788  16.502  70.022  1.00  0.00     0.000 HD 
HETATM   14  O   UNL     1      -7.764  19.770  65.465  1.00  0.00    -0.392 OA 
ENDROOT
BRANCH   3  15
HETATM   15  C   UNL     1      -9.790  15.992  67.843  1.00  0.00    -0.226 C  
HETATM   16  O   UNL     1     -10.696  15.932  68.678  1.00  0.00    -0.248 OA 
HETATM   17  N   UNL     1      -9.344  14.910  67.128  1.00  0.00    -0.210 N  
HETATM   18  H   UNL     1      -8.567  15.049  66.481  1.00  0.00     0.000 HD 
BRANCH  17  19
HETATM   19  C   UNL     1      -9.891  13.624  67.235  1.00  0.00    -0.241 A  
HETATM   20  C   UNL     1     -10.939  13.170  66.437  1.00  0.00    -0.305 A  
HETATM   21  C   UNL     1     -10.939  11.131  67.705  1.00  0.00    -0.323 A  
HETATM   22  C   UNL     1     -11.458  11.895  66.669  1.00  0.00    -0.382 A  
HETATM   23  C   UNL     1      -9.881  11.655  68.429  1.00  0.00    -0.202 A  
HETATM   24  N   UNL     1      -9.321  12.863  68.188  1.00  0.00    -0.211 NA 
ENDBRANCH  17  19
ENDBRANCH   3  15
TORSDOF 2
ENDMDL
MODEL       29
REMARK 921   NORMALIZED FREE ENERGY PREDICTED BY IDOCK:   -5.86 KCAL/MOL
REMARK 922        TOTAL FREE ENERGY PREDICTED BY IDOCK:   -6.91 KCAL/MOL
REMARK 923 INTER-LIGAND FREE ENERGY PREDICTED BY IDOCK:   -6.31 KCAL/MOL
REMARK 924 INTRA-LIGAND FREE ENERGY PREDICTED BY IDOCK:   -0.59 KCAL/MOL
REMARK 927      BINDING AFFINITY PREDICTED BY RF-SCORE:    0.00 PKD
ROOT
HETATM    1  C   UNL     1      -9.032  12.234  67.131  1.00  0.00    -0.192 C  
HETATM    2  N   UNL     1     -10.063  12.156  68.172  1.00  0.00    -0.201 N  
HETATM    3  C   UNL     1     -10.839  13.268  68.700  1.00  0.00    -0.259 C  
HETATM    4  C   UNL     1     -12.801   9.946  71.729  1.00  0.00    -0.442 A  
HETATM    5  C   UNL     1     -11.768  13.107  69.683  1.00  0.00    -0.303 C  
HETATM    6  O   UNL     1      -9.125  10.087  69.337  1.00  0.00    -0.189 OA 
HETATM    7  C   UNL     1     -12.036  11.841  70.301  1.00  0.00    -0.343 A  
HETATM    8  O   UNL     1     -12.538  14.130  70.201  1.00  0.00    -0.345 OA 
HETATM    9  C   UNL     1     -11.883   9.538  70.788  1.00  0.00    -0.350 A  
HETATM   10  C   UNL     1     -11.468  10.633  69.991  1.00  0.00    -0.325 A  
HETATM   11  S   UNL     1     -13.132  11.624  71.616  1.00  0.00    -0.226 SA 
HETATM   12  S   UNL     1     -10.338  10.580  68.709  1.00  0.00    -0.204 S  
HETATM   13  H   UNL     1     -13.185  14.017  70.887  1.00  0.00     0.000 HD 
HETATM   14  O   UNL     1     -11.019   9.851  67.670  1.00  0.00    -0.289 OA 
ENDROOT
BRANCH   3  15
HETATM   15  C   UNL     1     -10.605  14.700  68.260  1.00  0.00    -0.235 C  
HETATM   16  O   UNL     1     -10.902  15.026  67.108  1.00  0.00    -0.300 OA 
HETATM   17  N   UNL     1      -9.928  15.517  69.129  1.00  0.00    -0.229 N  
HETATM   18  H   UNL     1      -9.699  15.150  70.053  1.00  0.00     0.000 HD 
BRANCH  17  19
HETATM   19  C   UNL     1      -9.533  16.826  68.823  1.00  0.00    -0.259 A  
HETATM   20  C   UNL     1     -10.406  17.912  68.834  1.00  0.00    -0.272 A  
HETATM   21  C   UNL     1      -8.609  19.287  68.031  1.00  0.00    -0.357 A  
HETATM   22  C   UNL     1      -9.927  19.165  68.447  1.00  0.00    -0.493 A  
HETATM   23  C   UNL     1      -7.808  18.158  68.077  1.00  0.00    -0.261 A  
HETATM   24  N   UNL     1      -8.230  16.944  68.503  1.00  0.00    -0.239 NA 
ENDBRANCH  17  19
ENDBRANCH   3  15
TORSDOF 2
ENDMDL
MODEL       30
REMARK 921   NORMALIZED FREE ENERGY PREDICTED BY IDOCK:   -5.83 KCAL/MOL
REMARK 922        TOTAL FREE ENERGY PREDICTED BY IDOCK:   -6.88 KCAL/MOL
REMARK 923 INTER-LIGAND FREE ENERGY PREDICTED BY IDOCK:   -6.39 KCAL/MOL
REMARK 924 INTRA-LIGAND FREE ENERGY PREDICTED BY IDOCK:   -0.48 KCAL/MOL
REMARK 927      BINDING AFFINITY PREDICTED BY RF-SCORE:    0.00 PKD
ROOT
HETATM    1  C   UNL     1     -12.346  10.255  71.445  1.00  0.00    -0.401 C  
HETATM    2  N   UNL     1     -11.557   9.142  70.904  1.00  0.00    -0.281 N  
HETATM    3  C   UNL     1     -10.694   9.188  69.734  1.00  0.00    -0.228 C  
HETATM    4  C   UNL     1      -9.993   4.403  70.553  1.00  0.00    -0.185 A  
HETATM    5  C   UNL     1     -10.009   8.098  69.290  1.00  0.00    -0.188 C  
HETATM    6  O   UNL     1     -13.072   7.279  71.776  1.00  0.00    -0.347 OA 
HETATM    7  C   UNL     1     -10.106   6.810  69.914  1.00  0.00    -0.180 A  
HETATM    8  O   UNL     1      -9.166   8.100  68.196  1.00  0.00    -0.134 OA 
HETATM    9  C   UNL     1     -10.783   5.124  71.419  1.00  0.00    -0.154 A  
HETATM   10  C   UNL     1     -10.828   6.486  71.034  1.00  0.00    -0.253 A  
HETATM   11  S   UNL     1      -9.331   5.388  69.316  1.00  0.00    -0.126 SA 
HETATM   12  S   UNL     1     -11.692   7.732  71.822  1.00  0.00    -0.299 S  
HETATM   13  H   UNL     1      -8.689   7.339  67.887  1.00  0.00     0.000 HD 
HETATM   14  O   UNL     1     -10.984   7.921  73.063  1.00  0.00    -0.393 OA 
ENDROOT
BRANCH   3  15
HETATM   15  C   UNL     1     -10.564  10.428  68.870  1.00  0.00    -0.216 C  
HETATM   16  O   UNL     1      -9.487  11.027  68.846  1.00  0.00    -0.195 OA 
HETATM   17  N   UNL     1     -11.709  10.900  68.283  1.00  0.00    -0.377 N  
HETATM   18  H   UNL     1     -12.563  10.350  68.381  1.00  0.00     0.000 HD 
BRANCH  17  19
HETATM   19  C   UNL     1     -11.776  12.096  67.555  1.00  0.00    -0.315 A  
HETATM   20  C   UNL     1     -11.879  13.351  68.152  1.00  0.00    -0.396 A  
HETATM   21  C   UNL     1     -12.065  14.311  65.959  1.00  0.00    -0.423 A  
HETATM   22  C   UNL     1     -12.008  14.476  67.336  1.00  0.00    -0.367 A  
HETATM   23  C   UNL     1     -11.930  13.028  65.454  1.00  0.00    -0.414 A  
HETATM   24  N   UNL     1     -11.745  11.927  66.219  1.00  0.00    -0.520 NA 
ENDBRANCH  17  19
ENDBRANCH   3  15
TORSDOF 2
ENDMDL
MODEL       31
REMARK 921   NORMALIZED FREE ENERGY PREDICTED BY IDOCK:   -5.81 KCAL/MOL
REMARK 922        TOTAL FREE ENERGY PREDICTED BY IDOCK:   -6.85 KCAL/MOL
REMARK 923 INTER-LIGAND FREE ENERGY PREDICTED BY IDOCK:   -6.16 KCAL/MOL
REMARK 924 INTRA-LIGAND FREE ENERGY PREDICTED BY IDOCK:   -0.69 KCAL/MOL
REMARK 927      BINDING AFFINITY PREDICTED BY RF-SCORE:    0.00 PKD
ROOT
HETATM    1  C   UNL     1     -12.002  12.093  66.823  1.00  0.00    -0.093 C  
HETATM    2  N   UNL     1     -10.587  12.272  67.170  1.00  0.00    -0.222 N  
HETATM    3  C   UNL     1     -10.055  13.186  68.169  1.00  0.00    -0.237 C  
HETATM    4  C   UNL     1      -5.651  11.610  66.691  1.00  0.00    -0.111 A  
HETATM    5  C   UNL     1      -8.721  13.301  68.413  1.00  0.00    -0.126 C  
HETATM    6  O   UNL     1      -9.655  11.572  64.897  1.00  0.00    -0.233 OA 
HETATM    7  C   UNL     1      -7.729  12.561  67.688  1.00  0.00    -0.151 A  
HETATM    8  O   UNL     1      -8.173  14.142  69.362  1.00  0.00    -0.346 OA 
HETATM    9  C   UNL     1      -6.784  11.068  66.126  1.00  0.00    -0.068 A  
HETATM   10  C   UNL     1      -7.947  11.624  66.712  1.00  0.00    -0.140 A  
HETATM   11  S   UNL     1      -6.028  12.759  67.905  1.00  0.00    -0.133 SA 
HETATM   12  S   UNL     1      -9.564  11.242  66.309  1.00  0.00    -0.218 S  
HETATM   13  H   UNL     1      -7.242  14.222  69.533  1.00  0.00     0.000 HD 
HETATM   14  O   UNL     1      -9.741   9.900  66.800  1.00  0.00    -0.174 OA 
ENDROOT
BRANCH   3  15
HETATM   15  C   UNL     1     -10.939  14.143  68.945  1.00  0.00    -0.259 C  
HETATM   16  O   UNL     1     -11.067  15.300  68.538  1.00  0.00    -0.255 OA 
HETATM   17  N   UNL     1     -11.425  13.705  70.150  1.00  0.00    -0.505 N  
HETATM   18  H   UNL     1     -11.244  12.737  70.417  1.00  0.00     0.000 HD 
BRANCH  17  19
HETATM   19  C   UNL     1     -12.155  14.508  71.036  1.00  0.00    -0.344 A  
HETATM   20  C   UNL     1     -11.560  15.360  71.964  1.00  0.00    -0.544 A  
HETATM   21  C   UNL     1     -13.750  15.878  72.801  1.00  0.00    -0.571 A  
HETATM   22  C   UNL     1     -12.377  16.067  72.849  1.00  0.00    -0.609 A  
HETATM   23  C   UNL     1     -14.254  15.030  71.828  1.00  0.00    -0.555 A  
HETATM   24  N   UNL     1     -13.491  14.377  70.921  1.00  0.00    -0.266 NA 
ENDBRANCH  17  19
ENDBRANCH   3  15
TORSDOF 2
ENDMDL
MODEL       32
REMARK 921   NORMALIZED FREE ENERGY PREDICTED BY IDOCK:   -5.81 KCAL/MOL
REMARK 922        TOTAL FREE ENERGY PREDICTED BY IDOCK:   -6.85 KCAL/MOL
REMARK 923 INTER-LIGAND FREE ENERGY PREDICTED BY IDOCK:   -6.29 KCAL/MOL
REMARK 924 INTRA-LIGAND FREE ENERGY PREDICTED BY IDOCK:   -0.56 KCAL/MOL
REMARK 927      BINDING AFFINITY PREDICTED BY RF-SCORE:    0.00 PKD
ROOT
HETATM    1  C   UNL     1      -7.634  10.394  67.992  1.00  0.00    -0.091 C  
HETATM    2  N   UNL     1      -8.865  10.108  68.738  1.00  0.00    -0.138 N  
HETATM    3  C   UNL     1     -10.207  10.545  68.384  1.00  0.00    -0.172 C  
HETATM    4  C   UNL     1     -11.588   8.380  72.563  1.00  0.00    -0.356 A  
HETATM    5  C   UNL     1     -11.295  10.248  69.147  1.00  0.00    -0.186 C  
HETATM    6  O   UNL     1      -7.752   9.851  71.022  1.00  0.00    -0.215 OA 
HETATM    7  C   UNL     1     -11.208   9.511  70.374  1.00  0.00    -0.270 A  
HETATM    8  O   UNL     1     -12.587  10.627  68.840  1.00  0.00    -0.742 OA 
HETATM    9  C   UNL     1     -10.267   8.320  72.179  1.00  0.00    -0.355 A  
HETATM   10  C   UNL     1     -10.081   8.967  70.934  1.00  0.00    -0.262 A  
HETATM   11  S   UNL     1     -12.553   9.206  71.412  1.00  0.00    -0.313 SA 
HETATM   12  S   UNL     1      -8.604   9.132  70.090  1.00  0.00    -0.203 S  
HETATM   13  H   UNL     1     -13.346  10.420  69.373  1.00  0.00     0.000 HD 
HETATM   14  O   UNL     1      -8.302   7.796  69.643  1.00  0.00    -0.125 OA 
ENDROOT
BRANCH   3  15
HETATM   15  C   UNL     1     -10.479  11.441  67.191  1.00  0.00    -0.224 C  
HETATM   16  O   UNL     1     -10.190  11.035  66.063  1.00  0.00    -0.237 OA 
HETATM   17  N   UNL     1     -10.891  12.722  67.455  1.00  0.00    -0.236 N  
HETATM   18  H   UNL     1     -11.078  12.976  68.425  1.00  0.00     0.000 HD 
BRANCH  17  19
HETATM   19  C   UNL     1     -11.069  13.703  66.469  1.00  0.00    -0.305 A  
HETATM   20  C   UNL     1     -12.201  13.778  65.660  1.00  0.00    -0.484 A  
HETATM   21  C   UNL     1     -11.163  15.594  64.482  1.00  0.00    -0.337 A  
HETATM   22  C   UNL     1     -12.251  14.752  64.662  1.00  0.00    -0.405 A  
HETATM   23  C   UNL     1     -10.091  15.463  65.350  1.00  0.00    -0.359 A  
HETATM   24  N   UNL     1     -10.041  14.566  66.363  1.00  0.00    -0.274 NA 
ENDBRANCH  17  19
ENDBRANCH   3  15
TORSDOF 2
ENDMDL
MODEL       33
REMARK 921   NORMALIZED FREE ENERGY PREDICTED BY IDOCK:   -5.80 KCAL/MOL
REMARK 922        TOTAL FREE ENERGY PREDICTED BY IDOCK:   -6.84 KCAL/MOL
REMARK 923 INTER-LIGAND FREE ENERGY PREDICTED BY IDOCK:   -6.23 KCAL/MOL
REMARK 924 INTRA-LIGAND FREE ENERGY PREDICTED BY IDOCK:   -0.62 KCAL/MOL
REMARK 927      BINDING AFFINITY PREDICTED BY RF-SCORE:    0.00 PKD
ROOT
HETATM    1  C   UNL     1      -9.953   9.436  66.089  1.00  0.00    -0.281 C  
HETATM    2  N   UNL     1     -10.412   9.359  67.481  1.00  0.00    -0.265 N  
HETATM    3  C   UNL     1     -11.050  10.426  68.236  1.00  0.00    -0.281 C  
HETATM    4  C   UNL     1     -10.975   7.274  71.994  1.00  0.00    -0.238 A  
HETATM    5  C   UNL     1     -11.429  10.273  69.535  1.00  0.00    -0.210 C  
HETATM    6  O   UNL     1      -8.753   7.565  68.222  1.00  0.00    -0.124 OA 
HETATM    7  C   UNL     1     -11.204   9.065  70.276  1.00  0.00    -0.205 A  
HETATM    8  O   UNL     1     -12.052  11.252  70.285  1.00  0.00    -0.320 OA 
HETATM    9  C   UNL     1     -10.498   6.869  70.767  1.00  0.00    -0.238 A  
HETATM   10  C   UNL     1     -10.642   7.904  69.812  1.00  0.00    -0.242 A  
HETATM   11  S   UNL     1     -11.581   8.876  71.949  1.00  0.00    -0.372 SA 
HETATM   12  S   UNL     1     -10.179   7.835  68.168  1.00  0.00    -0.204 S  
HETATM   13  H   UNL     1     -12.317  11.144  71.191  1.00  0.00     0.000 HD 
HETATM   14  O   UNL     1     -11.117   6.915  67.576  1.00  0.00    -0.270 OA 
ENDROOT
BRANCH   3  15
HETATM   15  C   UNL     1     -11.256  11.815  67.663  1.00  0.00    -0.281 C  
HETATM   16  O   UNL     1     -12.126  11.982  66.805  1.00  0.00    -0.613 OA 
HETATM   17  N   UNL     1     -10.350  12.779  68.023  1.00  0.00    -0.223 N  
HETATM   18  H   UNL     1      -9.646  12.539  68.722  1.00  0.00     0.000 HD 
BRANCH  17  19
HETATM   19  C   UNL     1     -10.334  14.074  67.489  1.00  0.00    -0.245 A  
HETATM   20  C   UNL     1      -9.702  14.401  66.292  1.00  0.00    -0.330 A  
HETATM   21  C   UNL     1     -10.270  16.699  66.689  1.00  0.00    -0.304 A  
HETATM   22  C   UNL     1      -9.686  15.735  65.880  1.00  0.00    -0.389 A  
HETATM   23  C   UNL     1     -10.899  16.278  67.850  1.00  0.00    -0.330 A  
HETATM   24  N   UNL     1     -10.979  14.986  68.243  1.00  0.00    -0.261 NA 
ENDBRANCH  17  19
ENDBRANCH   3  15
TORSDOF 2
ENDMDL
MODEL       34
REMARK 921   NORMALIZED FREE ENERGY PREDICTED BY IDOCK:   -5.78 KCAL/MOL
REMARK 922        TOTAL FREE ENERGY PREDICTED BY IDOCK:   -6.82 KCAL/MOL
REMARK 923 INTER-LIGAND FREE ENERGY PREDICTED BY IDOCK:   -6.24 KCAL/MOL
REMARK 924 INTRA-LIGAND FREE ENERGY PREDICTED BY IDOCK:   -0.58 KCAL/MOL
REMARK 927      BINDING AFFINITY PREDICTED BY RF-SCORE:    0.00 PKD
ROOT
HETATM    1  C   UNL     1     -10.593   9.357  68.245  1.00  0.00    -0.210 C  
HETATM    2  N   UNL     1     -11.214  10.300  69.183  1.00  0.00    -0.229 N  
HETATM    3  C   UNL     1     -11.794   9.971  70.476  1.00  0.00    -0.303 C  
HETATM    4  C   UNL     1     -12.992  14.723  70.704  1.00  0.00    -0.324 A  
HETATM    5  C   UNL     1     -12.367  10.911  71.278  1.00  0.00    -0.343 C  
HETATM    6  O   UNL     1     -11.938  12.004  67.425  1.00  0.00    -0.583 OA 
HETATM    7  C   UNL     1     -12.477  12.291  70.904  1.00  0.00    -0.276 A  
HETATM    8  O   UNL     1     -12.915  10.647  72.518  1.00  0.00    -0.330 OA 
HETATM    9  C   UNL     1     -12.285  14.258  69.617  1.00  0.00    -0.371 A  
HETATM   10  C   UNL     1     -12.006  12.878  69.758  1.00  0.00    -0.296 A  
HETATM   11  S   UNL     1     -13.287  13.485  71.852  1.00  0.00    -0.446 SA 
HETATM   12  S   UNL     1     -11.156  11.899  68.644  1.00  0.00    -0.267 S  
HETATM   13  H   UNL     1     -13.315  11.303  73.077  1.00  0.00     0.000 HD 
HETATM   14  O   UNL     1      -9.796  12.365  68.731  1.00  0.00    -0.129 OA 
ENDROOT
BRANCH   3  15
HETATM   15  C   UNL     1     -11.886   8.546  70.985  1.00  0.00    -0.257 C  
HETATM   16  O   UNL     1     -12.999   8.040  71.145  1.00  0.00    -0.215 OA 
HETATM   17  N   UNL     1     -10.718   7.951  71.388  1.00  0.00    -0.222 N  
HETATM   18  H   UNL     1      -9.845   8.459  71.242  1.00  0.00     0.000 HD 
BRANCH  17  19
HETATM   19  C   UNL     1     -10.652   6.687  71.989  1.00  0.00    -0.211 A  
HETATM   20  C   UNL     1     -10.898   6.469  73.343  1.00  0.00    -0.249 A  
HETATM   21  C   UNL     1     -10.311   4.164  73.016  1.00  0.00    -0.239 A  
HETATM   22  C   UNL     1     -10.740   5.181  73.858  1.00  0.00    -0.342 A  
HETATM   23  C   UNL     1     -10.115   4.468  71.679  1.00  0.00    -0.179 A  
HETATM   24  N   UNL     1     -10.317   5.694  71.142  1.00  0.00    -0.222 NA 
ENDBRANCH  17  19
ENDBRANCH   3  15
TORSDOF 2
ENDMDL
MODEL       35
REMARK 921   NORMALIZED FREE ENERGY PREDICTED BY IDOCK:   -5.76 KCAL/MOL
REMARK 922        TOTAL FREE ENERGY PREDICTED BY IDOCK:   -6.80 KCAL/MOL
REMARK 923 INTER-LIGAND FREE ENERGY PREDICTED BY IDOCK:   -6.42 KCAL/MOL
REMARK 924 INTRA-LIGAND FREE ENERGY PREDICTED BY IDOCK:   -0.38 KCAL/MOL
REMARK 927      BINDING AFFINITY PREDICTED BY RF-SCORE:    0.00 PKD
ROOT
HETATM    1  C   UNL     1     -11.849  14.043  69.094  1.00  0.00    -0.350 C  
HETATM    2  N   UNL     1     -10.734  13.340  68.448  1.00  0.00    -0.250 N  
HETATM    3  C   UNL     1      -9.497  13.942  67.975  1.00  0.00    -0.208 C  
HETATM    4  C   UNL     1      -8.382   9.438  66.380  1.00  0.00    -0.115 A  
HETATM    5  C   UNL     1      -8.519  13.214  67.368  1.00  0.00    -0.201 C  
HETATM    6  O   UNL     1     -12.132  11.436  67.477  1.00  0.00    -0.592 OA 
HETATM    7  C   UNL     1      -8.637  11.807  67.116  1.00  0.00    -0.168 A  
HETATM    8  O   UNL     1      -7.323  13.739  66.919  1.00  0.00    -0.315 OA 
HETATM    9  C   UNL     1      -9.562   9.638  67.061  1.00  0.00    -0.221 A  
HETATM   10  C   UNL     1      -9.679  10.989  67.468  1.00  0.00    -0.172 A  
HETATM   11  S   UNL     1      -7.460  10.878  66.261  1.00  0.00    -0.100 SA 
HETATM   12  S   UNL     1     -10.983  11.675  68.335  1.00  0.00    -0.240 S  
HETATM   13  H   UNL     1      -6.641  13.231  66.496  1.00  0.00     0.000 HD 
HETATM   14  O   UNL     1     -10.872  11.101  69.651  1.00  0.00    -0.224 OA 
ENDROOT
BRANCH   3  15
HETATM   15  C   UNL     1      -9.245  15.435  68.038  1.00  0.00    -0.184 C  
HETATM   16  O   UNL     1      -8.516  15.880  68.928  1.00  0.00    -0.190 OA 
HETATM   17  N   UNL     1      -9.974  16.227  67.188  1.00  0.00    -0.251 N  
HETATM   18  H   UNL     1     -10.574  15.769  66.501  1.00  0.00     0.000 HD 
BRANCH  17  19
HETATM   19  C   UNL     1      -9.942  17.628  67.207  1.00  0.00    -0.322 A  
HETATM   20  C   UNL     1     -10.321  18.387  68.311  1.00  0.00    -0.384 A  
HETATM   21  C   UNL     1      -9.971  20.364  66.995  1.00  0.00    -0.568 A  
HETATM   22  C   UNL     1     -10.318  19.780  68.204  1.00  0.00    -0.561 A  
HETATM   23  C   UNL     1      -9.583  19.531  65.959  1.00  0.00    -0.283 A  
HETATM   24  N   UNL     1      -9.521  18.182  66.053  1.00  0.00    -0.519 NA 
ENDBRANCH  17  19
ENDBRANCH   3  15
TORSDOF 2
ENDMDL
MODEL       36
REMARK 921   NORMALIZED FREE ENERGY PREDICTED BY IDOCK:   -5.75 KCAL/MOL
REMARK 922        TOTAL FREE ENERGY PREDICTED BY IDOCK:   -6.79 KCAL/MOL
REMARK 923 INTER-LIGAND FREE ENERGY PREDICTED BY IDOCK:   -6.32 KCAL/MOL
REMARK 924 INTRA-LIGAND FREE ENERGY PREDICTED BY IDOCK:   -0.47 KCAL/MOL
REMARK 927      BINDING AFFINITY PREDICTED BY RF-SCORE:    0.00 PKD
ROOT
HETATM    1  C   UNL     1      -9.884  12.131  67.080  1.00  0.00    -0.197 C  
HETATM    2  N   UNL     1     -10.672  12.153  68.318  1.00  0.00    -0.214 N  
HETATM    3  C   UNL     1     -10.930  11.021  69.194  1.00  0.00    -0.237 C  
HETATM    4  C   UNL     1     -13.687  14.152  71.775  1.00  0.00    -0.408 A  
HETATM    5  C   UNL     1     -11.691  11.128  70.319  1.00  0.00    -0.341 C  
HETATM    6  O   UNL     1     -12.169  14.115  67.659  1.00  0.00    -0.351 OA 
HETATM    7  C   UNL     1     -12.327  12.351  70.715  1.00  0.00    -0.286 A  
HETATM    8  O   UNL     1     -11.948  10.085  71.187  1.00  0.00    -0.332 OA 
HETATM    9  C   UNL     1     -13.007  14.609  70.669  1.00  0.00    -0.367 A  
HETATM   10  C   UNL     1     -12.243  13.568  70.089  1.00  0.00    -0.330 A  
HETATM   11  S   UNL     1     -13.378  12.493  72.077  1.00  0.00    -0.290 SA 
HETATM   12  S   UNL     1     -11.251  13.692  68.702  1.00  0.00    -0.295 S  
HETATM   13  H   UNL     1     -12.479  10.161  71.972  1.00  0.00     0.000 HD 
HETATM   14  O   UNL     1     -10.144  14.506  69.133  1.00  0.00    -0.214 OA 
ENDROOT
BRANCH   3  15
HETATM   15  C   UNL     1     -10.447   9.620  68.872  1.00  0.00    -0.215 C  
HETATM   16  O   UNL     1      -9.636   9.081  69.629  1.00  0.00    -0.164 OA 
HETATM   17  N   UNL     1     -10.827   9.092  67.665  1.00  0.00    -0.475 N  
HETATM   18  H   UNL     1     -11.481   9.625  67.092  1.00  0.00     0.000 HD 
BRANCH  17  19
HETATM   19  C   UNL     1     -10.369   7.863  67.172  1.00  0.00    -0.328 A  
HETATM   20  C   UNL     1     -11.020   6.654  67.406  1.00  0.00    -0.434 A  
HETATM   21  C   UNL     1      -9.228   5.537  66.265  1.00  0.00    -0.161 A  
HETATM   22  C   UNL     1     -10.445   5.475  66.928  1.00  0.00    -0.348 A  
HETATM   23  C   UNL     1      -8.666   6.786  66.056  1.00  0.00    -0.146 A  
HETATM   24  N   UNL     1      -9.230   7.949  66.457  1.00  0.00    -0.181 NA 
ENDBRANCH  17  19
ENDBRANCH   3  15
TORSDOF 2
ENDMDL
MODEL       37
REMARK 921   NORMALIZED FREE ENERGY PREDICTED BY IDOCK:   -5.68 KCAL/MOL
REMARK 922        TOTAL FREE ENERGY PREDICTED BY IDOCK:   -6.70 KCAL/MOL
REMARK 923 INTER-LIGAND FREE ENERGY PREDICTED BY IDOCK:   -6.34 KCAL/MOL
REMARK 924 INTRA-LIGAND FREE ENERGY PREDICTED BY IDOCK:   -0.37 KCAL/MOL
REMARK 927      BINDING AFFINITY PREDICTED BY RF-SCORE:    0.00 PKD
ROOT
HETATM    1  C   UNL     1     -10.982   9.624  67.345  1.00  0.00    -0.069 C  
HETATM    2  N   UNL     1     -11.226  10.902  68.024  1.00  0.00    -0.294 N  
HETATM    3  C   UNL     1     -11.567  11.080  69.427  1.00  0.00    -0.312 C  
HETATM    4  C   UNL     1     -11.889  15.851  68.334  1.00  0.00    -0.121 A  
HETATM    5  C   UNL     1     -11.795  12.307  69.971  1.00  0.00    -0.296 C  
HETATM    6  O   UNL     1     -12.013  12.170  65.951  1.00  0.00    -0.561 OA 
HETATM    7  C   UNL     1     -11.752  13.519  69.205  1.00  0.00    -0.330 A  
HETATM    8  O   UNL     1     -12.105  12.524  71.299  1.00  0.00    -0.254 OA 
HETATM    9  C   UNL     1     -11.513  14.961  67.354  1.00  0.00    -0.354 A  
HETATM   10  C   UNL     1     -11.442  13.647  67.876  1.00  0.00    -0.314 A  
HETATM   11  S   UNL     1     -12.136  15.077  69.843  1.00  0.00    -0.330 SA 
HETATM   12  S   UNL     1     -11.020  12.235  67.009  1.00  0.00    -0.284 S  
HETATM   13  H   UNL     1     -12.264  13.381  71.679  1.00  0.00     0.000 HD 
HETATM   14  O   UNL     1      -9.614  12.396  66.739  1.00  0.00    -0.212 OA 
ENDROOT
BRANCH   3  15
HETATM   15  C   UNL     1     -11.783   9.908  70.364  1.00  0.00    -0.258 C  
HETATM   16  O   UNL     1     -12.777   9.904  71.094  1.00  0.00    -0.327 OA 
HETATM   17  N   UNL     1     -10.771   8.988  70.455  1.00  0.00    -0.217 N  
HETATM   18  H   UNL     1      -9.972   9.088  69.828  1.00  0.00     0.000 HD 
BRANCH  17  19
HETATM   19  C   UNL     1     -10.769   7.917  71.359  1.00  0.00    -0.224 A  
HETATM   20  C   UNL     1     -11.413   6.706  71.113  1.00  0.00    -0.370 A  
HETATM   21  C   UNL     1     -10.793   5.998  73.322  1.00  0.00    -0.277 A  
HETATM   22  C   UNL     1     -11.409   5.727  72.108  1.00  0.00    -0.317 A  
HETATM   23  C   UNL     1     -10.155   7.219  73.467  1.00  0.00    -0.340 A  
HETATM   24  N   UNL     1     -10.094   8.163  72.499  1.00  0.00    -0.276 NA 
ENDBRANCH  17  19
ENDBRANCH   3  15
TORSDOF 2
ENDMDL
MODEL       38
REMARK 921   NORMALIZED FREE ENERGY PREDICTED BY IDOCK:   -5.63 KCAL/MOL
REMARK 922        TOTAL FREE ENERGY PREDICTED BY IDOCK:   -6.65 KCAL/MOL
REMARK 923 INTER-LIGAND FREE ENERGY PREDICTED BY IDOCK:   -6.09 KCAL/MOL
REMARK 924 INTRA-LIGAND FREE ENERGY PREDICTED BY IDOCK:   -0.56 KCAL/MOL
REMARK 927      BINDING AFFINITY PREDICTED BY RF-SCORE:    0.00 PKD
ROOT
HETATM    1  C   UNL     1     -12.941  14.018  70.459  1.00  0.00    -0.133 C  
HETATM    2  N   UNL     1     -11.691  14.004  69.690  1.00  0.00    -0.292 N  
HETATM    3  C   UNL     1     -11.038  12.831  69.132  1.00  0.00    -0.189 C  
HETATM    4  C   UNL     1      -7.534  15.952  67.702  1.00  0.00    -0.152 A  
HETATM    5  C   UNL     1      -9.864  12.909  68.444  1.00  0.00    -0.197 C  
HETATM    6  O   UNL     1     -10.703  16.116  70.732  1.00  0.00    -0.112 OA 
HETATM    7  C   UNL     1      -9.160  14.141  68.242  1.00  0.00    -0.190 A  
HETATM    8  O   UNL     1      -9.218  11.825  67.883  1.00  0.00    -0.168 OA 
HETATM    9  C   UNL     1      -8.646  16.441  68.350  1.00  0.00    -0.209 A  
HETATM   10  C   UNL     1      -9.551  15.393  68.643  1.00  0.00    -0.204 A  
HETATM   11  S   UNL     1      -7.623  14.257  67.464  1.00  0.00    -0.168 SA 
HETATM   12  S   UNL     1     -11.054  15.548  69.442  1.00  0.00    -0.320 S  
HETATM   13  H   UNL     1      -8.399  11.879  67.404  1.00  0.00     0.000 HD 
HETATM   14  O   UNL     1     -11.887  16.243  68.494  1.00  0.00    -0.236 OA 
ENDROOT
BRANCH   3  15
HETATM   15  C   UNL     1     -11.565  11.427  69.352  1.00  0.00    -0.323 C  
HETATM   16  O   UNL     1     -12.126  10.848  68.419  1.00  0.00    -0.559 OA 
HETATM   17  N   UNL     1     -11.525  10.939  70.633  1.00  0.00    -0.420 N  
HETATM   18  H   UNL     1     -11.064  11.504  71.347  1.00  0.00     0.000 HD 
BRANCH  17  19
HETATM   19  C   UNL     1     -12.079   9.711  71.018  1.00  0.00    -0.337 A  
HETATM   20  C   UNL     1     -11.367   8.515  71.014  1.00  0.00    -0.313 A  
HETATM   21  C   UNL     1     -13.385   7.381  71.649  1.00  0.00    -0.426 A  
HETATM   22  C   UNL     1     -12.031   7.334  71.351  1.00  0.00    -0.354 A  
HETATM   23  C   UNL     1     -14.006   8.619  71.653  1.00  0.00    -0.401 A  
HETATM   24  N   UNL     1     -13.373   9.786  71.387  1.00  0.00    -0.384 NA 
ENDBRANCH  17  19
ENDBRANCH   3  15
TORSDOF 2
ENDMDL
MODEL       39
REMARK 921   NORMALIZED FREE ENERGY PREDICTED BY IDOCK:   -5.59 KCAL/MOL
REMARK 922        TOTAL FREE ENERGY PREDICTED BY IDOCK:   -6.61 KCAL/MOL
REMARK 923 INTER-LIGAND FREE ENERGY PREDICTED BY IDOCK:   -6.01 KCAL/MOL
REMARK 924 INTRA-LIGAND FREE ENERGY PREDICTED BY IDOCK:   -0.60 KCAL/MOL
REMARK 927      BINDING AFFINITY PREDICTED BY RF-SCORE:    0.00 PKD
ROOT
HETATM    1  C   UNL     1      -9.481   8.225  66.520  1.00  0.00    -0.220 C  
HETATM    2  N   UNL     1     -10.005   8.338  67.886  1.00  0.00    -0.174 N  
HETATM    3  C   UNL     1     -10.406   9.566  68.555  1.00  0.00    -0.207 C  
HETATM    4  C   UNL     1     -11.236   6.705  72.452  1.00  0.00    -0.267 A  
HETATM    5  C   UNL     1     -10.866   9.580  69.837  1.00  0.00    -0.246 C  
HETATM    6  O   UNL     1      -8.847   6.253  68.799  1.00  0.00    -0.123 OA 
HETATM    7  C   UNL     1     -10.963   8.398  70.643  1.00  0.00    -0.243 A  
HETATM    8  O   UNL     1     -11.273  10.719  70.505  1.00  0.00    -0.426 OA 
HETATM    9  C   UNL     1     -10.815   6.131  71.273  1.00  0.00    -0.322 A  
HETATM   10  C   UNL     1     -10.671   7.114  70.265  1.00  0.00    -0.238 A  
HETATM   11  S   UNL     1     -11.446   8.399  72.300  1.00  0.00    -0.380 SA 
HETATM   12  S   UNL     1     -10.166   6.844  68.654  1.00  0.00    -0.182 S  
HETATM   13  H   UNL     1     -11.595  10.728  71.399  1.00  0.00     0.000 HD 
HETATM   14  O   UNL     1     -11.267   6.134  68.055  1.00  0.00    -0.310 OA 
ENDROOT
BRANCH   3  15
HETATM   15  C   UNL     1     -10.254  10.929  67.908  1.00  0.00    -0.179 C  
HETATM   16  O   UNL     1      -9.478  11.745  68.411  1.00  0.00    -0.191 OA 
HETATM   17  N   UNL     1     -11.113  11.231  66.883  1.00  0.00    -0.293 N  
HETATM   18  H   UNL     1     -11.742  10.499  66.551  1.00  0.00     0.000 HD 
BRANCH  17  19
HETATM   19  C   UNL     1     -11.178  12.487  66.263  1.00  0.00    -0.315 A  
HETATM   20  C   UNL     1     -12.046  13.497  66.671  1.00  0.00    -0.447 A  
HETATM   21  C   UNL     1     -11.277  14.819  64.820  1.00  0.00    -0.392 A  
HETATM   22  C   UNL     1     -12.081  14.689  65.943  1.00  0.00    -0.212 A  
HETATM   23  C   UNL     1     -10.427  13.772  64.506  1.00  0.00    -0.356 A  
HETATM   24  N   UNL     1     -10.330  12.631  65.226  1.00  0.00    -0.286 NA 
ENDBRANCH  17  19
ENDBRANCH   3  15
TORSDOF 2
ENDMDL
MODEL       40
REMARK 921   NORMALIZED FREE ENERGY PREDICTED BY IDOCK:   -5.58 KCAL/MOL
REMARK 922        TOTAL FREE ENERGY PREDICTED BY IDOCK:   -6.59 KCAL/MOL
REMARK 923 INTER-LIGAND FREE ENERGY PREDICTED BY IDOCK:   -7.25 KCAL/MOL
REMARK 924 INTRA-LIGAND FREE ENERGY PREDICTED BY IDOCK:    0.66 KCAL/MOL
REMARK 927      BINDING AFFINITY PREDICTED BY RF-SCORE:    0.00 PKD
ROOT
HETATM    1  C   UNL     1     -11.575  16.208  67.011  1.00  0.00     0.521 C  
HETATM    2  N   UNL     1     -11.399  14.803  66.627  1.00  0.00    -0.351 N  
HETATM    3  C   UNL     1     -11.524  13.649  67.505  1.00  0.00    -0.329 C  
HETATM    4  C   UNL     1     -10.213  11.018  63.578  1.00  0.00    -0.365 A  
HETATM    5  C   UNL     1     -11.325  12.376  67.066  1.00  0.00    -0.327 C  
HETATM    6  O   UNL     1      -9.804  15.244  64.682  1.00  0.00    -0.053 OA 
HETATM    7  C   UNL     1     -10.947  12.066  65.718  1.00  0.00    -0.307 A  
HETATM    8  O   UNL     1     -11.449  11.251  67.858  1.00  0.00    -0.340 OA 
HETATM    9  C   UNL     1     -10.358  12.381  63.456  1.00  0.00    -0.397 A  
HETATM   10  C   UNL     1     -10.776  12.949  64.683  1.00  0.00    -0.353 A  
HETATM   11  S   UNL     1     -10.590  10.472  65.158  1.00  0.00     0.091 SA 
HETATM   12  S   UNL     1     -11.074  14.606  64.982  1.00  0.00    -0.412 S  
HETATM   13  H   UNL     1     -11.311  10.363  67.552  1.00  0.00     0.000 HD 
HETATM   14  O   UNL     1     -12.274  14.889  64.238  1.00  0.00    -0.507 OA 
ENDROOT
BRANCH   3  15
HETATM   15  C   UNL     1     -11.792  13.786  68.990  1.00  0.00    -0.357 C  
HETATM   16  O   UNL     1     -11.822  12.769  69.687  1.00  0.00    -0.311 OA 
HETATM   17  N   UNL     1     -12.143  15.030  69.448  1.00  0.00    -0.471 N  
HETATM   18  H   UNL     1     -12.117  15.809  68.791  1.00  0.00     0.000 HD 
BRANCH  17  19
HETATM   19  C   UNL     1     -12.535  15.294  70.768  1.00  0.00    -0.402 A  
HETATM   20  C   UNL     1     -13.758  14.890  71.298  1.00  0.00    -0.505 A  
HETATM   21  C   UNL     1     -13.194  16.050  73.323  1.00  0.00    -0.651 A  
HETATM   22  C   UNL     1     -14.082  15.262  72.605  1.00  0.00    -0.476 A  
HETATM   23  C   UNL     1     -11.991  16.383  72.724  1.00  0.00    -0.490 A  
HETATM   24  N   UNL     1     -11.626  15.987  71.482  1.00  0.00    -0.453 NA 
ENDBRANCH  17  19
ENDBRANCH   3  15
TORSDOF 2
ENDMDL
MODEL       41
REMARK 921   NORMALIZED FREE ENERGY PREDICTED BY IDOCK:   -5.54 KCAL/MOL
REMARK 922        TOTAL FREE ENERGY PREDICTED BY IDOCK:   -6.56 KCAL/MOL
REMARK 923 INTER-LIGAND FREE ENERGY PREDICTED BY IDOCK:   -6.01 KCAL/MOL
REMARK 924 INTRA-LIGAND FREE ENERGY PREDICTED BY IDOCK:   -0.55 KCAL/MOL
REMARK 927      BINDING AFFINITY PREDICTED BY RF-SCORE:    0.00 PKD
ROOT
HETATM    1  C   UNL     1      -8.088   8.412  67.081  1.00  0.00    -0.104 C  
HETATM    2  N   UNL     1      -9.064   9.461  66.764  1.00  0.00    -0.137 N  
HETATM    3  C   UNL     1     -10.125   9.940  67.636  1.00  0.00    -0.197 C  
HETATM    4  C   UNL     1     -11.410  12.784  63.851  1.00  0.00    -0.442 A  
HETATM    5  C   UNL     1     -11.001  10.910  67.252  1.00  0.00    -0.294 C  
HETATM    6  O   UNL     1      -9.021   9.123  64.233  1.00  0.00    -0.163 OA 
HETATM    7  C   UNL     1     -10.974  11.513  65.951  1.00  0.00    -0.243 A  
HETATM    8  O   UNL     1     -12.012  11.407  68.052  1.00  0.00    -0.613 OA 
HETATM    9  C   UNL     1     -10.303  11.972  63.738  1.00  0.00    -0.457 A  
HETATM   10  C   UNL     1     -10.079  11.266  64.943  1.00  0.00    -0.281 A  
HETATM   11  S   UNL     1     -12.132  12.669  65.401  1.00  0.00    -0.442 SA 
HETATM   12  S   UNL     1      -8.820  10.148  65.242  1.00  0.00    -0.193 S  
HETATM   13  H   UNL     1     -12.623  12.083  67.783  1.00  0.00     0.000 HD 
HETATM   14  O   UNL     1      -7.631  10.961  65.289  1.00  0.00     0.011 OA 
ENDROOT
BRANCH   3  15
HETATM   15  C   UNL     1     -10.391   9.333  69.000  1.00  0.00    -0.214 C  
HETATM   16  O   UNL     1     -10.086   9.976  70.008  1.00  0.00    -0.248 OA 
HETATM   17  N   UNL     1     -10.815   8.030  69.030  1.00  0.00    -0.420 N  
HETATM   18  H   UNL     1     -11.015   7.569  68.142  1.00  0.00     0.000 HD 
BRANCH  17  19
HETATM   19  C   UNL     1     -10.989   7.293  70.210  1.00  0.00    -0.260 A  
HETATM   20  C   UNL     1     -10.013   6.451  70.738  1.00  0.00    -0.212 A  
HETATM   21  C   UNL     1     -11.579   5.804  72.439  1.00  0.00    -0.320 A  
HETATM   22  C   UNL     1     -10.312   5.708  71.882  1.00  0.00    -0.266 A  
HETATM   23  C   UNL     1     -12.476   6.686  71.861  1.00  0.00    -0.287 A  
HETATM   24  N   UNL     1     -12.194   7.461  70.788  1.00  0.00    -0.224 NA 
ENDBRANCH  17  19
ENDBRANCH   3  15
TORSDOF 2
ENDMDL
MODEL       42
REMARK 921   NORMALIZED FREE ENERGY PREDICTED BY IDOCK:   -5.54 KCAL/MOL
REMARK 922        TOTAL FREE ENERGY PREDICTED BY IDOCK:   -6.55 KCAL/MOL
REMARK 923 INTER-LIGAND FREE ENERGY PREDICTED BY IDOCK:   -5.97 KCAL/MOL
REMARK 924 INTRA-LIGAND FREE ENERGY PREDICTED BY IDOCK:   -0.58 KCAL/MOL
REMARK 927      BINDING AFFINITY PREDICTED BY RF-SCORE:    0.00 PKD
ROOT
HETATM    1  C   UNL     1     -10.013   8.988  66.120  1.00  0.00    -0.241 C  
HETATM    2  N   UNL     1     -10.130  10.423  66.405  1.00  0.00    -0.220 N  
HETATM    3  C   UNL     1     -10.144  11.040  67.723  1.00  0.00    -0.177 C  
HETATM    4  C   UNL     1     -10.841  15.252  65.307  1.00  0.00    -0.403 A  
HETATM    5  C   UNL     1     -10.275  12.384  67.896  1.00  0.00    -0.213 C  
HETATM    6  O   UNL     1     -11.408  11.025  64.278  1.00  0.00    -0.055 OA 
HETATM    7  C   UNL     1     -10.443  13.298  66.804  1.00  0.00    -0.270 A  
HETATM    8  O   UNL     1     -10.277  13.014  69.125  1.00  0.00    -0.428 OA 
HETATM    9  C   UNL     1     -10.677  14.086  64.593  1.00  0.00    -0.416 A  
HETATM   10  C   UNL     1     -10.451  12.996  65.467  1.00  0.00    -0.285 A  
HETATM   11  S   UNL     1     -10.712  14.992  66.996  1.00  0.00    -0.309 SA 
HETATM   12  S   UNL     1     -10.200  11.368  65.008  1.00  0.00    -0.297 S  
HETATM   13  H   UNL     1     -10.368  13.952  69.246  1.00  0.00     0.000 HD 
HETATM   14  O   UNL     1      -8.900  11.372  64.390  1.00  0.00     0.094 OA 
ENDROOT
BRANCH   3  15
HETATM   15  C   UNL     1     -10.107  10.224  69.000  1.00  0.00    -0.213 C  
HETATM   16  O   UNL     1      -9.045  10.140  69.623  1.00  0.00    -0.206 OA 
HETATM   17  N   UNL     1     -11.226   9.495  69.308  1.00  0.00    -0.440 N  
HETATM   18  H   UNL     1     -12.050   9.608  68.717  1.00  0.00     0.000 HD 
BRANCH  17  19
HETATM   19  C   UNL     1     -11.305   8.603  70.386  1.00  0.00    -0.187 A  
HETATM   20  C   UNL     1     -11.620   8.998  71.684  1.00  0.00    -0.426 A  
HETATM   21  C   UNL     1     -11.248   6.736  72.398  1.00  0.00    -0.300 A  
HETATM   22  C   UNL     1     -11.606   8.042  72.702  1.00  0.00    -0.448 A  
HETATM   23  C   UNL     1     -10.975   6.430  71.075  1.00  0.00    -0.274 A  
HETATM   24  N   UNL     1     -11.038   7.324  70.060  1.00  0.00    -0.260 NA 
ENDBRANCH  17  19
ENDBRANCH   3  15
TORSDOF 2
ENDMDL
MODEL       43
REMARK 921   NORMALIZED FREE ENERGY PREDICTED BY IDOCK:   -5.51 KCAL/MOL
REMARK 922        TOTAL FREE ENERGY PREDICTED BY IDOCK:   -6.51 KCAL/MOL
REMARK 923 INTER-LIGAND FREE ENERGY PREDICTED BY IDOCK:   -5.83 KCAL/MOL
REMARK 924 INTRA-LIGAND FREE ENERGY PREDICTED BY IDOCK:   -0.68 KCAL/MOL
REMARK 927      BINDING AFFINITY PREDICTED BY RF-SCORE:    0.00 PKD
ROOT
HETATM    1  C   UNL     1      -8.354  13.169  68.319  1.00  0.00    -0.152 C  
HETATM    2  N   UNL     1      -9.149  13.342  67.098  1.00  0.00    -0.226 N  
HETATM    3  C   UNL     1      -9.494  14.607  66.468  1.00  0.00    -0.297 C  
HETATM    4  C   UNL     1     -12.040  11.876  63.287  1.00  0.00    -0.357 A  
HETATM    5  C   UNL     1     -10.255  14.676  65.341  1.00  0.00    -0.387 C  
HETATM    6  O   UNL     1     -10.494  11.184  67.334  1.00  0.00    -0.201 OA 
HETATM    7  C   UNL     1     -10.805  13.517  64.700  1.00  0.00    -0.405 A  
HETATM    8  O   UNL     1     -10.593  15.852  64.700  1.00  0.00    -0.718 OA 
HETATM    9  C   UNL     1     -11.319  11.254  64.281  1.00  0.00    -0.120 A  
HETATM   10  C   UNL     1     -10.627  12.208  65.065  1.00  0.00    -0.291 A  
HETATM   11  S   UNL     1     -11.854  13.579  63.330  1.00  0.00     0.018 SA 
HETATM   12  S   UNL     1      -9.618  11.876  66.405  1.00  0.00    -0.229 S  
HETATM   13  H   UNL     1     -11.124  15.900  63.914  1.00  0.00     0.000 HD 
HETATM   14  O   UNL     1      -8.458  11.248  65.825  1.00  0.00    -0.130 OA 
ENDROOT
BRANCH   3  15
HETATM   15  C   UNL     1      -9.111  15.945  67.072  1.00  0.00    -0.217 C  
HETATM   16  O   UNL     1      -9.730  16.353  68.057  1.00  0.00    -0.230 OA 
HETATM   17  N   UNL     1      -8.195  16.698  66.386  1.00  0.00    -0.294 N  
HETATM   18  H   UNL     1      -7.754  16.287  65.562  1.00  0.00     0.000 HD 
BRANCH  17  19
HETATM   19  C   UNL     1      -7.827  18.001  66.749  1.00  0.00    -0.235 A  
HETATM   20  C   UNL     1      -8.542  19.134  66.366  1.00  0.00    -0.335 A  
HETATM   21  C   UNL     1      -6.856  20.480  67.419  1.00  0.00    -0.353 A  
HETATM   22  C   UNL     1      -8.053  20.392  66.723  1.00  0.00    -0.283 A  
HETATM   23  C   UNL     1      -6.227  19.299  67.780  1.00  0.00    -0.212 A  
HETATM   24  N   UNL     1      -6.708  18.066  67.497  1.00  0.00    -0.180 NA 
ENDBRANCH  17  19
ENDBRANCH   3  15
TORSDOF 2
ENDMDL
MODEL       44
REMARK 921   NORMALIZED FREE ENERGY PREDICTED BY IDOCK:   -5.47 KCAL/MOL
REMARK 922        TOTAL FREE ENERGY PREDICTED BY IDOCK:   -6.47 KCAL/MOL
REMARK 923 INTER-LIGAND FREE ENERGY PREDICTED BY IDOCK:   -5.79 KCAL/MOL
REMARK 924 INTRA-LIGAND FREE ENERGY PREDICTED BY IDOCK:   -0.68 KCAL/MOL
REMARK 927      BINDING AFFINITY PREDICTED BY RF-SCORE:    0.00 PKD
ROOT
HETATM    1  C   UNL     1     -11.775  14.759  66.817  1.00  0.00    -0.298 C  
HETATM    2  N   UNL     1     -10.385  15.230  66.815  1.00  0.00    -0.273 N  
HETATM    3  C   UNL     1      -9.196  14.403  66.961  1.00  0.00    -0.234 C  
HETATM    4  C   UNL     1      -6.719  18.634  66.805  1.00  0.00    -0.192 A  
HETATM    5  C   UNL     1      -7.940  14.929  66.965  1.00  0.00    -0.135 C  
HETATM    6  O   UNL     1     -10.887  17.580  67.678  1.00  0.00    -0.343 OA 
HETATM    7  C   UNL     1      -7.684  16.336  66.861  1.00  0.00    -0.243 A  
HETATM    8  O   UNL     1      -6.784  14.182  67.083  1.00  0.00    -0.403 OA 
HETATM    9  C   UNL     1      -8.088  18.651  66.665  1.00  0.00    -0.284 A  
HETATM   10  C   UNL     1      -8.608  17.335  66.699  1.00  0.00    -0.257 A  
HETATM   11  S   UNL     1      -6.111  17.040  66.965  1.00  0.00    -0.201 SA 
HETATM   12  S   UNL     1     -10.254  16.894  66.565  1.00  0.00    -0.311 S  
HETATM   13  H   UNL     1      -5.908  14.549  67.087  1.00  0.00     0.000 HD 
HETATM   14  O   UNL     1     -10.585  17.181  65.193  1.00  0.00    -0.695 OA 
ENDROOT
BRANCH   3  15
HETATM   15  C   UNL     1      -9.273  12.910  67.210  1.00  0.00    -0.208 C  
HETATM   16  O   UNL     1      -9.225  12.496  68.371  1.00  0.00    -0.196 OA 
HETATM   17  N   UNL     1      -9.233  12.092  66.110  1.00  0.00    -0.321 N  
HETATM   18  H   UNL     1      -9.246  12.526  65.187  1.00  0.00     0.000 HD 
BRANCH  17  19
HETATM   19  C   UNL     1      -9.176  10.693  66.180  1.00  0.00    -0.172 A  
HETATM   20  C   UNL     1     -10.283   9.894  66.457  1.00  0.00    -0.292 A  
HETATM   21  C   UNL     1      -8.832   7.982  66.439  1.00  0.00    -0.183 A  
HETATM   22  C   UNL     1     -10.107   8.514  66.571  1.00  0.00    -0.328 A  
HETATM   23  C   UNL     1      -7.795   8.850  66.139  1.00  0.00    -0.102 A  
HETATM   24  N   UNL     1      -7.948  10.183  65.965  1.00  0.00    -0.119 NA 
ENDBRANCH  17  19
ENDBRANCH   3  15
TORSDOF 2
ENDMDL
MODEL       45
REMARK 921   NORMALIZED FREE ENERGY PREDICTED BY IDOCK:   -5.46 KCAL/MOL
REMARK 922        TOTAL FREE ENERGY PREDICTED BY IDOCK:   -6.46 KCAL/MOL
REMARK 923 INTER-LIGAND FREE ENERGY PREDICTED BY IDOCK:   -5.76 KCAL/MOL
REMARK 924 INTRA-LIGAND FREE ENERGY PREDICTED BY IDOCK:   -0.70 KCAL/MOL
REMARK 927      BINDING AFFINITY PREDICTED BY RF-SCORE:    0.00 PKD
ROOT
HETATM    1  C   UNL     1     -11.470  11.313  65.108  1.00  0.00     0.183 C  
HETATM    2  N   UNL     1     -11.149  12.464  65.960  1.00  0.00    -0.295 N  
HETATM    3  C   UNL     1     -11.054  12.459  67.412  1.00  0.00    -0.272 C  
HETATM    4  C   UNL     1     -10.234  17.276  66.978  1.00  0.00    -0.320 A  
HETATM    5  C   UNL     1     -10.767  13.582  68.127  1.00  0.00    -0.252 C  
HETATM    6  O   UNL     1     -12.031  14.248  64.361  1.00  0.00    -0.438 OA 
HETATM    7  C   UNL     1     -10.568  14.865  67.516  1.00  0.00    -0.266 A  
HETATM    8  O   UNL     1     -10.651  13.621  69.503  1.00  0.00    -0.436 OA 
HETATM    9  C   UNL     1     -10.398  16.516  65.842  1.00  0.00    -0.365 A  
HETATM   10  C   UNL     1     -10.583  15.154  66.177  1.00  0.00    -0.313 A  
HETATM   11  S   UNL     1     -10.304  16.323  68.401  1.00  0.00    -0.286 SA 
HETATM   12  S   UNL     1     -10.827  13.866  65.078  1.00  0.00    -0.405 S  
HETATM   13  H   UNL     1     -10.451  14.404  70.001  1.00  0.00     0.000 HD 
HETATM   14  O   UNL     1      -9.554  13.717  64.423  1.00  0.00     0.169 OA 
ENDROOT
BRANCH   3  15
HETATM   15  C   UNL     1     -11.358  11.226  68.241  1.00  0.00    -0.289 C  
HETATM   16  O   UNL     1     -12.506  11.056  68.658  1.00  0.00    -0.462 OA 
HETATM   17  N   UNL     1     -10.293  10.446  68.611  1.00  0.00    -0.174 N  
HETATM   18  H   UNL     1      -9.373  10.681  68.238  1.00  0.00     0.000 HD 
BRANCH  17  19
HETATM   19  C   UNL     1     -10.395   9.344  69.471  1.00  0.00    -0.214 A  
HETATM   20  C   UNL     1     -10.517   8.031  69.021  1.00  0.00    -0.212 A  
HETATM   21  C   UNL     1     -10.749   7.335  71.307  1.00  0.00    -0.243 A  
HETATM   22  C   UNL     1     -10.680   7.010  69.960  1.00  0.00    -0.267 A  
HETATM   23  C   UNL     1     -10.592   8.664  71.663  1.00  0.00    -0.303 A  
HETATM   24  N   UNL     1     -10.374   9.666  70.779  1.00  0.00    -0.300 NA 
ENDBRANCH  17  19
ENDBRANCH   3  15
TORSDOF 2
ENDMDL
MODEL       46
REMARK 921   NORMALIZED FREE ENERGY PREDICTED BY IDOCK:   -5.44 KCAL/MOL
REMARK 922        TOTAL FREE ENERGY PREDICTED BY IDOCK:   -6.44 KCAL/MOL
REMARK 923 INTER-LIGAND FREE ENERGY PREDICTED BY IDOCK:   -5.88 KCAL/MOL
REMARK 924 INTRA-LIGAND FREE ENERGY PREDICTED BY IDOCK:   -0.57 KCAL/MOL
REMARK 927      BINDING AFFINITY PREDICTED BY RF-SCORE:    0.00 PKD
ROOT
HETATM    1  C   UNL     1     -12.158  12.920  70.116  1.00  0.00    -0.302 C  
HETATM    2  N   UNL     1     -11.522  13.854  69.179  1.00  0.00    -0.279 N  
HETATM    3  C   UNL     1     -10.996  13.527  67.863  1.00  0.00    -0.256 C  
HETATM    4  C   UNL     1      -9.581  18.221  67.698  1.00  0.00    -0.282 A  
HETATM    5  C   UNL     1     -10.402  14.457  67.064  1.00  0.00    -0.263 C  
HETATM    6  O   UNL     1     -10.666  15.483  70.950  1.00  0.00    -0.299 OA 
HETATM    7  C   UNL     1     -10.216  15.822  67.463  1.00  0.00    -0.265 A  
HETATM    8  O   UNL     1      -9.905  14.195  65.803  1.00  0.00    -0.372 OA 
HETATM    9  C   UNL     1     -10.277  17.766  68.796  1.00  0.00    -0.373 A  
HETATM   10  C   UNL     1     -10.626  16.404  68.634  1.00  0.00    -0.305 A  
HETATM   11  S   UNL     1      -9.379  16.997  66.516  1.00  0.00    -0.278 SA 
HETATM   12  S   UNL     1     -11.488  15.441  69.753  1.00  0.00    -0.355 S  
HETATM   13  H   UNL     1      -9.491  14.844  65.245  1.00  0.00     0.000 HD 
HETATM   14  O   UNL     1     -12.826  15.972  69.717  1.00  0.00    -0.025 OA 
ENDROOT
BRANCH   3  15
HETATM   15  C   UNL     1     -10.987  12.110  67.322  1.00  0.00    -0.260 C  
HETATM   16  O   UNL     1     -12.032  11.639  66.868  1.00  0.00    -0.567 OA 
HETATM   17  N   UNL     1      -9.845  11.377  67.515  1.00  0.00    -0.177 N  
HETATM   18  H   UNL     1      -9.036  11.845  67.926  1.00  0.00     0.000 HD 
BRANCH  17  19
HETATM   19  C   UNL     1      -9.722  10.022  67.180  1.00  0.00    -0.174 A  
HETATM   20  C   UNL     1      -9.047   9.571  66.047  1.00  0.00    -0.220 A  
HETATM   21  C   UNL     1      -9.731   7.338  66.603  1.00  0.00    -0.249 A  
HETATM   22  C   UNL     1      -9.040   8.203  65.766  1.00  0.00    -0.139 A  
HETATM   23  C   UNL     1     -10.352   7.873  67.720  1.00  0.00    -0.226 A  
HETATM   24  N   UNL     1     -10.325   9.186  68.047  1.00  0.00    -0.212 NA 
ENDBRANCH  17  19
ENDBRANCH   3  15
TORSDOF 2
ENDMDL
MODEL       47
REMARK 921   NORMALIZED FREE ENERGY PREDICTED BY IDOCK:   -5.43 KCAL/MOL
REMARK 922        TOTAL FREE ENERGY PREDICTED BY IDOCK:   -6.43 KCAL/MOL
REMARK 923 INTER-LIGAND FREE ENERGY PREDICTED BY IDOCK:   -5.84 KCAL/MOL
REMARK 924 INTRA-LIGAND FREE ENERGY PREDICTED BY IDOCK:   -0.59 KCAL/MOL
REMARK 927      BINDING AFFINITY PREDICTED BY RF-SCORE:    0.00 PKD
ROOT
HETATM    1  C   UNL     1     -10.822  11.086  64.396  1.00  0.00    -0.192 C  
HETATM    2  N   UNL     1     -10.811  11.830  65.662  1.00  0.00    -0.286 N  
HETATM    3  C   UNL     1     -10.377  11.322  66.954  1.00  0.00    -0.234 C  
HETATM    4  C   UNL     1     -11.755  15.697  68.692  1.00  0.00    -0.352 A  
HETATM    5  C   UNL     1     -10.418  12.079  68.085  1.00  0.00    -0.202 C  
HETATM    6  O   UNL     1     -12.709  13.428  65.060  1.00  0.00    -0.623 OA 
HETATM    7  C   UNL     1     -10.921  13.422  68.106  1.00  0.00    -0.255 A  
HETATM    8  O   UNL     1     -10.001  11.645  69.328  1.00  0.00    -0.413 OA 
HETATM    9  C   UNL     1     -11.858  15.447  67.342  1.00  0.00     0.083 A  
HETATM   10  C   UNL     1     -11.376  14.151  67.038  1.00  0.00    -0.332 A  
HETATM   11  S   UNL     1     -11.080  14.370  69.540  1.00  0.00    -0.196 SA 
HETATM   12  S   UNL     1     -11.322  13.429  65.489  1.00  0.00    -0.297 S  
HETATM   13  H   UNL     1     -10.030  12.174  70.117  1.00  0.00     0.000 HD 
HETATM   14  O   UNL     1     -10.299  14.167  64.793  1.00  0.00    -0.426 OA 
ENDROOT
BRANCH   3  15
HETATM   15  C   UNL     1      -9.934   9.886  67.154  1.00  0.00    -0.200 C  
HETATM   16  O   UNL     1      -8.905   9.497  66.595  1.00  0.00    -0.132 OA 
HETATM   17  N   UNL     1     -10.794   9.056  67.824  1.00  0.00    -0.482 N  
HETATM   18  H   UNL     1     -11.637   9.463  68.229  1.00  0.00     0.000 HD 
BRANCH  17  19
HETATM   19  C   UNL     1     -10.583   7.679  67.987  1.00  0.00    -0.151 A  
HETATM   20  C   UNL     1     -10.020   7.121  69.132  1.00  0.00    -0.168 A  
HETATM   21  C   UNL     1     -10.097   4.979  68.051  1.00  0.00    -0.169 A  
HETATM   22  C   UNL     1      -9.789   5.744  69.167  1.00  0.00    -0.211 A  
HETATM   23  C   UNL     1     -10.677   5.616  66.967  1.00  0.00    -0.250 A  
HETATM   24  N   UNL     1     -10.965   6.938  66.928  1.00  0.00    -0.351 NA 
ENDBRANCH  17  19
ENDBRANCH   3  15
TORSDOF 2
ENDMDL
MODEL       48
REMARK 921   NORMALIZED FREE ENERGY PREDICTED BY IDOCK:   -5.41 KCAL/MOL
REMARK 922        TOTAL FREE ENERGY PREDICTED BY IDOCK:   -6.40 KCAL/MOL
REMARK 923 INTER-LIGAND FREE ENERGY PREDICTED BY IDOCK:   -5.69 KCAL/MOL
REMARK 924 INTRA-LIGAND FREE ENERGY PREDICTED BY IDOCK:   -0.71 KCAL/MOL
REMARK 927      BINDING AFFINITY PREDICTED BY RF-SCORE:    0.00 PKD
ROOT
HETATM    1  C   UNL     1     -10.466  10.080  69.843  1.00  0.00    -0.274 C  
HETATM    2  N   UNL     1     -10.343  10.152  68.383  1.00  0.00    -0.174 N  
HETATM    3  C   UNL     1      -9.905   9.080  67.502  1.00  0.00    -0.179 C  
HETATM    4  C   UNL     1     -10.355  12.387  63.906  1.00  0.00    -0.423 A  
HETATM    5  C   UNL     1      -9.803   9.242  66.153  1.00  0.00    -0.293 C  
HETATM    6  O   UNL     1      -9.932  12.670  68.264  1.00  0.00    -0.223 OA 
HETATM    7  C   UNL     1     -10.084  10.484  65.494  1.00  0.00    -0.283 A  
HETATM    8  O   UNL     1      -9.408   8.249  65.278  1.00  0.00    -0.395 OA 
HETATM    9  C   UNL     1     -10.689  12.743  65.194  1.00  0.00    -0.319 A  
HETATM   10  C   UNL     1     -10.528  11.645  66.071  1.00  0.00    -0.251 A  
HETATM   11  S   UNL     1      -9.867  10.747  63.802  1.00  0.00    -0.353 SA 
HETATM   12  S   UNL     1     -10.825  11.643  67.755  1.00  0.00    -0.232 S  
HETATM   13  H   UNL     1      -9.337   8.361  64.338  1.00  0.00     0.000 HD 
HETATM   14  O   UNL     1     -12.258  11.746  67.860  1.00  0.00    -0.538 OA 
ENDROOT
BRANCH   3  15
HETATM   15  C   UNL     1      -9.442   7.736  68.028  1.00  0.00    -0.144 C  
HETATM   16  O   UNL     1      -8.239   7.558  68.233  1.00  0.00    -0.123 OA 
HETATM   17  N   UNL     1     -10.380   6.739  68.100  1.00  0.00    -0.174 N  
HETATM   18  H   UNL     1     -11.349   6.974  67.884  1.00  0.00     0.000 HD 
BRANCH  17  19
HETATM   19  C   UNL     1     -10.086   5.414  68.452  1.00  0.00    -0.173 A  
HETATM   20  C   UNL     1     -10.019   4.970  69.771  1.00  0.00    -0.319 A  
HETATM   21  C   UNL     1      -9.331   2.822  68.948  1.00  0.00    -0.220 A  
HETATM   22  C   UNL     1      -9.651   3.646  70.018  1.00  0.00    -0.244 A  
HETATM   23  C   UNL     1      -9.450   3.343  67.670  1.00  0.00    -0.181 A  
HETATM   24  N   UNL     1      -9.860   4.604  67.400  1.00  0.00    -0.176 NA 
ENDBRANCH  17  19
ENDBRANCH   3  15
TORSDOF 2
ENDMDL
MODEL       49
REMARK 921   NORMALIZED FREE ENERGY PREDICTED BY IDOCK:   -5.39 KCAL/MOL
REMARK 922        TOTAL FREE ENERGY PREDICTED BY IDOCK:   -6.39 KCAL/MOL
REMARK 923 INTER-LIGAND FREE ENERGY PREDICTED BY IDOCK:   -5.68 KCAL/MOL
REMARK 924 INTRA-LIGAND FREE ENERGY PREDICTED BY IDOCK:   -0.70 KCAL/MOL
REMARK 927      BINDING AFFINITY PREDICTED BY RF-SCORE:    0.00 PKD
ROOT
HETATM    1  C   UNL     1      -9.600   9.980  68.917  1.00  0.00    -0.181 C  
HETATM    2  N   UNL     1     -10.040  10.464  67.603  1.00  0.00    -0.180 N  
HETATM    3  C   UNL     1      -9.693   9.889  66.313  1.00  0.00    -0.222 C  
HETATM    4  C   UNL     1     -12.259  13.609  64.407  1.00  0.00    -0.390 A  
HETATM    5  C   UNL     1     -10.134  10.416  65.138  1.00  0.00    -0.308 C  
HETATM    6  O   UNL     1     -10.366  12.899  68.301  1.00  0.00    -0.232 OA 
HETATM    7  C   UNL     1     -10.947  11.596  65.070  1.00  0.00    -0.273 A  
HETATM    8  O   UNL     1      -9.844   9.894  63.893  1.00  0.00    -0.472 OA 
HETATM    9  C   UNL     1     -12.181  13.478  65.776  1.00  0.00    -0.505 A  
HETATM   10  C   UNL     1     -11.433  12.327  66.122  1.00  0.00    -0.374 A  
HETATM   11  S   UNL     1     -11.438  12.345  63.594  1.00  0.00    -0.509 SA 
HETATM   12  S   UNL     1     -11.085  11.786  67.706  1.00  0.00    -0.264 S  
HETATM   13  H   UNL     1     -10.152  10.262  63.073  1.00  0.00     0.000 HD 
HETATM   14  O   UNL     1     -12.355  11.331  68.211  1.00  0.00    -0.542 OA 
ENDROOT
BRANCH   3  15
HETATM   15  C   UNL     1      -8.740   8.717  66.178  1.00  0.00    -0.160 C  
HETATM   16  O   UNL     1      -7.533   8.941  66.065  1.00  0.00    -0.088 OA 
HETATM   17  N   UNL     1      -9.298   7.473  66.033  1.00  0.00    -0.388 N  
HETATM   18  H   UNL     1     -10.312   7.389  66.113  1.00  0.00     0.000 HD 
BRANCH  17  19
HETATM   19  C   UNL     1      -8.558   6.310  65.780  1.00  0.00    -0.150 A  
HETATM   20  C   UNL     1      -8.219   5.882  64.499  1.00  0.00    -0.110 A  
HETATM   21  C   UNL     1      -7.248   3.917  65.478  1.00  0.00    -0.071 A  
HETATM   22  C   UNL     1      -7.537   4.673  64.351  1.00  0.00    -0.073 A  
HETATM   23  C   UNL     1      -7.602   4.434  66.714  1.00  0.00    -0.086 A  
HETATM   24  N   UNL     1      -8.210   5.630  66.890  1.00  0.00    -0.105 NA 
ENDBRANCH  17  19
ENDBRANCH   3  15
TORSDOF 2
ENDMDL
MODEL       50
REMARK 921   NORMALIZED FREE ENERGY PREDICTED BY IDOCK:   -5.32 KCAL/MOL
REMARK 922        TOTAL FREE ENERGY PREDICTED BY IDOCK:   -6.31 KCAL/MOL
REMARK 923 INTER-LIGAND FREE ENERGY PREDICTED BY IDOCK:   -5.82 KCAL/MOL
REMARK 924 INTRA-LIGAND FREE ENERGY PREDICTED BY IDOCK:   -0.48 KCAL/MOL
REMARK 927      BINDING AFFINITY PREDICTED BY RF-SCORE:    0.00 PKD
ROOT
HETATM    1  C   UNL     1     -12.295  12.846  65.609  1.00  0.00    -0.423 C  
HETATM    2  N   UNL     1     -11.059  13.152  66.338  1.00  0.00    -0.285 N  
HETATM    3  C   UNL     1     -10.371  12.274  67.272  1.00  0.00    -0.214 C  
HETATM    4  C   UNL     1      -7.286  16.033  67.919  1.00  0.00    -0.131 A  
HETATM    5  C   UNL     1      -9.233  12.649  67.920  1.00  0.00    -0.201 C  
HETATM    6  O   UNL     1     -11.376  15.686  66.370  1.00  0.00    -0.128 OA 
HETATM    7  C   UNL     1      -8.638  13.944  67.765  1.00  0.00    -0.182 A  
HETATM    8  O   UNL     1      -8.538  11.843  68.801  1.00  0.00    -0.333 OA 
HETATM    9  C   UNL     1      -8.314  16.156  67.012  1.00  0.00    -0.247 A  
HETATM   10  C   UNL     1      -9.063  14.956  66.944  1.00  0.00    -0.250 A  
HETATM   11  S   UNL     1      -7.256  14.483  68.648  1.00  0.00    -0.133 SA 
HETATM   12  S   UNL     1     -10.426  14.669  65.953  1.00  0.00    -0.333 S  
HETATM   13  H   UNL     1      -7.744  12.104  69.253  1.00  0.00     0.000 HD 
HETATM   14  O   UNL     1      -9.887  14.619  64.618  1.00  0.00    -0.088 OA 
ENDROOT
BRANCH   3  15
HETATM   15  C   UNL     1     -10.918  10.915  67.661  1.00  0.00    -0.293 C  
HETATM   16  O   UNL     1     -12.005  10.854  68.241  1.00  0.00    -0.561 OA 
HETATM   17  N   UNL     1     -10.093   9.836  67.481  1.00  0.00    -0.184 N  
HETATM   18  H   UNL     1      -9.197   9.987  67.016  1.00  0.00     0.000 HD 
BRANCH  17  19
HETATM   19  C   UNL     1     -10.406   8.535  67.899  1.00  0.00    -0.223 A  
HETATM   20  C   UNL     1     -10.700   7.498  67.016  1.00  0.00    -0.367 A  
HETATM   21  C   UNL     1     -11.160   6.098  68.912  1.00  0.00    -0.417 A  
HETATM   22  C   UNL     1     -11.067   6.255  67.536  1.00  0.00    -0.379 A  
HETATM   23  C   UNL     1     -10.825   7.177  69.712  1.00  0.00    -0.240 A  
HETATM   24  N   UNL     1     -10.411   8.375  69.236  1.00  0.00    -0.213 NA 
ENDBRANCH  17  19
ENDBRANCH   3  15
TORSDOF 2
ENDMDL
MODEL       51
REMARK 921   NORMALIZED FREE ENERGY PREDICTED BY IDOCK:   -5.32 KCAL/MOL
REMARK 922        TOTAL FREE ENERGY PREDICTED BY IDOCK:   -6.30 KCAL/MOL
REMARK 923 INTER-LIGAND FREE ENERGY PREDICTED BY IDOCK:   -5.78 KCAL/MOL
REMARK 924 INTRA-LIGAND FREE ENERGY PREDICTED BY IDOCK:   -0.52 KCAL/MOL
REMARK 927      BINDING AFFINITY PREDICTED BY RF-SCORE:    0.00 PKD
ROOT
HETATM    1  C   UNL     1     -10.018   9.094  66.443  1.00  0.00    -0.288 C  
HETATM    2  N   UNL     1     -10.188   8.568  67.803  1.00  0.00    -0.212 N  
HETATM    3  C   UNL     1     -10.437   9.352  69.003  1.00  0.00    -0.217 C  
HETATM    4  C   UNL     1     -10.211   5.062  71.371  1.00  0.00    -0.200 A  
HETATM    5  C   UNL     1     -10.565   8.780  70.233  1.00  0.00    -0.216 C  
HETATM    6  O   UNL     1      -8.795   6.456  67.459  1.00  0.00    -0.113 OA 
HETATM    7  C   UNL     1     -10.433   7.369  70.453  1.00  0.00    -0.221 A  
HETATM    8  O   UNL     1     -10.818   9.482  71.395  1.00  0.00    -0.347 OA 
HETATM    9  C   UNL     1     -10.083   5.081  70.000  1.00  0.00    -0.342 A  
HETATM   10  C   UNL     1     -10.215   6.401  69.507  1.00  0.00    -0.189 A  
HETATM   11  S   UNL     1     -10.489   6.627  72.011  1.00  0.00    -0.206 SA 
HETATM   12  S   UNL     1     -10.122   6.883  67.870  1.00  0.00    -0.174 S  
HETATM   13  H   UNL     1     -10.907   9.082  72.253  1.00  0.00     0.000 HD 
HETATM   14  O   UNL     1     -11.321   6.351  67.276  1.00  0.00    -0.295 OA 
ENDROOT
BRANCH   3  15
HETATM   15  C   UNL     1     -10.481  10.867  68.988  1.00  0.00    -0.219 C  
HETATM   16  O   UNL     1      -9.438  11.491  68.779  1.00  0.00    -0.175 OA 
HETATM   17  N   UNL     1     -11.658  11.461  69.365  1.00  0.00    -0.292 N  
HETATM   18  H   UNL     1     -12.462  10.860  69.547  1.00  0.00     0.000 HD 
BRANCH  17  19
HETATM   19  C   UNL     1     -11.821  12.844  69.516  1.00  0.00    -0.320 A  
HETATM   20  C   UNL     1     -11.710  13.748  68.461  1.00  0.00    -0.391 A  
HETATM   21  C   UNL     1     -12.009  15.533  70.038  1.00  0.00    -0.385 A  
HETATM   22  C   UNL     1     -11.823  15.113  68.728  1.00  0.00    -0.329 A  
HETATM   23  C   UNL     1     -12.133  14.562  71.018  1.00  0.00    -0.344 A  
HETATM   24  N   UNL     1     -12.086  13.231  70.779  1.00  0.00    -0.304 NA 
ENDBRANCH  17  19
ENDBRANCH   3  15
TORSDOF 2
ENDMDL
MODEL       52
REMARK 921   NORMALIZED FREE ENERGY PREDICTED BY IDOCK:   -5.31 KCAL/MOL
REMARK 922        TOTAL FREE ENERGY PREDICTED BY IDOCK:   -6.30 KCAL/MOL
REMARK 923 INTER-LIGAND FREE ENERGY PREDICTED BY IDOCK:   -5.66 KCAL/MOL
REMARK 924 INTRA-LIGAND FREE ENERGY PREDICTED BY IDOCK:   -0.64 KCAL/MOL
REMARK 927      BINDING AFFINITY PREDICTED BY RF-SCORE:    0.00 PKD
ROOT
HETATM    1  C   UNL     1     -11.874  14.826  66.753  1.00  0.00    -0.257 C  
HETATM    2  N   UNL     1     -10.465  15.233  66.777  1.00  0.00    -0.287 N  
HETATM    3  C   UNL     1      -9.321  14.359  66.988  1.00  0.00    -0.242 C  
HETATM    4  C   UNL     1      -6.645  18.464  66.760  1.00  0.00    -0.187 A  
HETATM    5  C   UNL     1      -8.042  14.827  67.013  1.00  0.00    -0.144 C  
HETATM    6  O   UNL     1     -10.882  17.634  67.540  1.00  0.00    -0.325 OA 
HETATM    7  C   UNL     1      -7.717  16.216  66.867  1.00  0.00    -0.249 A  
HETATM    8  O   UNL     1      -6.926  14.033  67.193  1.00  0.00    -0.394 OA 
HETATM    9  C   UNL     1      -8.008  18.538  66.577  1.00  0.00    -0.295 A  
HETATM   10  C   UNL     1      -8.589  17.249  66.641  1.00  0.00    -0.257 A  
HETATM   11  S   UNL     1      -6.117  16.851  66.995  1.00  0.00    -0.198 SA 
HETATM   12  S   UNL     1     -10.249  16.879  66.472  1.00  0.00    -0.311 S  
HETATM   13  H   UNL     1      -6.034  14.359  67.211  1.00  0.00     0.000 HD 
HETATM   14  O   UNL     1     -10.527  17.130  65.081  1.00  0.00    -0.666 OA 
ENDROOT
BRANCH   3  15
HETATM   15  C   UNL     1      -9.474  12.881  67.287  1.00  0.00    -0.216 C  
HETATM   16  O   UNL     1      -9.826  12.122  66.381  1.00  0.00    -0.216 OA 
HETATM   17  N   UNL     1      -9.361  12.495  68.598  1.00  0.00    -0.404 N  
HETATM   18  H   UNL     1      -9.092  13.200  69.285  1.00  0.00     0.000 HD 
BRANCH  17  19
HETATM   19  C   UNL     1      -9.592  11.188  69.050  1.00  0.00    -0.083 A  
HETATM   20  C   UNL     1      -8.600  10.212  69.110  1.00  0.00    -0.167 A  
HETATM   21  C   UNL     1     -10.275   8.640  69.806  1.00  0.00    -0.206 A  
HETATM   22  C   UNL     1      -8.949   8.921  69.511  1.00  0.00    -0.145 A  
HETATM   23  C   UNL     1     -11.188   9.679  69.743  1.00  0.00    -0.174 A  
HETATM   24  N   UNL     1     -10.867  10.952  69.414  1.00  0.00    -0.234 NA 
ENDBRANCH  17  19
ENDBRANCH   3  15
TORSDOF 2
ENDMDL
MODEL       53
REMARK 921   NORMALIZED FREE ENERGY PREDICTED BY IDOCK:   -5.27 KCAL/MOL
REMARK 922        TOTAL FREE ENERGY PREDICTED BY IDOCK:   -6.25 KCAL/MOL
REMARK 923 INTER-LIGAND FREE ENERGY PREDICTED BY IDOCK:   -5.62 KCAL/MOL
REMARK 924 INTRA-LIGAND FREE ENERGY PREDICTED BY IDOCK:   -0.63 KCAL/MOL
REMARK 927      BINDING AFFINITY PREDICTED BY RF-SCORE:    0.00 PKD
ROOT
HETATM    1  C   UNL     1     -11.833  10.104  71.030  1.00  0.00    -0.383 C  
HETATM    2  N   UNL     1     -11.168   9.321  69.983  1.00  0.00    -0.210 N  
HETATM    3  C   UNL     1     -10.769   9.803  68.669  1.00  0.00    -0.216 C  
HETATM    4  C   UNL     1      -9.337   5.184  67.845  1.00  0.00    -0.120 A  
HETATM    5  C   UNL     1     -10.170   8.998  67.749  1.00  0.00    -0.230 C  
HETATM    6  O   UNL     1     -12.087   7.051  70.708  1.00  0.00    -0.355 OA 
HETATM    7  C   UNL     1      -9.912   7.606  67.981  1.00  0.00    -0.175 A  
HETATM    8  O   UNL     1      -9.760   9.416  66.498  1.00  0.00    -0.198 OA 
HETATM    9  C   UNL     1      -9.851   5.519  69.078  1.00  0.00    -0.220 A  
HETATM   10  C   UNL     1     -10.167   6.898  69.127  1.00  0.00    -0.187 A  
HETATM   11  S   UNL     1      -9.247   6.539  66.799  1.00  0.00    -0.151 SA 
HETATM   12  S   UNL     1     -10.831   7.737  70.460  1.00  0.00    -0.243 S  
HETATM   13  H   UNL     1      -9.342   8.855  65.856  1.00  0.00     0.000 HD 
HETATM   14  O   UNL     1      -9.763   7.764  71.426  1.00  0.00    -0.165 OA 
ENDROOT
BRANCH   3  15
HETATM   15  C   UNL     1     -11.074  11.210  68.195  1.00  0.00    -0.264 C  
HETATM   16  O   UNL     1     -12.251  11.545  68.039  1.00  0.00    -0.582 OA 
HETATM   17  N   UNL     1     -10.008  11.985  67.817  1.00  0.00    -0.191 N  
HETATM   18  H   UNL     1      -9.069  11.613  67.957  1.00  0.00     0.000 HD 
BRANCH  17  19
HETATM   19  C   UNL     1     -10.133  13.260  67.248  1.00  0.00    -0.234 A  
HETATM   20  C   UNL     1     -10.298  13.476  65.881  1.00  0.00    -0.301 A  
HETATM   21  C   UNL     1     -10.192  15.837  66.303  1.00  0.00    -0.317 A  
HETATM   22  C   UNL     1     -10.344  14.788  65.407  1.00  0.00    -0.410 A  
HETATM   23  C   UNL     1     -10.059  15.528  67.647  1.00  0.00    -0.243 A  
HETATM   24  N   UNL     1     -10.069  14.267  68.140  1.00  0.00    -0.227 NA 
ENDBRANCH  17  19
ENDBRANCH   3  15
TORSDOF 2
ENDMDL
MODEL       54
REMARK 921   NORMALIZED FREE ENERGY PREDICTED BY IDOCK:   -5.26 KCAL/MOL
REMARK 922        TOTAL FREE ENERGY PREDICTED BY IDOCK:   -6.23 KCAL/MOL
REMARK 923 INTER-LIGAND FREE ENERGY PREDICTED BY IDOCK:   -5.62 KCAL/MOL
REMARK 924 INTRA-LIGAND FREE ENERGY PREDICTED BY IDOCK:   -0.61 KCAL/MOL
REMARK 927      BINDING AFFINITY PREDICTED BY RF-SCORE:    0.00 PKD
ROOT
HETATM    1  C   UNL     1     -10.239  10.731  65.282  1.00  0.00    -0.285 C  
HETATM    2  N   UNL     1     -10.613  11.313  66.576  1.00  0.00    -0.257 N  
HETATM    3  C   UNL     1     -10.476  10.678  67.877  1.00  0.00    -0.208 C  
HETATM    4  C   UNL     1     -12.628  14.720  69.637  1.00  0.00    -0.062 A  
HETATM    5  C   UNL     1     -10.867  11.288  69.030  1.00  0.00    -0.222 C  
HETATM    6  O   UNL     1     -12.432  12.859  65.668  1.00  0.00    -0.526 OA 
HETATM    7  C   UNL     1     -11.476  12.586  69.057  1.00  0.00    -0.304 A  
HETATM    8  O   UNL     1     -10.740  10.730  70.287  1.00  0.00    -0.457 OA 
HETATM    9  C   UNL     1     -12.365  14.631  68.288  1.00  0.00     0.041 A  
HETATM   10  C   UNL     1     -11.710  13.412  67.989  1.00  0.00    -0.356 A  
HETATM   11  S   UNL     1     -12.073  13.341  70.490  1.00  0.00    -0.237 SA 
HETATM   12  S   UNL     1     -11.203  12.889  66.442  1.00  0.00    -0.314 S  
HETATM   13  H   UNL     1     -11.013  11.155  71.092  1.00  0.00     0.000 HD 
HETATM   14  O   UNL     1     -10.108  13.765  66.115  1.00  0.00    -0.291 OA 
ENDROOT
BRANCH   3  15
HETATM   15  C   UNL     1      -9.972   9.257  68.036  1.00  0.00    -0.182 C  
HETATM   16  O   UNL     1      -8.757   9.049  68.015  1.00  0.00    -0.129 OA 
HETATM   17  N   UNL     1     -10.912   8.259  68.040  1.00  0.00    -0.460 N  
HETATM   18  H   UNL     1     -11.897   8.526  68.026  1.00  0.00     0.000 HD 
BRANCH  17  19
HETATM   19  C   UNL     1     -10.601   6.893  68.060  1.00  0.00    -0.222 A  
HETATM   20  C   UNL     1     -10.362   6.179  69.233  1.00  0.00    -0.276 A  
HETATM   21  C   UNL     1      -9.840   4.261  67.887  1.00  0.00    -0.120 A  
HETATM   22  C   UNL     1      -9.992   4.836  69.141  1.00  0.00    -0.233 A  
HETATM   23  C   UNL     1     -10.123   5.040  66.777  1.00  0.00    -0.239 A  
HETATM   24  N   UNL     1     -10.540   6.326  66.839  1.00  0.00    -0.283 NA 
ENDBRANCH  17  19
ENDBRANCH   3  15
TORSDOF 2
ENDMDL
MODEL       55
REMARK 921   NORMALIZED FREE ENERGY PREDICTED BY IDOCK:   -5.24 KCAL/MOL
REMARK 922        TOTAL FREE ENERGY PREDICTED BY IDOCK:   -6.22 KCAL/MOL
REMARK 923 INTER-LIGAND FREE ENERGY PREDICTED BY IDOCK:   -5.75 KCAL/MOL
REMARK 924 INTRA-LIGAND FREE ENERGY PREDICTED BY IDOCK:   -0.47 KCAL/MOL
REMARK 927      BINDING AFFINITY PREDICTED BY RF-SCORE:    0.00 PKD
ROOT
HETATM    1  C   UNL     1     -12.189  12.005  63.522  1.00  0.00    -0.547 C  
HETATM    2  N   UNL     1     -11.468  12.676  64.610  1.00  0.00    -0.316 N  
HETATM    3  C   UNL     1     -10.204  12.253  65.194  1.00  0.00    -0.279 C  
HETATM    4  C   UNL     1     -10.808  16.037  68.256  1.00  0.00    -0.319 A  
HETATM    5  C   UNL     1      -9.613  12.929  66.218  1.00  0.00    -0.243 C  
HETATM    6  O   UNL     1     -13.524  13.736  65.692  1.00  0.00    -0.522 OA 
HETATM    7  C   UNL     1     -10.197  14.089  66.826  1.00  0.00    -0.264 A  
HETATM    8  O   UNL     1      -8.407  12.574  66.791  1.00  0.00    -0.343 OA 
HETATM    9  C   UNL     1     -11.737  15.820  67.264  1.00  0.00     0.275 A  
HETATM   10  C   UNL     1     -11.365  14.711  66.468  1.00  0.00    -0.353 A  
HETATM   11  S   UNL     1      -9.523  14.906  68.189  1.00  0.00    -0.206 SA 
HETATM   12  S   UNL     1     -12.231  14.089  65.132  1.00  0.00    -0.455 S  
HETATM   13  H   UNL     1      -7.995  13.045  67.505  1.00  0.00     0.000 HD 
HETATM   14  O   UNL     1     -12.080  15.097  64.114  1.00  0.00    -0.543 OA 
ENDROOT
BRANCH   3  15
HETATM   15  C   UNL     1      -9.500  10.980  64.769  1.00  0.00    -0.230 C  
HETATM   16  O   UNL     1      -9.695   9.947  65.414  1.00  0.00    -0.269 OA 
HETATM   17  N   UNL     1      -8.560  11.088  63.777  1.00  0.00    -0.377 N  
HETATM   18  H   UNL     1      -8.448  11.993  63.318  1.00  0.00     0.000 HD 
BRANCH  17  19
HETATM   19  C   UNL     1      -7.744  10.030  63.356  1.00  0.00    -0.148 A  
HETATM   20  C   UNL     1      -6.352  10.079  63.383  1.00  0.00    -0.136 A  
HETATM   21  C   UNL     1      -6.316   7.920  62.334  1.00  0.00    -0.081 A  
HETATM   22  C   UNL     1      -5.629   8.997  62.877  1.00  0.00    -0.077 A  
HETATM   23  C   UNL     1      -7.700   7.947  62.373  1.00  0.00    -0.122 A  
HETATM   24  N   UNL     1      -8.424   8.956  62.909  1.00  0.00    -0.196 NA 
ENDBRANCH  17  19
ENDBRANCH   3  15
TORSDOF 2
ENDMDL
MODEL       56
REMARK 921   NORMALIZED FREE ENERGY PREDICTED BY IDOCK:   -5.23 KCAL/MOL
REMARK 922        TOTAL FREE ENERGY PREDICTED BY IDOCK:   -6.21 KCAL/MOL
REMARK 923 INTER-LIGAND FREE ENERGY PREDICTED BY IDOCK:   -5.77 KCAL/MOL
REMARK 924 INTRA-LIGAND FREE ENERGY PREDICTED BY IDOCK:   -0.44 KCAL/MOL
REMARK 927      BINDING AFFINITY PREDICTED BY RF-SCORE:    0.00 PKD
ROOT
HETATM    1  C   UNL     1      -8.939  11.912  66.345  1.00  0.00    -0.180 C  
HETATM    2  N   UNL     1      -9.130  10.461  66.456  1.00  0.00    -0.154 N  
HETATM    3  C   UNL     1     -10.179   9.787  67.206  1.00  0.00    -0.232 C  
HETATM    4  C   UNL     1      -7.952   5.640  65.823  1.00  0.00    -0.109 A  
HETATM    5  C   UNL     1     -10.270   8.430  67.269  1.00  0.00    -0.279 C  
HETATM    6  O   UNL     1      -6.681   9.831  66.095  1.00  0.00    -0.080 OA 
HETATM    7  C   UNL     1      -9.328   7.554  66.635  1.00  0.00    -0.174 A  
HETATM    8  O   UNL     1     -11.258   7.747  67.953  1.00  0.00    -0.404 OA 
HETATM    9  C   UNL     1      -7.458   6.848  65.384  1.00  0.00    -0.088 A  
HETATM   10  C   UNL     1      -8.258   7.915  65.858  1.00  0.00    -0.126 A  
HETATM   11  S   UNL     1      -9.359   5.835  66.782  1.00  0.00    -0.138 SA 
HETATM   12  S   UNL     1      -8.007   9.579  65.557  1.00  0.00    -0.116 S  
HETATM   13  H   UNL     1     -11.321   6.801  67.998  1.00  0.00     0.000 HD 
HETATM   14  O   UNL     1      -8.314   9.734  64.158  1.00  0.00    -0.144 OA 
ENDROOT
BRANCH   3  15
HETATM   15  C   UNL     1     -11.191  10.543  68.044  1.00  0.00    -0.294 C  
HETATM   16  O   UNL     1     -12.027  11.249  67.475  1.00  0.00    -0.612 OA 
HETATM   17  N   UNL     1     -11.017  10.518  69.404  1.00  0.00    -0.233 N  
HETATM   18  H   UNL     1     -10.278   9.925  69.783  1.00  0.00     0.000 HD 
BRANCH  17  19
HETATM   19  C   UNL     1     -11.794  11.260  70.304  1.00  0.00    -0.357 A  
HETATM   20  C   UNL     1     -12.625  10.677  71.258  1.00  0.00    -0.533 A  
HETATM   21  C   UNL     1     -13.366  12.878  71.867  1.00  0.00    -0.530 A  
HETATM   22  C   UNL     1     -13.411  11.505  72.063  1.00  0.00    -0.397 A  
HETATM   23  C   UNL     1     -12.492  13.369  70.912  1.00  0.00    -0.359 A  
HETATM   24  N   UNL     1     -11.677  12.594  70.159  1.00  0.00    -0.233 NA 
ENDBRANCH  17  19
ENDBRANCH   3  15
TORSDOF 2
ENDMDL
MODEL       57
REMARK 921   NORMALIZED FREE ENERGY PREDICTED BY IDOCK:   -5.23 KCAL/MOL
REMARK 922        TOTAL FREE ENERGY PREDICTED BY IDOCK:   -6.21 KCAL/MOL
REMARK 923 INTER-LIGAND FREE ENERGY PREDICTED BY IDOCK:   -5.54 KCAL/MOL
REMARK 924 INTRA-LIGAND FREE ENERGY PREDICTED BY IDOCK:   -0.67 KCAL/MOL
REMARK 927      BINDING AFFINITY PREDICTED BY RF-SCORE:    0.00 PKD
ROOT
HETATM    1  C   UNL     1     -10.118  14.683  67.119  1.00  0.00    -0.244 C  
HETATM    2  N   UNL     1     -10.831  13.981  68.193  1.00  0.00    -0.243 N  
HETATM    3  C   UNL     1     -11.124  12.557  68.243  1.00  0.00    -0.257 C  
HETATM    4  C   UNL     1     -13.484  13.594  72.417  1.00  0.00    -0.584 A  
HETATM    5  C   UNL     1     -11.810  11.991  69.275  1.00  0.00    -0.318 C  
HETATM    6  O   UNL     1     -12.208  15.988  68.968  1.00  0.00    -0.205 OA 
HETATM    7  C   UNL     1     -12.328  12.750  70.376  1.00  0.00    -0.247 A  
HETATM    8  O   UNL     1     -12.095  10.643  69.372  1.00  0.00    -0.472 OA 
HETATM    9  C   UNL     1     -12.834  14.603  71.743  1.00  0.00    -0.402 A  
HETATM   10  C   UNL     1     -12.186  14.096  70.592  1.00  0.00    -0.362 A  
HETATM   11  S   UNL     1     -13.286  12.077  71.644  1.00  0.00    -0.112 SA 
HETATM   12  S   UNL     1     -11.268  14.999  69.467  1.00  0.00    -0.293 S  
HETATM   13  H   UNL     1     -12.574  10.248  70.092  1.00  0.00     0.000 HD 
HETATM   14  O   UNL     1     -10.079  15.363  70.194  1.00  0.00    -0.281 OA 
ENDROOT
BRANCH   3  15
HETATM   15  C   UNL     1     -10.769  11.616  67.109  1.00  0.00    -0.247 C  
HETATM   16  O   UNL     1     -11.621  11.365  66.254  1.00  0.00    -0.331 OA 
HETATM   17  N   UNL     1      -9.561  10.972  67.189  1.00  0.00    -0.168 N  
HETATM   18  H   UNL     1      -8.931  11.225  67.951  1.00  0.00     0.000 HD 
BRANCH  17  19
HETATM   19  C   UNL     1      -9.140   9.987  66.285  1.00  0.00    -0.151 A  
HETATM   20  C   UNL     1      -8.672  10.272  65.005  1.00  0.00    -0.195 A  
HETATM   21  C   UNL     1      -8.519   7.911  64.600  1.00  0.00     0.029 A  
HETATM   22  C   UNL     1      -8.342   9.214  64.156  1.00  0.00    -0.182 A  
HETATM   23  C   UNL     1      -8.966   7.723  65.898  1.00  0.00    -0.113 A  
HETATM   24  N   UNL     1      -9.238   8.730  66.760  1.00  0.00    -0.160 NA 
ENDBRANCH  17  19
ENDBRANCH   3  15
TORSDOF 2
ENDMDL
MODEL       58
REMARK 921   NORMALIZED FREE ENERGY PREDICTED BY IDOCK:   -5.21 KCAL/MOL
REMARK 922        TOTAL FREE ENERGY PREDICTED BY IDOCK:   -6.18 KCAL/MOL
REMARK 923 INTER-LIGAND FREE ENERGY PREDICTED BY IDOCK:   -5.52 KCAL/MOL
REMARK 924 INTRA-LIGAND FREE ENERGY PREDICTED BY IDOCK:   -0.66 KCAL/MOL
REMARK 927      BINDING AFFINITY PREDICTED BY RF-SCORE:    0.00 PKD
ROOT
HETATM    1  C   UNL     1     -11.514  16.660  69.116  1.00  0.00     0.051 C  
HETATM    2  N   UNL     1     -10.333  17.003  68.315  1.00  0.00    -0.326 N  
HETATM    3  C   UNL     1      -9.421  16.063  67.681  1.00  0.00    -0.216 C  
HETATM    4  C   UNL     1      -6.897  20.042  66.317  1.00  0.00    -0.230 A  
HETATM    5  C   UNL     1      -8.335  16.470  66.968  1.00  0.00    -0.190 C  
HETATM    6  O   UNL     1      -9.882  19.253  69.435  1.00  0.00    -0.314 OA 
HETATM    7  C   UNL     1      -7.980  17.851  66.809  1.00  0.00    -0.233 A  
HETATM    8  O   UNL     1      -7.454  15.615  66.336  1.00  0.00    -0.201 OA 
HETATM    9  C   UNL     1      -8.072  20.198  67.019  1.00  0.00    -0.368 A  
HETATM   10  C   UNL     1      -8.665  18.940  67.282  1.00  0.00    -0.278 A  
HETATM   11  S   UNL     1      -6.556  18.393  65.998  1.00  0.00    -0.276 SA 
HETATM   12  S   UNL     1     -10.125  18.667  68.128  1.00  0.00    -0.390 S  
HETATM   13  H   UNL     1      -6.696  15.899  65.838  1.00  0.00     0.000 HD 
HETATM   14  O   UNL     1     -11.145  19.162  67.238  1.00  0.00    -0.417 OA 
ENDROOT
BRANCH   3  15
HETATM   15  C   UNL     1      -9.561  14.562  67.845  1.00  0.00    -0.217 C  
HETATM   16  O   UNL     1      -8.820  13.977  68.639  1.00  0.00    -0.175 OA 
HETATM   17  N   UNL     1     -10.405  13.916  66.978  1.00  0.00    -0.265 N  
HETATM   18  H   UNL     1     -10.959  14.483  66.335  1.00  0.00     0.000 HD 
BRANCH  17  19
HETATM   19  C   UNL     1     -10.552  12.523  66.924  1.00  0.00    -0.236 A  
HETATM   20  C   UNL     1     -11.362  11.805  67.800  1.00  0.00    -0.358 A  
HETATM   21  C   UNL     1     -10.581   9.783  66.767  1.00  0.00    -0.208 A  
HETATM   22  C   UNL     1     -11.387  10.412  67.706  1.00  0.00    -0.205 A  
HETATM   23  C   UNL     1      -9.828  10.580  65.921  1.00  0.00    -0.234 A  
HETATM   24  N   UNL     1      -9.830  11.933  65.952  1.00  0.00    -0.233 NA 
ENDBRANCH  17  19
ENDBRANCH   3  15
TORSDOF 2
ENDMDL
MODEL       59
REMARK 921   NORMALIZED FREE ENERGY PREDICTED BY IDOCK:   -5.18 KCAL/MOL
REMARK 922        TOTAL FREE ENERGY PREDICTED BY IDOCK:   -6.15 KCAL/MOL
REMARK 923 INTER-LIGAND FREE ENERGY PREDICTED BY IDOCK:   -5.59 KCAL/MOL
REMARK 924 INTRA-LIGAND FREE ENERGY PREDICTED BY IDOCK:   -0.56 KCAL/MOL
REMARK 927      BINDING AFFINITY PREDICTED BY RF-SCORE:    0.00 PKD
ROOT
HETATM    1  C   UNL     1      -7.415  13.301  67.208  1.00  0.00    -0.055 C  
HETATM    2  N   UNL     1      -8.632  12.786  67.846  1.00  0.00    -0.170 N  
HETATM    3  C   UNL     1      -9.926  13.451  67.893  1.00  0.00    -0.236 C  
HETATM    4  C   UNL     1     -11.349   9.623  70.611  1.00  0.00    -0.312 A  
HETATM    5  C   UNL     1     -11.002  12.905  68.525  1.00  0.00    -0.259 C  
HETATM    6  O   UNL     1      -7.444  11.342  69.585  1.00  0.00    -0.011 OA 
HETATM    7  C   UNL     1     -10.944  11.653  69.222  1.00  0.00    -0.192 A  
HETATM    8  O   UNL     1     -12.251  13.492  68.580  1.00  0.00    -0.323 OA 
HETATM    9  C   UNL     1     -10.067   9.652  70.109  1.00  0.00    -0.311 A  
HETATM   10  C   UNL     1      -9.866  10.813  69.324  1.00  0.00    -0.138 A  
HETATM   11  S   UNL     1     -12.262  10.986  70.116  1.00  0.00    -0.343 SA 
HETATM   12  S   UNL     1      -8.425  11.251  68.517  1.00  0.00    -0.146 S  
HETATM   13  H   UNL     1     -13.002  13.111  69.021  1.00  0.00     0.000 HD 
HETATM   14  O   UNL     1      -8.314  10.292  67.448  1.00  0.00    -0.117 OA 
ENDROOT
BRANCH   3  15
HETATM   15  C   UNL     1     -10.146  14.838  67.323  1.00  0.00    -0.236 C  
HETATM   16  O   UNL     1     -10.710  14.951  66.232  1.00  0.00    -0.305 OA 
HETATM   17  N   UNL     1      -9.562  15.885  67.987  1.00  0.00    -0.210 N  
HETATM   18  H   UNL     1      -9.090  15.691  68.871  1.00  0.00     0.000 HD 
BRANCH  17  19
HETATM   19  C   UNL     1      -9.573  17.208  67.524  1.00  0.00    -0.254 A  
HETATM   20  C   UNL     1      -8.514  17.784  66.825  1.00  0.00    -0.269 A  
HETATM   21  C   UNL     1      -9.713  19.864  66.844  1.00  0.00    -0.532 A  
HETATM   22  C   UNL     1      -8.597  19.131  66.467  1.00  0.00    -0.330 A  
HETATM   23  C   UNL     1     -10.728  19.201  67.514  1.00  0.00    -0.458 A  
HETATM   24  N   UNL     1     -10.700  17.884  67.823  1.00  0.00    -0.382 NA 
ENDBRANCH  17  19
ENDBRANCH   3  15
TORSDOF 2
ENDMDL
MODEL       60
REMARK 921   NORMALIZED FREE ENERGY PREDICTED BY IDOCK:   -5.16 KCAL/MOL
REMARK 922        TOTAL FREE ENERGY PREDICTED BY IDOCK:   -6.13 KCAL/MOL
REMARK 923 INTER-LIGAND FREE ENERGY PREDICTED BY IDOCK:   -5.50 KCAL/MOL
REMARK 924 INTRA-LIGAND FREE ENERGY PREDICTED BY IDOCK:   -0.63 KCAL/MOL
REMARK 927      BINDING AFFINITY PREDICTED BY RF-SCORE:    0.00 PKD
ROOT
HETATM    1  C   UNL     1     -11.224  11.622  65.921  1.00  0.00    -0.238 C  
HETATM    2  N   UNL     1     -10.528  12.717  66.607  1.00  0.00    -0.243 N  
HETATM    3  C   UNL     1      -9.510  12.577  67.637  1.00  0.00    -0.188 C  
HETATM    4  C   UNL     1      -9.600  17.478  67.833  1.00  0.00    -0.277 A  
HETATM    5  C   UNL     1      -8.927  13.653  68.235  1.00  0.00    -0.187 C  
HETATM    6  O   UNL     1     -12.393  14.441  66.341  1.00  0.00    -0.409 OA 
HETATM    7  C   UNL     1      -9.288  15.006  67.928  1.00  0.00    -0.183 A  
HETATM    8  O   UNL     1      -7.946  13.568  69.203  1.00  0.00    -0.334 OA 
HETATM    9  C   UNL     1     -10.398  16.826  66.919  1.00  0.00    -0.294 A  
HETATM   10  C   UNL     1     -10.199  15.427  66.993  1.00  0.00    -0.262 A  
HETATM   11  S   UNL     1      -8.641  16.385  68.740  1.00  0.00    -0.255 SA 
HETATM   12  S   UNL     1     -10.985  14.242  66.045  1.00  0.00    -0.319 S  
HETATM   13  H   UNL     1      -7.539  14.318  69.621  1.00  0.00     0.000 HD 
HETATM   14  O   UNL     1     -10.440  14.428  64.725  1.00  0.00    -0.430 OA 
ENDROOT
BRANCH   3  15
HETATM   15  C   UNL     1      -9.090  11.227  68.184  1.00  0.00    -0.166 C  
HETATM   16  O   UNL     1      -8.357  10.509  67.499  1.00  0.00    -0.117 OA 
HETATM   17  N   UNL     1      -9.680  10.816  69.350  1.00  0.00    -0.415 N  
HETATM   18  H   UNL     1     -10.297  11.470  69.834  1.00  0.00     0.000 HD 
BRANCH  17  19
HETATM   19  C   UNL     1      -9.487   9.549  69.919  1.00  0.00    -0.222 A  
HETATM   20  C   UNL     1     -10.296   8.451  69.635  1.00  0.00    -0.218 A  
HETATM   21  C   UNL     1      -9.053   7.193  71.259  1.00  0.00    -0.151 A  
HETATM   22  C   UNL     1     -10.061   7.250  70.307  1.00  0.00    -0.196 A  
HETATM   23  C   UNL     1      -8.283   8.328  71.457  1.00  0.00    -0.132 A  
HETATM   24  N   UNL     1      -8.451   9.487  70.778  1.00  0.00    -0.265 NA 
ENDBRANCH  17  19
ENDBRANCH   3  15
TORSDOF 2
ENDMDL
MODEL       61
REMARK 921   NORMALIZED FREE ENERGY PREDICTED BY IDOCK:   -5.14 KCAL/MOL
REMARK 922        TOTAL FREE ENERGY PREDICTED BY IDOCK:   -6.11 KCAL/MOL
REMARK 923 INTER-LIGAND FREE ENERGY PREDICTED BY IDOCK:   -5.51 KCAL/MOL
REMARK 924 INTRA-LIGAND FREE ENERGY PREDICTED BY IDOCK:   -0.59 KCAL/MOL
REMARK 927      BINDING AFFINITY PREDICTED BY RF-SCORE:    0.00 PKD
ROOT
HETATM    1  C   UNL     1     -10.840   9.215  70.048  1.00  0.00    -0.234 C  
HETATM    2  N   UNL     1     -10.353   8.379  68.944  1.00  0.00    -0.218 N  
HETATM    3  C   UNL     1      -9.906   8.848  67.642  1.00  0.00    -0.182 C  
HETATM    4  C   UNL     1      -9.357   4.096  66.558  1.00  0.00    -0.174 A  
HETATM    5  C   UNL     1      -9.486   7.997  66.665  1.00  0.00    -0.212 C  
HETATM    6  O   UNL     1     -11.652   6.278  69.594  1.00  0.00    -0.430 OA 
HETATM    7  C   UNL     1      -9.479   6.572  66.824  1.00  0.00    -0.158 A  
HETATM    8  O   UNL     1      -9.037   8.399  65.422  1.00  0.00    -0.377 OA 
HETATM    9  C   UNL     1      -9.772   4.454  67.821  1.00  0.00    -0.191 A  
HETATM   10  C   UNL     1      -9.831   5.863  67.944  1.00  0.00    -0.125 A  
HETATM   11  S   UNL     1      -9.049   5.464  65.573  1.00  0.00    -0.070 SA 
HETATM   12  S   UNL     1     -10.299   6.738  69.336  1.00  0.00    -0.210 S  
HETATM   13  H   UNL     1      -8.744   7.804  64.742  1.00  0.00     0.000 HD 
HETATM   14  O   UNL     1      -9.220   6.523  70.267  1.00  0.00    -0.154 OA 
ENDROOT
BRANCH   3  15
HETATM   15  C   UNL     1      -9.962  10.310  67.244  1.00  0.00    -0.190 C  
HETATM   16  O   UNL     1      -9.276  11.124  67.867  1.00  0.00    -0.147 OA 
HETATM   17  N   UNL     1     -10.898  10.666  66.307  1.00  0.00    -0.095 N  
HETATM   18  H   UNL     1     -11.441   9.925  65.865  1.00  0.00     0.000 HD 
BRANCH  17  19
HETATM   19  C   UNL     1     -11.153  11.990  65.922  1.00  0.00    -0.324 A  
HETATM   20  C   UNL     1     -10.408  12.663  64.956  1.00  0.00    -0.320 A  
HETATM   21  C   UNL     1     -11.697  14.633  65.423  1.00  0.00    -0.330 A  
HETATM   22  C   UNL     1     -10.700  14.003  64.693  1.00  0.00    -0.416 A  
HETATM   23  C   UNL     1     -12.402  13.878  66.346  1.00  0.00    -0.426 A  
HETATM   24  N   UNL     1     -12.180  12.563  66.579  1.00  0.00    -0.531 NA 
ENDBRANCH  17  19
ENDBRANCH   3  15
TORSDOF 2
ENDMDL
MODEL       62
REMARK 921   NORMALIZED FREE ENERGY PREDICTED BY IDOCK:   -5.11 KCAL/MOL
REMARK 922        TOTAL FREE ENERGY PREDICTED BY IDOCK:   -6.07 KCAL/MOL
REMARK 923 INTER-LIGAND FREE ENERGY PREDICTED BY IDOCK:   -5.42 KCAL/MOL
REMARK 924 INTRA-LIGAND FREE ENERGY PREDICTED BY IDOCK:   -0.65 KCAL/MOL
REMARK 927      BINDING AFFINITY PREDICTED BY RF-SCORE:    0.00 PKD
ROOT
HETATM    1  C   UNL     1      -6.169  15.240  67.903  1.00  0.00    -0.153 C  
HETATM    2  N   UNL     1      -7.311  16.146  67.731  1.00  0.00    -0.128 N  
HETATM    3  C   UNL     1      -8.699  15.753  67.544  1.00  0.00    -0.176 C  
HETATM    4  C   UNL     1      -9.582  20.558  67.095  1.00  0.00    -0.429 A  
HETATM    5  C   UNL     1      -9.696  16.665  67.373  1.00  0.00    -0.251 C  
HETATM    6  O   UNL     1      -5.981  18.078  66.722  1.00  0.00    -0.141 OA 
HETATM    7  C   UNL     1      -9.461  18.079  67.330  1.00  0.00    -0.262 A  
HETATM    8  O   UNL     1     -11.029  16.339  67.209  1.00  0.00    -0.264 OA 
HETATM    9  C   UNL     1      -8.300  20.132  67.364  1.00  0.00    -0.390 A  
HETATM   10  C   UNL     1      -8.262  18.723  67.494  1.00  0.00    -0.260 A  
HETATM   11  S   UNL     1     -10.688  19.251  67.015  1.00  0.00    -0.424 SA 
HETATM   12  S   UNL     1      -6.878  17.775  67.823  1.00  0.00    -0.185 S  
HETATM   13  H   UNL     1     -11.724  16.975  67.090  1.00  0.00     0.000 HD 
HETATM   14  O   UNL     1      -6.553  18.088  69.191  1.00  0.00    -0.244 OA 
ENDROOT
BRANCH   3  15
HETATM   15  C   UNL     1      -9.124  14.302  67.433  1.00  0.00    -0.196 C  
HETATM   16  O   UNL     1      -9.381  13.840  66.318  1.00  0.00    -0.239 OA 
HETATM   17  N   UNL     1      -9.348  13.627  68.604  1.00  0.00    -0.373 N  
HETATM   18  H   UNL     1      -9.132  14.102  69.481  1.00  0.00     0.000 HD 
BRANCH  17  19
HETATM   19  C   UNL     1      -9.856  12.322  68.669  1.00  0.00    -0.089 A  
HETATM   20  C   UNL     1     -11.206  12.035  68.855  1.00  0.00    -0.315 A  
HETATM   21  C   UNL     1     -10.636   9.704  68.935  1.00  0.00    -0.239 A  
HETATM   22  C   UNL     1     -11.601  10.701  68.974  1.00  0.00    -0.332 A  
HETATM   23  C   UNL     1      -9.321  10.082  68.720  1.00  0.00    -0.162 A  
HETATM   24  N   UNL     1      -8.919  11.362  68.544  1.00  0.00    -0.167 NA 
ENDBRANCH  17  19
ENDBRANCH   3  15
TORSDOF 2
ENDMDL
MODEL       63
REMARK 921   NORMALIZED FREE ENERGY PREDICTED BY IDOCK:   -5.09 KCAL/MOL
REMARK 922        TOTAL FREE ENERGY PREDICTED BY IDOCK:   -6.05 KCAL/MOL
REMARK 923 INTER-LIGAND FREE ENERGY PREDICTED BY IDOCK:   -5.36 KCAL/MOL
REMARK 924 INTRA-LIGAND FREE ENERGY PREDICTED BY IDOCK:   -0.70 KCAL/MOL
REMARK 927      BINDING AFFINITY PREDICTED BY RF-SCORE:    0.00 PKD
ROOT
HETATM    1  C   UNL     1     -11.684   7.167  70.766  1.00  0.00    -0.323 C  
HETATM    2  N   UNL     1     -11.817   8.622  70.633  1.00  0.00    -0.174 N  
HETATM    3  C   UNL     1     -11.112   9.467  69.681  1.00  0.00    -0.171 C  
HETATM    4  C   UNL     1     -13.401  13.195  71.901  1.00  0.00    -0.455 A  
HETATM    5  C   UNL     1     -11.285  10.818  69.640  1.00  0.00    -0.291 C  
HETATM    6  O   UNL     1     -12.496   9.060  73.055  1.00  0.00    -0.097 OA 
HETATM    7  C   UNL     1     -12.144  11.522  70.547  1.00  0.00    -0.378 A  
HETATM    8  O   UNL     1     -10.651  11.656  68.743  1.00  0.00    -0.206 OA 
HETATM    9  C   UNL     1     -13.659  11.907  72.313  1.00  0.00    -0.109 A  
HETATM   10  C   UNL     1     -12.935  10.979  71.526  1.00  0.00    -0.448 A  
HETATM   11  S   UNL     1     -12.305  13.240  70.584  1.00  0.00    -0.277 SA 
HETATM   12  S   UNL     1     -12.954   9.278  71.694  1.00  0.00    -0.399 S  
HETATM   13  H   UNL     1     -10.771  12.598  68.715  1.00  0.00     0.000 HD 
HETATM   14  O   UNL     1     -14.271   8.896  71.253  1.00  0.00    -0.300 OA 
ENDROOT
BRANCH   3  15
HETATM   15  C   UNL     1     -10.068   8.920  68.728  1.00  0.00    -0.200 C  
HETATM   16  O   UNL     1      -8.876   9.022  69.028  1.00  0.00    -0.133 OA 
HETATM   17  N   UNL     1     -10.508   8.478  67.507  1.00  0.00    -0.325 N  
HETATM   18  H   UNL     1     -11.514   8.456  67.338  1.00  0.00     0.000 HD 
BRANCH  17  19
HETATM   19  C   UNL     1      -9.657   8.055  66.477  1.00  0.00    -0.226 A  
HETATM   20  C   UNL     1      -9.174   6.753  66.369  1.00  0.00    -0.185 A  
HETATM   21  C   UNL     1      -7.868   7.459  64.483  1.00  0.00    -0.129 A  
HETATM   22  C   UNL     1      -8.277   6.450  65.343  1.00  0.00    -0.142 A  
HETATM   23  C   UNL     1      -8.420   8.718  64.651  1.00  0.00    -0.151 A  
HETATM   24  N   UNL     1      -9.335   9.025  65.599  1.00  0.00    -0.238 NA 
ENDBRANCH  17  19
ENDBRANCH   3  15
TORSDOF 2
ENDMDL
MODEL       64
REMARK 921   NORMALIZED FREE ENERGY PREDICTED BY IDOCK:   -5.06 KCAL/MOL
REMARK 922        TOTAL FREE ENERGY PREDICTED BY IDOCK:   -6.02 KCAL/MOL
REMARK 923 INTER-LIGAND FREE ENERGY PREDICTED BY IDOCK:   -5.40 KCAL/MOL
REMARK 924 INTRA-LIGAND FREE ENERGY PREDICTED BY IDOCK:   -0.62 KCAL/MOL
REMARK 927      BINDING AFFINITY PREDICTED BY RF-SCORE:    0.00 PKD
ROOT
HETATM    1  C   UNL     1     -10.976   6.944  66.976  1.00  0.00    -0.334 C  
HETATM    2  N   UNL     1     -10.317   7.363  68.219  1.00  0.00    -0.190 N  
HETATM    3  C   UNL     1      -9.979   8.726  68.597  1.00  0.00    -0.182 C  
HETATM    4  C   UNL     1      -7.959   6.701  72.582  1.00  0.00    -0.101 A  
HETATM    5  C   UNL     1      -9.349   9.023  69.767  1.00  0.00    -0.171 C  
HETATM    6  O   UNL     1      -9.069   5.171  68.622  1.00  0.00    -0.106 OA 
HETATM    7  C   UNL     1      -8.938   8.020  70.707  1.00  0.00    -0.144 A  
HETATM    8  O   UNL     1      -9.024  10.302  70.174  1.00  0.00    -0.358 OA 
HETATM    9  C   UNL     1      -8.595   5.893  71.666  1.00  0.00    -0.132 A  
HETATM   10  C   UNL     1      -9.141   6.668  70.615  1.00  0.00    -0.155 A  
HETATM   11  S   UNL     1      -8.049   8.356  72.148  1.00  0.00    -0.110 SA 
HETATM   12  S   UNL     1     -10.007   6.075  69.265  1.00  0.00    -0.176 S  
HETATM   13  H   UNL     1      -8.585  10.509  70.990  1.00  0.00     0.000 HD 
HETATM   14  O   UNL     1     -11.257   5.622  69.821  1.00  0.00    -0.274 OA 
ENDROOT
BRANCH   3  15
HETATM   15  C   UNL     1     -10.220   9.906  67.676  1.00  0.00    -0.208 C  
HETATM   16  O   UNL     1      -9.321  10.254  66.906  1.00  0.00    -0.155 OA 
HETATM   17  N   UNL     1     -11.375  10.619  67.865  1.00  0.00    -0.363 N  
HETATM   18  H   UNL     1     -12.049  10.270  68.546  1.00  0.00     0.000 HD 
BRANCH  17  19
HETATM   19  C   UNL     1     -11.685  11.800  67.177  1.00  0.00    -0.188 A  
HETATM   20  C   UNL     1     -11.672  13.059  67.772  1.00  0.00    -0.405 A  
HETATM   21  C   UNL     1     -12.485  13.977  65.708  1.00  0.00    -0.523 A  
HETATM   22  C   UNL     1     -12.063  14.166  67.016  1.00  0.00    -0.449 A  
HETATM   23  C   UNL     1     -12.441  12.692  65.192  1.00  0.00    -0.463 A  
HETATM   24  N   UNL     1     -12.011  11.611  65.883  1.00  0.00    -0.208 NA 
ENDBRANCH  17  19
ENDBRANCH   3  15
TORSDOF 2
ENDMDL
MODEL       65
REMARK 921   NORMALIZED FREE ENERGY PREDICTED BY IDOCK:   -5.06 KCAL/MOL
REMARK 922        TOTAL FREE ENERGY PREDICTED BY IDOCK:   -6.01 KCAL/MOL
REMARK 923 INTER-LIGAND FREE ENERGY PREDICTED BY IDOCK:   -5.53 KCAL/MOL
REMARK 924 INTRA-LIGAND FREE ENERGY PREDICTED BY IDOCK:   -0.48 KCAL/MOL
REMARK 927      BINDING AFFINITY PREDICTED BY RF-SCORE:    0.00 PKD
ROOT
HETATM    1  C   UNL     1      -6.225  15.110  67.873  1.00  0.00    -0.156 C  
HETATM    2  N   UNL     1      -7.358  16.038  67.773  1.00  0.00    -0.130 N  
HETATM    3  C   UNL     1      -8.761  15.673  67.658  1.00  0.00    -0.175 C  
HETATM    4  C   UNL     1      -9.577  20.498  67.313  1.00  0.00    -0.440 A  
HETATM    5  C   UNL     1      -9.749  16.605  67.552  1.00  0.00    -0.247 C  
HETATM    6  O   UNL     1      -6.050  17.959  66.715  1.00  0.00    -0.142 OA 
HETATM    7  C   UNL     1      -9.490  18.015  67.513  1.00  0.00    -0.262 A  
HETATM    8  O   UNL     1     -11.094  16.305  67.457  1.00  0.00    -0.260 OA 
HETATM    9  C   UNL     1      -8.292  20.046  67.506  1.00  0.00    -0.381 A  
HETATM   10  C   UNL     1      -8.272  18.635  67.618  1.00  0.00    -0.258 A  
HETATM   11  S   UNL     1     -10.711  19.213  67.278  1.00  0.00    -0.442 SA 
HETATM   12  S   UNL     1      -6.891  17.658  67.860  1.00  0.00    -0.193 S  
HETATM   13  H   UNL     1     -11.784  16.955  67.384  1.00  0.00     0.000 HD 
HETATM   14  O   UNL     1      -6.486  17.949  69.212  1.00  0.00    -0.243 OA 
ENDROOT
BRANCH   3  15
HETATM   15  C   UNL     1      -9.219  14.232  67.554  1.00  0.00    -0.197 C  
HETATM   16  O   UNL     1      -9.786  13.715  68.519  1.00  0.00    -0.227 OA 
HETATM   17  N   UNL     1      -8.833  13.534  66.438  1.00  0.00    -0.449 N  
HETATM   18  H   UNL     1      -8.341  14.040  65.701  1.00  0.00     0.000 HD 
BRANCH  17  19
HETATM   19  C   UNL     1      -9.074  12.166  66.251  1.00  0.00    -0.141 A  
HETATM   20  C   UNL     1      -8.372  11.166  66.920  1.00  0.00    -0.147 A  
HETATM   21  C   UNL     1      -9.575   9.541  65.626  1.00  0.00    -0.346 A  
HETATM   22  C   UNL     1      -8.642   9.832  66.611  1.00  0.00    -0.134 A  
HETATM   23  C   UNL     1     -10.243  10.599  65.032  1.00  0.00    -0.310 A  
HETATM   24  N   UNL     1     -10.042  11.899  65.353  1.00  0.00    -0.247 NA 
ENDBRANCH  17  19
ENDBRANCH   3  15
TORSDOF 2
ENDMDL
MODEL       66
REMARK 921   NORMALIZED FREE ENERGY PREDICTED BY IDOCK:   -5.05 KCAL/MOL
REMARK 922        TOTAL FREE ENERGY PREDICTED BY IDOCK:   -6.00 KCAL/MOL
REMARK 923 INTER-LIGAND FREE ENERGY PREDICTED BY IDOCK:   -5.99 KCAL/MOL
REMARK 924 INTRA-LIGAND FREE ENERGY PREDICTED BY IDOCK:   -0.01 KCAL/MOL
REMARK 927      BINDING AFFINITY PREDICTED BY RF-SCORE:    0.00 PKD
ROOT
HETATM    1  C   UNL     1     -10.746  18.269  66.183  1.00  0.00    -0.159 C  
HETATM    2  N   UNL     1      -9.526  18.405  66.987  1.00  0.00    -0.274 N  
HETATM    3  C   UNL     1      -9.002  17.427  67.928  1.00  0.00    -0.251 C  
HETATM    4  C   UNL     1      -5.535  20.770  68.862  1.00  0.00    -0.350 A  
HETATM    5  C   UNL     1      -7.867  17.645  68.648  1.00  0.00    -0.280 C  
HETATM    6  O   UNL     1      -9.542  20.957  67.084  1.00  0.00    -0.414 OA 
HETATM    7  C   UNL     1      -7.115  18.863  68.568  1.00  0.00    -0.278 A  
HETATM    8  O   UNL     1      -7.324  16.739  69.538  1.00  0.00    -0.146 OA 
HETATM    9  C   UNL     1      -6.488  21.038  67.905  1.00  0.00    -0.365 A  
HETATM   10  C   UNL     1      -7.369  19.940  67.758  1.00  0.00    -0.288 A  
HETATM   11  S   UNL     1      -5.732  19.208  69.541  1.00  0.00    -0.234 SA 
HETATM   12  S   UNL     1      -8.697  19.845  66.687  1.00  0.00    -0.348 S  
HETATM   13  H   UNL     1      -6.532  16.891  70.041  1.00  0.00     0.000 HD 
HETATM   14  O   UNL     1      -8.093  19.764  65.382  1.00  0.00    -0.285 OA 
ENDROOT
BRANCH   3  15
HETATM   15  C   UNL     1      -9.729  16.134  68.242  1.00  0.00    -0.220 C  
HETATM   16  O   UNL     1      -9.974  15.349  67.322  1.00  0.00    -0.224 OA 
HETATM   17  N   UNL     1     -10.211  15.984  69.516  1.00  0.00    -0.262 N  
HETATM   18  H   UNL     1      -9.981  16.701  70.205  1.00  0.00     0.000 HD 
BRANCH  17  19
HETATM   19  C   UNL     1     -11.003  14.904  69.929  1.00  0.00    -0.232 A  
HETATM   20  C   UNL     1     -10.933  13.638  69.351  1.00  0.00    -0.117 A  
HETATM   21  C   UNL     1     -12.752  12.959  70.762  1.00  0.00    -0.229 A  
HETATM   22  C   UNL     1     -11.813  12.647  69.790  1.00  0.00    -0.379 A  
HETATM   23  C   UNL     1     -12.731  14.237  71.298  1.00  0.00    -0.357 A  
HETATM   24  N   UNL     1     -11.852  15.198  70.933  1.00  0.00    -0.297 NA 
ENDBRANCH  17  19
ENDBRANCH   3  15
TORSDOF 2
ENDMDL
MODEL       67
REMARK 921   NORMALIZED FREE ENERGY PREDICTED BY IDOCK:   -5.02 KCAL/MOL
REMARK 922        TOTAL FREE ENERGY PREDICTED BY IDOCK:   -5.97 KCAL/MOL
REMARK 923 INTER-LIGAND FREE ENERGY PREDICTED BY IDOCK:   -5.67 KCAL/MOL
REMARK 924 INTRA-LIGAND FREE ENERGY PREDICTED BY IDOCK:   -0.30 KCAL/MOL
REMARK 927      BINDING AFFINITY PREDICTED BY RF-SCORE:    0.00 PKD
ROOT
HETATM    1  C   UNL     1      -9.459  10.977  66.006  1.00  0.00    -0.207 C  
HETATM    2  N   UNL     1     -10.024  10.630  67.315  1.00  0.00    -0.183 N  
HETATM    3  C   UNL     1     -10.637  11.552  68.259  1.00  0.00    -0.200 C  
HETATM    4  C   UNL     1     -11.070   7.641  71.188  1.00  0.00    -0.251 A  
HETATM    5  C   UNL     1     -11.121  11.145  69.465  1.00  0.00    -0.252 C  
HETATM    6  O   UNL     1      -8.560   8.576  67.714  1.00  0.00    -0.132 OA 
HETATM    7  C   UNL     1     -11.040   9.786  69.919  1.00  0.00    -0.254 A  
HETATM    8  O   UNL     1     -11.725  11.981  70.384  1.00  0.00    -0.506 OA 
HETATM    9  C   UNL     1     -10.535   7.483  69.930  1.00  0.00    -0.232 A  
HETATM   10  C   UNL     1     -10.532   8.714  69.232  1.00  0.00    -0.217 A  
HETATM   11  S   UNL     1     -11.553   9.259  71.480  1.00  0.00    -0.405 SA 
HETATM   12  S   UNL     1      -9.955   8.976  67.644  1.00  0.00    -0.215 S  
HETATM   13  H   UNL     1     -12.063  11.696  71.225  1.00  0.00     0.000 HD 
HETATM   14  O   UNL     1     -10.910   8.299  66.806  1.00  0.00    -0.188 OA 
ENDROOT
BRANCH   3  15
HETATM   15  C   UNL     1     -10.697  13.047  68.010  1.00  0.00    -0.232 C  
HETATM   16  O   UNL     1     -11.343  13.464  67.046  1.00  0.00    -0.295 OA 
HETATM   17  N   UNL     1      -9.896  13.841  68.789  1.00  0.00    -0.393 N  
HETATM   18  H   UNL     1      -9.375  13.401  69.548  1.00  0.00     0.000 HD 
BRANCH  17  19
HETATM   19  C   UNL     1      -9.751  15.223  68.604  1.00  0.00    -0.212 A  
HETATM   20  C   UNL     1      -8.517  15.848  68.439  1.00  0.00    -0.176 A  
HETATM   21  C   UNL     1      -9.658  17.960  68.421  1.00  0.00    -0.320 A  
HETATM   22  C   UNL     1      -8.476  17.239  68.330  1.00  0.00    -0.254 A  
HETATM   23  C   UNL     1     -10.841  17.252  68.560  1.00  0.00    -0.240 A  
HETATM   24  N   UNL     1     -10.915  15.902  68.609  1.00  0.00    -0.300 NA 
ENDBRANCH  17  19
ENDBRANCH   3  15
TORSDOF 2
ENDMDL
MODEL       68
REMARK 921   NORMALIZED FREE ENERGY PREDICTED BY IDOCK:   -5.01 KCAL/MOL
REMARK 922        TOTAL FREE ENERGY PREDICTED BY IDOCK:   -5.96 KCAL/MOL
REMARK 923 INTER-LIGAND FREE ENERGY PREDICTED BY IDOCK:   -5.39 KCAL/MOL
REMARK 924 INTRA-LIGAND FREE ENERGY PREDICTED BY IDOCK:   -0.58 KCAL/MOL
REMARK 927      BINDING AFFINITY PREDICTED BY RF-SCORE:    0.00 PKD
ROOT
HETATM    1  C   UNL     1      -7.666  11.104  69.056  1.00  0.00    -0.114 C  
HETATM    2  N   UNL     1      -8.420   9.855  68.894  1.00  0.00    -0.119 N  
HETATM    3  C   UNL     1      -9.357   9.548  67.824  1.00  0.00    -0.127 C  
HETATM    4  C   UNL     1     -10.097   5.331  70.218  1.00  0.00    -0.259 A  
HETATM    5  C   UNL     1     -10.029   8.365  67.761  1.00  0.00    -0.186 C  
HETATM    6  O   UNL     1      -8.472   9.240  71.372  1.00  0.00    -0.325 OA 
HETATM    7  C   UNL     1      -9.897   7.341  68.757  1.00  0.00    -0.161 A  
HETATM    8  O   UNL     1     -10.913   8.025  66.756  1.00  0.00    -0.352 OA 
HETATM    9  C   UNL     1      -9.173   6.228  70.705  1.00  0.00    -0.160 A  
HETATM   10  C   UNL     1      -9.079   7.356  69.856  1.00  0.00    -0.141 A  
HETATM   11  S   UNL     1     -10.810   5.876  68.758  1.00  0.00    -0.233 SA 
HETATM   12  S   UNL     1      -8.062   8.711  70.083  1.00  0.00    -0.122 S  
HETATM   13  H   UNL     1     -11.382   7.199  66.713  1.00  0.00     0.000 HD 
HETATM   14  O   UNL     1      -6.736   8.200  69.846  1.00  0.00    -0.042 OA 
ENDROOT
BRANCH   3  15
HETATM   15  C   UNL     1      -9.722  10.556  66.752  1.00  0.00    -0.179 C  
HETATM   16  O   UNL     1      -8.863  10.894  65.934  1.00  0.00    -0.177 OA 
HETATM   17  N   UNL     1     -10.952  11.154  66.851  1.00  0.00    -0.285 N  
HETATM   18  H   UNL     1     -11.587  10.827  67.580  1.00  0.00     0.000 HD 
BRANCH  17  19
HETATM   19  C   UNL     1     -11.388  12.187  66.010  1.00  0.00    -0.358 A  
HETATM   20  C   UNL     1     -11.796  11.982  64.694  1.00  0.00    -0.342 A  
HETATM   21  C   UNL     1     -12.049  14.358  64.467  1.00  0.00    -0.498 A  
HETATM   22  C   UNL     1     -12.148  13.088  63.918  1.00  0.00    -0.541 A  
HETATM   23  C   UNL     1     -11.658  14.464  65.792  1.00  0.00    -0.353 A  
HETATM   24  N   UNL     1     -11.368  13.405  66.584  1.00  0.00    -0.313 NA 
ENDBRANCH  17  19
ENDBRANCH   3  15
TORSDOF 2
ENDMDL
MODEL       69
REMARK 921   NORMALIZED FREE ENERGY PREDICTED BY IDOCK:   -4.99 KCAL/MOL
REMARK 922        TOTAL FREE ENERGY PREDICTED BY IDOCK:   -5.94 KCAL/MOL
REMARK 923 INTER-LIGAND FREE ENERGY PREDICTED BY IDOCK:   -5.61 KCAL/MOL
REMARK 924 INTRA-LIGAND FREE ENERGY PREDICTED BY IDOCK:   -0.33 KCAL/MOL
REMARK 927      BINDING AFFINITY PREDICTED BY RF-SCORE:    0.00 PKD
ROOT
HETATM    1  C   UNL     1     -12.525  11.889  64.154  1.00  0.00    -0.253 C  
HETATM    2  N   UNL     1     -11.496  12.645  64.878  1.00  0.00    -0.311 N  
HETATM    3  C   UNL     1     -10.248  12.113  65.404  1.00  0.00    -0.270 C  
HETATM    4  C   UNL     1      -9.530  16.631  67.174  1.00  0.00    -0.230 A  
HETATM    5  C   UNL     1      -9.356  12.886  66.083  1.00  0.00    -0.092 C  
HETATM    6  O   UNL     1     -13.070  14.423  65.819  1.00  0.00    -0.363 OA 
HETATM    7  C   UNL     1      -9.583  14.274  66.364  1.00  0.00    -0.298 A  
HETATM    8  O   UNL     1      -8.153  12.429  66.584  1.00  0.00    -0.391 OA 
HETATM    9  C   UNL     1     -10.655  16.374  66.424  1.00  0.00    -0.236 A  
HETATM   10  C   UNL     1     -10.658  15.031  65.976  1.00  0.00    -0.322 A  
HETATM   11  S   UNL     1      -8.519  15.254  67.307  1.00  0.00    -0.209 SA 
HETATM   12  S   UNL     1     -11.864  14.286  65.021  1.00  0.00    -0.416 S  
HETATM   13  H   UNL     1      -7.530  12.968  67.057  1.00  0.00     0.000 HD 
HETATM   14  O   UNL     1     -11.721  14.905  63.728  1.00  0.00    -0.088 OA 
ENDROOT
BRANCH   3  15
HETATM   15  C   UNL     1      -9.893  10.642  65.316  1.00  0.00    -0.275 C  
HETATM   16  O   UNL     1      -9.741  10.131  64.204  1.00  0.00    -0.307 OA 
HETATM   17  N   UNL     1      -9.914   9.925  66.485  1.00  0.00    -0.215 N  
HETATM   18  H   UNL     1     -10.076  10.430  67.356  1.00  0.00     0.000 HD 
BRANCH  17  19
HETATM   19  C   UNL     1      -9.725   8.538  66.552  1.00  0.00    -0.260 A  
HETATM   20  C   UNL     1     -10.644   7.667  67.133  1.00  0.00    -0.410 A  
HETATM   21  C   UNL     1      -9.101   5.871  66.739  1.00  0.00    -0.130 A  
HETATM   22  C   UNL     1     -10.330   6.309  67.211  1.00  0.00    -0.270 A  
HETATM   23  C   UNL     1      -8.261   6.804  66.154  1.00  0.00    -0.124 A  
HETATM   24  N   UNL     1      -8.565   8.116  66.013  1.00  0.00    -0.139 NA 
ENDBRANCH  17  19
ENDBRANCH   3  15
TORSDOF 2
ENDMDL
MODEL       70
REMARK 921   NORMALIZED FREE ENERGY PREDICTED BY IDOCK:   -4.98 KCAL/MOL
REMARK 922        TOTAL FREE ENERGY PREDICTED BY IDOCK:   -5.92 KCAL/MOL
REMARK 923 INTER-LIGAND FREE ENERGY PREDICTED BY IDOCK:   -5.41 KCAL/MOL
REMARK 924 INTRA-LIGAND FREE ENERGY PREDICTED BY IDOCK:   -0.52 KCAL/MOL
REMARK 927      BINDING AFFINITY PREDICTED BY RF-SCORE:    0.00 PKD
ROOT
HETATM    1  C   UNL     1      -7.197  11.433  69.215  1.00  0.00    -0.075 C  
HETATM    2  N   UNL     1      -8.412  11.949  68.573  1.00  0.00    -0.145 N  
HETATM    3  C   UNL     1      -9.729  11.330  68.601  1.00  0.00    -0.195 C  
HETATM    4  C   UNL     1     -11.088  15.017  65.665  1.00  0.00    -0.349 A  
HETATM    5  C   UNL     1     -10.802  11.871  67.960  1.00  0.00    -0.216 C  
HETATM    6  O   UNL     1      -7.221  13.230  66.712  1.00  0.00     0.293 OA 
HETATM    7  C   UNL     1     -10.719  13.071  67.179  1.00  0.00    -0.254 A  
HETATM    8  O   UNL     1     -12.072  11.328  67.974  1.00  0.00    -0.638 OA 
HETATM    9  C   UNL     1      -9.796  14.975  66.138  1.00  0.00    -0.325 A  
HETATM   10  C   UNL     1      -9.615  13.863  66.994  1.00  0.00    -0.254 A  
HETATM   11  S   UNL     1     -12.035  13.724  66.273  1.00  0.00    -0.449 SA 
HETATM   12  S   UNL     1      -8.169  13.427  67.795  1.00  0.00    -0.188 S  
HETATM   13  H   UNL     1     -12.820  11.706  67.526  1.00  0.00     0.000 HD 
HETATM   14  O   UNL     1      -7.997  14.450  68.794  1.00  0.00    -0.138 OA 
ENDROOT
BRANCH   3  15
HETATM   15  C   UNL     1      -9.982   9.993  69.269  1.00  0.00    -0.213 C  
HETATM   16  O   UNL     1      -9.972   8.971  68.579  1.00  0.00    -0.165 OA 
HETATM   17  N   UNL     1     -10.365  10.016  70.585  1.00  0.00    -0.389 N  
HETATM   18  H   UNL     1     -10.371  10.915  71.068  1.00  0.00     0.000 HD 
BRANCH  17  19
HETATM   19  C   UNL     1     -10.748   8.877  71.307  1.00  0.00    -0.287 A  
HETATM   20  C   UNL     1     -11.841   8.085  70.964  1.00  0.00    -0.280 A  
HETATM   21  C   UNL     1     -11.440   6.782  72.940  1.00  0.00    -0.111 A  
HETATM   22  C   UNL     1     -12.180   7.010  71.788  1.00  0.00    -0.387 A  
HETATM   23  C   UNL     1     -10.354   7.606  73.187  1.00  0.00    -0.352 A  
HETATM   24  N   UNL     1      -9.969   8.617  72.375  1.00  0.00    -0.288 NA 
ENDBRANCH  17  19
ENDBRANCH   3  15
TORSDOF 2
ENDMDL
MODEL       71
REMARK 921   NORMALIZED FREE ENERGY PREDICTED BY IDOCK:   -4.95 KCAL/MOL
REMARK 922        TOTAL FREE ENERGY PREDICTED BY IDOCK:   -5.90 KCAL/MOL
REMARK 923 INTER-LIGAND FREE ENERGY PREDICTED BY IDOCK:   -5.22 KCAL/MOL
REMARK 924 INTRA-LIGAND FREE ENERGY PREDICTED BY IDOCK:   -0.68 KCAL/MOL
REMARK 927      BINDING AFFINITY PREDICTED BY RF-SCORE:    0.00 PKD
ROOT
HETATM    1  C   UNL     1     -10.900  17.621  68.204  1.00  0.00    -0.216 C  
HETATM    2  N   UNL     1      -9.587  17.726  67.557  1.00  0.00    -0.264 N  
HETATM    3  C   UNL     1      -8.549  16.708  67.547  1.00  0.00    -0.189 C  
HETATM    4  C   UNL     1      -5.872  20.024  65.117  1.00  0.00    -0.201 A  
HETATM    5  C   UNL     1      -7.347  16.899  66.935  1.00  0.00    -0.216 C  
HETATM    6  O   UNL     1      -9.415  20.271  67.694  1.00  0.00    -0.370 OA 
HETATM    7  C   UNL     1      -6.993  18.124  66.279  1.00  0.00    -0.254 A  
HETATM    8  O   UNL     1      -6.340  15.955  66.886  1.00  0.00    -0.301 OA 
HETATM    9  C   UNL     1      -7.168  20.332  65.468  1.00  0.00    -0.241 A  
HETATM   10  C   UNL     1      -7.779  19.236  66.124  1.00  0.00    -0.290 A  
HETATM   11  S   UNL     1      -5.444  18.431  65.583  1.00  0.00    -0.199 SA 
HETATM   12  S   UNL     1      -9.376  19.183  66.731  1.00  0.00    -0.338 S  
HETATM   13  H   UNL     1      -5.502  16.088  66.458  1.00  0.00     0.000 HD 
HETATM   14  O   UNL     1     -10.202  19.168  65.551  1.00  0.00    -0.430 OA 
ENDROOT
BRANCH   3  15
HETATM   15  C   UNL     1      -8.691  15.397  68.296  1.00  0.00    -0.164 C  
HETATM   16  O   UNL     1      -8.423  15.366  69.499  1.00  0.00    -0.256 OA 
HETATM   17  N   UNL     1      -8.964  14.280  67.550  1.00  0.00    -0.187 N  
HETATM   18  H   UNL     1      -9.145  14.400  66.553  1.00  0.00     0.000 HD 
BRANCH  17  19
HETATM   19  C   UNL     1      -9.009  12.982  68.076  1.00  0.00    -0.199 A  
HETATM   20  C   UNL     1      -7.908  12.129  68.105  1.00  0.00    -0.147 A  
HETATM   21  C   UNL     1      -9.335  10.416  68.994  1.00  0.00    -0.201 A  
HETATM   22  C   UNL     1      -8.074  10.830  68.588  1.00  0.00    -0.136 A  
HETATM   23  C   UNL     1     -10.365  11.340  68.954  1.00  0.00    -0.195 A  
HETATM   24  N   UNL     1     -10.219  12.622  68.545  1.00  0.00    -0.224 NA 
ENDBRANCH  17  19
ENDBRANCH   3  15
TORSDOF 2
ENDMDL
MODEL       72
REMARK 921   NORMALIZED FREE ENERGY PREDICTED BY IDOCK:   -4.89 KCAL/MOL
REMARK 922        TOTAL FREE ENERGY PREDICTED BY IDOCK:   -5.83 KCAL/MOL
REMARK 923 INTER-LIGAND FREE ENERGY PREDICTED BY IDOCK:   -5.14 KCAL/MOL
REMARK 924 INTRA-LIGAND FREE ENERGY PREDICTED BY IDOCK:   -0.69 KCAL/MOL
REMARK 927      BINDING AFFINITY PREDICTED BY RF-SCORE:    0.00 PKD
ROOT
HETATM    1  C   UNL     1      -7.700  13.924  68.744  1.00  0.00    -0.096 C  
HETATM    2  N   UNL     1      -8.838  13.603  67.875  1.00  0.00    -0.177 N  
HETATM    3  C   UNL     1      -9.441  12.291  67.696  1.00  0.00    -0.188 C  
HETATM    4  C   UNL     1     -12.330  14.504  64.407  1.00  0.00    -0.413 A  
HETATM    5  C   UNL     1     -10.488  12.080  66.851  1.00  0.00    -0.223 C  
HETATM    6  O   UNL     1      -8.450  15.492  66.201  1.00  0.00    -0.212 OA 
HETATM    7  C   UNL     1     -11.061  13.119  66.045  1.00  0.00    -0.280 A  
HETATM    8  O   UNL     1     -11.102  10.857  66.664  1.00  0.00    -0.213 OA 
HETATM    9  C   UNL     1     -11.406  15.252  65.102  1.00  0.00    -0.321 A  
HETATM   10  C   UNL     1     -10.703  14.442  66.025  1.00  0.00    -0.302 A  
HETATM   11  S   UNL     1     -12.320  12.861  64.893  1.00  0.00    -0.475 SA 
HETATM   12  S   UNL     1      -9.468  14.957  67.088  1.00  0.00    -0.233 S  
HETATM   13  H   UNL     1     -11.833  10.710  66.074  1.00  0.00     0.000 HD 
HETATM   14  O   UNL     1     -10.154  15.774  68.056  1.00  0.00    -0.225 OA 
ENDROOT
BRANCH   3  15
HETATM   15  C   UNL     1      -8.891  11.048  68.367  1.00  0.00    -0.151 C  
HETATM   16  O   UNL     1      -7.977  10.429  67.816  1.00  0.00    -0.101 OA 
HETATM   17  N   UNL     1      -9.553  10.594  69.478  1.00  0.00    -0.421 N  
HETATM   18  H   UNL     1     -10.317  11.160  69.847  1.00  0.00     0.000 HD 
BRANCH  17  19
HETATM   19  C   UNL     1      -9.240   9.397  70.138  1.00  0.00    -0.234 A  
HETATM   20  C   UNL     1      -9.885   8.190  69.881  1.00  0.00    -0.186 A  
HETATM   21  C   UNL     1      -8.604   7.198  71.652  1.00  0.00    -0.114 A  
HETATM   22  C   UNL     1      -9.547   7.069  70.642  1.00  0.00    -0.165 A  
HETATM   23  C   UNL     1      -7.996   8.431  71.819  1.00  0.00    -0.133 A  
HETATM   24  N   UNL     1      -8.263   9.518  71.058  1.00  0.00    -0.276 NA 
ENDBRANCH  17  19
ENDBRANCH   3  15
TORSDOF 2
ENDMDL
MODEL       73
REMARK 921   NORMALIZED FREE ENERGY PREDICTED BY IDOCK:   -4.85 KCAL/MOL
REMARK 922        TOTAL FREE ENERGY PREDICTED BY IDOCK:   -5.78 KCAL/MOL
REMARK 923 INTER-LIGAND FREE ENERGY PREDICTED BY IDOCK:   -5.57 KCAL/MOL
REMARK 924 INTRA-LIGAND FREE ENERGY PREDICTED BY IDOCK:   -0.20 KCAL/MOL
REMARK 927      BINDING AFFINITY PREDICTED BY RF-SCORE:    0.00 PKD
ROOT
HETATM    1  C   UNL     1     -10.530  16.196  65.768  1.00  0.00    -0.367 C  
HETATM    2  N   UNL     1      -9.448  16.232  66.759  1.00  0.00    -0.225 N  
HETATM    3  C   UNL     1      -9.027  15.133  67.613  1.00  0.00    -0.180 C  
HETATM    4  C   UNL     1      -5.880  18.362  69.545  1.00  0.00    -0.248 A  
HETATM    5  C   UNL     1      -8.021  15.261  68.522  1.00  0.00    -0.141 C  
HETATM    6  O   UNL     1      -9.586  18.739  67.227  1.00  0.00    -0.295 OA 
HETATM    7  C   UNL     1      -7.317  16.492  68.737  1.00  0.00    -0.208 A  
HETATM    8  O   UNL     1      -7.577  14.241  69.341  1.00  0.00    -0.317 OA 
HETATM    9  C   UNL     1      -6.692  18.754  68.504  1.00  0.00    -0.278 A  
HETATM   10  C   UNL     1      -7.494  17.674  68.065  1.00  0.00    -0.223 A  
HETATM   11  S   UNL     1      -6.108  16.713  69.949  1.00  0.00    -0.135 SA 
HETATM   12  S   UNL     1      -8.646  17.717  66.802  1.00  0.00    -0.264 S  
HETATM   13  H   UNL     1      -6.875  14.331  69.975  1.00  0.00     0.000 HD 
HETATM   14  O   UNL     1      -7.853  17.847  65.607  1.00  0.00    -0.534 OA 
ENDROOT
BRANCH   3  15
HETATM   15  C   UNL     1      -9.737  13.793  67.620  1.00  0.00    -0.227 C  
HETATM   16  O   UNL     1     -10.677  13.621  68.400  1.00  0.00    -0.244 OA 
HETATM   17  N   UNL     1      -9.187  12.793  66.862  1.00  0.00    -0.224 N  
HETATM   18  H   UNL     1      -8.390  13.023  66.267  1.00  0.00     0.000 HD 
BRANCH  17  19
HETATM   19  C   UNL     1      -9.655  11.471  66.854  1.00  0.00    -0.187 A  
HETATM   20  C   UNL     1     -10.187  10.842  67.977  1.00  0.00    -0.203 A  
HETATM   21  C   UNL     1     -10.365   8.825  66.687  1.00  0.00    -0.298 A  
HETATM   22  C   UNL     1     -10.562   9.500  67.883  1.00  0.00    -0.299 A  
HETATM   23  C   UNL     1      -9.853   9.539  65.616  1.00  0.00    -0.272 A  
HETATM   24  N   UNL     1      -9.536  10.854  65.663  1.00  0.00    -0.204 NA 
ENDBRANCH  17  19
ENDBRANCH   3  15
TORSDOF 2
ENDMDL
MODEL       74
REMARK 921   NORMALIZED FREE ENERGY PREDICTED BY IDOCK:   -4.85 KCAL/MOL
REMARK 922        TOTAL FREE ENERGY PREDICTED BY IDOCK:   -5.78 KCAL/MOL
REMARK 923 INTER-LIGAND FREE ENERGY PREDICTED BY IDOCK:   -5.09 KCAL/MOL
REMARK 924 INTRA-LIGAND FREE ENERGY PREDICTED BY IDOCK:   -0.69 KCAL/MOL
REMARK 927      BINDING AFFINITY PREDICTED BY RF-SCORE:    0.00 PKD
ROOT
HETATM    1  C   UNL     1      -8.798   7.497  66.094  1.00  0.00    -0.159 C  
HETATM    2  N   UNL     1      -9.492   8.619  66.737  1.00  0.00    -0.175 N  
HETATM    3  C   UNL     1     -10.239   8.567  67.985  1.00  0.00    -0.213 C  
HETATM    4  C   UNL     1     -11.269  13.282  67.103  1.00  0.00    -0.299 A  
HETATM    5  C   UNL     1     -10.869   9.658  68.502  1.00  0.00    -0.161 C  
HETATM    6  O   UNL     1      -9.928   9.940  64.596  1.00  0.00    -0.254 OA 
HETATM    7  C   UNL     1     -10.878  10.935  67.849  1.00  0.00    -0.247 A  
HETATM    8  O   UNL     1     -11.574   9.659  69.690  1.00  0.00    -0.443 OA 
HETATM    9  C   UNL     1     -10.453  12.597  66.231  1.00  0.00    -0.270 A  
HETATM   10  C   UNL     1     -10.247  11.271  66.680  1.00  0.00    -0.229 A  
HETATM   11  S   UNL     1     -11.751  12.308  68.428  1.00  0.00    -0.324 SA 
HETATM   12  S   UNL     1      -9.306  10.074  65.902  1.00  0.00    -0.201 S  
HETATM   13  H   UNL     1     -12.013  10.420  70.051  1.00  0.00     0.000 HD 
HETATM   14  O   UNL     1      -7.950  10.530  66.067  1.00  0.00    -0.139 OA 
ENDROOT
BRANCH   3  15
HETATM   15  C   UNL     1     -10.447   7.277  68.752  1.00  0.00    -0.200 C  
HETATM   16  O   UNL     1     -11.234   6.438  68.305  1.00  0.00    -0.309 OA 
HETATM   17  N   UNL     1      -9.861   7.184  69.988  1.00  0.00    -0.178 N  
HETATM   18  H   UNL     1      -9.247   7.942  70.286  1.00  0.00     0.000 HD 
BRANCH  17  19
HETATM   19  C   UNL     1     -10.056   6.109  70.866  1.00  0.00    -0.192 A  
HETATM   20  C   UNL     1     -11.057   6.083  71.834  1.00  0.00    -0.331 A  
HETATM   21  C   UNL     1     -10.174   3.987  72.603  1.00  0.00    -0.232 A  
HETATM   22  C   UNL     1     -11.124   4.994  72.705  1.00  0.00    -0.265 A  
HETATM   23  C   UNL     1      -9.231   4.085  71.593  1.00  0.00    -0.126 A  
HETATM   24  N   UNL     1      -9.179   5.100  70.699  1.00  0.00    -0.142 NA 
ENDBRANCH  17  19
ENDBRANCH   3  15
TORSDOF 2
ENDMDL
MODEL       75
REMARK 921   NORMALIZED FREE ENERGY PREDICTED BY IDOCK:   -4.84 KCAL/MOL
REMARK 922        TOTAL FREE ENERGY PREDICTED BY IDOCK:   -5.77 KCAL/MOL
REMARK 923 INTER-LIGAND FREE ENERGY PREDICTED BY IDOCK:   -5.26 KCAL/MOL
REMARK 924 INTRA-LIGAND FREE ENERGY PREDICTED BY IDOCK:   -0.51 KCAL/MOL
REMARK 927      BINDING AFFINITY PREDICTED BY RF-SCORE:    0.00 PKD
ROOT
HETATM    1  C   UNL     1     -12.118  13.102  70.567  1.00  0.00    -0.306 C  
HETATM    2  N   UNL     1     -11.433  13.826  69.490  1.00  0.00    -0.274 N  
HETATM    3  C   UNL     1     -10.687  13.231  68.392  1.00  0.00    -0.257 C  
HETATM    4  C   UNL     1      -9.688  17.854  67.089  1.00  0.00    -0.289 A  
HETATM    5  C   UNL     1     -10.065  13.983  67.442  1.00  0.00    -0.244 C  
HETATM    6  O   UNL     1     -11.003  15.962  70.823  1.00  0.00    -0.320 OA 
HETATM    7  C   UNL     1     -10.063  15.418  67.461  1.00  0.00    -0.233 A  
HETATM    8  O   UNL     1      -9.362  13.462  66.374  1.00  0.00    -0.357 OA 
HETATM    9  C   UNL     1     -10.498  17.622  68.178  1.00  0.00    -0.386 A  
HETATM   10  C   UNL     1     -10.695  16.233  68.364  1.00  0.00    -0.311 A  
HETATM   11  S   UNL     1      -9.201  16.396  66.331  1.00  0.00    -0.327 SA 
HETATM   12  S   UNL     1     -11.627  15.500  69.595  1.00  0.00    -0.375 S  
HETATM   13  H   UNL     1      -8.928  13.987  65.711  1.00  0.00     0.000 HD 
HETATM   14  O   UNL     1     -12.987  15.828  69.251  1.00  0.00     0.380 OA 
ENDROOT
BRANCH   3  15
HETATM   15  C   UNL     1     -10.470  11.735  68.275  1.00  0.00    -0.206 C  
HETATM   16  O   UNL     1     -11.081  11.111  67.404  1.00  0.00    -0.273 OA 
HETATM   17  N   UNL     1      -9.720  11.136  69.254  1.00  0.00    -0.424 N  
HETATM   18  H   UNL     1      -9.275  11.733  69.952  1.00  0.00     0.000 HD 
BRANCH  17  19
HETATM   19  C   UNL     1      -9.528   9.751  69.352  1.00  0.00    -0.201 A  
HETATM   20  C   UNL     1      -8.371   9.106  68.921  1.00  0.00    -0.124 A  
HETATM   21  C   UNL     1      -9.406   7.012  69.475  1.00  0.00    -0.148 A  
HETATM   22  C   UNL     1      -8.307   7.714  69.001  1.00  0.00    -0.128 A  
HETATM   23  C   UNL     1     -10.504   7.739  69.905  1.00  0.00    -0.232 A  
HETATM   24  N   UNL     1     -10.570   9.090  69.893  1.00  0.00    -0.223 NA 
ENDBRANCH  17  19
ENDBRANCH   3  15
TORSDOF 2
ENDMDL
MODEL       76
REMARK 921   NORMALIZED FREE ENERGY PREDICTED BY IDOCK:   -4.82 KCAL/MOL
REMARK 922        TOTAL FREE ENERGY PREDICTED BY IDOCK:   -5.75 KCAL/MOL
REMARK 923 INTER-LIGAND FREE ENERGY PREDICTED BY IDOCK:   -5.45 KCAL/MOL
REMARK 924 INTRA-LIGAND FREE ENERGY PREDICTED BY IDOCK:   -0.30 KCAL/MOL
REMARK 927      BINDING AFFINITY PREDICTED BY RF-SCORE:    0.00 PKD
ROOT
HETATM    1  C   UNL     1      -8.527   8.670  67.132  1.00  0.00    -0.114 C  
HETATM    2  N   UNL     1      -9.266   9.876  67.524  1.00  0.00    -0.134 N  
HETATM    3  C   UNL     1      -9.923  10.105  68.802  1.00  0.00    -0.179 C  
HETATM    4  C   UNL     1     -11.393  14.352  66.836  1.00  0.00    -0.348 A  
HETATM    5  C   UNL     1     -10.605  11.252  69.075  1.00  0.00    -0.208 C  
HETATM    6  O   UNL     1      -9.950  10.562  65.161  1.00  0.00    -0.267 OA 
HETATM    7  C   UNL     1     -10.762  12.311  68.121  1.00  0.00    -0.216 A  
HETATM    8  O   UNL     1     -11.227  11.519  70.279  1.00  0.00    -0.482 OA 
HETATM    9  C   UNL     1     -10.582  13.516  66.102  1.00  0.00    -0.290 A  
HETATM   10  C   UNL     1     -10.239  12.368  66.855  1.00  0.00    -0.225 A  
HETATM   11  S   UNL     1     -11.704  13.730  68.402  1.00  0.00    -0.374 SA 
HETATM   12  S   UNL     1      -9.256  11.071  66.332  1.00  0.00    -0.180 S  
HETATM   13  H   UNL     1     -11.703  12.319  70.469  1.00  0.00     0.000 HD 
HETATM   14  O   UNL     1      -7.934  11.638  66.259  1.00  0.00    -0.064 OA 
ENDROOT
BRANCH   3  15
HETATM   15  C   UNL     1      -9.973   9.049  69.889  1.00  0.00    -0.191 C  
HETATM   16  O   UNL     1     -10.674   8.049  69.715  1.00  0.00    -0.245 OA 
HETATM   17  N   UNL     1      -9.354   9.345  71.075  1.00  0.00    -0.223 N  
HETATM   18  H   UNL     1      -8.819  10.211  71.135  1.00  0.00     0.000 HD 
BRANCH  17  19
HETATM   19  C   UNL     1      -9.412   8.526  72.211  1.00  0.00    -0.295 A  
HETATM   20  C   UNL     1      -8.284   8.128  72.926  1.00  0.00    -0.234 A  
HETATM   21  C   UNL     1      -9.713   6.785  74.312  1.00  0.00    -0.328 A  
HETATM   22  C   UNL     1      -8.444   7.255  74.005  1.00  0.00    -0.214 A  
HETATM   23  C   UNL     1     -10.778   7.254  73.561  1.00  0.00    -0.321 A  
HETATM   24  N   UNL     1     -10.659   8.145  72.549  1.00  0.00    -0.318 NA 
ENDBRANCH  17  19
ENDBRANCH   3  15
TORSDOF 2
ENDMDL
MODEL       77
REMARK 921   NORMALIZED FREE ENERGY PREDICTED BY IDOCK:   -4.81 KCAL/MOL
REMARK 922        TOTAL FREE ENERGY PREDICTED BY IDOCK:   -5.74 KCAL/MOL
REMARK 923 INTER-LIGAND FREE ENERGY PREDICTED BY IDOCK:   -5.11 KCAL/MOL
REMARK 924 INTRA-LIGAND FREE ENERGY PREDICTED BY IDOCK:   -0.63 KCAL/MOL
REMARK 927      BINDING AFFINITY PREDICTED BY RF-SCORE:    0.00 PKD
ROOT
HETATM    1  C   UNL     1     -10.339   6.266  69.708  1.00  0.00    -0.207 C  
HETATM    2  N   UNL     1      -9.777   6.935  68.530  1.00  0.00    -0.138 N  
HETATM    3  C   UNL     1      -9.633   8.370  68.341  1.00  0.00    -0.148 C  
HETATM    4  C   UNL     1      -7.933   7.215  63.887  1.00  0.00    -0.076 A  
HETATM    5  C   UNL     1      -9.114   8.907  67.202  1.00  0.00    -0.138 C  
HETATM    6  O   UNL     1     -10.362   5.092  66.861  1.00  0.00    -0.224 OA 
HETATM    7  C   UNL     1      -8.698   8.110  66.085  1.00  0.00    -0.156 A  
HETATM    8  O   UNL     1      -8.943  10.260  66.987  1.00  0.00    -0.136 OA 
HETATM    9  C   UNL     1      -8.278   6.206  64.758  1.00  0.00    -0.112 A  
HETATM   10  C   UNL     1      -8.706   6.742  65.996  1.00  0.00    -0.146 A  
HETATM   11  S   UNL     1      -8.131   8.764  64.591  1.00  0.00    -0.164 SA 
HETATM   12  S   UNL     1      -9.227   5.850  67.358  1.00  0.00    -0.108 S  
HETATM   13  H   UNL     1      -8.581  10.634  66.192  1.00  0.00     0.000 HD 
HETATM   14  O   UNL     1      -8.029   5.215  67.844  1.00  0.00    -0.094 OA 
ENDROOT
BRANCH   3  15
HETATM   15  C   UNL     1     -10.134   9.376  69.359  1.00  0.00    -0.198 C  
HETATM   16  O   UNL     1      -9.508   9.520  70.412  1.00  0.00    -0.242 OA 
HETATM   17  N   UNL     1     -11.351   9.958  69.113  1.00  0.00    -0.442 N  
HETATM   18  H   UNL     1     -11.809   9.756  68.224  1.00  0.00     0.000 HD 
BRANCH  17  19
HETATM   19  C   UNL     1     -12.002  10.815  70.011  1.00  0.00    -0.347 A  
HETATM   20  C   UNL     1     -11.901  12.203  69.954  1.00  0.00    -0.392 A  
HETATM   21  C   UNL     1     -13.217  12.319  71.959  1.00  0.00    -0.508 A  
HETATM   22  C   UNL     1     -12.534  12.965  70.938  1.00  0.00    -0.383 A  
HETATM   23  C   UNL     1     -13.285  10.936  71.920  1.00  0.00    -0.403 A  
HETATM   24  N   UNL     1     -12.731  10.176  70.947  1.00  0.00    -0.353 NA 
ENDBRANCH  17  19
ENDBRANCH   3  15
TORSDOF 2
ENDMDL
MODEL       78
REMARK 921   NORMALIZED FREE ENERGY PREDICTED BY IDOCK:   -4.77 KCAL/MOL
REMARK 922        TOTAL FREE ENERGY PREDICTED BY IDOCK:   -5.70 KCAL/MOL
REMARK 923 INTER-LIGAND FREE ENERGY PREDICTED BY IDOCK:   -5.07 KCAL/MOL
REMARK 924 INTRA-LIGAND FREE ENERGY PREDICTED BY IDOCK:   -0.63 KCAL/MOL
REMARK 927      BINDING AFFINITY PREDICTED BY RF-SCORE:    0.00 PKD
ROOT
HETATM    1  C   UNL     1      -7.551  12.132  68.481  1.00  0.00    -0.124 C  
HETATM    2  N   UNL     1      -8.571  12.595  67.533  1.00  0.00    -0.174 N  
HETATM    3  C   UNL     1      -9.401  11.754  66.684  1.00  0.00    -0.198 C  
HETATM    4  C   UNL     1     -11.167  15.973  64.910  1.00  0.00    -0.312 A  
HETATM    5  C   UNL     1     -10.314  12.272  65.816  1.00  0.00    -0.258 C  
HETATM    6  O   UNL     1      -7.518  14.878  67.087  1.00  0.00    -0.195 OA 
HETATM    7  C   UNL     1     -10.512  13.682  65.642  1.00  0.00    -0.299 A  
HETATM    8  O   UNL     1     -11.134  11.513  65.004  1.00  0.00    -0.275 OA 
HETATM    9  C   UNL     1     -10.235  16.007  65.922  1.00  0.00    -0.386 A  
HETATM   10  C   UNL     1      -9.883  14.694  66.319  1.00  0.00    -0.300 A  
HETATM   11  S   UNL     1     -11.588  14.368  64.480  1.00  0.00    -0.358 SA 
HETATM   12  S   UNL     1      -8.760  14.272  67.536  1.00  0.00    -0.212 S  
HETATM   13  H   UNL     1     -11.771  11.874  64.399  1.00  0.00     0.000 HD 
HETATM   14  O   UNL     1      -9.407  14.661  68.763  1.00  0.00    -0.199 OA 
ENDROOT
BRANCH   3  15
HETATM   15  C   UNL     1      -9.246  10.247  66.635  1.00  0.00    -0.155 C  
HETATM   16  O   UNL     1      -8.732   9.732  65.639  1.00  0.00    -0.137 OA 
HETATM   17  N   UNL     1      -9.834   9.527  67.643  1.00  0.00    -0.158 N  
HETATM   18  H   UNL     1     -10.262  10.040  68.414  1.00  0.00     0.000 HD 
BRANCH  17  19
HETATM   19  C   UNL     1      -9.881   8.127  67.678  1.00  0.00    -0.169 A  
HETATM   20  C   UNL     1     -10.849   7.377  67.015  1.00  0.00    -0.307 A  
HETATM   21  C   UNL     1      -9.907   5.401  68.000  1.00  0.00    -0.183 A  
HETATM   22  C   UNL     1     -10.849   5.989  67.168  1.00  0.00    -0.414 A  
HETATM   23  C   UNL     1      -8.967   6.223  68.599  1.00  0.00    -0.127 A  
HETATM   24  N   UNL     1      -8.908   7.564  68.421  1.00  0.00    -0.126 NA 
ENDBRANCH  17  19
ENDBRANCH   3  15
TORSDOF 2
ENDMDL
MODEL       79
REMARK 921   NORMALIZED FREE ENERGY PREDICTED BY IDOCK:   -4.74 KCAL/MOL
REMARK 922        TOTAL FREE ENERGY PREDICTED BY IDOCK:   -5.66 KCAL/MOL
REMARK 923 INTER-LIGAND FREE ENERGY PREDICTED BY IDOCK:   -5.12 KCAL/MOL
REMARK 924 INTRA-LIGAND FREE ENERGY PREDICTED BY IDOCK:   -0.54 KCAL/MOL
REMARK 927      BINDING AFFINITY PREDICTED BY RF-SCORE:    0.00 PKD
ROOT
HETATM    1  C   UNL     1      -9.517  10.005  66.307  1.00  0.00    -0.191 C  
HETATM    2  N   UNL     1     -10.099   9.836  67.643  1.00  0.00    -0.178 N  
HETATM    3  C   UNL     1     -10.046   8.632  68.459  1.00  0.00    -0.190 C  
HETATM    4  C   UNL     1     -12.812  11.143  71.639  1.00  0.00    -0.419 A  
HETATM    5  C   UNL     1     -10.632   8.558  69.686  1.00  0.00    -0.220 C  
HETATM    6  O   UNL     1     -11.957  11.565  67.356  1.00  0.00    -0.623 OA 
HETATM    7  C   UNL     1     -11.376   9.641  70.261  1.00  0.00    -0.257 A  
HETATM    8  O   UNL     1     -10.592   7.444  70.502  1.00  0.00    -0.216 OA 
HETATM    9  C   UNL     1     -12.386  11.760  70.484  1.00  0.00    -0.387 A  
HETATM   10  C   UNL     1     -11.573  10.886  69.724  1.00  0.00    -0.322 A  
HETATM   11  S   UNL     1     -12.215   9.542  71.767  1.00  0.00    -0.374 SA 
HETATM   12  S   UNL     1     -10.837  11.240  68.222  1.00  0.00    -0.225 S  
HETATM   13  H   UNL     1     -11.001   7.392  71.357  1.00  0.00     0.000 HD 
HETATM   14  O   UNL     1      -9.811  12.197  68.548  1.00  0.00    -0.209 OA 
ENDROOT
BRANCH   3  15
HETATM   15  C   UNL     1      -9.414   7.346  67.966  1.00  0.00    -0.141 C  
HETATM   16  O   UNL     1      -8.354   6.969  68.474  1.00  0.00    -0.120 OA 
HETATM   17  N   UNL     1      -9.981   6.753  66.868  1.00  0.00    -0.180 N  
HETATM   18  H   UNL     1     -10.844   7.153  66.498  1.00  0.00     0.000 HD 
BRANCH  17  19
HETATM   19  C   UNL     1      -9.446   5.629  66.224  1.00  0.00    -0.155 A  
HETATM   20  C   UNL     1      -9.796   4.321  66.550  1.00  0.00    -0.238 A  
HETATM   21  C   UNL     1      -8.167   3.554  64.962  1.00  0.00    -0.094 A  
HETATM   22  C   UNL     1      -9.155   3.268  65.893  1.00  0.00    -0.152 A  
HETATM   23  C   UNL     1      -7.903   4.885  64.684  1.00  0.00    -0.090 A  
HETATM   24  N   UNL     1      -8.550   5.924  65.262  1.00  0.00    -0.144 NA 
ENDBRANCH  17  19
ENDBRANCH   3  15
TORSDOF 2
ENDMDL
MODEL       80
REMARK 921   NORMALIZED FREE ENERGY PREDICTED BY IDOCK:   -4.70 KCAL/MOL
REMARK 922        TOTAL FREE ENERGY PREDICTED BY IDOCK:   -5.61 KCAL/MOL
REMARK 923 INTER-LIGAND FREE ENERGY PREDICTED BY IDOCK:   -5.17 KCAL/MOL
REMARK 924 INTRA-LIGAND FREE ENERGY PREDICTED BY IDOCK:   -0.45 KCAL/MOL
REMARK 927      BINDING AFFINITY PREDICTED BY RF-SCORE:    0.00 PKD
ROOT
HETATM    1  C   UNL     1      -9.455  14.863  68.856  1.00  0.00    -0.209 C  
HETATM    2  N   UNL     1      -9.762  14.043  67.679  1.00  0.00    -0.224 N  
HETATM    3  C   UNL     1      -9.086  12.816  67.285  1.00  0.00    -0.200 C  
HETATM    4  C   UNL     1     -12.034  12.919  63.365  1.00  0.00    -0.537 A  
HETATM    5  C   UNL     1      -9.426  12.126  66.161  1.00  0.00    -0.224 C  
HETATM    6  O   UNL     1     -10.716  15.940  66.261  1.00  0.00    -0.310 OA 
HETATM    7  C   UNL     1     -10.450  12.564  65.257  1.00  0.00    -0.287 A  
HETATM    8  O   UNL     1      -8.824  10.950  65.758  1.00  0.00    -0.183 OA 
HETATM    9  C   UNL     1     -12.161  13.895  64.328  1.00  0.00    -0.477 A  
HETATM   10  C   UNL     1     -11.252  13.667  65.389  1.00  0.00    -0.298 A  
HETATM   11  S   UNL     1     -10.834  11.766  63.776  1.00  0.00    -0.461 SA 
HETATM   12  S   UNL     1     -11.068  14.633  66.788  1.00  0.00    -0.342 S  
HETATM   13  H   UNL     1      -9.062  10.468  64.974  1.00  0.00     0.000 HD 
HETATM   14  O   UNL     1     -12.277  14.404  67.536  1.00  0.00    -0.342 OA 
ENDROOT
BRANCH   3  15
HETATM   15  C   UNL     1      -7.895  12.266  68.045  1.00  0.00    -0.147 C  
HETATM   16  O   UNL     1      -6.759  12.548  67.657  1.00  0.00    -0.105 OA 
HETATM   17  N   UNL     1      -8.154  11.354  69.034  1.00  0.00    -0.344 N  
HETATM   18  H   UNL     1      -9.129  11.161  69.268  1.00  0.00     0.000 HD 
BRANCH  17  19
HETATM   19  C   UNL     1      -7.159  10.669  69.745  1.00  0.00    -0.139 A  
HETATM   20  C   UNL     1      -6.103  11.307  70.392  1.00  0.00    -0.120 A  
HETATM   21  C   UNL     1      -5.215   9.146  70.944  1.00  0.00    -0.029 A  
HETATM   22  C   UNL     1      -5.126  10.529  71.015  1.00  0.00    -0.085 A  
HETATM   23  C   UNL     1      -6.314   8.599  70.302  1.00  0.00    -0.038 A  
HETATM   24  N   UNL     1      -7.306   9.329  69.740  1.00  0.00    -0.065 NA 
ENDBRANCH  17  19
ENDBRANCH   3  15
TORSDOF 2
ENDMDL
MODEL       81
REMARK 921   NORMALIZED FREE ENERGY PREDICTED BY IDOCK:   -4.63 KCAL/MOL
REMARK 922        TOTAL FREE ENERGY PREDICTED BY IDOCK:   -5.54 KCAL/MOL
REMARK 923 INTER-LIGAND FREE ENERGY PREDICTED BY IDOCK:   -5.02 KCAL/MOL
REMARK 924 INTRA-LIGAND FREE ENERGY PREDICTED BY IDOCK:   -0.52 KCAL/MOL
REMARK 927      BINDING AFFINITY PREDICTED BY RF-SCORE:    0.00 PKD
ROOT
HETATM    1  C   UNL     1     -11.086  13.661  64.723  1.00  0.00    -0.370 C  
HETATM    2  N   UNL     1     -10.429  12.398  65.076  1.00  0.00    -0.286 N  
HETATM    3  C   UNL     1     -10.061  11.964  66.416  1.00  0.00    -0.214 C  
HETATM    4  C   UNL     1      -8.127   8.045  64.187  1.00  0.00    -0.102 A  
HETATM    5  C   UNL     1      -9.435  10.778  66.651  1.00  0.00    -0.175 C  
HETATM    6  O   UNL     1      -9.238  12.071  62.841  1.00  0.00    -0.191 OA 
HETATM    7  C   UNL     1      -9.056   9.875  65.602  1.00  0.00    -0.178 A  
HETATM    8  O   UNL     1      -9.083  10.318  67.905  1.00  0.00    -0.131 OA 
HETATM    9  C   UNL     1      -8.773   8.998  63.431  1.00  0.00    -0.101 A  
HETATM   10  C   UNL     1      -9.291  10.022  64.260  1.00  0.00    -0.288 A  
HETATM   11  S   UNL     1      -8.173   8.415  65.860  1.00  0.00    -0.131 SA 
HETATM   12  S   UNL     1     -10.160  11.401  63.741  1.00  0.00    -0.403 S  
HETATM   13  H   UNL     1      -8.646   9.491  68.069  1.00  0.00     0.000 HD 
HETATM   14  O   UNL     1     -11.425  10.874  63.297  1.00  0.00     0.386 OA 
ENDROOT
BRANCH   3  15
HETATM   15  C   UNL     1     -10.265  12.840  67.636  1.00  0.00    -0.219 C  
HETATM   16  O   UNL     1      -9.286  13.147  68.320  1.00  0.00    -0.207 OA 
HETATM   17  N   UNL     1     -11.559  13.113  67.998  1.00  0.00    -0.312 N  
HETATM   18  H   UNL     1     -12.308  12.792  67.384  1.00  0.00     0.000 HD 
BRANCH  17  19
HETATM   19  C   UNL     1     -11.914  13.806  69.164  1.00  0.00    -0.361 A  
HETATM   20  C   UNL     1     -11.846  15.192  69.280  1.00  0.00    -0.347 A  
HETATM   21  C   UNL     1     -12.492  14.970  71.582  1.00  0.00    -0.405 A  
HETATM   22  C   UNL     1     -12.157  15.782  70.507  1.00  0.00    -0.407 A  
HETATM   23  C   UNL     1     -12.558  13.603  71.366  1.00  0.00    -0.328 A  
HETATM   24  N   UNL     1     -12.319  13.011  70.173  1.00  0.00    -0.249 NA 
ENDBRANCH  17  19
ENDBRANCH   3  15
TORSDOF 2
ENDMDL
MODEL       82
REMARK 921   NORMALIZED FREE ENERGY PREDICTED BY IDOCK:   -4.62 KCAL/MOL
REMARK 922        TOTAL FREE ENERGY PREDICTED BY IDOCK:   -5.53 KCAL/MOL
REMARK 923 INTER-LIGAND FREE ENERGY PREDICTED BY IDOCK:   -4.92 KCAL/MOL
REMARK 924 INTRA-LIGAND FREE ENERGY PREDICTED BY IDOCK:   -0.61 KCAL/MOL
REMARK 927      BINDING AFFINITY PREDICTED BY RF-SCORE:    0.00 PKD
ROOT
HETATM    1  C   UNL     1      -9.618  12.290  69.063  1.00  0.00     0.329 C  
HETATM    2  N   UNL     1     -10.124  12.800  67.783  1.00  0.00    -0.219 N  
HETATM    3  C   UNL     1     -10.091  14.183  67.335  1.00  0.00    -0.240 C  
HETATM    4  C   UNL     1     -12.493  12.544  63.384  1.00  0.00    -0.408 A  
HETATM    5  C   UNL     1     -10.602  14.572  66.134  1.00  0.00    -0.306 C  
HETATM    6  O   UNL     1     -11.888  10.985  67.440  1.00  0.00    -0.523 OA 
HETATM    7  C   UNL     1     -11.241  13.662  65.228  1.00  0.00    -0.299 A  
HETATM    8  O   UNL     1     -10.577  15.869  65.660  1.00  0.00    -0.346 OA 
HETATM    9  C   UNL     1     -12.105  11.648  64.355  1.00  0.00    -0.085 A  
HETATM   10  C   UNL     1     -11.396  12.309  65.386  1.00  0.00    -0.343 A  
HETATM   11  S   UNL     1     -11.986  14.141  63.746  1.00  0.00     0.072 SA 
HETATM   12  S   UNL     1     -10.737  11.583  66.787  1.00  0.00    -0.281 S  
HETATM   13  H   UNL     1     -10.934  16.140  64.822  1.00  0.00     0.000 HD 
HETATM   14  O   UNL     1      -9.637  10.796  66.291  1.00  0.00    -0.184 OA 
ENDROOT
BRANCH   3  15
HETATM   15  C   UNL     1      -9.571  15.307  68.209  1.00  0.00    -0.206 C  
HETATM   16  O   UNL     1     -10.314  15.787  69.068  1.00  0.00    -0.202 OA 
HETATM   17  N   UNL     1      -8.346  15.832  67.886  1.00  0.00    -0.148 N  
HETATM   18  H   UNL     1      -7.814  15.385  67.139  1.00  0.00     0.000 HD 
BRANCH  17  19
HETATM   19  C   UNL     1      -7.783  16.947  68.521  1.00  0.00    -0.227 A  
HETATM   20  C   UNL     1      -8.220  18.252  68.307  1.00  0.00    -0.312 A  
HETATM   21  C   UNL     1      -6.444  19.016  69.731  1.00  0.00    -0.203 A  
HETATM   22  C   UNL     1      -7.547  19.301  68.938  1.00  0.00    -0.384 A  
HETATM   23  C   UNL     1      -6.097  17.686  69.907  1.00  0.00    -0.178 A  
HETATM   24  N   UNL     1      -6.768  16.648  69.355  1.00  0.00    -0.221 NA 
ENDBRANCH  17  19
ENDBRANCH   3  15
TORSDOF 2
ENDMDL
MODEL       83
REMARK 921   NORMALIZED FREE ENERGY PREDICTED BY IDOCK:   -4.61 KCAL/MOL
REMARK 922        TOTAL FREE ENERGY PREDICTED BY IDOCK:   -5.52 KCAL/MOL
REMARK 923 INTER-LIGAND FREE ENERGY PREDICTED BY IDOCK:   -4.85 KCAL/MOL
REMARK 924 INTRA-LIGAND FREE ENERGY PREDICTED BY IDOCK:   -0.67 KCAL/MOL
REMARK 927      BINDING AFFINITY PREDICTED BY RF-SCORE:    0.00 PKD
ROOT
HETATM    1  C   UNL     1     -11.363   6.433  68.883  1.00  0.00    -0.209 C  
HETATM    2  N   UNL     1     -10.464   6.913  69.939  1.00  0.00    -0.208 N  
HETATM    3  C   UNL     1      -9.761   8.187  69.957  1.00  0.00    -0.172 C  
HETATM    4  C   UNL     1      -7.778   6.581  74.146  1.00  0.00    -0.097 A  
HETATM    5  C   UNL     1      -8.929   8.545  70.974  1.00  0.00    -0.179 C  
HETATM    6  O   UNL     1      -9.737   4.605  70.754  1.00  0.00    -0.169 OA 
HETATM    7  C   UNL     1      -8.650   7.689  72.090  1.00  0.00    -0.118 A  
HETATM    8  O   UNL     1      -8.256   9.749  71.042  1.00  0.00    -0.357 OA 
HETATM    9  C   UNL     1      -8.704   5.796  73.497  1.00  0.00    -0.123 A  
HETATM   10  C   UNL     1      -9.182   6.450  72.336  1.00  0.00    -0.137 A  
HETATM   11  S   UNL     1      -7.524   8.073  73.341  1.00  0.00    -0.150 SA 
HETATM   12  S   UNL     1     -10.337   5.838  71.234  1.00  0.00    -0.232 S  
HETATM   13  H   UNL     1      -7.675   9.999  71.751  1.00  0.00     0.000 HD 
HETATM   14  O   UNL     1     -11.574   5.857  71.972  1.00  0.00    -0.288 OA 
ENDROOT
BRANCH   3  15
HETATM   15  C   UNL     1      -9.831   9.169  68.804  1.00  0.00    -0.167 C  
HETATM   16  O   UNL     1      -9.179   8.937  67.783  1.00  0.00    -0.140 OA 
HETATM   17  N   UNL     1     -10.500  10.345  69.026  1.00  0.00    -0.205 N  
HETATM   18  H   UNL     1     -10.988  10.459  69.915  1.00  0.00     0.000 HD 
BRANCH  17  19
HETATM   19  C   UNL     1     -10.553  11.399  68.104  1.00  0.00    -0.189 A  
HETATM   20  C   UNL     1      -9.538  12.342  67.961  1.00  0.00    -0.211 A  
HETATM   21  C   UNL     1     -10.912  13.488  66.360  1.00  0.00    -0.297 A  
HETATM   22  C   UNL     1      -9.718  13.394  67.061  1.00  0.00    -0.239 A  
HETATM   23  C   UNL     1     -11.854  12.490  66.547  1.00  0.00    -0.367 A  
HETATM   24  N   UNL     1     -11.682  11.429  67.369  1.00  0.00    -0.598 NA 
ENDBRANCH  17  19
ENDBRANCH   3  15
TORSDOF 2
ENDMDL
MODEL       84
REMARK 921   NORMALIZED FREE ENERGY PREDICTED BY IDOCK:   -4.59 KCAL/MOL
REMARK 922        TOTAL FREE ENERGY PREDICTED BY IDOCK:   -5.50 KCAL/MOL
REMARK 923 INTER-LIGAND FREE ENERGY PREDICTED BY IDOCK:   -4.79 KCAL/MOL
REMARK 924 INTRA-LIGAND FREE ENERGY PREDICTED BY IDOCK:   -0.71 KCAL/MOL
REMARK 927      BINDING AFFINITY PREDICTED BY RF-SCORE:    0.00 PKD
ROOT
HETATM    1  C   UNL     1     -11.442  12.133  64.150  1.00  0.00    -0.387 C  
HETATM    2  N   UNL     1     -10.718  12.758  65.263  1.00  0.00    -0.287 N  
HETATM    3  C   UNL     1      -9.581  12.195  65.975  1.00  0.00    -0.231 C  
HETATM    4  C   UNL     1      -9.862  16.203  68.790  1.00  0.00    -0.230 A  
HETATM    5  C   UNL     1      -8.979  12.840  67.013  1.00  0.00    -0.221 C  
HETATM    6  O   UNL     1     -12.676  14.162  66.111  1.00  0.00    -0.442 OA 
HETATM    7  C   UNL     1      -9.433  14.106  67.512  1.00  0.00    -0.210 A  
HETATM    8  O   UNL     1      -7.888  12.352  67.704  1.00  0.00    -0.139 OA 
HETATM    9  C   UNL     1     -10.733  16.061  67.732  1.00  0.00    -0.323 A  
HETATM   10  C   UNL     1     -10.465  14.865  67.025  1.00  0.00    -0.272 A  
HETATM   11  S   UNL     1      -8.756  14.898  68.888  1.00  0.00    -0.163 SA 
HETATM   12  S   UNL     1     -11.305  14.293  65.650  1.00  0.00    -0.325 S  
HETATM   13  H   UNL     1      -7.468  12.802  68.428  1.00  0.00     0.000 HD 
HETATM   14  O   UNL     1     -10.928  15.207  64.602  1.00  0.00    -0.377 OA 
ENDROOT
BRANCH   3  15
HETATM   15  C   UNL     1      -9.040  10.812  65.673  1.00  0.00    -0.194 C  
HETATM   16  O   UNL     1      -9.446   9.855  66.337  1.00  0.00    -0.165 OA 
HETATM   17  N   UNL     1      -8.007  10.728  64.776  1.00  0.00    -0.363 N  
HETATM   18  H   UNL     1      -7.718  11.580  64.294  1.00  0.00     0.000 HD 
BRANCH  17  19
HETATM   19  C   UNL     1      -7.323   9.540  64.481  1.00  0.00    -0.114 A  
HETATM   20  C   UNL     1      -7.670   8.698  63.427  1.00  0.00    -0.139 A  
HETATM   21  C   UNL     1      -5.969   7.174  64.165  1.00  0.00    -0.037 A  
HETATM   22  C   UNL     1      -6.968   7.503  63.260  1.00  0.00    -0.064 A  
HETATM   23  C   UNL     1      -5.675   8.084  65.167  1.00  0.00    -0.044 A  
HETATM   24  N   UNL     1      -6.300   9.275  65.317  1.00  0.00    -0.064 NA 
ENDBRANCH  17  19
ENDBRANCH   3  15
TORSDOF 2
ENDMDL
MODEL       85
REMARK 921   NORMALIZED FREE ENERGY PREDICTED BY IDOCK:   -4.55 KCAL/MOL
REMARK 922        TOTAL FREE ENERGY PREDICTED BY IDOCK:   -5.44 KCAL/MOL
REMARK 923 INTER-LIGAND FREE ENERGY PREDICTED BY IDOCK:   -4.75 KCAL/MOL
REMARK 924 INTRA-LIGAND FREE ENERGY PREDICTED BY IDOCK:   -0.70 KCAL/MOL
REMARK 927      BINDING AFFINITY PREDICTED BY RF-SCORE:    0.00 PKD
ROOT
HETATM    1  C   UNL     1      -9.896   9.329  66.576  1.00  0.00    -0.263 C  
HETATM    2  N   UNL     1     -10.491   9.300  67.917  1.00  0.00    -0.231 N  
HETATM    3  C   UNL     1     -10.646   8.127  68.764  1.00  0.00    -0.121 C  
HETATM    4  C   UNL     1     -12.909  11.166  71.880  1.00  0.00    -0.294 A  
HETATM    5  C   UNL     1     -11.230   8.189  69.993  1.00  0.00    -0.084 C  
HETATM    6  O   UNL     1     -12.017  11.321  67.586  1.00  0.00    -0.634 OA 
HETATM    7  C   UNL     1     -11.768   9.400  70.540  1.00  0.00    -0.198 A  
HETATM    8  O   UNL     1     -11.382   7.106  70.837  1.00  0.00    -0.265 OA 
HETATM    9  C   UNL     1     -12.388  11.669  70.709  1.00  0.00    -0.454 A  
HETATM   10  C   UNL     1     -11.745  10.646  69.971  1.00  0.00    -0.324 A  
HETATM   11  S   UNL     1     -12.603   9.489  72.049  1.00  0.00    -0.355 SA 
HETATM   12  S   UNL     1     -10.967  10.826  68.460  1.00  0.00    -0.265 S  
HETATM   13  H   UNL     1     -11.789   7.149  71.694  1.00  0.00     0.000 HD 
HETATM   14  O   UNL     1      -9.787  11.596  68.760  1.00  0.00    -0.193 OA 
ENDROOT
BRANCH   3  15
HETATM   15  C   UNL     1     -10.253   6.737  68.304  1.00  0.00    -0.175 C  
HETATM   16  O   UNL     1     -11.102   6.028  67.757  1.00  0.00    -0.300 OA 
HETATM   17  N   UNL     1      -9.010   6.289  68.667  1.00  0.00    -0.128 N  
HETATM   18  H   UNL     1      -8.384   6.939  69.144  1.00  0.00     0.000 HD 
BRANCH  17  19
HETATM   19  C   UNL     1      -8.546   4.989  68.421  1.00  0.00    -0.097 A  
HETATM   20  C   UNL     1      -8.028   4.580  67.194  1.00  0.00    -0.101 A  
HETATM   21  C   UNL     1      -7.843   2.358  68.082  1.00  0.00    -0.059 A  
HETATM   22  C   UNL     1      -7.656   3.245  67.031  1.00  0.00    -0.075 A  
HETATM   23  C   UNL     1      -8.341   2.859  69.273  1.00  0.00    -0.059 A  
HETATM   24  N   UNL     1      -8.655   4.159  69.477  1.00  0.00    -0.071 NA 
ENDBRANCH  17  19
ENDBRANCH   3  15
TORSDOF 2
ENDMDL
MODEL       86
REMARK 921   NORMALIZED FREE ENERGY PREDICTED BY IDOCK:   -4.54 KCAL/MOL
REMARK 922        TOTAL FREE ENERGY PREDICTED BY IDOCK:   -5.43 KCAL/MOL
REMARK 923 INTER-LIGAND FREE ENERGY PREDICTED BY IDOCK:   -4.77 KCAL/MOL
REMARK 924 INTRA-LIGAND FREE ENERGY PREDICTED BY IDOCK:   -0.66 KCAL/MOL
REMARK 927      BINDING AFFINITY PREDICTED BY RF-SCORE:    0.00 PKD
ROOT
HETATM    1  C   UNL     1     -10.842  13.513  69.676  1.00  0.00     0.208 C  
HETATM    2  N   UNL     1     -11.002  12.932  68.338  1.00  0.00    -0.246 N  
HETATM    3  C   UNL     1     -10.875  11.526  67.989  1.00  0.00    -0.213 C  
HETATM    4  C   UNL     1     -11.634  13.008  63.375  1.00  0.00    -0.342 A  
HETATM    5  C   UNL     1     -11.022  11.075  66.713  1.00  0.00    -0.217 C  
HETATM    6  O   UNL     1     -10.329  15.029  67.044  1.00  0.00    -0.261 OA 
HETATM    7  C   UNL     1     -11.281  11.947  65.604  1.00  0.00    -0.306 A  
HETATM    8  O   UNL     1     -10.927   9.749  66.339  1.00  0.00     0.093 OA 
HETATM    9  C   UNL     1     -11.663  13.935  64.393  1.00  0.00    -0.427 A  
HETATM   10  C   UNL     1     -11.462  13.305  65.644  1.00  0.00    -0.318 A  
HETATM   11  S   UNL     1     -11.372  11.419  63.963  1.00  0.00    -0.066 SA 
HETATM   12  S   UNL     1     -11.419  14.077  67.169  1.00  0.00    -0.372 S  
HETATM   13  H   UNL     1     -11.030   9.435  65.449  1.00  0.00     0.000 HD 
HETATM   14  O   UNL     1     -12.781  14.489  67.394  1.00  0.00     0.247 OA 
ENDROOT
BRANCH   3  15
HETATM   15  C   UNL     1     -10.479  10.472  69.005  1.00  0.00    -0.217 C  
HETATM   16  O   UNL     1      -9.285  10.327  69.279  1.00  0.00    -0.189 OA 
HETATM   17  N   UNL     1     -11.466   9.629  69.446  1.00  0.00    -0.447 N  
HETATM   18  H   UNL     1     -12.424   9.810  69.142  1.00  0.00     0.000 HD 
BRANCH  17  19
HETATM   19  C   UNL     1     -11.239   8.534  70.291  1.00  0.00    -0.179 A  
HETATM   20  C   UNL     1     -10.792   7.296  69.835  1.00  0.00    -0.264 A  
HETATM   21  C   UNL     1     -11.010   6.461  72.075  1.00  0.00    -0.289 A  
HETATM   22  C   UNL     1     -10.661   6.249  70.749  1.00  0.00    -0.312 A  
HETATM   23  C   UNL     1     -11.420   7.732  72.442  1.00  0.00    -0.363 A  
HETATM   24  N   UNL     1     -11.500   8.780  71.589  1.00  0.00    -0.292 NA 
ENDBRANCH  17  19
ENDBRANCH   3  15
TORSDOF 2
ENDMDL
MODEL       87
REMARK 921   NORMALIZED FREE ENERGY PREDICTED BY IDOCK:   -4.52 KCAL/MOL
REMARK 922        TOTAL FREE ENERGY PREDICTED BY IDOCK:   -5.42 KCAL/MOL
REMARK 923 INTER-LIGAND FREE ENERGY PREDICTED BY IDOCK:   -4.94 KCAL/MOL
REMARK 924 INTRA-LIGAND FREE ENERGY PREDICTED BY IDOCK:   -0.47 KCAL/MOL
REMARK 927      BINDING AFFINITY PREDICTED BY RF-SCORE:    0.00 PKD
ROOT
HETATM    1  C   UNL     1      -8.784   8.392  66.876  1.00  0.00    -0.130 C  
HETATM    2  N   UNL     1      -9.636   8.550  68.061  1.00  0.00    -0.147 N  
HETATM    3  C   UNL     1     -10.128   9.806  68.605  1.00  0.00    -0.169 C  
HETATM    4  C   UNL     1     -12.090   7.043  72.152  1.00  0.00    -0.244 A  
HETATM    5  C   UNL     1     -10.902   9.861  69.725  1.00  0.00    -0.269 C  
HETATM    6  O   UNL     1      -8.868   6.418  69.239  1.00  0.00    -0.127 OA 
HETATM    7  C   UNL     1     -11.268   8.696  70.477  1.00  0.00    -0.241 A  
HETATM    8  O   UNL     1     -11.405  11.028  70.266  1.00  0.00    -0.393 OA 
HETATM    9  C   UNL     1     -11.411   6.432  71.121  1.00  0.00    -0.381 A  
HETATM   10  C   UNL     1     -10.959   7.393  70.186  1.00  0.00    -0.255 A  
HETATM   11  S   UNL     1     -12.162   8.743  71.953  1.00  0.00    -0.388 SA 
HETATM   12  S   UNL     1     -10.071   7.076  68.759  1.00  0.00    -0.175 S  
HETATM   13  H   UNL     1     -11.945  11.066  71.047  1.00  0.00     0.000 HD 
HETATM   14  O   UNL     1     -11.017   6.419  67.895  1.00  0.00    -0.301 OA 
ENDROOT
BRANCH   3  15
HETATM   15  C   UNL     1      -9.741  11.150  68.021  1.00  0.00    -0.176 C  
HETATM   16  O   UNL     1     -10.050  11.404  66.854  1.00  0.00    -0.206 OA 
HETATM   17  N   UNL     1      -8.927  11.950  68.781  1.00  0.00    -0.383 N  
HETATM   18  H   UNL     1      -8.701  11.643  69.728  1.00  0.00     0.000 HD 
BRANCH  17  19
HETATM   19  C   UNL     1      -8.388  13.164  68.335  1.00  0.00    -0.122 A  
HETATM   20  C   UNL     1      -9.161  14.291  68.064  1.00  0.00    -0.192 A  
HETATM   21  C   UNL     1      -7.170  15.400  67.311  1.00  0.00    -0.229 A  
HETATM   22  C   UNL     1      -8.535  15.432  67.558  1.00  0.00    -0.188 A  
HETATM   23  C   UNL     1      -6.478  14.245  67.635  1.00  0.00    -0.132 A  
HETATM   24  N   UNL     1      -7.050  13.146  68.180  1.00  0.00    -0.095 NA 
ENDBRANCH  17  19
ENDBRANCH   3  15
TORSDOF 2
ENDMDL
MODEL       88
REMARK 921   NORMALIZED FREE ENERGY PREDICTED BY IDOCK:   -4.52 KCAL/MOL
REMARK 922        TOTAL FREE ENERGY PREDICTED BY IDOCK:   -5.41 KCAL/MOL
REMARK 923 INTER-LIGAND FREE ENERGY PREDICTED BY IDOCK:   -5.01 KCAL/MOL
REMARK 924 INTRA-LIGAND FREE ENERGY PREDICTED BY IDOCK:   -0.40 KCAL/MOL
REMARK 927      BINDING AFFINITY PREDICTED BY RF-SCORE:    0.00 PKD
ROOT
HETATM    1  C   UNL     1     -11.219  11.174  69.057  1.00  0.00    -0.256 C  
HETATM    2  N   UNL     1     -10.745  10.729  67.742  1.00  0.00    -0.230 N  
HETATM    3  C   UNL     1     -10.242   9.404  67.411  1.00  0.00    -0.239 C  
HETATM    4  C   UNL     1      -9.425  11.262  62.945  1.00  0.00    -0.361 A  
HETATM    5  C   UNL     1      -9.804   9.082  66.162  1.00  0.00    -0.278 C  
HETATM    6  O   UNL     1     -10.018  13.033  66.915  1.00  0.00    -0.234 OA 
HETATM    7  C   UNL     1      -9.770  10.024  65.082  1.00  0.00    -0.311 A  
HETATM    8  O   UNL     1      -9.336   7.834  65.800  1.00  0.00    -0.392 OA 
HETATM    9  C   UNL     1     -10.010  12.055  63.907  1.00  0.00    -0.343 A  
HETATM   10  C   UNL     1     -10.195  11.327  65.107  1.00  0.00    -0.289 A  
HETATM   11  S   UNL     1      -9.127   9.674  63.518  1.00  0.00    -0.080 SA 
HETATM   12  S   UNL     1     -10.881  11.922  66.555  1.00  0.00    -0.291 S  
HETATM   13  H   UNL     1      -9.030   7.610  64.929  1.00  0.00     0.000 HD 
HETATM   14  O   UNL     1     -12.275  12.099  66.238  1.00  0.00    -0.604 OA 
ENDROOT
BRANCH   3  15
HETATM   15  C   UNL     1     -10.084   8.314  68.453  1.00  0.00    -0.201 C  
HETATM   16  O   UNL     1     -11.014   8.095  69.233  1.00  0.00    -0.111 OA 
HETATM   17  N   UNL     1      -8.846   7.736  68.567  1.00  0.00    -0.131 N  
HETATM   18  H   UNL     1      -8.128   8.001  67.892  1.00  0.00     0.000 HD 
BRANCH  17  19
HETATM   19  C   UNL     1      -8.508   6.802  69.556  1.00  0.00    -0.133 A  
HETATM   20  C   UNL     1      -8.770   5.439  69.442  1.00  0.00    -0.110 A  
HETATM   21  C   UNL     1      -7.924   5.152  71.670  1.00  0.00    -0.114 A  
HETATM   22  C   UNL     1      -8.456   4.600  70.514  1.00  0.00    -0.104 A  
HETATM   23  C   UNL     1      -7.674   6.515  71.683  1.00  0.00    -0.099 A  
HETATM   24  N   UNL     1      -7.914   7.340  70.638  1.00  0.00    -0.098 NA 
ENDBRANCH  17  19
ENDBRANCH   3  15
TORSDOF 2
ENDMDL
MODEL       89
REMARK 921   NORMALIZED FREE ENERGY PREDICTED BY IDOCK:   -4.51 KCAL/MOL
REMARK 922        TOTAL FREE ENERGY PREDICTED BY IDOCK:   -5.40 KCAL/MOL
REMARK 923 INTER-LIGAND FREE ENERGY PREDICTED BY IDOCK:   -5.97 KCAL/MOL
REMARK 924 INTRA-LIGAND FREE ENERGY PREDICTED BY IDOCK:    0.57 KCAL/MOL
REMARK 927      BINDING AFFINITY PREDICTED BY RF-SCORE:    0.00 PKD
ROOT
HETATM    1  C   UNL     1     -11.791  12.552  67.015  1.00  0.00    -0.323 C  
HETATM    2  N   UNL     1     -10.976  11.573  66.288  1.00  0.00    -0.289 N  
HETATM    3  C   UNL     1     -10.335  10.396  66.855  1.00  0.00    -0.240 C  
HETATM    4  C   UNL     1      -8.512   9.708  62.353  1.00  0.00    -0.170 A  
HETATM    5  C   UNL     1      -9.578   9.547  66.106  1.00  0.00    -0.239 C  
HETATM    6  O   UNL     1     -10.187  13.173  64.460  1.00  0.00    -0.368 OA 
HETATM    7  C   UNL     1      -9.320   9.757  64.710  1.00  0.00    -0.265 A  
HETATM    8  O   UNL     1      -8.966   8.410  66.597  1.00  0.00    -0.136 OA 
HETATM    9  C   UNL     1      -9.363  10.766  62.579  1.00  0.00    -0.310 A  
HETATM   10  C   UNL     1      -9.807  10.768  63.923  1.00  0.00    -0.332 A  
HETATM   11  S   UNL     1      -8.284   8.756  63.760  1.00  0.00    -0.138 SA 
HETATM   12  S   UNL     1     -10.870  11.902  64.636  1.00  0.00    -0.327 S  
HETATM   13  H   UNL     1      -8.437   7.819  66.075  1.00  0.00     0.000 HD 
HETATM   14  O   UNL     1     -12.145  11.621  64.027  1.00  0.00    -0.288 OA 
ENDROOT
BRANCH   3  15
HETATM   15  C   UNL     1     -10.388  10.078  68.336  1.00  0.00    -0.191 C  
HETATM   16  O   UNL     1      -9.390   9.597  68.878  1.00  0.00    -0.144 OA 
HETATM   17  N   UNL     1     -11.603  10.202  68.957  1.00  0.00    -0.492 N  
HETATM   18  H   UNL     1     -12.382  10.584  68.419  1.00  0.00     0.000 HD 
BRANCH  17  19
HETATM   19  C   UNL     1     -11.840   9.835  70.289  1.00  0.00    -0.144 A  
HETATM   20  C   UNL     1     -10.952   9.070  71.042  1.00  0.00    -0.352 A  
HETATM   21  C   UNL     1     -12.557   9.075  72.828  1.00  0.00    -0.074 A  
HETATM   22  C   UNL     1     -11.313   8.700  72.339  1.00  0.00    -0.353 A  
HETATM   23  C   UNL     1     -13.364   9.857  72.017  1.00  0.00    -0.432 A  
HETATM   24  N   UNL     1     -13.014  10.278  70.779  1.00  0.00    -0.365 NA 
ENDBRANCH  17  19
ENDBRANCH   3  15
TORSDOF 2
ENDMDL
MODEL       90
REMARK 921   NORMALIZED FREE ENERGY PREDICTED BY IDOCK:   -4.50 KCAL/MOL
REMARK 922        TOTAL FREE ENERGY PREDICTED BY IDOCK:   -5.39 KCAL/MOL
REMARK 923 INTER-LIGAND FREE ENERGY PREDICTED BY IDOCK:   -4.80 KCAL/MOL
REMARK 924 INTRA-LIGAND FREE ENERGY PREDICTED BY IDOCK:   -0.59 KCAL/MOL
REMARK 927      BINDING AFFINITY PREDICTED BY RF-SCORE:    0.00 PKD
ROOT
HETATM    1  C   UNL     1      -5.952  13.350  67.681  1.00  0.00    -0.104 C  
HETATM    2  N   UNL     1      -7.061  14.274  67.943  1.00  0.00    -0.141 N  
HETATM    3  C   UNL     1      -8.460  13.914  68.111  1.00  0.00    -0.171 C  
HETATM    4  C   UNL     1      -9.248  18.741  68.484  1.00  0.00    -0.348 A  
HETATM    5  C   UNL     1      -9.430  14.844  68.334  1.00  0.00    -0.209 C  
HETATM    6  O   UNL     1      -5.994  16.309  66.828  1.00  0.00    -0.323 OA 
HETATM    7  C   UNL     1      -9.162  16.252  68.390  1.00  0.00    -0.203 A  
HETATM    8  O   UNL     1     -10.766  14.546  68.517  1.00  0.00    -0.236 OA 
HETATM    9  C   UNL     1      -7.960  18.280  68.330  1.00  0.00    -0.320 A  
HETATM   10  C   UNL     1      -7.941  16.866  68.281  1.00  0.00    -0.211 A  
HETATM   11  S   UNL     1     -10.382  17.459  68.570  1.00  0.00    -0.378 SA 
HETATM   12  S   UNL     1      -6.558  15.878  68.096  1.00  0.00    -0.135 S  
HETATM   13  H   UNL     1     -11.443  15.195  68.672  1.00  0.00     0.000 HD 
HETATM   14  O   UNL     1      -5.852  16.023  69.343  1.00  0.00    -0.118 OA 
ENDROOT
BRANCH   3  15
HETATM   15  C   UNL     1      -8.954  12.489  67.958  1.00  0.00    -0.192 C  
HETATM   16  O   UNL     1      -9.723  12.220  67.032  1.00  0.00    -0.198 OA 
HETATM   17  N   UNL     1      -8.638  11.609  68.961  1.00  0.00    -0.371 N  
HETATM   18  H   UNL     1      -8.017  11.930  69.704  1.00  0.00     0.000 HD 
BRANCH  17  19
HETATM   19  C   UNL     1      -9.117  10.293  69.025  1.00  0.00    -0.183 A  
HETATM   20  C   UNL     1      -8.560   9.239  68.304  1.00  0.00    -0.125 A  
HETATM   21  C   UNL     1     -10.299   7.819  69.152  1.00  0.00    -0.219 A  
HETATM   22  C   UNL     1      -9.154   7.979  68.385  1.00  0.00    -0.136 A  
HETATM   23  C   UNL     1     -10.768   8.917  69.854  1.00  0.00    -0.227 A  
HETATM   24  N   UNL     1     -10.178  10.135  69.840  1.00  0.00    -0.249 NA 
ENDBRANCH  17  19
ENDBRANCH   3  15
TORSDOF 2
ENDMDL
MODEL       91
REMARK 921   NORMALIZED FREE ENERGY PREDICTED BY IDOCK:   -4.50 KCAL/MOL
REMARK 922        TOTAL FREE ENERGY PREDICTED BY IDOCK:   -5.39 KCAL/MOL
REMARK 923 INTER-LIGAND FREE ENERGY PREDICTED BY IDOCK:   -4.72 KCAL/MOL
REMARK 924 INTRA-LIGAND FREE ENERGY PREDICTED BY IDOCK:   -0.67 KCAL/MOL
REMARK 927      BINDING AFFINITY PREDICTED BY RF-SCORE:    0.00 PKD
ROOT
HETATM    1  C   UNL     1      -7.587   6.574  66.631  1.00  0.00    -0.094 C  
HETATM    2  N   UNL     1      -8.323   7.737  66.124  1.00  0.00    -0.121 N  
HETATM    3  C   UNL     1      -9.410   8.429  66.800  1.00  0.00    -0.184 C  
HETATM    4  C   UNL     1      -9.648  11.186  62.749  1.00  0.00    -0.303 A  
HETATM    5  C   UNL     1     -10.053   9.494  66.245  1.00  0.00    -0.257 C  
HETATM    6  O   UNL     1      -7.963   7.235  63.646  1.00  0.00    -0.129 OA 
HETATM    7  C   UNL     1      -9.737  10.001  64.941  1.00  0.00    -0.307 A  
HETATM    8  O   UNL     1     -11.076  10.191  66.857  1.00  0.00    -0.116 OA 
HETATM    9  C   UNL     1      -8.682  10.209  62.843  1.00  0.00    -0.209 A  
HETATM   10  C   UNL     1      -8.755   9.555  64.096  1.00  0.00    -0.215 A  
HETATM   11  S   UNL     1     -10.599  11.283  64.171  1.00  0.00    -0.374 SA 
HETATM   12  S   UNL     1      -7.750   8.280  64.632  1.00  0.00    -0.124 S  
HETATM   13  H   UNL     1     -11.524  10.934  66.470  1.00  0.00     0.000 HD 
HETATM   14  O   UNL     1      -6.466   8.902  64.830  1.00  0.00    -0.065 OA 
ENDROOT
BRANCH   3  15
HETATM   15  C   UNL     1      -9.968   7.959  68.129  1.00  0.00    -0.180 C  
HETATM   16  O   UNL     1     -10.627   6.917  68.164  1.00  0.00    -0.193 OA 
HETATM   17  N   UNL     1      -9.837   8.809  69.196  1.00  0.00    -0.176 N  
HETATM   18  H   UNL     1      -9.297   9.665  69.065  1.00  0.00     0.000 HD 
BRANCH  17  19
HETATM   19  C   UNL     1     -10.401   8.572  70.457  1.00  0.00    -0.200 A  
HETATM   20  C   UNL     1      -9.723   7.930  71.491  1.00  0.00    -0.201 A  
HETATM   21  C   UNL     1     -11.731   8.051  72.801  1.00  0.00    -0.352 A  
HETATM   22  C   UNL     1     -10.398   7.681  72.687  1.00  0.00    -0.332 A  
HETATM   23  C   UNL     1     -12.315   8.708  71.731  1.00  0.00    -0.346 A  
HETATM   24  N   UNL     1     -11.668   9.013  70.583  1.00  0.00    -0.244 NA 
ENDBRANCH  17  19
ENDBRANCH   3  15
TORSDOF 2
ENDMDL
MODEL       92
REMARK 921   NORMALIZED FREE ENERGY PREDICTED BY IDOCK:   -4.49 KCAL/MOL
REMARK 922        TOTAL FREE ENERGY PREDICTED BY IDOCK:   -5.38 KCAL/MOL
REMARK 923 INTER-LIGAND FREE ENERGY PREDICTED BY IDOCK:   -5.05 KCAL/MOL
REMARK 924 INTRA-LIGAND FREE ENERGY PREDICTED BY IDOCK:   -0.33 KCAL/MOL
REMARK 927      BINDING AFFINITY PREDICTED BY RF-SCORE:    0.00 PKD
ROOT
HETATM    1  C   UNL     1     -12.410  10.742  69.108  1.00  0.00     0.103 C  
HETATM    2  N   UNL     1     -11.195  11.439  68.669  1.00  0.00    -0.219 N  
HETATM    3  C   UNL     1      -9.825  11.032  68.939  1.00  0.00    -0.177 C  
HETATM    4  C   UNL     1      -8.559  15.158  66.606  1.00  0.00    -0.243 A  
HETATM    5  C   UNL     1      -8.753  11.752  68.507  1.00  0.00    -0.118 C  
HETATM    6  O   UNL     1     -12.241  13.766  68.544  1.00  0.00    -0.348 OA 
HETATM    7  C   UNL     1      -8.882  12.983  67.782  1.00  0.00    -0.188 A  
HETATM    8  O   UNL     1      -7.437  11.395  68.725  1.00  0.00    -0.111 OA 
HETATM    9  C   UNL     1      -9.892  14.826  66.711  1.00  0.00    -0.263 A  
HETATM   10  C   UNL     1     -10.044  13.588  67.380  1.00  0.00    -0.237 A  
HETATM   11  S   UNL     1      -7.546  13.969  67.310  1.00  0.00     0.036 SA 
HETATM   12  S   UNL     1     -11.522  12.802  67.729  1.00  0.00    -0.347 S  
HETATM   13  H   UNL     1      -6.689  11.898  68.423  1.00  0.00     0.000 HD 
HETATM   14  O   UNL     1     -12.004  12.370  66.442  1.00  0.00    -0.559 OA 
ENDROOT
BRANCH   3  15
HETATM   15  C   UNL     1      -9.491   9.828  69.798  1.00  0.00    -0.228 C  
HETATM   16  O   UNL     1      -8.759   8.951  69.335  1.00  0.00    -0.136 OA 
HETATM   17  N   UNL     1     -10.154   9.712  70.992  1.00  0.00    -0.304 N  
HETATM   18  H   UNL     1     -10.763  10.477  71.281  1.00  0.00     0.000 HD 
BRANCH  17  19
HETATM   19  C   UNL     1     -10.044   8.601  71.841  1.00  0.00    -0.328 A  
HETATM   20  C   UNL     1     -10.975   7.566  71.871  1.00  0.00    -0.272 A  
HETATM   21  C   UNL     1      -9.744   6.594  73.689  1.00  0.00    -0.226 A  
HETATM   22  C   UNL     1     -10.809   6.538  72.802  1.00  0.00    -0.280 A  
HETATM   23  C   UNL     1      -8.854   7.649  73.568  1.00  0.00    -0.230 A  
HETATM   24  N   UNL     1      -8.958   8.627  72.638  1.00  0.00    -0.375 NA 
ENDBRANCH  17  19
ENDBRANCH   3  15
TORSDOF 2
ENDMDL
MODEL       93
REMARK 921   NORMALIZED FREE ENERGY PREDICTED BY IDOCK:   -4.49 KCAL/MOL
REMARK 922        TOTAL FREE ENERGY PREDICTED BY IDOCK:   -5.38 KCAL/MOL
REMARK 923 INTER-LIGAND FREE ENERGY PREDICTED BY IDOCK:   -4.91 KCAL/MOL
REMARK 924 INTRA-LIGAND FREE ENERGY PREDICTED BY IDOCK:   -0.47 KCAL/MOL
REMARK 927      BINDING AFFINITY PREDICTED BY RF-SCORE:    0.00 PKD
ROOT
HETATM    1  C   UNL     1     -10.428  10.887  63.515  1.00  0.00    -0.199 C  
HETATM    2  N   UNL     1     -10.675  11.350  64.886  1.00  0.00    -0.298 N  
HETATM    3  C   UNL     1     -10.402  10.607  66.107  1.00  0.00    -0.227 C  
HETATM    4  C   UNL     1     -12.395  14.447  68.418  1.00  0.00     0.007 A  
HETATM    5  C   UNL     1     -10.680  11.108  67.342  1.00  0.00    -0.250 C  
HETATM    6  O   UNL     1     -12.586  12.940  64.302  1.00  0.00    -0.604 OA 
HETATM    7  C   UNL     1     -11.292  12.390  67.543  1.00  0.00    -0.315 A  
HETATM    8  O   UNL     1     -10.424  10.446  68.527  1.00  0.00    -0.167 OA 
HETATM    9  C   UNL     1     -12.268  14.479  67.048  1.00  0.00    -0.197 A  
HETATM   10  C   UNL     1     -11.638  13.301  66.579  1.00  0.00    -0.350 A  
HETATM   11  S   UNL     1     -11.748  13.009  69.088  1.00  0.00    -0.327 SA 
HETATM   12  S   UNL     1     -11.286  12.922  64.950  1.00  0.00    -0.314 S  
HETATM   13  H   UNL     1     -10.618  10.796  69.388  1.00  0.00     0.000 HD 
HETATM   14  O   UNL     1     -10.235  13.840  64.594  1.00  0.00    -0.412 OA 
ENDROOT
BRANCH   3  15
HETATM   15  C   UNL     1      -9.876   9.185  66.090  1.00  0.00    -0.293 C  
HETATM   16  O   UNL     1     -10.527   8.302  66.654  1.00  0.00    -0.305 OA 
HETATM   17  N   UNL     1      -8.618   8.992  65.579  1.00  0.00    -0.157 N  
HETATM   18  H   UNL     1      -8.143   9.790  65.157  1.00  0.00     0.000 HD 
BRANCH  17  19
HETATM   19  C   UNL     1      -7.947   7.762  65.601  1.00  0.00    -0.118 A  
HETATM   20  C   UNL     1      -7.810   6.944  64.482  1.00  0.00    -0.115 A  
HETATM   21  C   UNL     1      -6.743   5.311  65.881  1.00  0.00    -0.053 A  
HETATM   22  C   UNL     1      -7.182   5.705  64.625  1.00  0.00    -0.062 A  
HETATM   23  C   UNL     1      -6.898   6.201  66.931  1.00  0.00    -0.062 A  
HETATM   24  N   UNL     1      -7.450   7.430  66.809  1.00  0.00    -0.094 NA 
ENDBRANCH  17  19
ENDBRANCH   3  15
TORSDOF 2
ENDMDL
MODEL       94
REMARK 921   NORMALIZED FREE ENERGY PREDICTED BY IDOCK:   -4.42 KCAL/MOL
REMARK 922        TOTAL FREE ENERGY PREDICTED BY IDOCK:   -5.30 KCAL/MOL
REMARK 923 INTER-LIGAND FREE ENERGY PREDICTED BY IDOCK:   -4.62 KCAL/MOL
REMARK 924 INTRA-LIGAND FREE ENERGY PREDICTED BY IDOCK:   -0.67 KCAL/MOL
REMARK 927      BINDING AFFINITY PREDICTED BY RF-SCORE:    0.00 PKD
ROOT
HETATM    1  C   UNL     1      -6.417  12.306  67.109  1.00  0.00    -0.117 C  
HETATM    2  N   UNL     1      -7.686  12.955  67.459  1.00  0.00    -0.163 N  
HETATM    3  C   UNL     1      -9.014  12.379  67.319  1.00  0.00    -0.190 C  
HETATM    4  C   UNL     1     -10.636  16.726  68.910  1.00  0.00    -0.350 A  
HETATM    5  C   UNL     1     -10.144  13.062  67.653  1.00  0.00    -0.217 C  
HETATM    6  O   UNL     1      -6.873  15.352  67.121  1.00  0.00    -0.244 OA 
HETATM    7  C   UNL     1     -10.123  14.412  68.137  1.00  0.00    -0.226 A  
HETATM    8  O   UNL     1     -11.422  12.549  67.553  1.00  0.00    -0.293 OA 
HETATM    9  C   UNL     1      -9.280  16.507  68.818  1.00  0.00    -0.252 A  
HETATM   10  C   UNL     1      -9.018  15.187  68.379  1.00  0.00    -0.183 A  
HETATM   11  S   UNL     1     -11.541  15.338  68.472  1.00  0.00    -0.341 SA 
HETATM   12  S   UNL     1      -7.477  14.493  68.124  1.00  0.00    -0.142 S  
HETATM   13  H   UNL     1     -12.210  13.026  67.786  1.00  0.00     0.000 HD 
HETATM   14  O   UNL     1      -6.930  14.351  69.449  1.00  0.00    -0.132 OA 
ENDROOT
BRANCH   3  15
HETATM   15  C   UNL     1      -9.244  11.011  66.705  1.00  0.00    -0.161 C  
HETATM   16  O   UNL     1      -9.629  10.940  65.536  1.00  0.00    -0.198 OA 
HETATM   17  N   UNL     1      -9.158   9.930  67.543  1.00  0.00    -0.134 N  
HETATM   18  H   UNL     1      -8.858  10.090  68.505  1.00  0.00     0.000 HD 
BRANCH  17  19
HETATM   19  C   UNL     1      -9.459   8.617  67.156  1.00  0.00    -0.160 A  
HETATM   20  C   UNL     1     -10.731   8.059  67.264  1.00  0.00    -0.280 A  
HETATM   21  C   UNL     1      -9.814   5.975  66.502  1.00  0.00    -0.186 A  
HETATM   22  C   UNL     1     -10.910   6.719  66.914  1.00  0.00    -0.402 A  
HETATM   23  C   UNL     1      -8.593   6.620  66.401  1.00  0.00    -0.130 A  
HETATM   24  N   UNL     1      -8.402   7.931  66.678  1.00  0.00    -0.121 NA 
ENDBRANCH  17  19
ENDBRANCH   3  15
TORSDOF 2
ENDMDL
MODEL       95
REMARK 921   NORMALIZED FREE ENERGY PREDICTED BY IDOCK:   -4.38 KCAL/MOL
REMARK 922        TOTAL FREE ENERGY PREDICTED BY IDOCK:   -5.26 KCAL/MOL
REMARK 923 INTER-LIGAND FREE ENERGY PREDICTED BY IDOCK:   -4.62 KCAL/MOL
REMARK 924 INTRA-LIGAND FREE ENERGY PREDICTED BY IDOCK:   -0.64 KCAL/MOL
REMARK 927      BINDING AFFINITY PREDICTED BY RF-SCORE:    0.00 PKD
ROOT
HETATM    1  C   UNL     1     -11.713  11.506  68.801  1.00  0.00    -0.334 C  
HETATM    2  N   UNL     1     -10.817  12.521  68.233  1.00  0.00    -0.224 N  
HETATM    3  C   UNL     1      -9.417  12.335  67.885  1.00  0.00    -0.200 C  
HETATM    4  C   UNL     1      -9.483  17.100  66.722  1.00  0.00    -0.267 A  
HETATM    5  C   UNL     1      -8.653  13.341  67.376  1.00  0.00    -0.204 C  
HETATM    6  O   UNL     1     -12.028  14.542  69.218  1.00  0.00    -0.310 OA 
HETATM    7  C   UNL     1      -9.151  14.671  67.173  1.00  0.00    -0.223 A  
HETATM    8  O   UNL     1      -7.326  13.205  67.017  1.00  0.00    -0.370 OA 
HETATM    9  C   UNL     1     -10.644  16.496  67.151  1.00  0.00    -0.270 A  
HETATM   10  C   UNL     1     -10.426  15.119  67.397  1.00  0.00    -0.264 A  
HETATM   11  S   UNL     1      -8.181  15.990  66.626  1.00  0.00    -0.290 SA 
HETATM   12  S   UNL     1     -11.590  13.994  67.946  1.00  0.00    -0.363 S  
HETATM   13  H   UNL     1      -6.794  13.907  66.662  1.00  0.00     0.000 HD 
HETATM   14  O   UNL     1     -12.483  13.836  66.826  1.00  0.00    -0.366 OA 
ENDROOT
BRANCH   3  15
HETATM   15  C   UNL     1      -8.682  11.035  68.148  1.00  0.00    -0.141 C  
HETATM   16  O   UNL     1      -7.825  11.004  69.035  1.00  0.00    -0.138 OA 
HETATM   17  N   UNL     1      -8.906  10.004  67.273  1.00  0.00    -0.134 N  
HETATM   18  H   UNL     1      -9.615  10.132  66.551  1.00  0.00     0.000 HD 
BRANCH  17  19
HETATM   19  C   UNL     1      -8.217   8.784  67.311  1.00  0.00    -0.104 A  
HETATM   20  C   UNL     1      -8.652   7.682  68.043  1.00  0.00    -0.123 A  
HETATM   21  C   UNL     1      -6.644   6.536  67.396  1.00  0.00    -0.061 A  
HETATM   22  C   UNL     1      -7.857   6.534  68.070  1.00  0.00    -0.105 A  
HETATM   23  C   UNL     1      -6.305   7.668  66.673  1.00  0.00    -0.046 A  
HETATM   24  N   UNL     1      -7.083   8.772  66.583  1.00  0.00    -0.080 NA 
ENDBRANCH  17  19
ENDBRANCH   3  15
TORSDOF 2
ENDMDL
MODEL       96
REMARK 921   NORMALIZED FREE ENERGY PREDICTED BY IDOCK:   -4.38 KCAL/MOL
REMARK 922        TOTAL FREE ENERGY PREDICTED BY IDOCK:   -5.26 KCAL/MOL
REMARK 923 INTER-LIGAND FREE ENERGY PREDICTED BY IDOCK:   -4.58 KCAL/MOL
REMARK 924 INTRA-LIGAND FREE ENERGY PREDICTED BY IDOCK:   -0.68 KCAL/MOL
REMARK 927      BINDING AFFINITY PREDICTED BY RF-SCORE:    0.00 PKD
ROOT
HETATM    1  C   UNL     1      -8.129  13.277  68.412  1.00  0.00    -0.134 C  
HETATM    2  N   UNL     1      -8.993  12.876  67.296  1.00  0.00    -0.199 N  
HETATM    3  C   UNL     1      -9.096  11.543  66.723  1.00  0.00    -0.181 C  
HETATM    4  C   UNL     1     -12.197  13.589  63.519  1.00  0.00    -0.346 A  
HETATM    5  C   UNL     1      -9.915  11.263  65.671  1.00  0.00    -0.247 C  
HETATM    6  O   UNL     1      -9.091  15.173  66.183  1.00  0.00    -0.295 OA 
HETATM    7  C   UNL     1     -10.716  12.259  65.021  1.00  0.00    -0.298 A  
HETATM    8  O   UNL     1     -10.056  10.011  65.107  1.00  0.00    -0.325 OA 
HETATM    9  C   UNL     1     -11.659  14.363  64.523  1.00  0.00    -0.393 A  
HETATM   10  C   UNL     1     -10.825  13.583  65.360  1.00  0.00    -0.294 A  
HETATM   11  S   UNL     1     -11.685  11.957  63.625  1.00  0.00    -0.428 SA 
HETATM   12  S   UNL     1      -9.956  14.139  66.723  1.00  0.00    -0.274 S  
HETATM   13  H   UNL     1     -10.628   9.816  64.373  1.00  0.00     0.000 HD 
HETATM   14  O   UNL     1     -10.976  14.421  67.700  1.00  0.00    -0.274 OA 
ENDROOT
BRANCH   3  15
HETATM   15  C   UNL     1      -8.232  10.390  67.194  1.00  0.00    -0.122 C  
HETATM   16  O   UNL     1      -7.098  10.264  66.725  1.00  0.00    -0.088 OA 
HETATM   17  N   UNL     1      -8.826   9.457  68.005  1.00  0.00    -0.124 N  
HETATM   18  H   UNL     1      -9.780   9.632  68.320  1.00  0.00     0.000 HD 
BRANCH  17  19
HETATM   19  C   UNL     1      -8.198   8.277  68.426  1.00  0.00    -0.132 A  
HETATM   20  C   UNL     1      -8.190   7.104  67.674  1.00  0.00    -0.114 A  
HETATM   21  C   UNL     1      -7.061   6.018  69.494  1.00  0.00    -0.069 A  
HETATM   22  C   UNL     1      -7.595   5.962  68.214  1.00  0.00    -0.090 A  
HETATM   23  C   UNL     1      -7.092   7.234  70.157  1.00  0.00    -0.065 A  
HETATM   24  N   UNL     1      -7.610   8.370  69.634  1.00  0.00    -0.087 NA 
ENDBRANCH  17  19
ENDBRANCH   3  15
TORSDOF 2
ENDMDL
MODEL       97
REMARK 921   NORMALIZED FREE ENERGY PREDICTED BY IDOCK:   -4.38 KCAL/MOL
REMARK 922        TOTAL FREE ENERGY PREDICTED BY IDOCK:   -5.25 KCAL/MOL
REMARK 923 INTER-LIGAND FREE ENERGY PREDICTED BY IDOCK:   -4.79 KCAL/MOL
REMARK 924 INTRA-LIGAND FREE ENERGY PREDICTED BY IDOCK:   -0.47 KCAL/MOL
REMARK 927      BINDING AFFINITY PREDICTED BY RF-SCORE:    0.00 PKD
ROOT
HETATM    1  C   UNL     1     -10.595  10.787  69.792  1.00  0.00    -0.140 C  
HETATM    2  N   UNL     1     -10.289   9.352  69.821  1.00  0.00    -0.209 N  
HETATM    3  C   UNL     1      -9.628   8.592  68.772  1.00  0.00    -0.149 C  
HETATM    4  C   UNL     1     -10.398   4.699  71.655  1.00  0.00    -0.119 A  
HETATM    5  C   UNL     1      -9.399   7.253  68.876  1.00  0.00    -0.144 C  
HETATM    6  O   UNL     1     -12.186   8.698  71.401  1.00  0.00    -0.293 OA 
HETATM    7  C   UNL     1      -9.818   6.477  70.007  1.00  0.00    -0.165 A  
HETATM    8  O   UNL     1      -8.761   6.495  67.914  1.00  0.00    -0.117 OA 
HETATM    9  C   UNL     1     -10.786   5.946  72.091  1.00  0.00    -0.278 A  
HETATM   10  C   UNL     1     -10.443   6.935  71.138  1.00  0.00    -0.212 A  
HETATM   11  S   UNL     1      -9.633   4.765  70.123  1.00  0.00    -0.215 SA 
HETATM   12  S   UNL     1     -10.741   8.613  71.270  1.00  0.00    -0.278 S  
HETATM   13  H   UNL     1      -8.602   5.562  67.987  1.00  0.00     0.000 HD 
HETATM   14  O   UNL     1      -9.845   9.050  72.310  1.00  0.00    -0.218 OA 
ENDROOT
BRANCH   3  15
HETATM   15  C   UNL     1      -9.228   9.214  67.449  1.00  0.00    -0.130 C  
HETATM   16  O   UNL     1      -8.133   9.775  67.361  1.00  0.00    -0.112 OA 
HETATM   17  N   UNL     1     -10.181   9.252  66.464  1.00  0.00    -0.266 N  
HETATM   18  H   UNL     1     -11.070   8.784  66.638  1.00  0.00     0.000 HD 
BRANCH  17  19
HETATM   19  C   UNL     1     -10.005   9.897  65.232  1.00  0.00    -0.249 A  
HETATM   20  C   UNL     1     -10.684  11.059  64.872  1.00  0.00    -0.278 A  
HETATM   21  C   UNL     1      -9.651  10.918  62.709  1.00  0.00    -0.339 A  
HETATM   22  C   UNL     1     -10.488  11.584  63.593  1.00  0.00    -0.483 A  
HETATM   23  C   UNL     1      -8.998   9.784  63.163  1.00  0.00    -0.251 A  
HETATM   24  N   UNL     1      -9.124   9.286  64.415  1.00  0.00    -0.139 NA 
ENDBRANCH  17  19
ENDBRANCH   3  15
TORSDOF 2
ENDMDL
MODEL       98
REMARK 921   NORMALIZED FREE ENERGY PREDICTED BY IDOCK:   -4.30 KCAL/MOL
REMARK 922        TOTAL FREE ENERGY PREDICTED BY IDOCK:   -5.17 KCAL/MOL
REMARK 923 INTER-LIGAND FREE ENERGY PREDICTED BY IDOCK:   -4.62 KCAL/MOL
REMARK 924 INTRA-LIGAND FREE ENERGY PREDICTED BY IDOCK:   -0.55 KCAL/MOL
REMARK 927      BINDING AFFINITY PREDICTED BY RF-SCORE:    0.00 PKD
ROOT
HETATM    1  C   UNL     1     -10.549   9.411  70.233  1.00  0.00    -0.250 C  
HETATM    2  N   UNL     1      -9.936   9.195  68.917  1.00  0.00    -0.175 N  
HETATM    3  C   UNL     1      -9.945  10.128  67.800  1.00  0.00    -0.168 C  
HETATM    4  C   UNL     1      -7.609   6.586  65.338  1.00  0.00    -0.089 A  
HETATM    5  C   UNL     1      -9.365   9.836  66.603  1.00  0.00    -0.158 C  
HETATM    6  O   UNL     1     -10.096   6.647  68.952  1.00  0.00    -0.155 OA 
HETATM    7  C   UNL     1      -8.728   8.580  66.332  1.00  0.00    -0.133 A  
HETATM    8  O   UNL     1      -9.334  10.697  65.523  1.00  0.00    -0.184 OA 
HETATM    9  C   UNL     1      -7.929   6.386  66.662  1.00  0.00    -0.109 A  
HETATM   10  C   UNL     1      -8.560   7.533  67.200  1.00  0.00    -0.121 A  
HETATM   11  S   UNL     1      -8.073   8.144  64.795  1.00  0.00    -0.137 SA 
HETATM   12  S   UNL     1      -9.127   7.718  68.802  1.00  0.00    -0.139 S  
HETATM   13  H   UNL     1      -8.929  10.493  64.688  1.00  0.00     0.000 HD 
HETATM   14  O   UNL     1      -7.926   7.788  69.595  1.00  0.00    -0.111 OA 
ENDROOT
BRANCH   3  15
HETATM   15  C   UNL     1     -10.680  11.453  67.856  1.00  0.00    -0.200 C  
HETATM   16  O   UNL     1     -11.627  11.642  67.090  1.00  0.00    -0.491 OA 
HETATM   17  N   UNL     1     -10.144  12.429  68.656  1.00  0.00    -0.369 N  
HETATM   18  H   UNL     1      -9.340  12.188  69.236  1.00  0.00     0.000 HD 
BRANCH  17  19
HETATM   19  C   UNL     1     -10.637  13.740  68.724  1.00  0.00    -0.239 A  
HETATM   20  C   UNL     1     -11.809  14.083  69.393  1.00  0.00    -0.381 A  
HETATM   21  C   UNL     1     -11.528  16.333  68.605  1.00  0.00    -0.288 A  
HETATM   22  C   UNL     1     -12.250  15.407  69.344  1.00  0.00    -0.250 A  
HETATM   23  C   UNL     1     -10.360  15.907  67.994  1.00  0.00    -0.262 A  
HETATM   24  N   UNL     1      -9.879  14.644  68.074  1.00  0.00    -0.213 NA 
ENDBRANCH  17  19
ENDBRANCH   3  15
TORSDOF 2
ENDMDL
MODEL       99
REMARK 921   NORMALIZED FREE ENERGY PREDICTED BY IDOCK:   -4.30 KCAL/MOL
REMARK 922        TOTAL FREE ENERGY PREDICTED BY IDOCK:   -5.17 KCAL/MOL
REMARK 923 INTER-LIGAND FREE ENERGY PREDICTED BY IDOCK:   -4.54 KCAL/MOL
REMARK 924 INTRA-LIGAND FREE ENERGY PREDICTED BY IDOCK:   -0.63 KCAL/MOL
REMARK 927      BINDING AFFINITY PREDICTED BY RF-SCORE:    0.00 PKD
ROOT
HETATM    1  C   UNL     1     -11.032   5.891  70.697  1.00  0.00    -0.287 C  
HETATM    2  N   UNL     1     -11.226   7.324  70.446  1.00  0.00    -0.275 N  
HETATM    3  C   UNL     1     -10.639   8.095  69.361  1.00  0.00    -0.200 C  
HETATM    4  C   UNL     1     -12.846  11.953  71.436  1.00  0.00    -0.307 A  
HETATM    5  C   UNL     1     -10.861   9.431  69.213  1.00  0.00    -0.172 C  
HETATM    6  O   UNL     1     -11.700   7.968  72.871  1.00  0.00    -0.369 OA 
HETATM    7  C   UNL     1     -11.659  10.194  70.128  1.00  0.00    -0.277 A  
HETATM    8  O   UNL     1     -10.339  10.198  68.190  1.00  0.00    -0.166 OA 
HETATM    9  C   UNL     1     -13.022  10.702  71.985  1.00  0.00    -0.466 A  
HETATM   10  C   UNL     1     -12.340   9.725  71.222  1.00  0.00    -0.371 A  
HETATM   11  S   UNL     1     -11.875  11.903  70.025  1.00  0.00    -0.284 SA 
HETATM   12  S   UNL     1     -12.285   8.047  71.544  1.00  0.00    -0.305 S  
HETATM   13  H   UNL     1     -10.493  11.130  68.088  1.00  0.00     0.000 HD 
HETATM   14  O   UNL     1     -13.622   7.591  71.263  1.00  0.00    -0.331 OA 
ENDROOT
BRANCH   3  15
HETATM   15  C   UNL     1      -9.666   7.488  68.369  1.00  0.00    -0.156 C  
HETATM   16  O   UNL     1     -10.106   6.776  67.463  1.00  0.00    -0.146 OA 
HETATM   17  N   UNL     1      -8.330   7.643  68.633  1.00  0.00    -0.128 N  
HETATM   18  H   UNL     1      -8.061   8.228  69.424  1.00  0.00     0.000 HD 
BRANCH  17  19
HETATM   19  C   UNL     1      -7.311   7.043  67.880  1.00  0.00    -0.097 A  
HETATM   20  C   UNL     1      -6.800   7.595  66.708  1.00  0.00    -0.067 A  
HETATM   21  C   UNL     1      -5.434   5.637  66.454  1.00  0.00    -0.013 A  
HETATM   22  C   UNL     1      -5.832   6.885  65.994  1.00  0.00    -0.034 A  
HETATM   23  C   UNL     1      -5.978   5.179  67.642  1.00  0.00    -0.022 A  
HETATM   24  N   UNL     1      -6.873   5.873  68.383  1.00  0.00    -0.064 NA 
ENDBRANCH  17  19
ENDBRANCH   3  15
TORSDOF 2
ENDMDL
MODEL      100
REMARK 921   NORMALIZED FREE ENERGY PREDICTED BY IDOCK:   -4.27 KCAL/MOL
REMARK 922        TOTAL FREE ENERGY PREDICTED BY IDOCK:   -5.13 KCAL/MOL
REMARK 923 INTER-LIGAND FREE ENERGY PREDICTED BY IDOCK:   -4.64 KCAL/MOL
REMARK 924 INTRA-LIGAND FREE ENERGY PREDICTED BY IDOCK:   -0.49 KCAL/MOL
REMARK 927      BINDING AFFINITY PREDICTED BY RF-SCORE:    0.00 PKD
ROOT
HETATM    1  C   UNL     1      -7.211  10.347  68.423  1.00  0.00    -0.080 C  
HETATM    2  N   UNL     1      -7.885   9.085  68.093  1.00  0.00    -0.100 N  
HETATM    3  C   UNL     1      -9.249   8.939  67.610  1.00  0.00    -0.136 C  
HETATM    4  C   UNL     1      -8.383   4.115  67.811  1.00  0.00    -0.094 A  
HETATM    5  C   UNL     1      -9.802   7.723  67.346  1.00  0.00    -0.175 C  
HETATM    6  O   UNL     1      -6.520   7.620  69.679  1.00  0.00    -0.031 OA 
HETATM    7  C   UNL     1      -9.103   6.488  67.551  1.00  0.00    -0.115 A  
HETATM    8  O   UNL     1     -11.086   7.538  66.870  1.00  0.00    -0.501 OA 
HETATM    9  C   UNL     1      -7.375   4.993  68.138  1.00  0.00    -0.074 A  
HETATM   10  C   UNL     1      -7.810   6.331  67.980  1.00  0.00    -0.104 A  
HETATM   11  S   UNL     1      -9.810   4.930  67.322  1.00  0.00    -0.183 SA 
HETATM   12  S   UNL     1      -6.885   7.738  68.278  1.00  0.00    -0.069 S  
HETATM   13  H   UNL     1     -11.471   6.690  66.686  1.00  0.00     0.000 HD 
HETATM   14  O   UNL     1      -5.904   7.744  67.224  1.00  0.00    -0.035 OA 
ENDROOT
BRANCH   3  15
HETATM   15  C   UNL     1     -10.185  10.122  67.453  1.00  0.00    -0.218 C  
HETATM   16  O   UNL     1     -11.159  10.215  68.205  1.00  0.00    -0.266 OA 
HETATM   17  N   UNL     1      -9.977  10.942  66.375  1.00  0.00    -0.213 N  
HETATM   18  H   UNL     1      -9.159  10.770  65.791  1.00  0.00     0.000 HD 
BRANCH  17  19
HETATM   19  C   UNL     1     -10.824  12.004  66.027  1.00  0.00    -0.289 A  
HETATM   20  C   UNL     1     -11.016  13.125  66.832  1.00  0.00    -0.295 A  
HETATM   21  C   UNL     1     -12.650  13.901  65.254  1.00  0.00    -0.508 A  
HETATM   22  C   UNL     1     -11.934  14.096  66.426  1.00  0.00    -0.457 A  
HETATM   23  C   UNL     1     -12.374  12.769  64.505  1.00  0.00    -0.445 A  
HETATM   24  N   UNL     1     -11.449  11.842  64.845  1.00  0.00    -0.251 NA 
ENDBRANCH  17  19
ENDBRANCH   3  15
TORSDOF 2
ENDMDL
MODEL      101
REMARK 921   NORMALIZED FREE ENERGY PREDICTED BY IDOCK:   -4.18 KCAL/MOL
REMARK 922        TOTAL FREE ENERGY PREDICTED BY IDOCK:   -5.03 KCAL/MOL
REMARK 923 INTER-LIGAND FREE ENERGY PREDICTED BY IDOCK:   -4.40 KCAL/MOL
REMARK 924 INTRA-LIGAND FREE ENERGY PREDICTED BY IDOCK:   -0.62 KCAL/MOL
REMARK 927      BINDING AFFINITY PREDICTED BY RF-SCORE:    0.00 PKD
ROOT
HETATM    1  C   UNL     1     -12.135  12.312  68.191  1.00  0.00    -0.013 C  
HETATM    2  N   UNL     1     -11.495  11.266  68.996  1.00  0.00    -0.271 N  
HETATM    3  C   UNL     1     -10.221  10.621  68.713  1.00  0.00    -0.190 C  
HETATM    4  C   UNL     1     -11.177   7.887  72.672  1.00  0.00    -0.398 A  
HETATM    5  C   UNL     1      -9.708   9.642  69.508  1.00  0.00    -0.203 C  
HETATM    6  O   UNL     1     -13.650  10.319  69.985  1.00  0.00     0.207 OA 
HETATM    7  C   UNL     1     -10.390   9.142  70.667  1.00  0.00    -0.246 A  
HETATM    8  O   UNL     1      -8.497   9.015  69.288  1.00  0.00    -0.122 OA 
HETATM    9  C   UNL     1     -12.060   8.879  72.311  1.00  0.00    -0.392 A  
HETATM   10  C   UNL     1     -11.588   9.575  71.172  1.00  0.00    -0.367 A  
HETATM   11  S   UNL     1      -9.813   7.834  71.635  1.00  0.00    -0.167 SA 
HETATM   12  S   UNL     1     -12.370  10.876  70.386  1.00  0.00    -0.353 S  
HETATM   13  H   UNL     1      -8.140   8.332  69.842  1.00  0.00     0.000 HD 
HETATM   14  O   UNL     1     -12.262  11.968  71.319  1.00  0.00    -0.184 OA 
ENDROOT
BRANCH   3  15
HETATM   15  C   UNL     1      -9.418  10.927  67.464  1.00  0.00    -0.155 C  
HETATM   16  O   UNL     1      -8.831  12.008  67.383  1.00  0.00    -0.165 OA 
HETATM   17  N   UNL     1      -9.520  10.039  66.424  1.00  0.00    -0.177 N  
HETATM   18  H   UNL     1     -10.052   9.182  66.575  1.00  0.00     0.000 HD 
BRANCH  17  19
HETATM   19  C   UNL     1      -8.935  10.239  65.167  1.00  0.00    -0.191 A  
HETATM   20  C   UNL     1      -9.607  10.821  64.094  1.00  0.00    -0.333 A  
HETATM   21  C   UNL     1      -7.676  10.396  62.732  1.00  0.00    -0.145 A  
HETATM   22  C   UNL     1      -8.957  10.913  62.862  1.00  0.00    -0.294 A  
HETATM   23  C   UNL     1      -7.077   9.859  63.860  1.00  0.00    -0.127 A  
HETATM   24  N   UNL     1      -7.661   9.809  65.079  1.00  0.00    -0.120 NA 
ENDBRANCH  17  19
ENDBRANCH   3  15
TORSDOF 2
ENDMDL
MODEL      102
REMARK 921   NORMALIZED FREE ENERGY PREDICTED BY IDOCK:   -4.15 KCAL/MOL
REMARK 922        TOTAL FREE ENERGY PREDICTED BY IDOCK:   -5.00 KCAL/MOL
REMARK 923 INTER-LIGAND FREE ENERGY PREDICTED BY IDOCK:   -5.13 KCAL/MOL
REMARK 924 INTRA-LIGAND FREE ENERGY PREDICTED BY IDOCK:    0.13 KCAL/MOL
REMARK 927      BINDING AFFINITY PREDICTED BY RF-SCORE:    0.00 PKD
ROOT
HETATM    1  C   UNL     1     -11.005   6.198  70.704  1.00  0.00    -0.311 C  
HETATM    2  N   UNL     1     -10.933   7.336  69.780  1.00  0.00    -0.241 N  
HETATM    3  C   UNL     1     -10.565   7.279  68.374  1.00  0.00    -0.170 C  
HETATM    4  C   UNL     1     -11.031  12.162  68.465  1.00  0.00    -0.238 A  
HETATM    5  C   UNL     1     -10.506   8.393  67.591  1.00  0.00    -0.239 C  
HETATM    6  O   UNL     1     -10.440   9.104  71.555  1.00  0.00    -0.316 OA 
HETATM    7  C   UNL     1     -10.768   9.711  68.091  1.00  0.00    -0.217 A  
HETATM    8  O   UNL     1     -10.178   8.384  66.249  1.00  0.00    -0.442 OA 
HETATM    9  C   UNL     1     -11.305  11.439  69.604  1.00  0.00    -0.347 A  
HETATM   10  C   UNL     1     -11.150  10.053  69.362  1.00  0.00    -0.223 A  
HETATM   11  S   UNL     1     -10.604  11.149  67.150  1.00  0.00    -0.258 SA 
HETATM   12  S   UNL     1     -11.385   8.796  70.497  1.00  0.00    -0.183 S  
HETATM   13  H   UNL     1     -10.137   9.161  65.704  1.00  0.00     0.000 HD 
HETATM   14  O   UNL     1     -12.809   8.780  70.715  1.00  0.00     0.031 OA 
ENDROOT
BRANCH   3  15
HETATM   15  C   UNL     1     -10.131   5.993  67.700  1.00  0.00    -0.160 C  
HETATM   16  O   UNL     1      -9.131   5.407  68.122  1.00  0.00    -0.108 OA 
HETATM   17  N   UNL     1     -10.791   5.636  66.553  1.00  0.00    -0.640 N  
HETATM   18  H   UNL     1     -11.592   6.199  66.264  1.00  0.00     0.000 HD 
BRANCH  17  19
HETATM   19  C   UNL     1     -10.432   4.543  65.753  1.00  0.00    -0.233 A  
HETATM   20  C   UNL     1      -9.442   3.628  66.107  1.00  0.00    -0.171 A  
HETATM   21  C   UNL     1      -9.753   2.562  63.978  1.00  0.00    -0.141 A  
HETATM   22  C   UNL     1      -9.112   2.612  65.208  1.00  0.00    -0.138 A  
HETATM   23  C   UNL     1     -10.741   3.498  63.723  1.00  0.00    -0.256 A  
HETATM   24  N   UNL     1     -11.122   4.457  64.599  1.00  0.00    -0.128 NA 
ENDBRANCH  17  19
ENDBRANCH   3  15
TORSDOF 2
ENDMDL
MODEL      103
REMARK 921   NORMALIZED FREE ENERGY PREDICTED BY IDOCK:   -4.03 KCAL/MOL
REMARK 922        TOTAL FREE ENERGY PREDICTED BY IDOCK:   -4.87 KCAL/MOL
REMARK 923 INTER-LIGAND FREE ENERGY PREDICTED BY IDOCK:   -4.84 KCAL/MOL
REMARK 924 INTRA-LIGAND FREE ENERGY PREDICTED BY IDOCK:   -0.02 KCAL/MOL
REMARK 927      BINDING AFFINITY PREDICTED BY RF-SCORE:    0.00 PKD
ROOT
HETATM    1  C   UNL     1      -8.233   9.342  67.758  1.00  0.00    -0.115 C  
HETATM    2  N   UNL     1      -8.980  10.594  67.917  1.00  0.00    -0.136 N  
HETATM    3  C   UNL     1      -9.944  10.894  68.964  1.00  0.00    -0.191 C  
HETATM    4  C   UNL     1     -10.582  15.151  66.612  1.00  0.00    -0.304 A  
HETATM    5  C   UNL     1     -10.609  12.081  69.025  1.00  0.00    -0.098 C  
HETATM    6  O   UNL     1      -8.958  11.245  65.447  1.00  0.00    -0.181 OA 
HETATM    7  C   UNL     1     -10.441  13.119  68.049  1.00  0.00    -0.239 A  
HETATM    8  O   UNL     1     -11.518  12.415  70.009  1.00  0.00    -0.506 OA 
HETATM    9  C   UNL     1      -9.652  14.253  66.137  1.00  0.00    -0.300 A  
HETATM   10  C   UNL     1      -9.592  13.112  66.973  1.00  0.00    -0.241 A  
HETATM   11  S   UNL     1     -11.342  14.591  68.042  1.00  0.00    -0.322 SA 
HETATM   12  S   UNL     1      -8.580  11.752  66.755  1.00  0.00    -0.173 S  
HETATM   13  H   UNL     1     -11.981  13.244  70.052  1.00  0.00     0.000 HD 
HETATM   14  O   UNL     1      -7.257  12.248  67.037  1.00  0.00    -0.124 OA 
ENDROOT
BRANCH   3  15
HETATM   15  C   UNL     1     -10.348   9.874  70.011  1.00  0.00    -0.272 C  
HETATM   16  O   UNL     1      -9.468   9.327  70.681  1.00  0.00    -0.235 OA 
HETATM   17  N   UNL     1     -11.667   9.503  70.044  1.00  0.00    -0.456 N  
HETATM   18  H   UNL     1     -12.320   9.993  69.431  1.00  0.00     0.000 HD 
BRANCH  17  19
HETATM   19  C   UNL     1     -12.173   8.490  70.870  1.00  0.00    -0.094 A  
HETATM   20  C   UNL     1     -11.471   7.325  71.170  1.00  0.00    -0.312 A  
HETATM   21  C   UNL     1     -13.397   6.546  72.372  1.00  0.00     0.345 A  
HETATM   22  C   UNL     1     -12.091   6.346  71.948  1.00  0.00    -0.362 A  
HETATM   23  C   UNL     1     -14.008   7.746  72.047  1.00  0.00    -0.234 A  
HETATM   24  N   UNL     1     -13.410   8.736  71.344  1.00  0.00    -0.290 NA 
ENDBRANCH  17  19
ENDBRANCH   3  15
TORSDOF 2
ENDMDL
MODEL      104
REMARK 921   NORMALIZED FREE ENERGY PREDICTED BY IDOCK:   -3.98 KCAL/MOL
REMARK 922        TOTAL FREE ENERGY PREDICTED BY IDOCK:   -4.81 KCAL/MOL
REMARK 923 INTER-LIGAND FREE ENERGY PREDICTED BY IDOCK:   -4.23 KCAL/MOL
REMARK 924 INTRA-LIGAND FREE ENERGY PREDICTED BY IDOCK:   -0.58 KCAL/MOL
REMARK 927      BINDING AFFINITY PREDICTED BY RF-SCORE:    0.00 PKD
ROOT
HETATM    1  C   UNL     1      -8.288   5.526  70.963  1.00  0.00    -0.121 C  
HETATM    2  N   UNL     1      -8.199   5.976  69.569  1.00  0.00    -0.113 N  
HETATM    3  C   UNL     1      -8.645   7.260  69.049  1.00  0.00    -0.129 C  
HETATM    4  C   UNL     1      -7.286   5.513  64.672  1.00  0.00    -0.064 A  
HETATM    5  C   UNL     1      -8.540   7.589  67.732  1.00  0.00    -0.120 C  
HETATM    6  O   UNL     1      -8.265   3.648  68.521  1.00  0.00    -0.072 OA 
HETATM    7  C   UNL     1      -8.014   6.691  66.745  1.00  0.00    -0.108 A  
HETATM    8  O   UNL     1      -8.934   8.800  67.198  1.00  0.00    -0.129 OA 
HETATM    9  C   UNL     1      -7.090   4.741  65.795  1.00  0.00    -0.067 A  
HETATM   10  C   UNL     1      -7.509   5.434  66.955  1.00  0.00    -0.088 A  
HETATM   11  S   UNL     1      -7.961   7.041  65.055  1.00  0.00    -0.123 SA 
HETATM   12  S   UNL     1      -7.449   4.850  68.560  1.00  0.00    -0.070 S  
HETATM   13  H   UNL     1      -8.861   9.029  66.279  1.00  0.00     0.000 HD 
HETATM   14  O   UNL     1      -6.043   4.817  68.871  1.00  0.00    -0.027 OA 
ENDROOT
BRANCH   3  15
HETATM   15  C   UNL     1      -9.344   8.288  69.918  1.00  0.00    -0.159 C  
HETATM   16  O   UNL     1      -8.732   8.777  70.871  1.00  0.00    -0.157 OA 
HETATM   17  N   UNL     1     -10.677   8.500  69.683  1.00  0.00    -0.290 N  
HETATM   18  H   UNL     1     -11.106   8.028  68.886  1.00  0.00     0.000 HD 
BRANCH  17  19
HETATM   19  C   UNL     1     -11.488   9.327  70.473  1.00  0.00    -0.248 A  
HETATM   20  C   UNL     1     -12.273   8.853  71.522  1.00  0.00    -0.388 A  
HETATM   21  C   UNL     1     -13.136  11.076  71.799  1.00  0.00    -0.554 A  
HETATM   22  C   UNL     1     -13.097   9.749  72.204  1.00  0.00    -0.513 A  
HETATM   23  C   UNL     1     -12.301  11.462  70.763  1.00  0.00    -0.386 A  
HETATM   24  N   UNL     1     -11.450  10.627  70.123  1.00  0.00    -0.306 NA 
ENDBRANCH  17  19
ENDBRANCH   3  15
TORSDOF 2
ENDMDL
MODEL      105
REMARK 921   NORMALIZED FREE ENERGY PREDICTED BY IDOCK:   -3.94 KCAL/MOL
REMARK 922        TOTAL FREE ENERGY PREDICTED BY IDOCK:   -4.76 KCAL/MOL
REMARK 923 INTER-LIGAND FREE ENERGY PREDICTED BY IDOCK:   -4.13 KCAL/MOL
REMARK 924 INTRA-LIGAND FREE ENERGY PREDICTED BY IDOCK:   -0.63 KCAL/MOL
REMARK 927      BINDING AFFINITY PREDICTED BY RF-SCORE:    0.00 PKD
ROOT
HETATM    1  C   UNL     1      -5.727  13.968  68.632  1.00  0.00    -0.086 C  
HETATM    2  N   UNL     1      -7.022  14.135  67.963  1.00  0.00    -0.126 N  
HETATM    3  C   UNL     1      -7.986  13.082  67.680  1.00  0.00    -0.169 C  
HETATM    4  C   UNL     1     -10.587  16.606  65.470  1.00  0.00    -0.258 A  
HETATM    5  C   UNL     1      -9.161  13.325  67.035  1.00  0.00    -0.232 C  
HETATM    6  O   UNL     1      -6.369  16.196  66.605  1.00  0.00    -0.255 OA 
HETATM    7  C   UNL     1      -9.532  14.625  66.555  1.00  0.00    -0.297 A  
HETATM    8  O   UNL     1     -10.112  12.362  66.761  1.00  0.00    -0.211 OA 
HETATM    9  C   UNL     1      -9.402  16.933  66.089  1.00  0.00    -0.268 A  
HETATM   10  C   UNL     1      -8.827  15.791  66.697  1.00  0.00    -0.288 A  
HETATM   11  S   UNL     1     -10.965  14.944  65.647  1.00  0.00    -0.358 SA 
HETATM   12  S   UNL     1      -7.357  15.741  67.568  1.00  0.00    -0.197 S  
HETATM   13  H   UNL     1     -10.931  12.531  66.311  1.00  0.00     0.000 HD 
HETATM   14  O   UNL     1      -7.641  16.464  68.781  1.00  0.00    -0.185 OA 
ENDROOT
BRANCH   3  15
HETATM   15  C   UNL     1      -7.713  11.625  67.998  1.00  0.00    -0.121 C  
HETATM   16  O   UNL     1      -7.540  10.835  67.067  1.00  0.00    -0.104 OA 
HETATM   17  N   UNL     1      -7.829  11.241  69.308  1.00  0.00    -0.359 N  
HETATM   18  H   UNL     1      -8.002  11.964  70.008  1.00  0.00     0.000 HD 
BRANCH  17  19
HETATM   19  C   UNL     1      -7.724   9.913  69.745  1.00  0.00    -0.155 A  
HETATM   20  C   UNL     1      -8.821   9.066  69.889  1.00  0.00    -0.164 A  
HETATM   21  C   UNL     1      -7.338   7.397  70.772  1.00  0.00    -0.069 A  
HETATM   22  C   UNL     1      -8.617   7.781  70.397  1.00  0.00    -0.137 A  
HETATM   23  C   UNL     1      -6.305   8.297  70.569  1.00  0.00    -0.036 A  
HETATM   24  N   UNL     1      -6.465   9.526  70.025  1.00  0.00    -0.054 NA 
ENDBRANCH  17  19
ENDBRANCH   3  15
TORSDOF 2
ENDMDL
MODEL      106
REMARK 921   NORMALIZED FREE ENERGY PREDICTED BY IDOCK:   -3.91 KCAL/MOL
REMARK 922        TOTAL FREE ENERGY PREDICTED BY IDOCK:   -4.73 KCAL/MOL
REMARK 923 INTER-LIGAND FREE ENERGY PREDICTED BY IDOCK:   -4.15 KCAL/MOL
REMARK 924 INTRA-LIGAND FREE ENERGY PREDICTED BY IDOCK:   -0.59 KCAL/MOL
REMARK 927      BINDING AFFINITY PREDICTED BY RF-SCORE:    0.00 PKD
ROOT
HETATM    1  C   UNL     1      -9.764  10.051  65.401  1.00  0.00    -0.302 C  
HETATM    2  N   UNL     1      -9.314   9.617  66.729  1.00  0.00    -0.148 N  
HETATM    3  C   UNL     1      -8.809  10.476  67.789  1.00  0.00    -0.125 C  
HETATM    4  C   UNL     1      -8.097   6.312  70.282  1.00  0.00    -0.116 A  
HETATM    5  C   UNL     1      -8.394   9.985  68.989  1.00  0.00    -0.134 C  
HETATM    6  O   UNL     1      -8.620   7.261  66.030  1.00  0.00    -0.141 OA 
HETATM    7  C   UNL     1      -8.388   8.584  69.298  1.00  0.00    -0.120 A  
HETATM    8  O   UNL     1      -7.924  10.763  70.029  1.00  0.00    -0.333 OA 
HETATM    9  C   UNL     1      -8.667   6.257  69.030  1.00  0.00    -0.125 A  
HETATM   10  C   UNL     1      -8.822   7.559  68.497  1.00  0.00    -0.126 A  
HETATM   11  S   UNL     1      -7.775   7.923  70.770  1.00  0.00    -0.085 SA 
HETATM   12  S   UNL     1      -9.483   7.955  66.971  1.00  0.00    -0.188 S  
HETATM   13  H   UNL     1      -7.635  10.420  70.866  1.00  0.00     0.000 HD 
HETATM   14  O   UNL     1     -10.884   7.649  67.103  1.00  0.00    -0.317 OA 
ENDROOT
BRANCH   3  15
HETATM   15  C   UNL     1      -8.621  11.969  67.602  1.00  0.00    -0.163 C  
HETATM   16  O   UNL     1      -7.806  12.367  66.766  1.00  0.00    -0.066 OA 
HETATM   17  N   UNL     1      -9.260  12.794  68.491  1.00  0.00    -0.377 N  
HETATM   18  H   UNL     1      -9.895  12.370  69.168  1.00  0.00     0.000 HD 
BRANCH  17  19
HETATM   19  C   UNL     1      -9.093  14.185  68.525  1.00  0.00    -0.176 A  
HETATM   20  C   UNL     1      -8.009  14.811  69.134  1.00  0.00    -0.133 A  
HETATM   21  C   UNL     1      -9.027  16.927  68.632  1.00  0.00    -0.266 A  
HETATM   22  C   UNL     1      -7.970  16.207  69.172  1.00  0.00    -0.233 A  
HETATM   23  C   UNL     1     -10.051  16.220  68.024  1.00  0.00    -0.245 A  
HETATM   24  N   UNL     1     -10.084  14.870  67.922  1.00  0.00    -0.226 NA 
ENDBRANCH  17  19
ENDBRANCH   3  15
TORSDOF 2
ENDMDL
MODEL      107
REMARK 921   NORMALIZED FREE ENERGY PREDICTED BY IDOCK:   -3.88 KCAL/MOL
REMARK 922        TOTAL FREE ENERGY PREDICTED BY IDOCK:   -4.69 KCAL/MOL
REMARK 923 INTER-LIGAND FREE ENERGY PREDICTED BY IDOCK:   -4.17 KCAL/MOL
REMARK 924 INTRA-LIGAND FREE ENERGY PREDICTED BY IDOCK:   -0.52 KCAL/MOL
REMARK 927      BINDING AFFINITY PREDICTED BY RF-SCORE:    0.00 PKD
ROOT
HETATM    1  C   UNL     1     -10.266  10.071  67.150  1.00  0.00    -0.228 C  
HETATM    2  N   UNL     1      -9.544   9.037  66.401  1.00  0.00    -0.222 N  
HETATM    3  C   UNL     1      -9.518   7.614  66.704  1.00  0.00    -0.198 C  
HETATM    4  C   UNL     1      -6.402   7.270  62.931  1.00  0.00    -0.053 A  
HETATM    5  C   UNL     1      -8.802   6.724  65.962  1.00  0.00    -0.135 C  
HETATM    6  O   UNL     1      -7.714  10.575  65.501  1.00  0.00    -0.152 OA 
HETATM    7  C   UNL     1      -7.991   7.115  64.846  1.00  0.00    -0.127 A  
HETATM    8  O   UNL     1      -8.763   5.365  66.203  1.00  0.00    -0.121 OA 
HETATM    9  C   UNL     1      -6.946   8.495  63.244  1.00  0.00    -0.089 A  
HETATM   10  C   UNL     1      -7.844   8.377  64.332  1.00  0.00    -0.141 A  
HETATM   11  S   UNL     1      -6.995   6.026  63.950  1.00  0.00    -0.053 SA 
HETATM   12  S   UNL     1      -8.736   9.647  65.050  1.00  0.00    -0.190 S  
HETATM   13  H   UNL     1      -8.264   4.744  65.685  1.00  0.00     0.000 HD 
HETATM   14  O   UNL     1      -9.712  10.000  64.051  1.00  0.00    -0.273 OA 
ENDROOT
BRANCH   3  15
HETATM   15  C   UNL     1     -10.211   7.032  67.921  1.00  0.00    -0.183 C  
HETATM   16  O   UNL     1     -11.243   6.377  67.762  1.00  0.00    -0.323 OA 
HETATM   17  N   UNL     1      -9.729   7.402  69.149  1.00  0.00    -0.163 N  
HETATM   18  H   UNL     1      -8.882   7.971  69.182  1.00  0.00     0.000 HD 
BRANCH  17  19
HETATM   19  C   UNL     1     -10.330   7.045  70.364  1.00  0.00    -0.202 A  
HETATM   20  C   UNL     1     -11.130   7.912  71.106  1.00  0.00    -0.278 A  
HETATM   21  C   UNL     1     -11.284   6.219  72.801  1.00  0.00    -0.272 A  
HETATM   22  C   UNL     1     -11.627   7.481  72.338  1.00  0.00    -0.356 A  
HETATM   23  C   UNL     1     -10.505   5.417  71.984  1.00  0.00    -0.221 A  
HETATM   24  N   UNL     1     -10.058   5.787  70.761  1.00  0.00    -0.192 NA 
ENDBRANCH  17  19
ENDBRANCH   3  15
TORSDOF 2
ENDMDL
MODEL      108
REMARK 921   NORMALIZED FREE ENERGY PREDICTED BY IDOCK:   -3.82 KCAL/MOL
REMARK 922        TOTAL FREE ENERGY PREDICTED BY IDOCK:   -4.63 KCAL/MOL
REMARK 923 INTER-LIGAND FREE ENERGY PREDICTED BY IDOCK:   -4.16 KCAL/MOL
REMARK 924 INTRA-LIGAND FREE ENERGY PREDICTED BY IDOCK:   -0.47 KCAL/MOL
REMARK 927      BINDING AFFINITY PREDICTED BY RF-SCORE:    0.00 PKD
ROOT
HETATM    1  C   UNL     1     -10.701   7.213  67.237  1.00  0.00    -0.329 C  
HETATM    2  N   UNL     1      -9.717   7.597  68.257  1.00  0.00    -0.154 N  
HETATM    3  C   UNL     1      -9.596   8.902  68.887  1.00  0.00    -0.160 C  
HETATM    4  C   UNL     1      -5.711   6.990  71.191  1.00  0.00    -0.031 A  
HETATM    5  C   UNL     1      -8.638   9.177  69.815  1.00  0.00    -0.142 C  
HETATM    6  O   UNL     1      -7.924   5.918  67.557  1.00  0.00    -0.101 OA 
HETATM    7  C   UNL     1      -7.652   8.219  70.224  1.00  0.00    -0.072 A  
HETATM    8  O   UNL     1      -8.496  10.395  70.450  1.00  0.00    -0.304 OA 
HETATM    9  C   UNL     1      -6.447   6.195  70.341  1.00  0.00    -0.040 A  
HETATM   10  C   UNL     1      -7.542   6.917  69.809  1.00  0.00    -0.104 A  
HETATM   11  S   UNL     1      -6.366   8.568  71.321  1.00  0.00    -0.053 SA 
HETATM   12  S   UNL     1      -8.709   6.321  68.711  1.00  0.00    -0.120 S  
HETATM   13  H   UNL     1      -7.828  10.587  71.097  1.00  0.00     0.000 HD 
HETATM   14  O   UNL     1      -9.476   5.382  69.488  1.00  0.00    -0.122 OA 
ENDROOT
BRANCH   3  15
HETATM   15  C   UNL     1     -10.467  10.078  68.490  1.00  0.00    -0.202 C  
HETATM   16  O   UNL     1     -11.642  10.102  68.863  1.00  0.00    -0.133 OA 
HETATM   17  N   UNL     1      -9.934  10.976  67.601  1.00  0.00    -0.171 N  
HETATM   18  H   UNL     1      -8.959  10.859  67.326  1.00  0.00     0.000 HD 
BRANCH  17  19
HETATM   19  C   UNL     1     -10.651  12.046  67.048  1.00  0.00    -0.227 A  
HETATM   20  C   UNL     1     -10.940  12.154  65.690  1.00  0.00    -0.337 A  
HETATM   21  C   UNL     1     -11.922  14.300  66.131  1.00  0.00    -0.422 A  
HETATM   22  C   UNL     1     -11.602  13.294  65.230  1.00  0.00    -0.335 A  
HETATM   23  C   UNL     1     -11.619  14.095  67.467  1.00  0.00    -0.367 A  
HETATM   24  N   UNL     1     -11.031  12.975  67.948  1.00  0.00    -0.234 NA 
ENDBRANCH  17  19
ENDBRANCH   3  15
TORSDOF 2
ENDMDL
MODEL      109
REMARK 921   NORMALIZED FREE ENERGY PREDICTED BY IDOCK:   -3.78 KCAL/MOL
REMARK 922        TOTAL FREE ENERGY PREDICTED BY IDOCK:   -4.58 KCAL/MOL
REMARK 923 INTER-LIGAND FREE ENERGY PREDICTED BY IDOCK:   -4.03 KCAL/MOL
REMARK 924 INTRA-LIGAND FREE ENERGY PREDICTED BY IDOCK:   -0.55 KCAL/MOL
REMARK 927      BINDING AFFINITY PREDICTED BY RF-SCORE:    0.00 PKD
ROOT
HETATM    1  C   UNL     1      -7.201  10.500  66.079  1.00  0.00    -0.137 C  
HETATM    2  N   UNL     1      -7.936   9.241  66.243  1.00  0.00    -0.106 N  
HETATM    3  C   UNL     1      -9.328   9.104  66.644  1.00  0.00    -0.177 C  
HETATM    4  C   UNL     1      -8.490   4.274  66.469  1.00  0.00    -0.108 A  
HETATM    5  C   UNL     1      -9.928   7.890  66.789  1.00  0.00    -0.263 C  
HETATM    6  O   UNL     1      -5.901   7.801  66.795  1.00  0.00    -0.040 OA 
HETATM    7  C   UNL     1      -9.234   6.650  66.594  1.00  0.00    -0.157 A  
HETATM    8  O   UNL     1     -11.249   7.713  67.151  1.00  0.00    -0.461 OA 
HETATM    9  C   UNL     1      -7.481   5.145  66.122  1.00  0.00    -0.086 A  
HETATM   10  C   UNL     1      -7.932   6.484  66.200  1.00  0.00    -0.110 A  
HETATM   11  S   UNL     1      -9.938   5.098  66.868  1.00  0.00    -0.226 SA 
HETATM   12  S   UNL     1      -7.010   7.883  65.860  1.00  0.00    -0.057 S  
HETATM   13  H   UNL     1     -11.667   6.866  67.253  1.00  0.00     0.000 HD 
HETATM   14  O   UNL     1      -6.820   7.842  64.433  1.00  0.00    -0.061 OA 
ENDROOT
BRANCH   3  15
HETATM   15  C   UNL     1     -10.186  10.297  67.018  1.00  0.00    -0.228 C  
HETATM   16  O   UNL     1     -11.017  10.711  66.206  1.00  0.00    -0.099 OA 
HETATM   17  N   UNL     1      -9.876  10.946  68.185  1.00  0.00    -0.170 N  
HETATM   18  H   UNL     1      -9.152  10.544  68.781  1.00  0.00     0.000 HD 
BRANCH  17  19
HETATM   19  C   UNL     1     -10.495  12.130  68.608  1.00  0.00    -0.216 A  
HETATM   20  C   UNL     1      -9.938  13.394  68.425  1.00  0.00    -0.231 A  
HETATM   21  C   UNL     1     -11.781  14.318  69.654  1.00  0.00    -0.362 A  
HETATM   22  C   UNL     1     -10.604  14.506  68.944  1.00  0.00    -0.249 A  
HETATM   23  C   UNL     1     -12.274  13.028  69.764  1.00  0.00    -0.177 A  
HETATM   24  N   UNL     1     -11.680  11.940  69.221  1.00  0.00    -0.306 NA 
ENDBRANCH  17  19
ENDBRANCH   3  15
TORSDOF 2
ENDMDL
MODEL      110
REMARK 921   NORMALIZED FREE ENERGY PREDICTED BY IDOCK:   -3.72 KCAL/MOL
REMARK 922        TOTAL FREE ENERGY PREDICTED BY IDOCK:   -4.52 KCAL/MOL
REMARK 923 INTER-LIGAND FREE ENERGY PREDICTED BY IDOCK:   -4.15 KCAL/MOL
REMARK 924 INTRA-LIGAND FREE ENERGY PREDICTED BY IDOCK:   -0.37 KCAL/MOL
REMARK 927      BINDING AFFINITY PREDICTED BY RF-SCORE:    0.00 PKD
ROOT
HETATM    1  C   UNL     1      -9.353   8.450  66.710  1.00  0.00    -0.184 C  
HETATM    2  N   UNL     1      -8.757   7.237  67.282  1.00  0.00    -0.120 N  
HETATM    3  C   UNL     1      -9.218   6.527  68.466  1.00  0.00    -0.125 C  
HETATM    4  C   UNL     1      -5.346   3.604  67.737  1.00  0.00    -0.012 A  
HETATM    5  C   UNL     1      -8.591   5.415  68.938  1.00  0.00    -0.099 C  
HETATM    6  O   UNL     1      -6.391   7.656  66.416  1.00  0.00    -0.044 OA 
HETATM    7  C   UNL     1      -7.410   4.870  68.334  1.00  0.00    -0.066 A  
HETATM    8  O   UNL     1      -9.003   4.700  70.046  1.00  0.00    -0.086 OA 
HETATM    9  C   UNL     1      -5.596   4.624  66.847  1.00  0.00    -0.014 A  
HETATM   10  C   UNL     1      -6.773   5.323  67.208  1.00  0.00    -0.055 A  
HETATM   11  S   UNL     1      -6.536   3.523  68.968  1.00  0.00    -0.034 SA 
HETATM   12  S   UNL     1      -7.448   6.660  66.385  1.00  0.00    -0.086 S  
HETATM   13  H   UNL     1      -8.565   3.924  70.376  1.00  0.00     0.000 HD 
HETATM   14  O   UNL     1      -7.945   6.101  65.154  1.00  0.00    -0.104 OA 
ENDROOT
BRANCH   3  15
HETATM   15  C   UNL     1     -10.374   7.026  69.311  1.00  0.00    -0.200 C  
HETATM   16  O   UNL     1     -11.464   6.455  69.226  1.00  0.00    -0.381 OA 
HETATM   17  N   UNL     1     -10.178   8.188  70.010  1.00  0.00    -0.198 N  
HETATM   18  H   UNL     1      -9.247   8.606  69.999  1.00  0.00     0.000 HD 
BRANCH  17  19
HETATM   19  C   UNL     1     -11.183   8.838  70.740  1.00  0.00    -0.266 A  
HETATM   20  C   UNL     1     -11.897   8.229  71.770  1.00  0.00    -0.357 A  
HETATM   21  C   UNL     1     -13.228  10.220  71.942  1.00  0.00    -0.550 A  
HETATM   22  C   UNL     1     -12.925   8.942  72.390  1.00  0.00    -0.467 A  
HETATM   23  C   UNL     1     -12.448  10.754  70.930  1.00  0.00    -0.402 A  
HETATM   24  N   UNL     1     -11.408  10.108  70.352  1.00  0.00    -0.303 NA 
ENDBRANCH  17  19
ENDBRANCH   3  15
TORSDOF 2
ENDMDL
MODEL      111
REMARK 921   NORMALIZED FREE ENERGY PREDICTED BY IDOCK:   -3.68 KCAL/MOL
REMARK 922        TOTAL FREE ENERGY PREDICTED BY IDOCK:   -4.47 KCAL/MOL
REMARK 923 INTER-LIGAND FREE ENERGY PREDICTED BY IDOCK:   -3.78 KCAL/MOL
REMARK 924 INTRA-LIGAND FREE ENERGY PREDICTED BY IDOCK:   -0.69 KCAL/MOL
REMARK 927      BINDING AFFINITY PREDICTED BY RF-SCORE:    0.00 PKD
ROOT
HETATM    1  C   UNL     1     -10.624   4.639  66.043  1.00  0.00    -0.200 C  
HETATM    2  N   UNL     1      -9.432   5.489  65.942  1.00  0.00    -0.135 N  
HETATM    3  C   UNL     1      -9.137   6.658  66.755  1.00  0.00    -0.142 C  
HETATM    4  C   UNL     1      -5.142   7.115  63.946  1.00  0.00    -0.029 A  
HETATM    5  C   UNL     1      -8.010   7.402  66.580  1.00  0.00    -0.121 C  
HETATM    6  O   UNL     1      -8.971   5.026  63.473  1.00  0.00    -0.085 OA 
HETATM    7  C   UNL     1      -7.039   7.118  65.563  1.00  0.00    -0.064 A  
HETATM    8  O   UNL     1      -7.681   8.508  67.339  1.00  0.00    -0.096 OA 
HETATM    9  C   UNL     1      -5.990   6.050  63.741  1.00  0.00    -0.022 A  
HETATM   10  C   UNL     1      -7.055   6.076  64.673  1.00  0.00    -0.057 A  
HETATM   11  S   UNL     1      -5.654   8.100  65.251  1.00  0.00    -0.044 SA 
HETATM   12  S   UNL     1      -8.336   4.949  64.777  1.00  0.00    -0.142 S  
HETATM   13  H   UNL     1      -6.895   9.027  67.217  1.00  0.00     0.000 HD 
HETATM   14  O   UNL     1      -7.708   3.745  65.258  1.00  0.00    -0.080 OA 
ENDROOT
BRANCH   3  15
HETATM   15  C   UNL     1     -10.105   7.188  67.795  1.00  0.00    -0.172 C  
HETATM   16  O   UNL     1     -10.895   8.079  67.474  1.00  0.00    -0.202 OA 
HETATM   17  N   UNL     1      -9.938   6.749  69.083  1.00  0.00    -0.157 N  
HETATM   18  H   UNL     1      -9.238   6.028  69.258  1.00  0.00     0.000 HD 
BRANCH  17  19
HETATM   19  C   UNL     1     -10.673   7.233  70.174  1.00  0.00    -0.244 A  
HETATM   20  C   UNL     1     -11.963   6.804  70.478  1.00  0.00    -0.385 A  
HETATM   21  C   UNL     1     -12.016   8.420  72.253  1.00  0.00    -0.455 A  
HETATM   22  C   UNL     1     -12.636   7.399  71.547  1.00  0.00    -0.401 A  
HETATM   23  C   UNL     1     -10.722   8.763  71.896  1.00  0.00    -0.359 A  
HETATM   24  N   UNL     1     -10.026   8.163  70.902  1.00  0.00    -0.186 NA 
ENDBRANCH  17  19
ENDBRANCH   3  15
TORSDOF 2
ENDMDL
MODEL      112
REMARK 921   NORMALIZED FREE ENERGY PREDICTED BY IDOCK:   -3.64 KCAL/MOL
REMARK 922        TOTAL FREE ENERGY PREDICTED BY IDOCK:   -4.43 KCAL/MOL
REMARK 923 INTER-LIGAND FREE ENERGY PREDICTED BY IDOCK:   -4.00 KCAL/MOL
REMARK 924 INTRA-LIGAND FREE ENERGY PREDICTED BY IDOCK:   -0.43 KCAL/MOL
REMARK 927      BINDING AFFINITY PREDICTED BY RF-SCORE:    0.00 PKD
ROOT
HETATM    1  C   UNL     1      -8.112   7.728  66.246  1.00  0.00    -0.114 C  
HETATM    2  N   UNL     1      -8.952   8.568  67.108  1.00  0.00    -0.128 N  
HETATM    3  C   UNL     1      -9.376   8.255  68.464  1.00  0.00    -0.138 C  
HETATM    4  C   UNL     1     -11.892  12.459  68.223  1.00  0.00    -0.309 A  
HETATM    5  C   UNL     1     -10.174   9.088  69.187  1.00  0.00    -0.205 C  
HETATM    6  O   UNL     1     -10.188   9.757  65.216  1.00  0.00    -0.216 OA 
HETATM    7  C   UNL     1     -10.690  10.320  68.667  1.00  0.00    -0.224 A  
HETATM    8  O   UNL     1     -10.587   8.840  70.482  1.00  0.00    -0.201 OA 
HETATM    9  C   UNL     1     -11.112  12.080  67.154  1.00  0.00    -0.344 A  
HETATM   10  C   UNL     1     -10.441  10.866  67.434  1.00  0.00    -0.224 A  
HETATM   11  S   UNL     1     -11.784  11.346  69.522  1.00  0.00    -0.379 SA 
HETATM   12  S   UNL     1      -9.375  10.034  66.387  1.00  0.00    -0.176 S  
HETATM   13  H   UNL     1     -11.144   9.420  70.987  1.00  0.00     0.000 HD 
HETATM   14  O   UNL     1      -8.207  10.875  66.334  1.00  0.00    -0.152 OA 
ENDROOT
BRANCH   3  15
HETATM   15  C   UNL     1      -9.036   6.939  69.136  1.00  0.00    -0.136 C  
HETATM   16  O   UNL     1      -8.280   6.946  70.111  1.00  0.00    -0.128 OA 
HETATM   17  N   UNL     1      -9.470   5.794  68.520  1.00  0.00    -0.120 N  
HETATM   18  H   UNL     1     -10.069   5.887  67.700  1.00  0.00     0.000 HD 
BRANCH  17  19
HETATM   19  C   UNL     1      -9.138   4.502  68.951  1.00  0.00    -0.123 A  
HETATM   20  C   UNL     1      -9.647   3.929  70.114  1.00  0.00    -0.267 A  
HETATM   21  C   UNL     1      -8.241   2.024  69.717  1.00  0.00    -0.065 A  
HETATM   22  C   UNL     1      -9.201   2.661  70.491  1.00  0.00    -0.206 A  
HETATM   23  C   UNL     1      -7.812   2.659  68.564  1.00  0.00    -0.054 A  
HETATM   24  N   UNL     1      -8.270   3.861  68.144  1.00  0.00    -0.087 NA 
ENDBRANCH  17  19
ENDBRANCH   3  15
TORSDOF 2
ENDMDL
MODEL      113
REMARK 921   NORMALIZED FREE ENERGY PREDICTED BY IDOCK:   -3.52 KCAL/MOL
REMARK 922        TOTAL FREE ENERGY PREDICTED BY IDOCK:   -4.30 KCAL/MOL
REMARK 923 INTER-LIGAND FREE ENERGY PREDICTED BY IDOCK:   -3.81 KCAL/MOL
REMARK 924 INTRA-LIGAND FREE ENERGY PREDICTED BY IDOCK:   -0.49 KCAL/MOL
REMARK 927      BINDING AFFINITY PREDICTED BY RF-SCORE:    0.00 PKD
ROOT
HETATM    1  C   UNL     1      -8.674   9.119  65.236  1.00  0.00    -0.188 C  
HETATM    2  N   UNL     1      -8.457   7.672  65.345  1.00  0.00    -0.127 N  
HETATM    3  C   UNL     1      -9.132   6.768  66.263  1.00  0.00    -0.139 C  
HETATM    4  C   UNL     1      -6.208   3.309  64.378  1.00  0.00    -0.023 A  
HETATM    5  C   UNL     1      -8.853   5.435  66.309  1.00  0.00    -0.131 C  
HETATM    6  O   UNL     1      -6.044   7.691  64.508  1.00  0.00    -0.041 OA 
HETATM    7  C   UNL     1      -7.854   4.819  65.485  1.00  0.00    -0.094 A  
HETATM    8  O   UNL     1      -9.480   4.538  67.151  1.00  0.00    -0.139 OA 
HETATM    9  C   UNL     1      -6.138   4.592  63.883  1.00  0.00    -0.018 A  
HETATM   10  C   UNL     1      -7.083   5.425  64.527  1.00  0.00    -0.050 A  
HETATM   11  S   UNL     1      -7.408   3.155  65.592  1.00  0.00    -0.073 SA 
HETATM   12  S   UNL     1      -7.335   7.089  64.226  1.00  0.00    -0.097 S  
HETATM   13  H   UNL     1      -9.286   3.608  67.183  1.00  0.00     0.000 HD 
HETATM   14  O   UNL     1      -7.932   7.123  62.915  1.00  0.00    -0.130 OA 
ENDROOT
BRANCH   3  15
HETATM   15  C   UNL     1     -10.127   7.256  67.297  1.00  0.00    -0.225 C  
HETATM   16  O   UNL     1     -11.316   6.956  67.168  1.00  0.00    -0.290 OA 
HETATM   17  N   UNL     1      -9.665   8.139  68.239  1.00  0.00    -0.157 N  
HETATM   18  H   UNL     1      -8.667   8.350  68.251  1.00  0.00     0.000 HD 
BRANCH  17  19
HETATM   19  C   UNL     1     -10.483   8.769  69.186  1.00  0.00    -0.217 A  
HETATM   20  C   UNL     1     -10.923  10.085  69.063  1.00  0.00    -0.249 A  
HETATM   21  C   UNL     1     -11.943   9.882  71.226  1.00  0.00    -0.489 A  
HETATM   22  C   UNL     1     -11.679  10.642  70.096  1.00  0.00    -0.417 A  
HETATM   23  C   UNL     1     -11.487   8.574  71.250  1.00  0.00    -0.277 A  
HETATM   24  N   UNL     1     -10.803   7.991  70.238  1.00  0.00    -0.241 NA 
ENDBRANCH  17  19
ENDBRANCH   3  15
TORSDOF 2
ENDMDL
MODEL      114
REMARK 921   NORMALIZED FREE ENERGY PREDICTED BY IDOCK:   -3.52 KCAL/MOL
REMARK 922        TOTAL FREE ENERGY PREDICTED BY IDOCK:   -4.29 KCAL/MOL
REMARK 923 INTER-LIGAND FREE ENERGY PREDICTED BY IDOCK:   -3.71 KCAL/MOL
REMARK 924 INTRA-LIGAND FREE ENERGY PREDICTED BY IDOCK:   -0.58 KCAL/MOL
REMARK 927      BINDING AFFINITY PREDICTED BY RF-SCORE:    0.00 PKD
ROOT
HETATM    1  C   UNL     1     -10.468   9.158  66.371  1.00  0.00    -0.071 C  
HETATM    2  N   UNL     1      -9.873  10.485  66.571  1.00  0.00    -0.199 N  
HETATM    3  C   UNL     1      -8.606  10.770  67.227  1.00  0.00    -0.130 C  
HETATM    4  C   UNL     1      -9.734  15.485  66.482  1.00  0.00    -0.270 A  
HETATM    5  C   UNL     1      -8.137  12.038  67.385  1.00  0.00    -0.168 C  
HETATM    6  O   UNL     1     -12.076  11.777  66.585  1.00  0.00    -0.527 OA 
HETATM    7  C   UNL     1      -8.863  13.197  66.952  1.00  0.00    -0.179 A  
HETATM    8  O   UNL     1      -6.934  12.354  67.985  1.00  0.00    -0.079 OA 
HETATM    9  C   UNL     1     -10.585  14.509  66.017  1.00  0.00    -0.311 A  
HETATM   10  C   UNL     1     -10.065  13.222  66.295  1.00  0.00    -0.294 A  
HETATM   11  S   UNL     1      -8.342  14.820  67.229  1.00  0.00    -0.219 SA 
HETATM   12  S   UNL     1     -10.796  11.728  65.899  1.00  0.00    -0.289 S  
HETATM   13  H   UNL     1      -6.607  13.239  68.096  1.00  0.00     0.000 HD 
HETATM   14  O   UNL     1     -10.693  11.655  64.464  1.00  0.00    -0.288 OA 
ENDROOT
BRANCH   3  15
HETATM   15  C   UNL     1      -7.760   9.684  67.862  1.00  0.00    -0.087 C  
HETATM   16  O   UNL     1      -6.814   9.216  67.225  1.00  0.00    -0.075 OA 
HETATM   17  N   UNL     1      -8.196   9.174  69.058  1.00  0.00    -0.112 N  
HETATM   18  H   UNL     1      -9.008   9.608  69.498  1.00  0.00     0.000 HD 
BRANCH  17  19
HETATM   19  C   UNL     1      -7.593   8.090  69.711  1.00  0.00    -0.092 A  
HETATM   20  C   UNL     1      -7.977   6.766  69.512  1.00  0.00    -0.125 A  
HETATM   21  C   UNL     1      -6.404   6.119  71.206  1.00  0.00    -0.048 A  
HETATM   22  C   UNL     1      -7.358   5.765  70.263  1.00  0.00    -0.076 A  
HETATM   23  C   UNL     1      -6.067   7.458  71.316  1.00  0.00    -0.036 A  
HETATM   24  N   UNL     1      -6.609   8.442  70.561  1.00  0.00    -0.036 NA 
ENDBRANCH  17  19
ENDBRANCH   3  15
TORSDOF 2
ENDMDL
MODEL      115
REMARK 921   NORMALIZED FREE ENERGY PREDICTED BY IDOCK:   -3.50 KCAL/MOL
REMARK 922        TOTAL FREE ENERGY PREDICTED BY IDOCK:   -4.28 KCAL/MOL
REMARK 923 INTER-LIGAND FREE ENERGY PREDICTED BY IDOCK:   -3.82 KCAL/MOL
REMARK 924 INTRA-LIGAND FREE ENERGY PREDICTED BY IDOCK:   -0.45 KCAL/MOL
REMARK 927      BINDING AFFINITY PREDICTED BY RF-SCORE:    0.00 PKD
ROOT
HETATM    1  C   UNL     1     -10.691   9.313  71.184  1.00  0.00    -0.333 C  
HETATM    2  N   UNL     1      -9.853   8.288  70.552  1.00  0.00    -0.182 N  
HETATM    3  C   UNL     1      -8.602   8.516  69.845  1.00  0.00    -0.131 C  
HETATM    4  C   UNL     1      -8.688   3.693  68.950  1.00  0.00    -0.093 A  
HETATM    5  C   UNL     1      -7.895   7.503  69.270  1.00  0.00    -0.118 C  
HETATM    6  O   UNL     1     -11.741   6.631  70.092  1.00  0.00    -0.394 OA 
HETATM    7  C   UNL     1      -8.337   6.139  69.284  1.00  0.00    -0.116 A  
HETATM    8  O   UNL     1      -6.696   7.671  68.605  1.00  0.00    -0.051 OA 
HETATM    9  C   UNL     1      -9.688   4.254  69.713  1.00  0.00    -0.290 A  
HETATM   10  C   UNL     1      -9.462   5.640  69.887  1.00  0.00    -0.156 A  
HETATM   11  S   UNL     1      -7.516   4.852  68.479  1.00  0.00    -0.070 SA 
HETATM   12  S   UNL     1     -10.454   6.725  70.761  1.00  0.00    -0.218 S  
HETATM   13  H   UNL     1      -6.204   6.964  68.204  1.00  0.00     0.000 HD 
HETATM   14  O   UNL     1     -10.271   6.340  72.137  1.00  0.00    -0.183 OA 
ENDROOT
BRANCH   3  15
HETATM   15  C   UNL     1      -8.041   9.906  69.616  1.00  0.00    -0.165 C  
HETATM   16  O   UNL     1      -7.289  10.392  70.465  1.00  0.00    -0.240 OA 
HETATM   17  N   UNL     1      -8.531  10.608  68.545  1.00  0.00    -0.128 N  
HETATM   18  H   UNL     1      -9.172  10.131  67.911  1.00  0.00     0.000 HD 
BRANCH  17  19
HETATM   19  C   UNL     1      -8.202  11.942  68.270  1.00  0.00    -0.157 A  
HETATM   20  C   UNL     1      -6.921  12.356  67.912  1.00  0.00    -0.106 A  
HETATM   21  C   UNL     1      -7.714  14.622  67.932  1.00  0.00    -0.149 A  
HETATM   22  C   UNL     1      -6.681  13.719  67.724  1.00  0.00    -0.180 A  
HETATM   23  C   UNL     1      -8.961  14.117  68.261  1.00  0.00    -0.188 A  
HETATM   24  N   UNL     1      -9.235  12.798  68.392  1.00  0.00    -0.176 NA 
ENDBRANCH  17  19
ENDBRANCH   3  15
TORSDOF 2
ENDMDL
MODEL      116
REMARK 921   NORMALIZED FREE ENERGY PREDICTED BY IDOCK:   -3.35 KCAL/MOL
REMARK 922        TOTAL FREE ENERGY PREDICTED BY IDOCK:   -4.10 KCAL/MOL
REMARK 923 INTER-LIGAND FREE ENERGY PREDICTED BY IDOCK:   -3.53 KCAL/MOL
REMARK 924 INTRA-LIGAND FREE ENERGY PREDICTED BY IDOCK:   -0.57 KCAL/MOL
REMARK 927      BINDING AFFINITY PREDICTED BY RF-SCORE:    0.00 PKD
ROOT
HETATM    1  C   UNL     1     -12.468  11.007  69.138  1.00  0.00     0.172 C  
HETATM    2  N   UNL     1     -11.167  11.637  68.882  1.00  0.00    -0.225 N  
HETATM    3  C   UNL     1      -9.940  10.954  68.501  1.00  0.00    -0.182 C  
HETATM    4  C   UNL     1      -7.865  15.393  68.729  1.00  0.00    -0.155 A  
HETATM    5  C   UNL     1      -8.769  11.619  68.300  1.00  0.00    -0.163 C  
HETATM    6  O   UNL     1     -11.538  13.663  70.392  1.00  0.00    -0.189 OA 
HETATM    7  C   UNL     1      -8.636  13.036  68.478  1.00  0.00    -0.049 A  
HETATM    8  O   UNL     1      -7.586  11.014  67.922  1.00  0.00    -0.092 OA 
HETATM    9  C   UNL     1      -9.216  15.269  68.966  1.00  0.00    -0.223 A  
HETATM   10  C   UNL     1      -9.626  13.923  68.815  1.00  0.00    -0.070 A  
HETATM   11  S   UNL     1      -7.144  13.891  68.329  1.00  0.00    -0.126 SA 
HETATM   12  S   UNL     1     -11.212  13.319  69.019  1.00  0.00    -0.258 S  
HETATM   13  H   UNL     1      -6.769  11.478  67.782  1.00  0.00     0.000 HD 
HETATM   14  O   UNL     1     -11.940  13.854  67.897  1.00  0.00    -0.363 OA 
ENDROOT
BRANCH   3  15
HETATM   15  C   UNL     1      -9.854   9.444  68.390  1.00  0.00    -0.160 C  
HETATM   16  O   UNL     1      -9.373   8.804  69.329  1.00  0.00    -0.148 OA 
HETATM   17  N   UNL     1     -10.176   8.889  67.179  1.00  0.00    -0.245 N  
HETATM   18  H   UNL     1     -10.540   9.503  66.450  1.00  0.00     0.000 HD 
BRANCH  17  19
HETATM   19  C   UNL     1     -10.034   7.526  66.883  1.00  0.00    -0.248 A  
HETATM   20  C   UNL     1     -11.114   6.663  66.717  1.00  0.00    -0.193 A  
HETATM   21  C   UNL     1      -9.553   4.855  66.471  1.00  0.00    -0.176 A  
HETATM   22  C   UNL     1     -10.865   5.307  66.491  1.00  0.00    -0.196 A  
HETATM   23  C   UNL     1      -8.542   5.791  66.620  1.00  0.00    -0.118 A  
HETATM   24  N   UNL     1      -8.754   7.118  66.782  1.00  0.00    -0.122 NA 
ENDBRANCH  17  19
ENDBRANCH   3  15
TORSDOF 2
ENDMDL
MODEL      117
REMARK 921   NORMALIZED FREE ENERGY PREDICTED BY IDOCK:   -3.23 KCAL/MOL
REMARK 922        TOTAL FREE ENERGY PREDICTED BY IDOCK:   -3.97 KCAL/MOL
REMARK 923 INTER-LIGAND FREE ENERGY PREDICTED BY IDOCK:   -3.61 KCAL/MOL
REMARK 924 INTRA-LIGAND FREE ENERGY PREDICTED BY IDOCK:   -0.37 KCAL/MOL
REMARK 927      BINDING AFFINITY PREDICTED BY RF-SCORE:    0.00 PKD
ROOT
HETATM    1  C   UNL     1     -11.303   6.283  68.744  1.00  0.00    -0.134 C  
HETATM    2  N   UNL     1     -10.527   6.826  69.865  1.00  0.00    -0.203 N  
HETATM    3  C   UNL     1      -9.584   7.933  69.802  1.00  0.00    -0.167 C  
HETATM    4  C   UNL     1      -8.770   6.990  74.546  1.00  0.00    -0.195 A  
HETATM    5  C   UNL     1      -8.890   8.361  70.892  1.00  0.00    -0.159 C  
HETATM    6  O   UNL     1     -10.465   4.670  71.231  1.00  0.00    -0.128 OA 
HETATM    7  C   UNL     1      -9.004   7.742  72.181  1.00  0.00    -0.137 A  
HETATM    8  O   UNL     1      -7.999   9.417  70.883  1.00  0.00    -0.249 OA 
HETATM    9  C   UNL     1      -9.710   6.250  73.865  1.00  0.00    -0.209 A  
HETATM   10  C   UNL     1      -9.823   6.699  72.528  1.00  0.00    -0.165 A  
HETATM   11  S   UNL     1      -8.064   8.197  73.556  1.00  0.00    -0.190 SA 
HETATM   12  S   UNL     1     -10.865   6.063  71.331  1.00  0.00    -0.274 S  
HETATM   13  H   UNL     1      -7.515   9.716  71.644  1.00  0.00     0.000 HD 
HETATM   14  O   UNL     1     -12.181   6.458  71.764  1.00  0.00    -0.342 OA 
ENDROOT
BRANCH   3  15
HETATM   15  C   UNL     1      -9.236   8.629  68.500  1.00  0.00    -0.138 C  
HETATM   16  O   UNL     1     -10.091   9.329  67.952  1.00  0.00    -0.178 OA 
HETATM   17  N   UNL     1      -8.033   8.310  67.925  1.00  0.00    -0.121 N  
HETATM   18  H   UNL     1      -7.400   7.698  68.442  1.00  0.00     0.000 HD 
BRANCH  17  19
HETATM   19  C   UNL     1      -7.620   8.777  66.670  1.00  0.00    -0.089 A  
HETATM   20  C   UNL     1      -8.365   8.603  65.506  1.00  0.00    -0.157 A  
HETATM   21  C   UNL     1      -6.567   9.613  64.277  1.00  0.00    -0.111 A  
HETATM   22  C   UNL     1      -7.833   9.045  64.293  1.00  0.00    -0.130 A  
HETATM   23  C   UNL     1      -5.911   9.768  65.486  1.00  0.00    -0.064 A  
HETATM   24  N   UNL     1      -6.427   9.402  66.683  1.00  0.00    -0.066 NA 
ENDBRANCH  17  19
ENDBRANCH   3  15
TORSDOF 2
ENDMDL
MODEL      118
REMARK 921   NORMALIZED FREE ENERGY PREDICTED BY IDOCK:   -3.21 KCAL/MOL
REMARK 922        TOTAL FREE ENERGY PREDICTED BY IDOCK:   -3.95 KCAL/MOL
REMARK 923 INTER-LIGAND FREE ENERGY PREDICTED BY IDOCK:   -3.34 KCAL/MOL
REMARK 924 INTRA-LIGAND FREE ENERGY PREDICTED BY IDOCK:   -0.61 KCAL/MOL
REMARK 927      BINDING AFFINITY PREDICTED BY RF-SCORE:    0.00 PKD
ROOT
HETATM    1  C   UNL     1      -7.353   8.495  68.572  1.00  0.00    -0.092 C  
HETATM    2  N   UNL     1      -8.109   7.694  69.542  1.00  0.00    -0.125 N  
HETATM    3  C   UNL     1      -8.479   6.294  69.399  1.00  0.00    -0.125 C  
HETATM    4  C   UNL     1     -10.806   6.882  73.677  1.00  0.00    -0.166 A  
HETATM    5  C   UNL     1      -9.201   5.631  70.344  1.00  0.00    -0.152 C  
HETATM    6  O   UNL     1      -9.381   9.648  70.584  1.00  0.00    -0.239 OA 
HETATM    7  C   UNL     1      -9.684   6.261  71.539  1.00  0.00    -0.162 A  
HETATM    8  O   UNL     1      -9.560   4.300  70.258  1.00  0.00    -0.164 OA 
HETATM    9  C   UNL     1     -10.098   7.937  73.146  1.00  0.00    -0.362 A  
HETATM   10  C   UNL     1      -9.471   7.556  71.936  1.00  0.00    -0.144 A  
HETATM   11  S   UNL     1     -10.685   5.475  72.706  1.00  0.00    -0.266 SA 
HETATM   12  S   UNL     1      -8.499   8.551  70.943  1.00  0.00    -0.169 S  
HETATM   13  H   UNL     1     -10.063   3.838  70.918  1.00  0.00     0.000 HD 
HETATM   14  O   UNL     1      -7.296   8.749  71.711  1.00  0.00    -0.187 OA 
ENDROOT
BRANCH   3  15
HETATM   15  C   UNL     1      -8.168   5.497  68.147  1.00  0.00    -0.096 C  
HETATM   16  O   UNL     1      -7.031   5.044  67.996  1.00  0.00    -0.058 OA 
HETATM   17  N   UNL     1      -9.135   5.460  67.175  1.00  0.00    -0.111 N  
HETATM   18  H   UNL     1     -10.038   5.889  67.379  1.00  0.00     0.000 HD 
BRANCH  17  19
HETATM   19  C   UNL     1      -8.956   4.867  65.918  1.00  0.00    -0.134 A  
HETATM   20  C   UNL     1      -9.111   3.503  65.686  1.00  0.00    -0.149 A  
HETATM   21  C   UNL     1      -8.398   3.868  63.423  1.00  0.00    -0.091 A  
HETATM   22  C   UNL     1      -8.842   3.001  64.411  1.00  0.00    -0.109 A  
HETATM   23  C   UNL     1      -8.298   5.214  63.738  1.00  0.00    -0.130 A  
HETATM   24  N   UNL     1      -8.607   5.735  64.948  1.00  0.00    -0.111 NA 
ENDBRANCH  17  19
ENDBRANCH   3  15
TORSDOF 2
ENDMDL
MODEL      119
REMARK 921   NORMALIZED FREE ENERGY PREDICTED BY IDOCK:   -2.93 KCAL/MOL
REMARK 922        TOTAL FREE ENERGY PREDICTED BY IDOCK:   -3.64 KCAL/MOL
REMARK 923 INTER-LIGAND FREE ENERGY PREDICTED BY IDOCK:   -3.00 KCAL/MOL
REMARK 924 INTRA-LIGAND FREE ENERGY PREDICTED BY IDOCK:   -0.64 KCAL/MOL
REMARK 927      BINDING AFFINITY PREDICTED BY RF-SCORE:    0.00 PKD
ROOT
HETATM    1  C   UNL     1      -7.419   9.731  70.026  1.00  0.00    -0.154 C  
HETATM    2  N   UNL     1      -7.924   8.372  70.253  1.00  0.00    -0.098 N  
HETATM    3  C   UNL     1      -7.952   7.291  69.280  1.00  0.00    -0.118 C  
HETATM    4  C   UNL     1     -10.194   4.712  72.800  1.00  0.00    -0.180 A  
HETATM    5  C   UNL     1      -8.458   6.061  69.572  1.00  0.00    -0.119 C  
HETATM    6  O   UNL     1      -9.589   8.999  72.085  1.00  0.00    -0.312 OA 
HETATM    7  C   UNL     1      -9.034   5.738  70.845  1.00  0.00    -0.145 A  
HETATM    8  O   UNL     1      -8.490   5.001  68.687  1.00  0.00    -0.088 OA 
HETATM    9  C   UNL     1      -9.780   5.997  73.068  1.00  0.00    -0.163 A  
HETATM   10  C   UNL     1      -9.124   6.554  71.943  1.00  0.00    -0.148 A  
HETATM   11  S   UNL     1      -9.774   4.222  71.212  1.00  0.00    -0.188 SA 
HETATM   12  S   UNL     1      -8.457   8.124  71.835  1.00  0.00    -0.165 S  
HETATM   13  H   UNL     1      -8.843   4.143  68.891  1.00  0.00     0.000 HD 
HETATM   14  O   UNL     1      -7.310   8.079  72.706  1.00  0.00    -0.097 OA 
ENDROOT
BRANCH   3  15
HETATM   15  C   UNL     1      -7.505   7.480  67.844  1.00  0.00    -0.105 C  
HETATM   16  O   UNL     1      -6.298   7.567  67.602  1.00  0.00    -0.049 OA 
HETATM   17  N   UNL     1      -8.484   7.702  66.910  1.00  0.00    -0.123 N  
HETATM   18  H   UNL     1      -9.457   7.638  67.210  1.00  0.00     0.000 HD 
BRANCH  17  19
HETATM   19  C   UNL     1      -8.226   8.011  65.567  1.00  0.00    -0.138 A  
HETATM   20  C   UNL     1      -8.031   7.045  64.583  1.00  0.00    -0.114 A  
HETATM   21  C   UNL     1      -7.568   8.812  63.026  1.00  0.00    -0.108 A  
HETATM   22  C   UNL     1      -7.713   7.457  63.288  1.00  0.00    -0.121 A  
HETATM   23  C   UNL     1      -7.805   9.702  64.061  1.00  0.00    -0.137 A  
HETATM   24  N   UNL     1      -8.172   9.332  65.310  1.00  0.00    -0.127 NA 
ENDBRANCH  17  19
ENDBRANCH   3  15
TORSDOF 2
ENDMDL
MODEL      120
REMARK 921   NORMALIZED FREE ENERGY PREDICTED BY IDOCK:   -2.85 KCAL/MOL
REMARK 922        TOTAL FREE ENERGY PREDICTED BY IDOCK:   -3.55 KCAL/MOL
REMARK 923 INTER-LIGAND FREE ENERGY PREDICTED BY IDOCK:   -2.98 KCAL/MOL
REMARK 924 INTRA-LIGAND FREE ENERGY PREDICTED BY IDOCK:   -0.57 KCAL/MOL
REMARK 927      BINDING AFFINITY PREDICTED BY RF-SCORE:    0.00 PKD
ROOT
HETATM    1  C   UNL     1     -11.147  11.875  69.943  1.00  0.00     0.157 C  
HETATM    2  N   UNL     1     -11.103  12.237  68.522  1.00  0.00    -0.232 N  
HETATM    3  C   UNL     1     -10.921  11.321  67.406  1.00  0.00    -0.282 C  
HETATM    4  C   UNL     1     -10.989  15.348  64.605  1.00  0.00    -0.314 A  
HETATM    5  C   UNL     1     -10.874  11.748  66.114  1.00  0.00    -0.291 C  
HETATM    6  O   UNL     1     -10.254  14.620  68.869  1.00  0.00    -0.234 OA 
HETATM    7  C   UNL     1     -10.968  13.131  65.746  1.00  0.00    -0.277 A  
HETATM    8  O   UNL     1     -10.720  10.914  65.024  1.00  0.00    -0.249 OA 
HETATM    9  C   UNL     1     -11.173  15.471  65.964  1.00  0.00    -0.107 A  
HETATM   10  C   UNL     1     -11.159  14.199  66.585  1.00  0.00    -0.312 A  
HETATM   11  S   UNL     1     -10.812  13.711  64.128  1.00  0.00    -0.010 SA 
HETATM   12  S   UNL     1     -11.346  13.886  68.255  1.00  0.00    -0.315 S  
HETATM   13  H   UNL     1     -10.688  11.212  64.122  1.00  0.00     0.000 HD 
HETATM   14  O   UNL     1     -12.728  14.197  68.518  1.00  0.00     0.289 OA 
ENDROOT
BRANCH   3  15
HETATM   15  C   UNL     1     -10.676   9.838  67.606  1.00  0.00    -0.274 C  
HETATM   16  O   UNL     1     -11.532   9.166  68.187  1.00  0.00     0.391 OA 
HETATM   17  N   UNL     1      -9.439   9.359  67.263  1.00  0.00    -0.130 N  
HETATM   18  H   UNL     1      -8.784   9.998  66.812  1.00  0.00     0.000 HD 
BRANCH  17  19
HETATM   19  C   UNL     1      -9.020   8.041  67.496  1.00  0.00    -0.138 A  
HETATM   20  C   UNL     1      -9.180   7.012  66.571  1.00  0.00    -0.198 A  
HETATM   21  C   UNL     1      -8.288   5.491  68.200  1.00  0.00    -0.099 A  
HETATM   22  C   UNL     1      -8.790   5.720  66.927  1.00  0.00    -0.114 A  
HETATM   23  C   UNL     1      -8.141   6.580  69.044  1.00  0.00    -0.112 A  
HETATM   24  N   UNL     1      -8.456   7.851  68.704  1.00  0.00    -0.128 NA 
ENDBRANCH  17  19
ENDBRANCH   3  15
TORSDOF 2
ENDMDL
MODEL      121
REMARK 921   NORMALIZED FREE ENERGY PREDICTED BY IDOCK:   -2.85 KCAL/MOL
REMARK 922        TOTAL FREE ENERGY PREDICTED BY IDOCK:   -3.54 KCAL/MOL
REMARK 923 INTER-LIGAND FREE ENERGY PREDICTED BY IDOCK:   -3.15 KCAL/MOL
REMARK 924 INTRA-LIGAND FREE ENERGY PREDICTED BY IDOCK:   -0.39 KCAL/MOL
REMARK 927      BINDING AFFINITY PREDICTED BY RF-SCORE:    0.00 PKD
ROOT
HETATM    1  C   UNL     1     -10.797  10.409  65.924  1.00  0.00     0.149 C  
HETATM    2  N   UNL     1      -9.874  11.355  66.561  1.00  0.00    -0.203 N  
HETATM    3  C   UNL     1      -8.598  11.028  67.179  1.00  0.00    -0.136 C  
HETATM    4  C   UNL     1      -8.392  15.790  68.341  1.00  0.00    -0.164 A  
HETATM    5  C   UNL     1      -7.810  11.972  67.766  1.00  0.00    -0.145 C  
HETATM    6  O   UNL     1     -11.647  13.069  67.223  1.00  0.00    -0.315 OA 
HETATM    7  C   UNL     1      -8.183  13.354  67.854  1.00  0.00    -0.162 A  
HETATM    8  O   UNL     1      -6.585  11.710  68.349  1.00  0.00    -0.057 OA 
HETATM    9  C   UNL     1      -9.460  15.322  67.609  1.00  0.00    -0.205 A  
HETATM   10  C   UNL     1      -9.314  13.939  67.346  1.00  0.00    -0.228 A  
HETATM   11  S   UNL     1      -7.255  14.553  68.678  1.00  0.00    -0.133 SA 
HETATM   12  S   UNL     1     -10.407  12.954  66.475  1.00  0.00    -0.269 S  
HETATM   13  H   UNL     1      -6.036  12.368  68.758  1.00  0.00     0.000 HD 
HETATM   14  O   UNL     1     -10.283  13.409  65.114  1.00  0.00    -0.317 OA 
ENDROOT
BRANCH   3  15
HETATM   15  C   UNL     1      -8.095   9.603  67.297  1.00  0.00    -0.110 C  
HETATM   16  O   UNL     1      -7.056   9.287  66.712  1.00  0.00    -0.081 OA 
HETATM   17  N   UNL     1      -8.916   8.702  67.925  1.00  0.00    -0.140 N  
HETATM   18  H   UNL     1      -9.772   9.052  68.357  1.00  0.00     0.000 HD 
BRANCH  17  19
HETATM   19  C   UNL     1      -8.648   7.329  68.010  1.00  0.00    -0.125 A  
HETATM   20  C   UNL     1      -7.631   6.795  68.797  1.00  0.00    -0.105 A  
HETATM   21  C   UNL     1      -8.171   4.628  67.916  1.00  0.00    -0.099 A  
HETATM   22  C   UNL     1      -7.402   5.418  68.759  1.00  0.00    -0.074 A  
HETATM   23  C   UNL     1      -9.177   5.243  67.190  1.00  0.00    -0.113 A  
HETATM   24  N   UNL     1      -9.458   6.565  67.252  1.00  0.00    -0.122 NA 
ENDBRANCH  17  19
ENDBRANCH   3  15
TORSDOF 2
ENDMDL
MODEL      122
REMARK 921   NORMALIZED FREE ENERGY PREDICTED BY IDOCK:   -2.67 KCAL/MOL
REMARK 922        TOTAL FREE ENERGY PREDICTED BY IDOCK:   -3.35 KCAL/MOL
REMARK 923 INTER-LIGAND FREE ENERGY PREDICTED BY IDOCK:   -2.73 KCAL/MOL
REMARK 924 INTRA-LIGAND FREE ENERGY PREDICTED BY IDOCK:   -0.62 KCAL/MOL
REMARK 927      BINDING AFFINITY PREDICTED BY RF-SCORE:    0.00 PKD
ROOT
HETATM    1  C   UNL     1     -10.511   5.485  69.953  1.00  0.00    -0.316 C  
HETATM    2  N   UNL     1      -9.404   6.397  70.262  1.00  0.00    -0.158 N  
HETATM    3  C   UNL     1      -8.641   7.180  69.303  1.00  0.00    -0.137 C  
HETATM    4  C   UNL     1      -5.991   8.611  73.175  1.00  0.00    -0.092 A  
HETATM    5  C   UNL     1      -7.612   7.990  69.677  1.00  0.00    -0.096 C  
HETATM    6  O   UNL     1      -8.664   5.218  72.404  1.00  0.00    -0.124 OA 
HETATM    7  C   UNL     1      -7.174   8.115  71.038  1.00  0.00    -0.057 A  
HETATM    8  O   UNL     1      -6.873   8.764  68.804  1.00  0.00    -0.060 OA 
HETATM    9  C   UNL     1      -7.066   7.772  73.368  1.00  0.00    -0.110 A  
HETATM   10  C   UNL     1      -7.719   7.509  72.140  1.00  0.00    -0.089 A  
HETATM   11  S   UNL     1      -5.812   9.054  71.529  1.00  0.00    -0.065 SA 
HETATM   12  S   UNL     1      -9.093   6.518  71.917  1.00  0.00    -0.147 S  
HETATM   13  H   UNL     1      -6.155   9.329  69.066  1.00  0.00     0.000 HD 
HETATM   14  O   UNL     1     -10.165   7.257  72.534  1.00  0.00    -0.184 OA 
ENDROOT
BRANCH   3  15
HETATM   15  C   UNL     1      -8.874   7.081  67.808  1.00  0.00    -0.123 C  
HETATM   16  O   UNL     1      -9.931   7.511  67.340  1.00  0.00    -0.157 OA 
HETATM   17  N   UNL     1      -7.953   6.374  67.079  1.00  0.00    -0.108 N  
HETATM   18  H   UNL     1      -7.121   6.031  67.559  1.00  0.00     0.000 HD 
BRANCH  17  19
HETATM   19  C   UNL     1      -8.088   6.094  65.712  1.00  0.00    -0.124 A  
HETATM   20  C   UNL     1      -8.665   4.923  65.224  1.00  0.00    -0.146 A  
HETATM   21  C   UNL     1      -8.113   5.650  63.003  1.00  0.00    -0.105 A  
HETATM   22  C   UNL     1      -8.690   4.709  63.845  1.00  0.00    -0.140 A  
HETATM   23  C   UNL     1      -7.586   6.795  63.576  1.00  0.00    -0.093 A  
HETATM   24  N   UNL     1      -7.600   7.055  64.904  1.00  0.00    -0.098 NA 
ENDBRANCH  17  19
ENDBRANCH   3  15
TORSDOF 2
ENDMDL
MODEL      123
REMARK 921   NORMALIZED FREE ENERGY PREDICTED BY IDOCK:   -2.51 KCAL/MOL
REMARK 922        TOTAL FREE ENERGY PREDICTED BY IDOCK:   -3.16 KCAL/MOL
REMARK 923 INTER-LIGAND FREE ENERGY PREDICTED BY IDOCK:   -2.50 KCAL/MOL
REMARK 924 INTRA-LIGAND FREE ENERGY PREDICTED BY IDOCK:   -0.66 KCAL/MOL
REMARK 927      BINDING AFFINITY PREDICTED BY RF-SCORE:    0.00 PKD
ROOT
HETATM    1  C   UNL     1     -10.105   5.730  69.425  1.00  0.00    -0.213 C  
HETATM    2  N   UNL     1      -9.097   6.519  70.142  1.00  0.00    -0.154 N  
HETATM    3  C   UNL     1      -8.023   7.294  69.539  1.00  0.00    -0.127 C  
HETATM    4  C   UNL     1      -6.646   8.232  74.153  1.00  0.00    -0.128 A  
HETATM    5  C   UNL     1      -7.117   7.985  70.285  1.00  0.00    -0.048 C  
HETATM    6  O   UNL     1      -9.145   5.143  72.293  1.00  0.00    -0.131 OA 
HETATM    7  C   UNL     1      -7.123   7.982  71.719  1.00  0.00    -0.075 A  
HETATM    8  O   UNL     1      -6.093   8.747  69.756  1.00  0.00    -0.034 OA 
HETATM    9  C   UNL     1      -7.777   7.480  73.928  1.00  0.00    -0.159 A  
HETATM   10  C   UNL     1      -8.024   7.356  72.540  1.00  0.00    -0.100 A  
HETATM   11  S   UNL     1      -5.930   8.765  72.690  1.00  0.00    -0.043 SA 
HETATM   12  S   UNL     1      -9.317   6.504  71.815  1.00  0.00    -0.147 S  
HETATM   13  H   UNL     1      -5.461   9.229  70.276  1.00  0.00     0.000 HD 
HETATM   14  O   UNL     1     -10.480   7.292  72.134  1.00  0.00    -0.198 OA 
ENDROOT
BRANCH   3  15
HETATM   15  C   UNL     1      -7.779   7.314  68.043  1.00  0.00    -0.117 C  
HETATM   16  O   UNL     1      -7.369   6.289  67.492  1.00  0.00    -0.077 OA 
HETATM   17  N   UNL     1      -7.881   8.526  67.411  1.00  0.00    -0.098 N  
HETATM   18  H   UNL     1      -8.202   9.327  67.956  1.00  0.00     0.000 HD 
BRANCH  17  19
HETATM   19  C   UNL     1      -7.571   8.730  66.059  1.00  0.00    -0.093 A  
HETATM   20  C   UNL     1      -6.319   9.149  65.616  1.00  0.00    -0.067 A  
HETATM   21  C   UNL     1      -7.205   9.236  63.386  1.00  0.00    -0.096 A  
HETATM   22  C   UNL     1      -6.132   9.389  64.253  1.00  0.00    -0.079 A  
HETATM   23  C   UNL     1      -8.407   8.791  63.913  1.00  0.00    -0.141 A  
HETATM   24  N   UNL     1      -8.599   8.496  65.220  1.00  0.00    -0.176 NA 
ENDBRANCH  17  19
ENDBRANCH   3  15
TORSDOF 2
ENDMDL
MODEL      124
REMARK 921   NORMALIZED FREE ENERGY PREDICTED BY IDOCK:   -2.46 KCAL/MOL
REMARK 922        TOTAL FREE ENERGY PREDICTED BY IDOCK:   -3.11 KCAL/MOL
REMARK 923 INTER-LIGAND FREE ENERGY PREDICTED BY IDOCK:   -3.28 KCAL/MOL
REMARK 924 INTRA-LIGAND FREE ENERGY PREDICTED BY IDOCK:    0.17 KCAL/MOL
REMARK 927      BINDING AFFINITY PREDICTED BY RF-SCORE:    0.00 PKD
ROOT
HETATM    1  C   UNL     1      -9.386   8.957  68.939  1.00  0.00    -0.140 C  
HETATM    2  N   UNL     1      -9.183   7.996  67.849  1.00  0.00    -0.131 N  
HETATM    3  C   UNL     1      -9.419   6.562  67.912  1.00  0.00    -0.120 C  
HETATM    4  C   UNL     1      -7.699   6.479  63.318  1.00  0.00    -0.095 A  
HETATM    5  C   UNL     1      -9.185   5.738  66.853  1.00  0.00    -0.122 C  
HETATM    6  O   UNL     1      -7.372   9.329  66.638  1.00  0.00    -0.085 OA 
HETATM    7  C   UNL     1      -8.659   6.206  65.603  1.00  0.00    -0.145 A  
HETATM    8  O   UNL     1      -9.410   4.376  66.862  1.00  0.00    -0.131 OA 
HETATM    9  C   UNL     1      -7.815   7.686  63.972  1.00  0.00    -0.127 A  
HETATM   10  C   UNL     1      -8.363   7.501  65.263  1.00  0.00    -0.106 A  
HETATM   11  S   UNL     1      -8.259   5.174  64.279  1.00  0.00    -0.133 SA 
HETATM   12  S   UNL     1      -8.675   8.726  66.415  1.00  0.00    -0.146 S  
HETATM   13  H   UNL     1      -9.247   3.801  66.122  1.00  0.00     0.000 HD 
HETATM   14  O   UNL     1      -9.780   9.462  65.856  1.00  0.00    -0.253 OA 
ENDROOT
BRANCH   3  15
HETATM   15  C   UNL     1      -9.853   5.866  69.187  1.00  0.00    -0.156 C  
HETATM   16  O   UNL     1     -11.057   5.781  69.440  1.00  0.00    -0.346 OA 
HETATM   17  N   UNL     1      -8.866   5.507  70.068  1.00  0.00    -0.126 N  
HETATM   18  H   UNL     1      -7.895   5.641  69.784  1.00  0.00     0.000 HD 
BRANCH  17  19
HETATM   19  C   UNL     1      -9.111   4.965  71.337  1.00  0.00    -0.142 A  
HETATM   20  C   UNL     1      -8.190   4.178  72.025  1.00  0.00    -0.093 A  
HETATM   21  C   UNL     1      -9.839   3.855  73.740  1.00  0.00    -0.149 A  
HETATM   22  C   UNL     1      -8.558   3.629  73.255  1.00  0.00    -0.087 A  
HETATM   23  C   UNL     1     -10.679   4.670  72.999  1.00  0.00    -0.233 A  
HETATM   24  N   UNL     1     -10.328   5.262  71.834  1.00  0.00    -0.210 NA 
ENDBRANCH  17  19
ENDBRANCH   3  15
TORSDOF 2
ENDMDL
MODEL      125
REMARK 921   NORMALIZED FREE ENERGY PREDICTED BY IDOCK:   -2.31 KCAL/MOL
REMARK 922        TOTAL FREE ENERGY PREDICTED BY IDOCK:   -2.94 KCAL/MOL
REMARK 923 INTER-LIGAND FREE ENERGY PREDICTED BY IDOCK:   -3.25 KCAL/MOL
REMARK 924 INTRA-LIGAND FREE ENERGY PREDICTED BY IDOCK:    0.31 KCAL/MOL
REMARK 927      BINDING AFFINITY PREDICTED BY RF-SCORE:    0.00 PKD
ROOT
HETATM    1  C   UNL     1      -9.290   3.391  69.110  1.00  0.00    -0.167 C  
HETATM    2  N   UNL     1      -8.922   3.752  67.736  1.00  0.00    -0.122 N  
HETATM    3  C   UNL     1      -8.830   5.100  67.196  1.00  0.00    -0.109 C  
HETATM    4  C   UNL     1      -7.804   2.896  62.935  1.00  0.00    -0.068 A  
HETATM    5  C   UNL     1      -8.496   5.343  65.898  1.00  0.00    -0.127 C  
HETATM    6  O   UNL     1      -9.725   1.583  66.655  1.00  0.00     0.286 OA 
HETATM    7  C   UNL     1      -8.242   4.298  64.950  1.00  0.00    -0.103 A  
HETATM    8  O   UNL     1      -8.380   6.605  65.348  1.00  0.00    -0.139 OA 
HETATM    9  C   UNL     1      -7.998   2.127  64.061  1.00  0.00    -0.073 A  
HETATM   10  C   UNL     1      -8.243   2.948  65.188  1.00  0.00    -0.091 A  
HETATM   11  S   UNL     1      -7.917   4.572  63.277  1.00  0.00    -0.085 SA 
HETATM   12  S   UNL     1      -8.540   2.412  66.784  1.00  0.00    -0.119 S  
HETATM   13  H   UNL     1      -8.148   6.774  64.442  1.00  0.00     0.000 HD 
HETATM   14  O   UNL     1      -7.272   1.884  67.220  1.00  0.00    -0.052 OA 
ENDROOT
BRANCH   3  15
HETATM   15  C   UNL     1      -9.187   6.327  68.012  1.00  0.00    -0.116 C  
HETATM   16  O   UNL     1      -8.358   7.235  68.117  1.00  0.00    -0.123 OA 
HETATM   17  N   UNL     1     -10.361   6.286  68.719  1.00  0.00    -0.184 N  
HETATM   18  H   UNL     1     -10.971   5.478  68.590  1.00  0.00     0.000 HD 
BRANCH  17  19
HETATM   19  C   UNL     1     -10.772   7.287  69.609  1.00  0.00    -0.236 A  
HETATM   20  C   UNL     1     -10.207   8.560  69.643  1.00  0.00    -0.209 A  
HETATM   21  C   UNL     1     -11.597   9.060  71.535  1.00  0.00    -0.413 A  
HETATM   22  C   UNL     1     -10.641   9.464  70.614  1.00  0.00    -0.354 A  
HETATM   23  C   UNL     1     -12.122   7.784  71.408  1.00  0.00    -0.311 A  
HETATM   24  N   UNL     1     -11.761   6.908  70.442  1.00  0.00    -0.342 NA 
ENDBRANCH  17  19
ENDBRANCH   3  15
TORSDOF 2
ENDMDL
MODEL      126
REMARK 921   NORMALIZED FREE ENERGY PREDICTED BY IDOCK:   -2.31 KCAL/MOL
REMARK 922        TOTAL FREE ENERGY PREDICTED BY IDOCK:   -2.94 KCAL/MOL
REMARK 923 INTER-LIGAND FREE ENERGY PREDICTED BY IDOCK:   -3.36 KCAL/MOL
REMARK 924 INTRA-LIGAND FREE ENERGY PREDICTED BY IDOCK:    0.42 KCAL/MOL
REMARK 927      BINDING AFFINITY PREDICTED BY RF-SCORE:    0.00 PKD
ROOT
HETATM    1  C   UNL     1      -7.969   7.078  69.465  1.00  0.00    -0.125 C  
HETATM    2  N   UNL     1      -7.932   7.221  68.005  1.00  0.00    -0.118 N  
HETATM    3  C   UNL     1      -8.295   8.408  67.247  1.00  0.00    -0.123 C  
HETATM    4  C   UNL     1      -7.388   5.669  63.280  1.00  0.00    -0.059 A  
HETATM    5  C   UNL     1      -8.248   8.446  65.886  1.00  0.00    -0.123 C  
HETATM    6  O   UNL     1      -8.273   4.745  67.477  1.00  0.00    -0.104 OA 
HETATM    7  C   UNL     1      -7.870   7.316  65.088  1.00  0.00    -0.123 A  
HETATM    8  O   UNL     1      -8.567   9.555  65.127  1.00  0.00    -0.142 OA 
HETATM    9  C   UNL     1      -7.187   5.129  64.530  1.00  0.00    -0.058 A  
HETATM   10  C   UNL     1      -7.466   6.085  65.535  1.00  0.00    -0.082 A  
HETATM   11  S   UNL     1      -7.897   7.303  63.362  1.00  0.00    -0.078 SA 
HETATM   12  S   UNL     1      -7.353   5.841  67.224  1.00  0.00    -0.077 S  
HETATM   13  H   UNL     1      -8.534   9.581  64.178  1.00  0.00     0.000 HD 
HETATM   14  O   UNL     1      -5.938   5.732  67.470  1.00  0.00    -0.016 OA 
ENDROOT
BRANCH   3  15
HETATM   15  C   UNL     1      -8.841   9.658  67.909  1.00  0.00    -0.119 C  
HETATM   16  O   UNL     1      -8.567   9.873  69.093  1.00  0.00    -0.135 OA 
HETATM   17  N   UNL     1      -9.741  10.402  67.191  1.00  0.00    -0.168 N  
HETATM   18  H   UNL     1      -9.927  10.130  66.225  1.00  0.00     0.000 HD 
BRANCH  17  19
HETATM   19  C   UNL     1     -10.422  11.513  67.706  1.00  0.00    -0.188 A  
HETATM   20  C   UNL     1     -11.232  11.458  68.838  1.00  0.00    -0.310 A  
HETATM   21  C   UNL     1     -11.805  13.760  68.464  1.00  0.00    -0.406 A  
HETATM   22  C   UNL     1     -11.921  12.608  69.230  1.00  0.00    -0.301 A  
HETATM   23  C   UNL     1     -10.957  13.729  67.370  1.00  0.00    -0.284 A  
HETATM   24  N   UNL     1     -10.233  12.646  67.002  1.00  0.00    -0.225 NA 
ENDBRANCH  17  19
ENDBRANCH   3  15
TORSDOF 2
ENDMDL
MODEL      127
REMARK 921   NORMALIZED FREE ENERGY PREDICTED BY IDOCK:   -2.18 KCAL/MOL
REMARK 922        TOTAL FREE ENERGY PREDICTED BY IDOCK:   -2.80 KCAL/MOL
REMARK 923 INTER-LIGAND FREE ENERGY PREDICTED BY IDOCK:   -2.81 KCAL/MOL
REMARK 924 INTRA-LIGAND FREE ENERGY PREDICTED BY IDOCK:    0.00 KCAL/MOL
REMARK 927      BINDING AFFINITY PREDICTED BY RF-SCORE:    0.00 PKD
ROOT
HETATM    1  C   UNL     1     -10.747   4.764  65.860  1.00  0.00    -0.173 C  
HETATM    2  N   UNL     1      -9.405   5.025  65.328  1.00  0.00    -0.127 N  
HETATM    3  C   UNL     1      -8.551   6.154  65.664  1.00  0.00    -0.145 C  
HETATM    4  C   UNL     1      -5.447   4.280  62.359  1.00  0.00    -0.009 A  
HETATM    5  C   UNL     1      -7.321   6.328  65.106  1.00  0.00    -0.077 C  
HETATM    6  O   UNL     1      -9.743   3.802  63.111  1.00  0.00    -0.134 OA 
HETATM    7  C   UNL     1      -6.779   5.437  64.121  1.00  0.00    -0.046 A  
HETATM    8  O   UNL     1      -6.470   7.373  65.408  1.00  0.00    -0.043 OA 
HETATM    9  C   UNL     1      -6.622   3.616  62.631  1.00  0.00    -0.026 A  
HETATM   10  C   UNL     1      -7.356   4.293  63.634  1.00  0.00    -0.054 A  
HETATM   11  S   UNL     1      -5.269   5.686  63.322  1.00  0.00    -0.013 SA 
HETATM   12  S   UNL     1      -8.870   3.821  64.272  1.00  0.00    -0.125 S  
HETATM   13  H   UNL     1      -5.612   7.494  65.018  1.00  0.00     0.000 HD 
HETATM   14  O   UNL     1      -8.577   2.636  65.036  1.00  0.00    -0.094 OA 
ENDROOT
BRANCH   3  15
HETATM   15  C   UNL     1      -9.004   7.266  66.589  1.00  0.00    -0.150 C  
HETATM   16  O   UNL     1      -9.441   6.973  67.704  1.00  0.00    -0.122 OA 
HETATM   17  N   UNL     1      -9.046   8.533  66.067  1.00  0.00    -0.187 N  
HETATM   18  H   UNL     1      -8.688   8.675  65.122  1.00  0.00     0.000 HD 
BRANCH  17  19
HETATM   19  C   UNL     1      -9.551   9.644  66.755  1.00  0.00    -0.173 A  
HETATM   20  C   UNL     1     -10.323  10.634  66.149  1.00  0.00    -0.291 A  
HETATM   21  C   UNL     1     -10.310  11.832  68.229  1.00  0.00    -0.217 A  
HETATM   22  C   UNL     1     -10.721  11.736  66.907  1.00  0.00    -0.288 A  
HETATM   23  C   UNL     1      -9.566  10.788  68.754  1.00  0.00    -0.189 A  
HETATM   24  N   UNL     1      -9.216   9.681  68.059  1.00  0.00    -0.126 NA 
ENDBRANCH  17  19
ENDBRANCH   3  15
TORSDOF 2
ENDMDL
MODEL      128
REMARK 921   NORMALIZED FREE ENERGY PREDICTED BY IDOCK:   -2.10 KCAL/MOL
REMARK 922        TOTAL FREE ENERGY PREDICTED BY IDOCK:   -2.71 KCAL/MOL
REMARK 923 INTER-LIGAND FREE ENERGY PREDICTED BY IDOCK:   -2.09 KCAL/MOL
REMARK 924 INTRA-LIGAND FREE ENERGY PREDICTED BY IDOCK:   -0.62 KCAL/MOL
REMARK 927      BINDING AFFINITY PREDICTED BY RF-SCORE:    0.00 PKD
ROOT
HETATM    1  C   UNL     1      -9.792  16.871  65.256  1.00  0.00     0.564 C  
HETATM    2  N   UNL     1     -10.008  15.806  66.241  1.00  0.00    -0.274 N  
HETATM    3  C   UNL     1      -9.304  15.647  67.504  1.00  0.00    -0.206 C  
HETATM    4  C   UNL     1     -11.945  11.543  68.004  1.00  0.00    -0.104 A  
HETATM    5  C   UNL     1      -9.558  14.613  68.354  1.00  0.00    -0.217 C  
HETATM    6  O   UNL     1     -10.852  14.059  64.580  1.00  0.00    -0.401 OA 
HETATM    7  C   UNL     1     -10.510  13.581  68.063  1.00  0.00    -0.242 A  
HETATM    8  O   UNL     1      -8.927  14.432  69.569  1.00  0.00    -0.363 OA 
HETATM    9  C   UNL     1     -12.145  12.341  66.901  1.00  0.00    -0.026 A  
HETATM   10  C   UNL     1     -11.320  13.490  66.961  1.00  0.00    -0.324 A  
HETATM   11  S   UNL     1     -10.780  12.206  69.072  1.00  0.00    -0.057 SA 
HETATM   12  S   UNL     1     -11.243  14.743  65.801  1.00  0.00    -0.331 S  
HETATM   13  H   UNL     1      -9.104  13.711  70.162  1.00  0.00     0.000 HD 
HETATM   14  O   UNL     1     -12.506  15.423  65.932  1.00  0.00     0.641 OA 
ENDROOT
BRANCH   3  15
HETATM   15  C   UNL     1      -8.174  16.566  67.925  1.00  0.00    -0.168 C  
HETATM   16  O   UNL     1      -7.027  16.116  67.977  1.00  0.00    -0.119 OA 
HETATM   17  N   UNL     1      -8.521  17.814  68.375  1.00  0.00    -0.289 N  
HETATM   18  H   UNL     1      -9.502  18.090  68.320  1.00  0.00     0.000 HD 
BRANCH  17  19
HETATM   19  C   UNL     1      -7.607  18.733  68.907  1.00  0.00    -0.278 A  
HETATM   20  C   UNL     1      -7.226  18.746  70.247  1.00  0.00     1.086 A  
HETATM   21  C   UNL     1      -5.931  20.717  69.798  1.00  0.00    -0.277 A  
HETATM   22  C   UNL     1      -6.360  19.747  70.692  1.00  0.00    -0.148 A  
HETATM   23  C   UNL     1      -6.341  20.610  68.479  1.00  0.00    -0.287 A  
HETATM   24  N   UNL     1      -7.132  19.617  68.008  1.00  0.00    -0.264 NA 
ENDBRANCH  17  19
ENDBRANCH   3  15
TORSDOF 2
ENDMDL
MODEL      129
REMARK 921   NORMALIZED FREE ENERGY PREDICTED BY IDOCK:   -2.09 KCAL/MOL
REMARK 922        TOTAL FREE ENERGY PREDICTED BY IDOCK:   -2.70 KCAL/MOL
REMARK 923 INTER-LIGAND FREE ENERGY PREDICTED BY IDOCK:   -2.00 KCAL/MOL
REMARK 924 INTRA-LIGAND FREE ENERGY PREDICTED BY IDOCK:   -0.71 KCAL/MOL
REMARK 927      BINDING AFFINITY PREDICTED BY RF-SCORE:    0.00 PKD
ROOT
HETATM    1  C   UNL     1     -10.380   4.860  69.912  1.00  0.00    -0.150 C  
HETATM    2  N   UNL     1      -9.120   4.987  70.654  1.00  0.00    -0.129 N  
HETATM    3  C   UNL     1      -7.864   5.504  70.135  1.00  0.00    -0.089 C  
HETATM    4  C   UNL     1      -6.036   4.383  74.547  1.00  0.00    -0.045 A  
HETATM    5  C   UNL     1      -6.734   5.570  70.893  1.00  0.00    -0.044 C  
HETATM    6  O   UNL     1      -9.580   3.093  72.305  1.00  0.00    -0.118 OA 
HETATM    7  C   UNL     1      -6.678   5.107  72.250  1.00  0.00    -0.053 A  
HETATM    8  O   UNL     1      -5.526   6.068  70.448  1.00  0.00    -0.012 OA 
HETATM    9  C   UNL     1      -7.374   4.171  74.300  1.00  0.00    -0.071 A  
HETATM   10  C   UNL     1      -7.710   4.592  72.991  1.00  0.00    -0.088 A  
HETATM   11  S   UNL     1      -5.239   5.084  73.202  1.00  0.00    -0.009 SA 
HETATM   12  S   UNL     1      -9.257   4.509  72.268  1.00  0.00    -0.128 S  
HETATM   13  H   UNL     1      -4.738   6.114  70.977  1.00  0.00     0.000 HD 
HETATM   14  O   UNL     1     -10.031   5.496  72.977  1.00  0.00    -0.170 OA 
ENDROOT
BRANCH   3  15
HETATM   15  C   UNL     1      -7.695   5.921  68.687  1.00  0.00    -0.094 C  
HETATM   16  O   UNL     1      -7.247   5.104  67.880  1.00  0.00    -0.065 OA 
HETATM   17  N   UNL     1      -7.907   7.243  68.391  1.00  0.00    -0.120 N  
HETATM   18  H   UNL     1      -8.251   7.853  69.133  1.00  0.00     0.000 HD 
BRANCH  17  19
HETATM   19  C   UNL     1      -7.678   7.806  67.128  1.00  0.00    -0.105 A  
HETATM   20  C   UNL     1      -6.475   8.409  66.765  1.00  0.00    -0.056 A  
HETATM   21  C   UNL     1      -7.476   9.001  64.665  1.00  0.00    -0.103 A  
HETATM   22  C   UNL     1      -6.371   9.001  65.505  1.00  0.00    -0.067 A  
HETATM   23  C   UNL     1      -8.622   8.356  65.100  1.00  0.00    -0.132 A  
HETATM   24  N   UNL     1      -8.731   7.724  66.292  1.00  0.00    -0.148 NA 
ENDBRANCH  17  19
ENDBRANCH   3  15
TORSDOF 2
ENDMDL
MODEL      130
REMARK 921   NORMALIZED FREE ENERGY PREDICTED BY IDOCK:   -1.88 KCAL/MOL
REMARK 922        TOTAL FREE ENERGY PREDICTED BY IDOCK:   -2.47 KCAL/MOL
REMARK 923 INTER-LIGAND FREE ENERGY PREDICTED BY IDOCK:   -2.00 KCAL/MOL
REMARK 924 INTRA-LIGAND FREE ENERGY PREDICTED BY IDOCK:   -0.47 KCAL/MOL
REMARK 927      BINDING AFFINITY PREDICTED BY RF-SCORE:    0.00 PKD
ROOT
HETATM    1  C   UNL     1      -8.336  15.924  66.921  1.00  0.00    -0.246 C  
HETATM    2  N   UNL     1      -9.148  15.271  67.954  1.00  0.00    -0.174 N  
HETATM    3  C   UNL     1      -9.254  13.839  68.187  1.00  0.00    -0.199 C  
HETATM    4  C   UNL     1     -12.509  15.045  71.653  1.00  0.00    -0.339 A  
HETATM    5  C   UNL     1     -10.049  13.316  69.162  1.00  0.00     0.276 C  
HETATM    6  O   UNL     1     -10.905  17.116  68.134  1.00  0.00    -0.373 OA 
HETATM    7  C   UNL     1     -10.870  14.126  70.015  1.00  0.00     0.224 A  
HETATM    8  O   UNL     1     -10.167  11.966  69.429  1.00  0.00    -0.409 OA 
HETATM    9  C   UNL     1     -11.878  16.043  70.946  1.00  0.00    -0.409 A  
HETATM   10  C   UNL     1     -10.954  15.494  70.026  1.00  0.00    -0.319 A  
HETATM   11  S   UNL     1     -11.962  13.488  71.189  1.00  0.00     0.338 SA 
HETATM   12  S   UNL     1      -9.959  16.370  68.946  1.00  0.00    -0.270 S  
HETATM   13  H   UNL     1     -10.722  11.602  70.109  1.00  0.00     0.000 HD 
HETATM   14  O   UNL     1      -8.997  17.018  69.800  1.00  0.00     0.528 OA 
ENDROOT
BRANCH   3  15
HETATM   15  C   UNL     1      -8.560  12.820  67.304  1.00  0.00    -0.197 C  
HETATM   16  O   UNL     1      -9.143  12.407  66.299  1.00  0.00    -0.194 OA 
HETATM   17  N   UNL     1      -7.378  12.299  67.764  1.00  0.00    -0.106 N  
HETATM   18  H   UNL     1      -6.985  12.685  68.623  1.00  0.00     0.000 HD 
BRANCH  17  19
HETATM   19  C   UNL     1      -6.679  11.267  67.124  1.00  0.00    -0.113 A  
HETATM   20  C   UNL     1      -6.283  11.323  65.790  1.00  0.00     0.227 A  
HETATM   21  C   UNL     1      -5.464   9.076  66.002  1.00  0.00    -0.041 A  
HETATM   22  C   UNL     1      -5.650  10.213  65.227  1.00  0.00    -0.089 A  
HETATM   23  C   UNL     1      -5.867   9.121  67.326  1.00  0.00    -0.046 A  
HETATM   24  N   UNL     1      -6.429  10.203  67.912  1.00  0.00    -0.061 NA 
ENDBRANCH  17  19
ENDBRANCH   3  15
TORSDOF 2
ENDMDL
MODEL      131
REMARK 921   NORMALIZED FREE ENERGY PREDICTED BY IDOCK:   -1.79 KCAL/MOL
REMARK 922        TOTAL FREE ENERGY PREDICTED BY IDOCK:   -2.36 KCAL/MOL
REMARK 923 INTER-LIGAND FREE ENERGY PREDICTED BY IDOCK:   -2.17 KCAL/MOL
REMARK 924 INTRA-LIGAND FREE ENERGY PREDICTED BY IDOCK:   -0.19 KCAL/MOL
REMARK 927      BINDING AFFINITY PREDICTED BY RF-SCORE:    0.00 PKD
ROOT
HETATM    1  C   UNL     1      -5.591  14.520  68.147  1.00  0.00    -0.124 C  
HETATM    2  N   UNL     1      -6.869  13.845  68.397  1.00  0.00    -0.090 N  
HETATM    3  C   UNL     1      -8.193  14.436  68.274  1.00  0.00    -0.149 C  
HETATM    4  C   UNL     1      -9.842  10.107  69.888  1.00  0.00    -0.177 A  
HETATM    5  C   UNL     1      -9.330  13.738  68.546  1.00  0.00    -0.144 C  
HETATM    6  O   UNL     1      -5.961  12.145  70.072  1.00  0.00    -0.135 OA 
HETATM    7  C   UNL     1      -9.320  12.380  69.005  1.00  0.00     0.422 A  
HETATM    8  O   UNL     1     -10.607  14.253  68.426  1.00  0.00    -0.240 OA 
HETATM    9  C   UNL     1      -8.490  10.283  69.695  1.00  0.00    -0.132 A  
HETATM   10  C   UNL     1      -8.224  11.579  69.193  1.00  0.00     0.166 A  
HETATM   11  S   UNL     1     -10.738  11.503  69.453  1.00  0.00     0.012 SA 
HETATM   12  S   UNL     1      -6.685  12.220  68.815  1.00  0.00    -0.093 S  
HETATM   13  H   UNL     1     -11.400  13.766  68.616  1.00  0.00     0.000 HD 
HETATM   14  O   UNL     1      -6.275  11.487  67.644  1.00  0.00    -0.053 OA 
ENDROOT
BRANCH   3  15
HETATM   15  C   UNL     1      -8.399  15.897  67.925  1.00  0.00    -0.153 C  
HETATM   16  O   UNL     1      -9.239  16.193  67.071  1.00  0.00    -0.202 OA 
HETATM   17  N   UNL     1      -7.523  16.799  68.471  1.00  0.00    -0.201 N  
HETATM   18  H   UNL     1      -6.841  16.456  69.149  1.00  0.00     0.000 HD 
BRANCH  17  19
HETATM   19  C   UNL     1      -7.508  18.164  68.154  1.00  0.00    -0.258 A  
HETATM   20  C   UNL     1      -6.660  18.718  67.198  1.00  0.00    -0.202 A  
HETATM   21  C   UNL     1      -7.509  20.884  67.790  1.00  0.00    -0.157 A  
HETATM   22  C   UNL     1      -6.676  20.101  67.004  1.00  0.00    -0.259 A  
HETATM   23  C   UNL     1      -8.336  20.243  68.697  1.00  0.00     0.290 A  
HETATM   24  N   UNL     1      -8.383  18.901  68.864  1.00  0.00    -0.287 NA 
ENDBRANCH  17  19
ENDBRANCH   3  15
TORSDOF 2
ENDMDL
MODEL      132
REMARK 921   NORMALIZED FREE ENERGY PREDICTED BY IDOCK:   -1.40 KCAL/MOL
REMARK 922        TOTAL FREE ENERGY PREDICTED BY IDOCK:   -1.92 KCAL/MOL
REMARK 923 INTER-LIGAND FREE ENERGY PREDICTED BY IDOCK:   -2.77 KCAL/MOL
REMARK 924 INTRA-LIGAND FREE ENERGY PREDICTED BY IDOCK:    0.85 KCAL/MOL
REMARK 927      BINDING AFFINITY PREDICTED BY RF-SCORE:    0.00 PKD
ROOT
HETATM    1  C   UNL     1     -10.054  10.526  68.876  1.00  0.00    -0.202 C  
HETATM    2  N   UNL     1      -9.408   9.655  67.888  1.00  0.00    -0.128 N  
HETATM    3  C   UNL     1      -8.907   8.309  68.124  1.00  0.00    -0.139 C  
HETATM    4  C   UNL     1      -7.385   8.485  63.464  1.00  0.00    -0.106 A  
HETATM    5  C   UNL     1      -8.303   7.576  67.149  1.00  0.00    -0.121 C  
HETATM    6  O   UNL     1      -8.491  11.533  66.420  1.00  0.00    -0.175 OA 
HETATM    7  C   UNL     1      -8.079   8.075  65.824  1.00  0.00    -0.121 A  
HETATM    8  O   UNL     1      -7.828   6.290  67.324  1.00  0.00    -0.105 OA 
HETATM    9  C   UNL     1      -8.077   9.554  63.986  1.00  0.00    -0.152 A  
HETATM   10  C   UNL     1      -8.459   9.294  65.324  1.00  0.00    -0.154 A  
HETATM   11  S   UNL     1      -7.227   7.209  64.598  1.00  0.00    -0.079 SA 
HETATM   12  S   UNL     1      -9.329  10.348  66.351  1.00  0.00    -0.170 S  
HETATM   13  H   UNL     1      -7.406   5.779  66.643  1.00  0.00     0.000 HD 
HETATM   14  O   UNL     1     -10.655  10.373  65.788  1.00  0.00    -0.154 OA 
ENDROOT
BRANCH   3  15
HETATM   15  C   UNL     1      -8.939   7.661  69.495  1.00  0.00    -0.139 C  
HETATM   16  O   UNL     1      -9.800   8.018  70.302  1.00  0.00    -0.182 OA 
HETATM   17  N   UNL     1      -7.903   6.821  69.811  1.00  0.00    -0.113 N  
HETATM   18  H   UNL     1      -7.219   6.606  69.084  1.00  0.00     0.000 HD 
BRANCH  17  19
HETATM   19  C   UNL     1      -7.727   6.240  71.074  1.00  0.00    -0.105 A  
HETATM   20  C   UNL     1      -7.075   5.026  71.274  1.00  0.00    -0.056 A  
HETATM   21  C   UNL     1      -7.627   5.182  73.605  1.00  0.00    -0.092 A  
HETATM   22  C   UNL     1      -7.012   4.499  72.566  1.00  0.00    -0.061 A  
HETATM   23  C   UNL     1      -8.230   6.396  73.317  1.00  0.00    -0.114 A  
HETATM   24  N   UNL     1      -8.255   6.957  72.085  1.00  0.00    -0.105 NA 
ENDBRANCH  17  19
ENDBRANCH   3  15
TORSDOF 2
ENDMDL
MODEL      133
REMARK 921   NORMALIZED FREE ENERGY PREDICTED BY IDOCK:    0.14 KCAL/MOL
REMARK 922        TOTAL FREE ENERGY PREDICTED BY IDOCK:   -0.21 KCAL/MOL
REMARK 923 INTER-LIGAND FREE ENERGY PREDICTED BY IDOCK:    0.13 KCAL/MOL
REMARK 924 INTRA-LIGAND FREE ENERGY PREDICTED BY IDOCK:   -0.34 KCAL/MOL
REMARK 927      BINDING AFFINITY PREDICTED BY RF-SCORE:    0.00 PKD
ROOT
HETATM    1  C   UNL     1      -5.136   9.936  67.186  1.00  0.00    -0.041 C  
HETATM    2  N   UNL     1      -6.502   9.471  66.918  1.00  0.00    -0.066 N  
HETATM    3  C   UNL     1      -7.731  10.181  67.238  1.00  0.00    -0.095 C  
HETATM    4  C   UNL     1     -10.014   6.210  65.482  1.00  0.00     0.824 A  
HETATM    5  C   UNL     1      -8.961   9.664  66.968  1.00  0.00    -0.134 C  
HETATM    6  O   UNL     1      -5.962   6.976  66.981  1.00  0.00    -0.024 OA 
HETATM    7  C   UNL     1      -9.152   8.370  66.379  1.00  0.00    -0.187 A  
HETATM    8  O   UNL     1     -10.153  10.309  67.239  1.00  0.00    -0.184 OA 
HETATM    9  C   UNL     1      -8.639   6.264  65.452  1.00  0.00    -0.097 A  
HETATM   10  C   UNL     1      -8.178   7.500  65.965  1.00  0.00    -0.130 A  
HETATM   11  S   UNL     1     -10.697   7.648  66.118  1.00  0.00     1.939 SA 
HETATM   12  S   UNL     1      -6.546   7.986  66.116  1.00  0.00    -0.047 S  
HETATM   13  H   UNL     1     -11.011   9.949  67.050  1.00  0.00     0.000 HD 
HETATM   14  O   UNL     1      -6.110   8.184  64.757  1.00  0.00    -0.048 OA 
ENDROOT
BRANCH   3  15
HETATM   15  C   UNL     1      -7.733  11.504  67.978  1.00  0.00    -0.119 C  
HETATM   16  O   UNL     1      -7.488  11.512  69.187  1.00  0.00    -0.100 OA 
HETATM   17  N   UNL     1      -8.165  12.605  67.284  1.00  0.00    -0.184 N  
HETATM   18  H   UNL     1      -8.373  12.497  66.291  1.00  0.00     0.000 HD 
BRANCH  17  19
HETATM   19  C   UNL     1      -8.337  13.872  67.859  1.00  0.00    -0.167 A  
HETATM   20  C   UNL     1      -7.402  14.461  68.708  1.00  0.00    -0.131 A  
HETATM   21  C   UNL     1      -8.927  16.288  69.020  1.00  0.00    -0.254 A  
HETATM   22  C   UNL     1      -7.699  15.698  69.283  1.00  0.00    -0.223 A  
HETATM   23  C   UNL     1      -9.783  15.642  68.144  1.00  0.00    -0.204 A  
HETATM   24  N   UNL     1      -9.496  14.471  67.527  1.00  0.00    -0.200 NA 
ENDBRANCH  17  19
ENDBRANCH   3  15
TORSDOF 2
ENDMDL
MODEL      134
REMARK 921   NORMALIZED FREE ENERGY PREDICTED BY IDOCK:    6.35 KCAL/MOL
REMARK 922        TOTAL FREE ENERGY PREDICTED BY IDOCK:    6.73 KCAL/MOL
REMARK 923 INTER-LIGAND FREE ENERGY PREDICTED BY IDOCK:    7.17 KCAL/MOL
REMARK 924 INTRA-LIGAND FREE ENERGY PREDICTED BY IDOCK:   -0.44 KCAL/MOL
REMARK 927      BINDING AFFINITY PREDICTED BY RF-SCORE:    0.00 PKD
ROOT
HETATM    1  C   UNL     1      -8.131  13.733  69.178  1.00  0.00     0.290 C  
HETATM    2  N   UNL     1      -8.954  12.800  68.399  1.00  0.00    -0.161 N  
HETATM    3  C   UNL     1      -9.251  11.419  68.746  1.00  0.00    -0.100 C  
HETATM    4  C   UNL     1     -11.632  11.269  64.460  1.00  0.00     0.181 A  
HETATM    5  C   UNL     1     -10.013  10.616  67.953  1.00  0.00    -0.166 C  
HETATM    6  O   UNL     1      -8.529  13.885  66.127  1.00  0.00     0.517 OA 
HETATM    7  C   UNL     1     -10.557  11.050  66.699  1.00  0.00    -0.262 A  
HETATM    8  O   UNL     1     -10.334   9.306  68.251  1.00  0.00    -0.200 OA 
HETATM    9  C   UNL     1     -11.049  12.449  64.865  1.00  0.00    -0.344 A  
HETATM   10  C   UNL     1     -10.450  12.296  66.138  1.00  0.00    -0.240 A  
HETATM   11  S   UNL     1     -11.440  10.027  65.625  1.00  0.00     3.150 SA 
HETATM   12  S   UNL     1      -9.614  13.503  67.014  1.00  0.00    -0.255 S  
HETATM   13  H   UNL     1     -10.865   8.746  67.697  1.00  0.00     0.000 HD 
HETATM   14  O   UNL     1     -10.645  14.426  67.413  1.00  0.00    -0.266 OA 
ENDROOT
BRANCH   3  15
HETATM   15  C   UNL     1      -8.658  10.744  69.969  1.00  0.00     0.874 C  
HETATM   16  O   UNL     1      -8.836  11.257  71.076  1.00  0.00     4.626 OA 
HETATM   17  N   UNL     1      -7.823   9.680  69.750  1.00  0.00    -0.124 N  
HETATM   18  H   UNL     1      -7.715   9.342  68.793  1.00  0.00     0.000 HD 
BRANCH  17  19
HETATM   19  C   UNL     1      -7.108   9.028  70.764  1.00  0.00    -0.092 A  
HETATM   20  C   UNL     1      -6.015   9.595  71.416  1.00  0.00    -0.025 A  
HETATM   21  C   UNL     1      -5.732   7.530  72.607  1.00  0.00    -0.040 A  
HETATM   22  C   UNL     1      -5.329   8.835  72.365  1.00  0.00    -0.055 A  
HETATM   23  C   UNL     1      -6.845   7.058  71.929  1.00  0.00    -0.060 A  
HETATM   24  N   UNL     1      -7.563   7.792  71.048  1.00  0.00    -0.080 NA 
ENDBRANCH  17  19
ENDBRANCH   3  15
TORSDOF 2
ENDMDL
MODEL      135
REMARK 921   NORMALIZED FREE ENERGY PREDICTED BY IDOCK:    6.43 KCAL/MOL
REMARK 922        TOTAL FREE ENERGY PREDICTED BY IDOCK:    6.82 KCAL/MOL
REMARK 923 INTER-LIGAND FREE ENERGY PREDICTED BY IDOCK:    7.35 KCAL/MOL
REMARK 924 INTRA-LIGAND FREE ENERGY PREDICTED BY IDOCK:   -0.53 KCAL/MOL
REMARK 927      BINDING AFFINITY PREDICTED BY RF-SCORE:    0.00 PKD
ROOT
HETATM    1  C   UNL     1      -9.268  15.493  70.037  1.00  0.00     0.237 C  
HETATM    2  N   UNL     1      -9.077  14.693  68.822  1.00  0.00    -0.191 N  
HETATM    3  C   UNL     1      -8.924  15.206  67.469  1.00  0.00    -0.180 C  
HETATM    4  C   UNL     1      -8.801  10.491  66.120  1.00  0.00    -0.159 A  
HETATM    5  C   UNL     1      -8.768  14.386  66.392  1.00  0.00     0.112 C  
HETATM    6  O   UNL     1     -10.263  12.600  69.679  1.00  0.00     0.637 OA 
HETATM    7  C   UNL     1      -8.774  12.956  66.495  1.00  0.00     0.052 A  
HETATM    8  O   UNL     1      -8.602  14.829  65.095  1.00  0.00     1.728 OA 
HETATM    9  C   UNL     1      -8.903  10.806  67.456  1.00  0.00    -0.128 A  
HETATM   10  C   UNL     1      -8.883  12.209  67.640  1.00  0.00    -0.172 A  
HETATM   11  S   UNL     1      -8.680  11.891  65.139  1.00  0.00     0.832 SA 
HETATM   12  S   UNL     1      -8.990  13.036  69.132  1.00  0.00     0.909 S  
HETATM   13  H   UNL     1      -8.493  14.257  64.344  1.00  0.00     0.000 HD 
HETATM   14  O   UNL     1      -7.735  12.754  69.781  1.00  0.00     0.882 OA 
ENDROOT
BRANCH   3  15
HETATM   15  C   UNL     1      -9.019  16.684  67.146  1.00  0.00    -0.210 C  
HETATM   16  O   UNL     1     -10.134  17.194  67.008  1.00  0.00    -0.280 OA 
HETATM   17  N   UNL     1      -7.846  17.339  66.872  1.00  0.00    -0.202 N  
HETATM   18  H   UNL     1      -6.971  16.827  66.987  1.00  0.00     0.000 HD 
BRANCH  17  19
HETATM   19  C   UNL     1      -7.778  18.672  66.444  1.00  0.00    -0.268 A  
HETATM   20  C   UNL     1      -7.236  19.697  67.216  1.00  0.00    -0.248 A  
HETATM   21  C   UNL     1      -7.885  21.248  65.501  1.00  0.00     1.672 A  
HETATM   22  C   UNL     1      -7.278  21.004  66.725  1.00  0.00    -0.188 A  
HETATM   23  C   UNL     1      -8.374  20.163  64.792  1.00  0.00     1.890 A  
HETATM   24  N   UNL     1      -8.295  18.881  65.217  1.00  0.00     0.626 NA 
ENDBRANCH  17  19
ENDBRANCH   3  15
TORSDOF 2
ENDMDL
MODEL      136
REMARK 921   NORMALIZED FREE ENERGY PREDICTED BY IDOCK:    6.81 KCAL/MOL
REMARK 922        TOTAL FREE ENERGY PREDICTED BY IDOCK:    7.24 KCAL/MOL
REMARK 923 INTER-LIGAND FREE ENERGY PREDICTED BY IDOCK:    6.94 KCAL/MOL
REMARK 924 INTRA-LIGAND FREE ENERGY PREDICTED BY IDOCK:    0.30 KCAL/MOL
REMARK 927      BINDING AFFINITY PREDICTED BY RF-SCORE:    0.00 PKD
ROOT
HETATM    1  C   UNL     1      -6.595  13.580  70.159  1.00  0.00     0.170 C  
HETATM    2  N   UNL     1      -7.187  13.036  68.932  1.00  0.00    -0.084 N  
HETATM    3  C   UNL     1      -8.607  12.952  68.625  1.00  0.00     0.053 C  
HETATM    4  C   UNL     1      -7.180  10.707  64.504  1.00  0.00     0.205 A  
HETATM    5  C   UNL     1      -9.071  12.413  67.464  1.00  0.00    -0.185 C  
HETATM    6  O   UNL     1      -5.274  11.433  68.389  1.00  0.00    -0.040 OA 
HETATM    7  C   UNL     1      -8.206  11.855  66.464  1.00  0.00    -0.026 A  
HETATM    8  O   UNL     1     -10.407  12.328  67.124  1.00  0.00    -0.216 OA 
HETATM    9  C   UNL     1      -6.226  11.168  65.383  1.00  0.00     0.351 A  
HETATM   10  C   UNL     1      -6.836  11.816  66.484  1.00  0.00     0.113 A  
HETATM   11  S   UNL     1      -8.768  11.075  65.030  1.00  0.00     0.046 SA 
HETATM   12  S   UNL     1      -6.030  12.531  67.811  1.00  0.00    -0.134 S  
HETATM   13  H   UNL     1     -10.730  11.952  66.314  1.00  0.00     0.000 HD 
HETATM   14  O   UNL     1      -5.393  13.695  67.250  1.00  0.00    -0.331 OA 
ENDROOT
BRANCH   3  15
HETATM   15  C   UNL     1      -9.676  13.373  69.614  1.00  0.00     1.388 C  
HETATM   16  O   UNL     1      -9.439  13.287  70.821  1.00  0.00     5.440 OA 
HETATM   17  N   UNL     1     -10.911  13.681  69.103  1.00  0.00    -0.395 N  
HETATM   18  H   UNL     1     -11.020  13.699  68.089  1.00  0.00     0.000 HD 
BRANCH  17  19
HETATM   19  C   UNL     1     -12.031  13.973  69.893  1.00  0.00    -0.336 A  
HETATM   20  C   UNL     1     -13.068  13.069  70.114  1.00  0.00     0.697 A  
HETATM   21  C   UNL     1     -14.222  14.786  71.333  1.00  0.00    -0.514 A  
HETATM   22  C   UNL     1     -14.173  13.482  70.861  1.00  0.00     1.494 A  
HETATM   23  C   UNL     1     -13.134  15.606  71.086  1.00  0.00    -0.459 A  
HETATM   24  N   UNL     1     -12.026  15.215  70.415  1.00  0.00    -0.294 NA 
ENDBRANCH  17  19
ENDBRANCH   3  15
TORSDOF 2
ENDMDL
