MODEL        1
REMARK 921   NORMALIZED FREE ENERGY PREDICTED BY IDOCK:   -7.58 KCAL/MOL
REMARK 922        TOTAL FREE ENERGY PREDICTED BY IDOCK:   -9.88 KCAL/MOL
REMARK 923 INTER-LIGAND FREE ENERGY PREDICTED BY IDOCK:   -9.36 KCAL/MOL
REMARK 924 INTRA-LIGAND FREE ENERGY PREDICTED BY IDOCK:   -0.52 KCAL/MOL
REMARK 927      BINDING AFFINITY PREDICTED BY RF-SCORE:    0.00 PKD
ROOT
HETATM    1  C   UNL     1      -9.991   7.892  69.633  1.00  0.00    -0.191 C  
HETATM    2  O   UNL     1     -11.309   7.967  70.169  1.00  0.00    -0.214 OA 
ENDROOT
BRANCH   2   3
HETATM    3  C   UNL     1     -11.750   9.220  70.503  1.00  0.00    -0.176 A  
HETATM    4  C   UNL     1     -12.623   9.365  71.588  1.00  0.00    -0.375 A  
HETATM    5  C   UNL     1     -13.114  10.636  71.899  1.00  0.00    -0.563 A  
HETATM    6  C   UNL     1     -11.804  11.639  70.123  1.00  0.00    -0.344 A  
HETATM    7  C   UNL     1     -12.693  11.780  71.180  1.00  0.00    -0.405 A  
HETATM    8  C   UNL     1     -11.344  10.367  69.804  1.00  0.00    -0.353 A  
HETATM    9  C   UNL     1     -13.081  13.095  71.435  1.00  0.00    -0.266 A  
HETATM   10  N   UNL     1     -13.983  13.404  72.460  1.00  0.00    -0.751 NA 
HETATM   11  N   UNL     1     -12.637  14.141  70.725  1.00  0.00    -0.344 NA 
HETATM   12  H1  UNL     1     -14.266  14.366  72.647  1.00  0.00     0.000 HD 
HETATM   13  C   UNL     1     -11.776  13.908  69.725  1.00  0.00    -0.309 A  
HETATM   14  H2  UNL     1     -13.620  13.010  73.328  1.00  0.00     0.000 HD 
HETATM   15  N   UNL     1     -11.361  12.675  69.405  1.00  0.00    -0.238 NA 
BRANCH   4  16
HETATM   16  O   UNL     1     -13.132   8.375  72.385  1.00  0.00    -0.307 OA 
HETATM   17  C   UNL     1     -14.314   7.730  71.927  1.00  0.00    -0.422 C  
ENDBRANCH   4  16
BRANCH  13  18
HETATM   18  N   UNL     1     -11.202  14.973  69.059  1.00  0.00    -0.253 NA 
HETATM   19  C   UNL     1     -10.587  16.035  66.949  1.00  0.00    -0.300 C  
HETATM   20  C   UNL     1     -10.588  14.725  67.754  1.00  0.00    -0.257 C  
HETATM   21  N   UNL     1      -9.959  17.142  67.688  1.00  0.00    -0.274 N  
HETATM   22  C   UNL     1     -10.487  17.338  69.049  1.00  0.00    -0.309 C  
HETATM   23  C   UNL     1      -9.226  18.075  66.972  1.00  0.00    -0.265 C  
HETATM   24  O   UNL     1      -9.016  17.927  65.765  1.00  0.00    -0.492 OA 
HETATM   25  C   UNL     1     -10.552  16.021  69.856  1.00  0.00    -0.314 C  
BRANCH  23  26
HETATM   26  C   UNL     1      -8.570  19.247  67.742  1.00  0.00    -0.305 C  
HETATM   27  C   UNL     1      -7.280  18.811  68.428  1.00  0.00    -0.304 C  
HETATM   28  C   UNL     1      -6.578  20.121  68.655  1.00  0.00    -0.334 C  
HETATM   29  C   UNL     1      -6.954  20.898  67.413  1.00  0.00    -0.368 C  
HETATM   30  O   UNL     1      -8.219  20.394  66.957  1.00  0.00    -0.322 OA 
ENDBRANCH  23  26
ENDBRANCH  13  18
ENDBRANCH   2   3
TORSDOF 4
ENDMDL
MODEL        2
REMARK 921   NORMALIZED FREE ENERGY PREDICTED BY IDOCK:   -7.47 KCAL/MOL
REMARK 922        TOTAL FREE ENERGY PREDICTED BY IDOCK:   -9.74 KCAL/MOL
REMARK 923 INTER-LIGAND FREE ENERGY PREDICTED BY IDOCK:   -9.17 KCAL/MOL
REMARK 924 INTRA-LIGAND FREE ENERGY PREDICTED BY IDOCK:   -0.57 KCAL/MOL
REMARK 927      BINDING AFFINITY PREDICTED BY RF-SCORE:    0.00 PKD
ROOT
HETATM    1  C   UNL     1     -10.902   5.996  68.816  1.00  0.00    -0.322 C  
HETATM    2  O   UNL     1     -10.282   6.672  69.906  1.00  0.00    -0.180 OA 
ENDROOT
BRANCH   2   3
HETATM    3  C   UNL     1     -10.872   7.846  70.295  1.00  0.00    -0.241 A  
HETATM    4  C   UNL     1     -11.618   7.870  71.480  1.00  0.00    -0.270 A  
HETATM    5  C   UNL     1     -12.262   9.054  71.852  1.00  0.00    -0.451 A  
HETATM    6  C   UNL     1     -11.354  10.220  69.930  1.00  0.00    -0.290 A  
HETATM    7  C   UNL     1     -12.118  10.237  71.089  1.00  0.00    -0.494 A  
HETATM    8  C   UNL     1     -10.741   9.030  69.554  1.00  0.00    -0.215 A  
HETATM    9  C   UNL     1     -12.675  11.479  71.394  1.00  0.00    -0.364 A  
HETATM   10  N   UNL     1     -13.483  11.660  72.523  1.00  0.00    -0.423 NA 
HETATM   11  N   UNL     1     -12.493  12.569  70.636  1.00  0.00    -0.288 NA 
HETATM   12  H1  UNL     1     -13.890  12.568  72.745  1.00  0.00     0.000 HD 
HETATM   13  C   UNL     1     -11.734  12.457  69.538  1.00  0.00    -0.322 A  
HETATM   14  H2  UNL     1     -12.959  11.342  73.339  1.00  0.00     0.000 HD 
HETATM   15  N   UNL     1     -11.172  11.299  69.166  1.00  0.00    -0.250 NA 
BRANCH   4  16
HETATM   16  O   UNL     1     -11.862   6.827  72.331  1.00  0.00    -0.259 OA 
HETATM   17  C   UNL     1     -10.871   6.560  73.317  1.00  0.00    -0.248 C  
ENDBRANCH   4  16
BRANCH  13  18
HETATM   18  N   UNL     1     -11.422  13.588  68.808  1.00  0.00    -0.287 NA 
HETATM   19  C   UNL     1     -11.180  14.677  66.636  1.00  0.00    -0.349 C  
HETATM   20  C   UNL     1     -10.876  13.415  67.461  1.00  0.00    -0.263 C  
HETATM   21  N   UNL     1     -10.715  15.903  67.302  1.00  0.00    -0.315 N  
HETATM   22  C   UNL     1     -11.163  16.043  68.699  1.00  0.00    -0.366 C  
HETATM   23  C   UNL     1     -10.225  16.932  66.513  1.00  0.00    -0.318 C  
HETATM   24  O   UNL     1     -10.085  16.786  65.295  1.00  0.00    -0.577 OA 
HETATM   25  C   UNL     1     -10.919  14.762  69.530  1.00  0.00    -0.266 C  
BRANCH  23  26
HETATM   26  C   UNL     1      -9.741  18.229  67.206  1.00  0.00    -0.297 C  
HETATM   27  C   UNL     1      -8.477  18.772  66.551  1.00  0.00    -0.310 C  
HETATM   28  C   UNL     1      -8.477  20.209  66.994  1.00  0.00    -0.397 C  
HETATM   29  C   UNL     1      -9.952  20.542  66.980  1.00  0.00    -0.349 C  
HETATM   30  O   UNL     1     -10.671  19.320  67.212  1.00  0.00    -0.455 OA 
ENDBRANCH  23  26
ENDBRANCH  13  18
ENDBRANCH   2   3
TORSDOF 4
ENDMDL
MODEL        3
REMARK 921   NORMALIZED FREE ENERGY PREDICTED BY IDOCK:   -7.17 KCAL/MOL
REMARK 922        TOTAL FREE ENERGY PREDICTED BY IDOCK:   -9.36 KCAL/MOL
REMARK 923 INTER-LIGAND FREE ENERGY PREDICTED BY IDOCK:   -8.82 KCAL/MOL
REMARK 924 INTRA-LIGAND FREE ENERGY PREDICTED BY IDOCK:   -0.54 KCAL/MOL
REMARK 927      BINDING AFFINITY PREDICTED BY RF-SCORE:    0.00 PKD
ROOT
HETATM    1  C   UNL     1      -7.323  18.404  68.744  1.00  0.00    -0.287 C  
HETATM    2  O   UNL     1      -8.743  18.503  68.801  1.00  0.00    -0.313 OA 
ENDROOT
BRANCH   2   3
HETATM    3  C   UNL     1      -9.439  17.460  68.248  1.00  0.00    -0.290 A  
HETATM    4  C   UNL     1      -9.774  17.514  66.889  1.00  0.00    -0.291 A  
HETATM    5  C   UNL     1     -10.527  16.474  66.335  1.00  0.00    -0.275 A  
HETATM    6  C   UNL     1     -10.537  15.280  68.445  1.00  0.00    -0.246 A  
HETATM    7  C   UNL     1     -10.896  15.346  67.104  1.00  0.00    -0.321 A  
HETATM    8  C   UNL     1      -9.813  16.332  68.992  1.00  0.00    -0.257 A  
HETATM    9  C   UNL     1     -11.602  14.236  66.641  1.00  0.00    -0.383 A  
HETATM   10  N   UNL     1     -12.047  14.155  65.317  1.00  0.00    -0.386 NA 
HETATM   11  N   UNL     1     -11.913  13.189  67.418  1.00  0.00    -0.356 NA 
HETATM   12  H1  UNL     1     -12.564  13.343  64.978  1.00  0.00     0.000 HD 
HETATM   13  C   UNL     1     -11.520  13.212  68.699  1.00  0.00    -0.305 A  
HETATM   14  H2  UNL     1     -11.242  14.292  64.705  1.00  0.00     0.000 HD 
HETATM   15  N   UNL     1     -10.848  14.244  69.227  1.00  0.00    -0.241 NA 
BRANCH   4  16
HETATM   16  O   UNL     1      -9.503  18.522  66.004  1.00  0.00    -0.492 OA 
HETATM   17  C   UNL     1     -10.379  19.643  66.025  1.00  0.00    -0.523 C  
ENDBRANCH   4  16
BRANCH  13  18
HETATM   18  N   UNL     1     -11.710  12.095  69.489  1.00  0.00    -0.321 NA 
HETATM   19  C   UNL     1     -12.987  10.959  71.233  1.00  0.00    -0.392 C  
HETATM   20  C   UNL     1     -12.315  12.277  70.810  1.00  0.00    -0.290 C  
HETATM   21  N   UNL     1     -12.064   9.816  71.164  1.00  0.00    -0.343 N  
HETATM   22  C   UNL     1     -11.360   9.681  69.878  1.00  0.00    -0.159 C  
HETATM   23  C   UNL     1     -12.186   8.818  72.118  1.00  0.00    -0.378 C  
HETATM   24  O   UNL     1     -12.976   8.932  73.060  1.00  0.00    -0.297 OA 
HETATM   25  C   UNL     1     -10.727  11.010  69.406  1.00  0.00    -0.205 C  
BRANCH  23  26
HETATM   26  C   UNL     1     -11.224   7.607  72.048  1.00  0.00    -0.272 C  
HETATM   27  C   UNL     1     -10.391   7.482  73.319  1.00  0.00    -0.412 C  
HETATM   28  C   UNL     1      -9.945   6.047  73.271  1.00  0.00    -0.189 C  
HETATM   29  C   UNL     1     -11.154   5.361  72.677  1.00  0.00    -0.278 C  
HETATM   30  O   UNL     1     -11.841   6.326  71.864  1.00  0.00    -0.319 OA 
ENDBRANCH  23  26
ENDBRANCH  13  18
ENDBRANCH   2   3
TORSDOF 4
ENDMDL
MODEL        4
REMARK 921   NORMALIZED FREE ENERGY PREDICTED BY IDOCK:   -7.16 KCAL/MOL
REMARK 922        TOTAL FREE ENERGY PREDICTED BY IDOCK:   -9.36 KCAL/MOL
REMARK 923 INTER-LIGAND FREE ENERGY PREDICTED BY IDOCK:   -8.81 KCAL/MOL
REMARK 924 INTRA-LIGAND FREE ENERGY PREDICTED BY IDOCK:   -0.55 KCAL/MOL
REMARK 927      BINDING AFFINITY PREDICTED BY RF-SCORE:    0.00 PKD
ROOT
HETATM    1  C   UNL     1     -10.618   7.736  72.944  1.00  0.00    -0.366 C  
HETATM    2  O   UNL     1     -11.678   7.875  72.003  1.00  0.00    -0.280 OA 
ENDROOT
BRANCH   2   3
HETATM    3  C   UNL     1     -11.305   8.194  70.723  1.00  0.00    -0.270 A  
HETATM    4  C   UNL     1     -10.975   7.161  69.837  1.00  0.00    -0.253 A  
HETATM    5  C   UNL     1     -10.545   7.486  68.547  1.00  0.00    -0.172 A  
HETATM    6  C   UNL     1     -10.858   9.851  68.977  1.00  0.00    -0.215 A  
HETATM    7  C   UNL     1     -10.502   8.829  68.106  1.00  0.00    -0.243 A  
HETATM    8  C   UNL     1     -11.257   9.519  70.266  1.00  0.00    -0.307 A  
HETATM    9  C   UNL     1     -10.136   9.260  66.831  1.00  0.00    -0.256 A  
HETATM   10  N   UNL     1      -9.738   8.354  65.841  1.00  0.00    -0.465 NA 
HETATM   11  N   UNL     1     -10.126  10.550  66.468  1.00  0.00    -0.218 NA 
HETATM   12  H1  UNL     1      -9.471   8.670  64.908  1.00  0.00     0.000 HD 
HETATM   13  C   UNL     1     -10.491  11.466  67.376  1.00  0.00    -0.205 A  
HETATM   14  H2  UNL     1     -10.476   7.657  65.737  1.00  0.00     0.000 HD 
HETATM   15  N   UNL     1     -10.845  11.139  68.626  1.00  0.00    -0.194 NA 
BRANCH   4  16
HETATM   16  O   UNL     1     -10.958   5.817  70.094  1.00  0.00    -0.326 OA 
HETATM   17  C   UNL     1      -9.981   5.046  69.404  1.00  0.00    -0.220 C  
ENDBRANCH   4  16
BRANCH  13  18
HETATM   18  N   UNL     1     -10.616  12.789  66.996  1.00  0.00    -0.240 NA 
HETATM   19  C   UNL     1     -11.295  14.428  65.319  1.00  0.00    -0.346 C  
HETATM   20  C   UNL     1     -10.545  13.109  65.569  1.00  0.00    -0.288 C  
HETATM   21  N   UNL     1     -10.814  15.515  66.187  1.00  0.00    -0.317 N  
HETATM   22  C   UNL     1     -10.772  15.174  67.619  1.00  0.00    -0.285 C  
HETATM   23  C   UNL     1     -10.780  16.800  65.669  1.00  0.00    -0.192 C  
HETATM   24  O   UNL     1     -11.047  17.014  64.483  1.00  0.00    -1.098 OA 
HETATM   25  C   UNL     1     -10.073  13.821  67.886  1.00  0.00    -0.246 C  
BRANCH  23  26
HETATM   26  C   UNL     1     -10.284  17.950  66.579  1.00  0.00    -0.379 C  
HETATM   27  C   UNL     1      -8.762  18.041  66.581  1.00  0.00    -0.276 C  
HETATM   28  C   UNL     1      -8.525  19.446  67.062  1.00  0.00    -0.313 C  
HETATM   29  C   UNL     1      -9.670  20.196  66.418  1.00  0.00    -0.415 C  
HETATM   30  O   UNL     1     -10.747  19.263  66.238  1.00  0.00    -0.425 OA 
ENDBRANCH  23  26
ENDBRANCH  13  18
ENDBRANCH   2   3
TORSDOF 4
ENDMDL
MODEL        5
REMARK 921   NORMALIZED FREE ENERGY PREDICTED BY IDOCK:   -7.13 KCAL/MOL
REMARK 922        TOTAL FREE ENERGY PREDICTED BY IDOCK:   -9.32 KCAL/MOL
REMARK 923 INTER-LIGAND FREE ENERGY PREDICTED BY IDOCK:   -9.29 KCAL/MOL
REMARK 924 INTRA-LIGAND FREE ENERGY PREDICTED BY IDOCK:   -0.03 KCAL/MOL
REMARK 927      BINDING AFFINITY PREDICTED BY RF-SCORE:    0.00 PKD
ROOT
HETATM    1  C   UNL     1     -10.777   5.916  69.281  1.00  0.00    -0.331 C  
HETATM    2  O   UNL     1     -10.019   6.860  70.033  1.00  0.00    -0.179 OA 
ENDROOT
BRANCH   2   3
HETATM    3  C   UNL     1     -10.671   8.016  70.373  1.00  0.00    -0.233 A  
HETATM    4  C   UNL     1     -11.405   8.053  71.566  1.00  0.00    -0.259 A  
HETATM    5  C   UNL     1     -12.113   9.214  71.890  1.00  0.00    -0.448 A  
HETATM    6  C   UNL     1     -11.294  10.337  69.904  1.00  0.00    -0.290 A  
HETATM    7  C   UNL     1     -12.046  10.366  71.071  1.00  0.00    -0.488 A  
HETATM    8  C   UNL     1     -10.617   9.169  69.577  1.00  0.00    -0.233 A  
HETATM    9  C   UNL     1     -12.671  11.587  71.325  1.00  0.00    -0.364 A  
HETATM   10  N   UNL     1     -13.476  11.774  72.454  1.00  0.00    -0.498 NA 
HETATM   11  N   UNL     1     -12.560  12.649  70.515  1.00  0.00    -0.165 NA 
HETATM   12  H1  UNL     1     -13.933  12.667  72.639  1.00  0.00     0.000 HD 
HETATM   13  C   UNL     1     -11.808  12.528  69.413  1.00  0.00    -0.308 A  
HETATM   14  H2  UNL     1     -12.926  11.526  73.277  1.00  0.00     0.000 HD 
HETATM   15  N   UNL     1     -11.183  11.389  69.088  1.00  0.00    -0.250 NA 
BRANCH   4  16
HETATM   16  O   UNL     1     -11.580   7.039  72.468  1.00  0.00    -0.264 OA 
HETATM   17  C   UNL     1     -10.610   6.929  73.503  1.00  0.00    -0.348 C  
ENDBRANCH   4  16
BRANCH  13  18
HETATM   18  N   UNL     1     -11.568  13.640  68.627  1.00  0.00    -0.305 NA 
HETATM   19  C   UNL     1     -11.729  14.739  66.453  1.00  0.00    -0.263 C  
HETATM   20  C   UNL     1     -11.359  13.442  67.193  1.00  0.00    -0.315 C  
HETATM   21  N   UNL     1     -11.017  15.909  66.992  1.00  0.00    -0.248 N  
HETATM   22  C   UNL     1     -11.123  16.064  68.453  1.00  0.00    -0.351 C  
HETATM   23  C   UNL     1     -10.629  16.903  66.108  1.00  0.00    -0.194 C  
HETATM   24  O   UNL     1     -10.782  16.766  64.891  1.00  0.00    -0.721 OA 
HETATM   25  C   UNL     1     -10.813  14.753  69.212  1.00  0.00    -0.264 C  
BRANCH  23  26
HETATM   26  C   UNL     1      -9.888  18.141  66.669  1.00  0.00    -0.350 C  
HETATM   27  C   UNL     1     -10.866  19.203  67.158  1.00  0.00    -0.507 C  
HETATM   28  C   UNL     1     -10.012  20.026  68.081  1.00  0.00    -0.533 C  
HETATM   29  C   UNL     1      -9.125  18.975  68.710  1.00  0.00    -0.333 C  
HETATM   30  O   UNL     1      -9.003  17.897  67.770  1.00  0.00    -0.248 OA 
ENDBRANCH  23  26
ENDBRANCH  13  18
ENDBRANCH   2   3
TORSDOF 4
ENDMDL
MODEL        6
REMARK 921   NORMALIZED FREE ENERGY PREDICTED BY IDOCK:   -6.89 KCAL/MOL
REMARK 922        TOTAL FREE ENERGY PREDICTED BY IDOCK:   -9.02 KCAL/MOL
REMARK 923 INTER-LIGAND FREE ENERGY PREDICTED BY IDOCK:   -9.01 KCAL/MOL
REMARK 924 INTRA-LIGAND FREE ENERGY PREDICTED BY IDOCK:   -0.01 KCAL/MOL
REMARK 927      BINDING AFFINITY PREDICTED BY RF-SCORE:    0.00 PKD
ROOT
HETATM    1  C   UNL     1     -14.116   8.797  72.523  1.00  0.00    -0.349 C  
HETATM    2  O   UNL     1     -12.695   8.844  72.613  1.00  0.00    -0.369 OA 
ENDROOT
BRANCH   2   3
HETATM    3  C   UNL     1     -12.027   9.058  71.435  1.00  0.00    -0.332 A  
HETATM    4  C   UNL     1     -11.458   7.964  70.771  1.00  0.00    -0.263 A  
HETATM    5  C   UNL     1     -10.734   8.187  69.596  1.00  0.00    -0.196 A  
HETATM    6  C   UNL     1     -11.214  10.561  69.682  1.00  0.00    -0.282 A  
HETATM    7  C   UNL     1     -10.624   9.481  69.038  1.00  0.00    -0.238 A  
HETATM    8  C   UNL     1     -11.907  10.333  70.864  1.00  0.00    -0.473 A  
HETATM    9  C   UNL     1      -9.968   9.807  67.850  1.00  0.00    -0.163 A  
HETATM   10  N   UNL     1      -9.312   8.833  67.088  1.00  0.00    -0.145 NA 
HETATM   11  N   UNL     1      -9.908  11.055  67.364  1.00  0.00    -0.172 NA 
HETATM   12  H1  UNL     1      -8.833   9.072  66.220  1.00  0.00     0.000 HD 
HETATM   13  C   UNL     1     -10.513  12.032  68.054  1.00  0.00    -0.207 A  
HETATM   14  H2  UNL     1      -9.980   8.090  66.884  1.00  0.00     0.000 HD 
HETATM   15  N   UNL     1     -11.154  11.808  69.208  1.00  0.00    -0.238 NA 
BRANCH   4  16
HETATM   16  O   UNL     1     -11.465   6.654  71.167  1.00  0.00    -0.286 OA 
HETATM   17  C   UNL     1     -10.786   5.729  70.326  1.00  0.00    -0.309 C  
ENDBRANCH   4  16
BRANCH  13  18
HETATM   18  N   UNL     1     -10.580  13.303  67.515  1.00  0.00    -0.244 NA 
HETATM   19  C   UNL     1     -11.378  14.787  65.749  1.00  0.00    -0.336 C  
HETATM   20  C   UNL     1     -10.718  13.434  66.064  1.00  0.00    -0.278 C  
HETATM   21  N   UNL     1     -10.664  15.913  66.372  1.00  0.00    -0.291 N  
HETATM   22  C   UNL     1     -10.415  15.750  67.815  1.00  0.00    -0.283 C  
HETATM   23  C   UNL     1     -10.601  17.112  65.680  1.00  0.00    -0.179 C  
HETATM   24  O   UNL     1     -11.041  17.206  64.530  1.00  0.00    -1.105 OA 
HETATM   25  C   UNL     1      -9.807  14.371  68.159  1.00  0.00    -0.223 C  
BRANCH  23  26
HETATM   26  C   UNL     1      -9.860  18.304  66.333  1.00  0.00    -0.357 C  
HETATM   27  C   UNL     1     -10.785  19.109  67.237  1.00  0.00    -0.585 C  
HETATM   28  C   UNL     1      -9.815  19.842  68.121  1.00  0.00    -0.536 C  
HETATM   29  C   UNL     1      -8.719  18.815  68.304  1.00  0.00    -0.333 C  
HETATM   30  O   UNL     1      -8.726  17.968  67.144  1.00  0.00    -0.235 OA 
ENDBRANCH  23  26
ENDBRANCH  13  18
ENDBRANCH   2   3
TORSDOF 4
ENDMDL
MODEL        7
REMARK 921   NORMALIZED FREE ENERGY PREDICTED BY IDOCK:   -6.82 KCAL/MOL
REMARK 922        TOTAL FREE ENERGY PREDICTED BY IDOCK:   -8.94 KCAL/MOL
REMARK 923 INTER-LIGAND FREE ENERGY PREDICTED BY IDOCK:   -8.74 KCAL/MOL
REMARK 924 INTRA-LIGAND FREE ENERGY PREDICTED BY IDOCK:   -0.20 KCAL/MOL
REMARK 927      BINDING AFFINITY PREDICTED BY RF-SCORE:    0.00 PKD
ROOT
HETATM    1  C   UNL     1     -11.385   7.814  71.073  1.00  0.00    -0.271 C  
HETATM    2  O   UNL     1     -11.018   6.903  70.041  1.00  0.00    -0.250 OA 
ENDROOT
BRANCH   2   3
HETATM    3  C   UNL     1     -10.649   7.467  68.848  1.00  0.00    -0.169 A  
HETATM    4  C   UNL     1     -10.223   6.633  67.807  1.00  0.00    -0.170 A  
HETATM    5  C   UNL     1      -9.799   7.210  66.606  1.00  0.00    -0.237 A  
HETATM    6  C   UNL     1     -10.305   9.434  67.429  1.00  0.00    -0.263 A  
HETATM    7  C   UNL     1      -9.855   8.609  66.406  1.00  0.00    -0.341 A  
HETATM    8  C   UNL     1     -10.698   8.852  68.628  1.00  0.00    -0.118 A  
HETATM    9  C   UNL     1      -9.502   9.283  65.236  1.00  0.00    -0.164 A  
HETATM   10  N   UNL     1      -9.017   8.596  64.117  1.00  0.00    -0.366 NA 
HETATM   11  N   UNL     1      -9.588  10.613  65.102  1.00  0.00    -0.229 NA 
HETATM   12  H1  UNL     1      -8.760   9.089  63.262  1.00  0.00     0.000 HD 
HETATM   13  C   UNL     1     -10.040  11.326  66.143  1.00  0.00    -0.236 A  
HETATM   14  H2  UNL     1      -9.695   7.875  63.871  1.00  0.00     0.000 HD 
HETATM   15  N   UNL     1     -10.389  10.760  67.306  1.00  0.00    -0.208 NA 
BRANCH   4  16
HETATM   16  O   UNL     1     -10.104   5.270  67.828  1.00  0.00    -0.157 OA 
HETATM   17  C   UNL     1     -10.054   4.613  66.567  1.00  0.00    -0.250 C  
ENDBRANCH   4  16
BRANCH  13  18
HETATM   18  N   UNL     1     -10.263  12.682  65.994  1.00  0.00    -0.266 NA 
HETATM   19  C   UNL     1     -11.370  14.501  64.799  1.00  0.00    -0.396 C  
HETATM   20  C   UNL     1     -10.580  13.188  64.658  1.00  0.00    -0.392 C  
HETATM   21  N   UNL     1     -10.673  15.481  65.646  1.00  0.00    -0.348 N  
HETATM   22  C   UNL     1     -10.246  14.957  66.955  1.00  0.00    -0.254 C  
HETATM   23  C   UNL     1     -10.780  16.823  65.318  1.00  0.00    -0.169 C  
HETATM   24  O   UNL     1     -11.357  17.181  64.286  1.00  0.00    -1.126 OA 
HETATM   25  C   UNL     1      -9.501  13.608  66.839  1.00  0.00    -0.262 C  
BRANCH  23  26
HETATM   26  C   UNL     1     -10.057  17.862  66.209  1.00  0.00    -0.351 C  
HETATM   27  C   UNL     1     -10.304  19.285  65.721  1.00  0.00    -0.391 C  
HETATM   28  C   UNL     1      -9.982  20.104  66.939  1.00  0.00    -0.600 C  
HETATM   29  C   UNL     1     -10.492  19.221  68.056  1.00  0.00    -0.386 C  
HETATM   30  O   UNL     1     -10.423  17.862  67.595  1.00  0.00    -0.370 OA 
ENDBRANCH  23  26
ENDBRANCH  13  18
ENDBRANCH   2   3
TORSDOF 4
ENDMDL
MODEL        8
REMARK 921   NORMALIZED FREE ENERGY PREDICTED BY IDOCK:   -6.58 KCAL/MOL
REMARK 922        TOTAL FREE ENERGY PREDICTED BY IDOCK:   -8.64 KCAL/MOL
REMARK 923 INTER-LIGAND FREE ENERGY PREDICTED BY IDOCK:   -8.24 KCAL/MOL
REMARK 924 INTRA-LIGAND FREE ENERGY PREDICTED BY IDOCK:   -0.40 KCAL/MOL
REMARK 927      BINDING AFFINITY PREDICTED BY RF-SCORE:    0.00 PKD
ROOT
HETATM    1  C   UNL     1     -10.503   5.043  66.110  1.00  0.00    -0.286 C  
HETATM    2  O   UNL     1      -9.507   6.018  66.409  1.00  0.00    -0.156 OA 
ENDROOT
BRANCH   2   3
HETATM    3  C   UNL     1      -9.896   7.036  67.239  1.00  0.00    -0.166 A  
HETATM    4  C   UNL     1     -10.104   6.761  68.597  1.00  0.00    -0.159 A  
HETATM    5  C   UNL     1     -10.550   7.787  69.435  1.00  0.00    -0.211 A  
HETATM    6  C   UNL     1     -10.495   9.381  67.610  1.00  0.00    -0.268 A  
HETATM    7  C   UNL     1     -10.730   9.103  68.951  1.00  0.00    -0.167 A  
HETATM    8  C   UNL     1     -10.079   8.348  66.780  1.00  0.00    -0.373 A  
HETATM    9  C   UNL     1     -11.124  10.207  69.708  1.00  0.00    -0.279 A  
HETATM   10  N   UNL     1     -11.411  10.091  71.073  1.00  0.00    -0.374 NA 
HETATM   11  N   UNL     1     -11.266  11.436  69.193  1.00  0.00    -0.250 NA 
HETATM   12  H1  UNL     1     -11.699  10.897  71.626  1.00  0.00     0.000 HD 
HETATM   13  C   UNL     1     -11.011  11.609  67.889  1.00  0.00    -0.225 A  
HETATM   14  H2  UNL     1     -10.603   9.669  71.530  1.00  0.00     0.000 HD 
HETATM   15  N   UNL     1     -10.639  10.601  67.088  1.00  0.00    -0.245 NA 
BRANCH   4  16
HETATM   16  O   UNL     1      -9.982   5.554  69.230  1.00  0.00    -0.162 OA 
HETATM   17  C   UNL     1     -10.458   5.483  70.569  1.00  0.00    -0.277 C  
ENDBRANCH   4  16
BRANCH  13  18
HETATM   18  N   UNL     1     -11.022  12.884  67.357  1.00  0.00    -0.254 NA 
HETATM   19  C   UNL     1     -11.518  14.363  65.478  1.00  0.00    -0.340 C  
HETATM   20  C   UNL     1     -10.880  13.031  65.907  1.00  0.00    -0.272 C  
HETATM   21  N   UNL     1     -10.985  15.505  66.237  1.00  0.00    -0.287 N  
HETATM   22  C   UNL     1     -11.017  15.331  67.699  1.00  0.00    -0.311 C  
HETATM   23  C   UNL     1     -10.837  16.716  65.579  1.00  0.00    -0.163 C  
HETATM   24  O   UNL     1     -11.046  16.810  64.366  1.00  0.00    -1.072 OA 
HETATM   25  C   UNL     1     -10.433  13.971  68.147  1.00  0.00    -0.243 C  
BRANCH  23  26
HETATM   26  C   UNL     1     -10.284  17.925  66.373  1.00  0.00    -0.372 C  
HETATM   27  C   UNL     1      -8.771  17.843  66.532  1.00  0.00    -0.278 C  
HETATM   28  C   UNL     1      -8.402  19.268  66.840  1.00  0.00    -0.302 C  
HETATM   29  C   UNL     1      -9.376  20.038  65.977  1.00  0.00    -0.265 C  
HETATM   30  O   UNL     1     -10.542  19.217  65.807  1.00  0.00    -0.484 OA 
ENDBRANCH  23  26
ENDBRANCH  13  18
ENDBRANCH   2   3
TORSDOF 4
ENDMDL
MODEL        9
REMARK 921   NORMALIZED FREE ENERGY PREDICTED BY IDOCK:   -6.57 KCAL/MOL
REMARK 922        TOTAL FREE ENERGY PREDICTED BY IDOCK:   -8.63 KCAL/MOL
REMARK 923 INTER-LIGAND FREE ENERGY PREDICTED BY IDOCK:   -8.14 KCAL/MOL
REMARK 924 INTRA-LIGAND FREE ENERGY PREDICTED BY IDOCK:   -0.49 KCAL/MOL
REMARK 927      BINDING AFFINITY PREDICTED BY RF-SCORE:    0.00 PKD
ROOT
HETATM    1  C   UNL     1     -11.586  14.333  68.604  1.00  0.00    -0.317 C  
HETATM    2  O   UNL     1     -11.998  14.338  69.968  1.00  0.00    -0.293 OA 
ENDROOT
BRANCH   2   3
HETATM    3  C   UNL     1     -12.296  13.114  70.508  1.00  0.00    -0.304 A  
HETATM    4  C   UNL     1     -13.240  13.040  71.539  1.00  0.00    -0.272 A  
HETATM    5  C   UNL     1     -13.508  11.800  72.125  1.00  0.00    -0.273 A  
HETATM    6  C   UNL     1     -11.979  10.688  70.608  1.00  0.00    -0.367 A  
HETATM    7  C   UNL     1     -12.894  10.618  71.651  1.00  0.00    -0.570 A  
HETATM    8  C   UNL     1     -11.699  11.930  70.052  1.00  0.00    -0.366 A  
HETATM    9  C   UNL     1     -13.124   9.327  72.129  1.00  0.00    -0.443 A  
HETATM   10  N   UNL     1     -14.009   9.088  73.187  1.00  0.00    -1.215 NA 
HETATM   11  N   UNL     1     -12.518   8.241  71.630  1.00  0.00    -0.309 NA 
HETATM   12  H1  UNL     1     -14.177   8.145  73.537  1.00  0.00     0.000 HD 
HETATM   13  C   UNL     1     -11.655   8.408  70.619  1.00  0.00    -0.191 A  
HETATM   14  H2  UNL     1     -14.910   9.498  72.942  1.00  0.00     0.000 HD 
HETATM   15  N   UNL     1     -11.367   9.612  70.108  1.00  0.00    -0.243 NA 
BRANCH   4  16
HETATM   16  O   UNL     1     -13.923  14.076  72.119  1.00  0.00    -0.459 OA 
HETATM   17  C   UNL     1     -13.210  14.859  73.068  1.00  0.00    -0.494 C  
ENDBRANCH   4  16
BRANCH  13  18
HETATM   18  N   UNL     1     -11.113   7.298  69.997  1.00  0.00    -0.260 NA 
HETATM   19  C   UNL     1     -10.352   4.983  70.141  1.00  0.00    -0.236 C  
HETATM   20  C   UNL     1     -10.320   6.371  70.804  1.00  0.00    -0.201 C  
HETATM   21  N   UNL     1      -9.938   5.032  68.730  1.00  0.00    -0.167 N  
HETATM   22  C   UNL     1     -10.648   6.039  67.923  1.00  0.00    -0.267 C  
HETATM   23  C   UNL     1      -9.219   3.962  68.221  1.00  0.00    -0.155 C  
HETATM   24  O   UNL     1      -8.847   3.041  68.954  1.00  0.00    -0.083 OA 
HETATM   25  C   UNL     1     -10.678   7.428  68.602  1.00  0.00    -0.101 C  
BRANCH  23  26
HETATM   26  C   UNL     1      -8.787   4.001  66.735  1.00  0.00    -0.122 C  
HETATM   27  C   UNL     1      -7.515   3.195  66.502  1.00  0.00    -0.076 C  
HETATM   28  C   UNL     1      -7.562   2.940  65.021  1.00  0.00    -0.076 C  
HETATM   29  C   UNL     1      -9.043   2.749  64.782  1.00  0.00    -0.134 C  
HETATM   30  O   UNL     1      -9.741   3.496  65.791  1.00  0.00    -0.145 OA 
ENDBRANCH  23  26
ENDBRANCH  13  18
ENDBRANCH   2   3
TORSDOF 4
ENDMDL
MODEL       10
REMARK 921   NORMALIZED FREE ENERGY PREDICTED BY IDOCK:   -6.56 KCAL/MOL
REMARK 922        TOTAL FREE ENERGY PREDICTED BY IDOCK:   -8.61 KCAL/MOL
REMARK 923 INTER-LIGAND FREE ENERGY PREDICTED BY IDOCK:   -8.53 KCAL/MOL
REMARK 924 INTRA-LIGAND FREE ENERGY PREDICTED BY IDOCK:   -0.08 KCAL/MOL
REMARK 927      BINDING AFFINITY PREDICTED BY RF-SCORE:    0.00 PKD
ROOT
HETATM    1  C   UNL     1      -7.275  17.237  66.229  1.00  0.00    -0.300 C  
HETATM    2  O   UNL     1      -8.655  17.209  65.875  1.00  0.00    -0.522 OA 
ENDROOT
BRANCH   2   3
HETATM    3  C   UNL     1      -9.481  16.537  66.737  1.00  0.00    -0.249 A  
HETATM    4  C   UNL     1     -10.460  17.255  67.435  1.00  0.00    -0.338 A  
HETATM    5  C   UNL     1     -11.270  16.580  68.353  1.00  0.00    -0.280 A  
HETATM    6  C   UNL     1     -10.208  14.466  67.824  1.00  0.00    -0.230 A  
HETATM    7  C   UNL     1     -11.160  15.182  68.538  1.00  0.00    -0.281 A  
HETATM    8  C   UNL     1      -9.390  15.151  66.934  1.00  0.00    -0.251 A  
HETATM    9  C   UNL     1     -11.947  14.405  69.389  1.00  0.00    -0.328 A  
HETATM   10  N   UNL     1     -12.943  14.978  70.188  1.00  0.00    -0.630 NA 
HETATM   11  N   UNL     1     -11.802  13.079  69.513  1.00  0.00    -0.321 NA 
HETATM   12  H1  UNL     1     -13.517  14.410  70.810  1.00  0.00     0.000 HD 
HETATM   13  C   UNL     1     -10.860  12.473  68.778  1.00  0.00    -0.239 A  
HETATM   14  H2  UNL     1     -13.567  15.509  69.581  1.00  0.00     0.000 HD 
HETATM   15  N   UNL     1     -10.054  13.145  67.945  1.00  0.00    -0.226 NA 
BRANCH   4  16
HETATM   16  O   UNL     1     -10.702  18.601  67.381  1.00  0.00    -0.431 OA 
HETATM   17  C   UNL     1     -10.139  19.393  68.420  1.00  0.00    -0.444 C  
ENDBRANCH   4  16
BRANCH  13  18
HETATM   18  N   UNL     1     -10.773  11.094  68.785  1.00  0.00    -0.188 NA 
HETATM   19  C   UNL     1     -10.220   9.027  67.610  1.00  0.00    -0.242 C  
HETATM   20  C   UNL     1     -10.939  10.383  67.516  1.00  0.00    -0.295 C  
HETATM   21  N   UNL     1     -10.654   8.246  68.779  1.00  0.00    -0.171 N  
HETATM   22  C   UNL     1     -10.600   8.982  70.054  1.00  0.00    -0.228 C  
HETATM   23  C   UNL     1     -10.734   6.868  68.653  1.00  0.00    -0.216 C  
HETATM   24  O   UNL     1     -10.547   6.318  67.564  1.00  0.00    -0.205 OA 
HETATM   25  C   UNL     1     -11.266  10.374  69.964  1.00  0.00    -0.316 C  
BRANCH  23  26
HETATM   26  C   UNL     1     -11.181   6.039  69.882  1.00  0.00    -0.368 C  
HETATM   27  C   UNL     1     -10.022   5.792  70.840  1.00  0.00    -0.243 C  
HETATM   28  C   UNL     1     -10.730   5.458  72.123  1.00  0.00    -0.286 C  
HETATM   29  C   UNL     1     -11.933   6.373  72.066  1.00  0.00    -0.326 C  
HETATM   30  O   UNL     1     -12.224   6.614  70.680  1.00  0.00    -0.377 OA 
ENDBRANCH  23  26
ENDBRANCH  13  18
ENDBRANCH   2   3
TORSDOF 4
ENDMDL
MODEL       11
REMARK 921   NORMALIZED FREE ENERGY PREDICTED BY IDOCK:   -6.48 KCAL/MOL
REMARK 922        TOTAL FREE ENERGY PREDICTED BY IDOCK:   -8.51 KCAL/MOL
REMARK 923 INTER-LIGAND FREE ENERGY PREDICTED BY IDOCK:   -8.05 KCAL/MOL
REMARK 924 INTRA-LIGAND FREE ENERGY PREDICTED BY IDOCK:   -0.46 KCAL/MOL
REMARK 927      BINDING AFFINITY PREDICTED BY RF-SCORE:    0.00 PKD
ROOT
HETATM    1  C   UNL     1     -12.103  12.071  63.341  1.00  0.00    -0.493 C  
HETATM    2  O   UNL     1     -10.934  12.117  64.155  1.00  0.00    -0.306 OA 
ENDROOT
BRANCH   2   3
HETATM    3  C   UNL     1     -11.149  12.204  65.505  1.00  0.00    -0.316 A  
HETATM    4  C   UNL     1     -11.560  13.428  66.049  1.00  0.00    -0.344 A  
HETATM    5  C   UNL     1     -11.730  13.532  67.432  1.00  0.00    -0.419 A  
HETATM    6  C   UNL     1     -11.179  11.190  67.734  1.00  0.00    -0.294 A  
HETATM    7  C   UNL     1     -11.558  12.411  68.278  1.00  0.00    -0.384 A  
HETATM    8  C   UNL     1     -10.985  11.105  66.361  1.00  0.00    -0.248 A  
HETATM    9  C   UNL     1     -11.748  12.392  69.660  1.00  0.00    -0.307 A  
HETATM   10  N   UNL     1     -12.119  13.545  70.361  1.00  0.00    -0.406 NA 
HETATM   11  N   UNL     1     -11.580  11.293  70.408  1.00  0.00    -0.288 NA 
HETATM   12  H1  UNL     1     -12.258  13.531  71.372  1.00  0.00     0.000 HD 
HETATM   13  C   UNL     1     -11.218  10.158  69.793  1.00  0.00    -0.272 A  
HETATM   14  H2  UNL     1     -12.968  13.915  69.933  1.00  0.00     0.000 HD 
HETATM   15  N   UNL     1     -11.004  10.092  68.473  1.00  0.00    -0.228 NA 
BRANCH   4  16
HETATM   16  O   UNL     1     -11.769  14.605  65.384  1.00  0.00    -0.351 OA 
HETATM   17  C   UNL     1     -10.618  15.390  65.096  1.00  0.00    -0.434 C  
ENDBRANCH   4  16
BRANCH  13  18
HETATM   18  N   UNL     1     -11.164   8.981  70.515  1.00  0.00    -0.259 NA 
HETATM   19  C   UNL     1     -11.329   7.835  72.664  1.00  0.00    -0.393 C  
HETATM   20  C   UNL     1     -10.747   9.047  71.916  1.00  0.00    -0.331 C  
HETATM   21  N   UNL     1     -10.988   6.562  72.012  1.00  0.00    -0.237 N  
HETATM   22  C   UNL     1     -11.298   6.515  70.572  1.00  0.00    -0.367 C  
HETATM   23  C   UNL     1     -10.750   5.458  72.815  1.00  0.00    -0.247 C  
HETATM   24  O   UNL     1     -10.723   5.561  74.045  1.00  0.00    -0.275 OA 
HETATM   25  C   UNL     1     -10.772   7.754  69.812  1.00  0.00    -0.236 C  
BRANCH  23  26
HETATM   26  C   UNL     1     -10.399   4.112  72.136  1.00  0.00    -0.102 C  
HETATM   27  C   UNL     1      -8.930   4.057  71.734  1.00  0.00    -0.159 C  
HETATM   28  C   UNL     1      -8.691   2.579  71.590  1.00  0.00    -0.108 C  
HETATM   29  C   UNL     1      -9.549   2.012  72.698  1.00  0.00    -0.090 C  
HETATM   30  O   UNL     1     -10.627   2.934  72.921  1.00  0.00    -0.159 OA 
ENDBRANCH  23  26
ENDBRANCH  13  18
ENDBRANCH   2   3
TORSDOF 4
ENDMDL
MODEL       12
REMARK 921   NORMALIZED FREE ENERGY PREDICTED BY IDOCK:   -6.45 KCAL/MOL
REMARK 922        TOTAL FREE ENERGY PREDICTED BY IDOCK:   -8.47 KCAL/MOL
REMARK 923 INTER-LIGAND FREE ENERGY PREDICTED BY IDOCK:   -7.94 KCAL/MOL
REMARK 924 INTRA-LIGAND FREE ENERGY PREDICTED BY IDOCK:   -0.53 KCAL/MOL
REMARK 927      BINDING AFFINITY PREDICTED BY RF-SCORE:    0.00 PKD
ROOT
HETATM    1  C   UNL     1     -10.087  11.498  62.979  1.00  0.00    -0.291 C  
HETATM    2  O   UNL     1     -11.195  12.333  63.306  1.00  0.00    -0.419 OA 
ENDROOT
BRANCH   2   3
HETATM    3  C   UNL     1     -11.395  12.565  64.641  1.00  0.00    -0.318 A  
HETATM    4  C   UNL     1     -12.010  13.760  65.036  1.00  0.00    -0.383 A  
HETATM    5  C   UNL     1     -12.170  14.022  66.400  1.00  0.00    -0.492 A  
HETATM    6  C   UNL     1     -11.201  11.878  66.984  1.00  0.00    -0.323 A  
HETATM    7  C   UNL     1     -11.783  13.076  67.378  1.00  0.00    -0.427 A  
HETATM    8  C   UNL     1     -11.021  11.640  65.627  1.00  0.00    -0.322 A  
HETATM    9  C   UNL     1     -11.940  13.214  68.757  1.00  0.00    -0.280 A  
HETATM   10  N   UNL     1     -12.499  14.369  69.316  1.00  0.00    -0.549 NA 
HETATM   11  N   UNL     1     -11.564  12.274  69.635  1.00  0.00    -0.295 NA 
HETATM   12  H1  UNL     1     -12.614  14.470  70.324  1.00  0.00     0.000 HD 
HETATM   13  C   UNL     1     -11.015  11.148  69.161  1.00  0.00    -0.242 A  
HETATM   14  H2  UNL     1     -13.409  14.521  68.879  1.00  0.00     0.000 HD 
HETATM   15  N   UNL     1     -10.817  10.939  67.852  1.00  0.00    -0.226 NA 
BRANCH   4  16
HETATM   16  O   UNL     1     -12.440  14.780  64.232  1.00  0.00    -0.661 OA 
HETATM   17  C   UNL     1     -11.643  15.959  64.213  1.00  0.00    -0.178 C  
ENDBRANCH   4  16
BRANCH  13  18
HETATM   18  N   UNL     1     -10.736  10.109  70.028  1.00  0.00    -0.288 NA 
HETATM   19  C   UNL     1     -11.500   8.569  71.763  1.00  0.00    -0.310 C  
HETATM   20  C   UNL     1     -11.492  10.030  71.279  1.00  0.00    -0.314 C  
HETATM   21  N   UNL     1     -10.143   8.008  71.862  1.00  0.00    -0.190 N  
HETATM   22  C   UNL     1      -9.326   8.177  70.648  1.00  0.00    -0.154 C  
HETATM   23  C   UNL     1      -9.878   7.113  72.886  1.00  0.00    -0.185 C  
HETATM   24  O   UNL     1     -10.724   6.871  73.753  1.00  0.00    -0.347 OA 
HETATM   25  C   UNL     1      -9.353   9.627  70.112  1.00  0.00    -0.251 C  
BRANCH  23  26
HETATM   26  C   UNL     1      -8.456   6.512  72.992  1.00  0.00    -0.118 C  
HETATM   27  C   UNL     1      -8.117   6.132  74.429  1.00  0.00    -0.111 C  
HETATM   28  C   UNL     1      -6.992   5.151  74.246  1.00  0.00    -0.078 C  
HETATM   29  C   UNL     1      -7.409   4.426  72.986  1.00  0.00    -0.076 C  
HETATM   30  O   UNL     1      -8.214   5.332  72.215  1.00  0.00    -0.115 OA 
ENDBRANCH  23  26
ENDBRANCH  13  18
ENDBRANCH   2   3
TORSDOF 4
ENDMDL
MODEL       13
REMARK 921   NORMALIZED FREE ENERGY PREDICTED BY IDOCK:   -6.35 KCAL/MOL
REMARK 922        TOTAL FREE ENERGY PREDICTED BY IDOCK:   -8.36 KCAL/MOL
REMARK 923 INTER-LIGAND FREE ENERGY PREDICTED BY IDOCK:   -7.79 KCAL/MOL
REMARK 924 INTRA-LIGAND FREE ENERGY PREDICTED BY IDOCK:   -0.57 KCAL/MOL
REMARK 927      BINDING AFFINITY PREDICTED BY RF-SCORE:    0.00 PKD
ROOT
HETATM    1  C   UNL     1     -14.170  15.330  71.594  1.00  0.00    -0.552 C  
HETATM    2  O   UNL     1     -12.955  15.590  70.896  1.00  0.00    -0.463 OA 
ENDROOT
BRANCH   2   3
HETATM    3  C   UNL     1     -12.408  14.525  70.230  1.00  0.00    -0.349 A  
HETATM    4  C   UNL     1     -11.840  14.734  68.967  1.00  0.00    -0.302 A  
HETATM    5  C   UNL     1     -11.327  13.640  68.265  1.00  0.00    -0.322 A  
HETATM    6  C   UNL     1     -11.851  12.144  70.098  1.00  0.00    -0.287 A  
HETATM    7  C   UNL     1     -11.314  12.345  68.833  1.00  0.00    -0.342 A  
HETATM    8  C   UNL     1     -12.384  13.233  70.776  1.00  0.00    -0.425 A  
HETATM    9  C   UNL     1     -10.786  11.197  68.242  1.00  0.00    -0.196 A  
HETATM   10  N   UNL     1     -10.219  11.230  66.963  1.00  0.00    -0.209 NA 
HETATM   11  N   UNL     1     -10.792   9.997  68.837  1.00  0.00    -0.219 NA 
HETATM   12  H1  UNL     1      -9.833  10.391  66.531  1.00  0.00     0.000 HD 
HETATM   13  C   UNL     1     -11.328   9.901  70.062  1.00  0.00    -0.249 A  
HETATM   14  H2  UNL     1      -9.494  11.948  66.958  1.00  0.00     0.000 HD 
HETATM   15  N   UNL     1     -11.867  10.950  70.697  1.00  0.00    -0.347 NA 
BRANCH   4  16
HETATM   16  O   UNL     1     -11.770  15.911  68.271  1.00  0.00    -0.327 OA 
HETATM   17  C   UNL     1     -10.648  16.744  68.534  1.00  0.00    -0.354 C  
ENDBRANCH   4  16
BRANCH  13  18
HETATM   18  N   UNL     1     -11.234   8.708  70.754  1.00  0.00    -0.257 NA 
HETATM   19  C   UNL     1     -11.263   7.519  72.886  1.00  0.00    -0.346 C  
HETATM   20  C   UNL     1     -10.723   8.742  72.125  1.00  0.00    -0.313 C  
HETATM   21  N   UNL     1     -10.975   6.257  72.186  1.00  0.00    -0.244 N  
HETATM   22  C   UNL     1     -11.382   6.243  70.770  1.00  0.00    -0.332 C  
HETATM   23  C   UNL     1     -10.692   5.135  72.949  1.00  0.00    -0.248 C  
HETATM   24  O   UNL     1     -10.581   5.213  74.176  1.00  0.00    -0.276 OA 
HETATM   25  C   UNL     1     -10.899   7.494  70.002  1.00  0.00    -0.249 C  
BRANCH  23  26
HETATM   26  C   UNL     1     -10.398   3.802  72.220  1.00  0.00    -0.084 C  
HETATM   27  C   UNL     1      -8.911   3.646  71.921  1.00  0.00    -0.149 C  
HETATM   28  C   UNL     1      -8.779   2.164  71.710  1.00  0.00    -0.101 C  
HETATM   29  C   UNL     1      -9.760   1.613  72.720  1.00  0.00    -0.087 C  
HETATM   30  O   UNL     1     -10.776   2.609  72.919  1.00  0.00    -0.155 OA 
ENDBRANCH  23  26
ENDBRANCH  13  18
ENDBRANCH   2   3
TORSDOF 4
ENDMDL
MODEL       14
REMARK 921   NORMALIZED FREE ENERGY PREDICTED BY IDOCK:   -6.31 KCAL/MOL
REMARK 922        TOTAL FREE ENERGY PREDICTED BY IDOCK:   -8.30 KCAL/MOL
REMARK 923 INTER-LIGAND FREE ENERGY PREDICTED BY IDOCK:   -7.84 KCAL/MOL
REMARK 924 INTRA-LIGAND FREE ENERGY PREDICTED BY IDOCK:   -0.46 KCAL/MOL
REMARK 927      BINDING AFFINITY PREDICTED BY RF-SCORE:    0.00 PKD
ROOT
HETATM    1  C   UNL     1     -11.218  16.090  69.848  1.00  0.00    -0.361 C  
HETATM    2  O   UNL     1     -12.520  15.601  70.161  1.00  0.00    -0.389 OA 
ENDROOT
BRANCH   2   3
HETATM    3  C   UNL     1     -12.593  14.281  70.520  1.00  0.00    -0.353 A  
HETATM    4  C   UNL     1     -13.425  13.913  71.584  1.00  0.00    -0.352 A  
HETATM    5  C   UNL     1     -13.463  12.574  71.984  1.00  0.00    -0.486 A  
HETATM    6  C   UNL     1     -11.926  11.943  70.219  1.00  0.00    -0.330 A  
HETATM    7  C   UNL     1     -12.729  11.582  71.293  1.00  0.00    -0.469 A  
HETATM    8  C   UNL     1     -11.875  13.281  69.847  1.00  0.00    -0.380 A  
HETATM    9  C   UNL     1     -12.731  10.216  71.577  1.00  0.00    -0.436 A  
HETATM   10  N   UNL     1     -13.479   9.693  72.638  1.00  0.00    -0.632 NA 
HETATM   11  N   UNL     1     -12.022   9.321  70.876  1.00  0.00    -0.278 NA 
HETATM   12  H1  UNL     1     -13.481   8.694  72.845  1.00  0.00     0.000 HD 
HETATM   13  C   UNL     1     -11.280   9.763  69.852  1.00  0.00    -0.229 A  
HETATM   14  H2  UNL     1     -14.448   9.990  72.517  1.00  0.00     0.000 HD 
HETATM   15  N   UNL     1     -11.212  11.059  69.519  1.00  0.00    -0.258 NA 
BRANCH   4  16
HETATM   16  O   UNL     1     -14.197  14.736  72.360  1.00  0.00    -0.456 OA 
HETATM   17  C   UNL     1     -13.507  15.651  73.203  1.00  0.00    -0.525 C  
ENDBRANCH   4  16
BRANCH  13  18
HETATM   18  N   UNL     1     -10.641   8.853  69.032  1.00  0.00    -0.214 NA 
HETATM   19  C   UNL     1      -9.342   8.408  67.013  1.00  0.00    -0.159 C  
HETATM   20  C   UNL     1     -10.552   9.153  67.602  1.00  0.00    -0.242 C  
HETATM   21  N   UNL     1      -9.378   6.967  67.307  1.00  0.00    -0.132 N  
HETATM   22  C   UNL     1      -9.580   6.643  68.730  1.00  0.00    -0.131 C  
HETATM   23  C   UNL     1      -8.897   6.090  66.348  1.00  0.00    -0.136 C  
HETATM   24  O   UNL     1      -8.544   6.496  65.236  1.00  0.00    -0.123 OA 
HETATM   25  C   UNL     1     -10.756   7.427  69.356  1.00  0.00    -0.211 C  
BRANCH  23  26
HETATM   26  C   UNL     1      -8.924   4.573  66.653  1.00  0.00    -0.114 C  
HETATM   27  C   UNL     1      -9.455   3.775  65.468  1.00  0.00    -0.169 C  
HETATM   28  C   UNL     1      -8.936   2.393  65.752  1.00  0.00    -0.121 C  
HETATM   29  C   UNL     1      -7.585   2.684  66.365  1.00  0.00    -0.072 C  
HETATM   30  O   UNL     1      -7.663   3.977  66.984  1.00  0.00    -0.083 OA 
ENDBRANCH  23  26
ENDBRANCH  13  18
ENDBRANCH   2   3
TORSDOF 4
ENDMDL
MODEL       15
REMARK 921   NORMALIZED FREE ENERGY PREDICTED BY IDOCK:   -6.30 KCAL/MOL
REMARK 922        TOTAL FREE ENERGY PREDICTED BY IDOCK:   -8.29 KCAL/MOL
REMARK 923 INTER-LIGAND FREE ENERGY PREDICTED BY IDOCK:   -7.72 KCAL/MOL
REMARK 924 INTRA-LIGAND FREE ENERGY PREDICTED BY IDOCK:   -0.57 KCAL/MOL
REMARK 927      BINDING AFFINITY PREDICTED BY RF-SCORE:    0.00 PKD
ROOT
HETATM    1  C   UNL     1      -6.785  18.635  69.101  1.00  0.00    -0.269 C  
HETATM    2  O   UNL     1      -8.169  18.892  68.878  1.00  0.00    -0.320 OA 
ENDROOT
BRANCH   2   3
HETATM    3  C   UNL     1      -8.795  18.063  67.986  1.00  0.00    -0.275 A  
HETATM    4  C   UNL     1      -9.281  18.601  66.787  1.00  0.00    -0.308 A  
HETATM    5  C   UNL     1      -9.965  17.767  65.898  1.00  0.00    -0.132 A  
HETATM    6  C   UNL     1      -9.608  15.847  67.334  1.00  0.00    -0.221 A  
HETATM    7  C   UNL     1     -10.116  16.385  66.159  1.00  0.00    -0.364 A  
HETATM    8  C   UNL     1      -8.954  16.690  68.224  1.00  0.00    -0.214 A  
HETATM    9  C   UNL     1     -10.736  15.457  65.321  1.00  0.00    -0.421 A  
HETATM   10  N   UNL     1     -11.311  15.843  64.104  1.00  0.00    -1.024 NA 
HETATM   11  N   UNL     1     -10.838  14.155  65.618  1.00  0.00    -0.296 NA 
HETATM   12  H1  UNL     1     -11.764  15.165  63.492  1.00  0.00     0.000 HD 
HETATM   13  C   UNL     1     -10.312  13.726  66.774  1.00  0.00    -0.272 A  
HETATM   14  H2  UNL     1     -10.599  16.330  63.560  1.00  0.00     0.000 HD 
HETATM   15  N   UNL     1      -9.709  14.551  67.641  1.00  0.00    -0.213 NA 
BRANCH   4  16
HETATM   16  O   UNL     1      -9.226  19.906  66.378  1.00  0.00    -0.359 OA 
HETATM   17  C   UNL     1      -7.985  20.359  65.851  1.00  0.00     0.039 C  
ENDBRANCH   4  16
BRANCH  13  18
HETATM   18  N   UNL     1     -10.285  12.372  67.049  1.00  0.00    -0.219 NA 
HETATM   19  C   UNL     1     -10.267  10.072  66.231  1.00  0.00    -0.215 C  
HETATM   20  C   UNL     1     -10.916  11.460  66.094  1.00  0.00    -0.236 C  
HETATM   21  N   UNL     1     -10.294   9.579  67.617  1.00  0.00    -0.228 N  
HETATM   22  C   UNL     1      -9.765  10.530  68.610  1.00  0.00    -0.173 C  
HETATM   23  C   UNL     1     -10.471   8.220  67.826  1.00  0.00    -0.215 C  
HETATM   24  O   UNL     1     -10.702   7.458  66.883  1.00  0.00    -0.346 OA 
HETATM   25  C   UNL     1     -10.362  11.947  68.451  1.00  0.00    -0.209 C  
BRANCH  23  26
HETATM   26  C   UNL     1     -10.492   7.693  69.281  1.00  0.00    -0.218 C  
HETATM   27  C   UNL     1     -11.479   6.543  69.444  1.00  0.00    -0.346 C  
HETATM   28  C   UNL     1     -10.993   5.876  70.700  1.00  0.00    -0.357 C  
HETATM   29  C   UNL     1      -9.494   6.028  70.576  1.00  0.00    -0.168 C  
HETATM   30  O   UNL     1      -9.244   7.202  69.788  1.00  0.00    -0.145 OA 
ENDBRANCH  23  26
ENDBRANCH  13  18
ENDBRANCH   2   3
TORSDOF 4
ENDMDL
MODEL       16
REMARK 921   NORMALIZED FREE ENERGY PREDICTED BY IDOCK:   -6.26 KCAL/MOL
REMARK 922        TOTAL FREE ENERGY PREDICTED BY IDOCK:   -8.24 KCAL/MOL
REMARK 923 INTER-LIGAND FREE ENERGY PREDICTED BY IDOCK:   -7.67 KCAL/MOL
REMARK 924 INTRA-LIGAND FREE ENERGY PREDICTED BY IDOCK:   -0.57 KCAL/MOL
REMARK 927      BINDING AFFINITY PREDICTED BY RF-SCORE:    0.00 PKD
ROOT
HETATM    1  C   UNL     1     -10.766  19.376  67.324  1.00  0.00    -0.490 C  
HETATM    2  O   UNL     1     -10.754  18.381  66.303  1.00  0.00    -0.342 OA 
ENDROOT
BRANCH   2   3
HETATM    3  C   UNL     1     -10.010  17.262  66.568  1.00  0.00    -0.305 A  
HETATM    4  C   UNL     1      -8.641  17.274  66.273  1.00  0.00    -0.229 A  
HETATM    5  C   UNL     1      -7.889  16.116  66.495  1.00  0.00    -0.263 A  
HETATM    6  C   UNL     1      -9.825  14.962  67.389  1.00  0.00    -0.221 A  
HETATM    7  C   UNL     1      -8.473  14.963  67.070  1.00  0.00    -0.260 A  
HETATM    8  C   UNL     1     -10.568  16.109  67.138  1.00  0.00    -0.294 A  
HETATM    9  C   UNL     1      -7.808  13.776  67.377  1.00  0.00    -0.153 A  
HETATM   10  N   UNL     1      -6.445  13.612  67.104  1.00  0.00    -0.412 NA 
HETATM   11  N   UNL     1      -8.414  12.718  67.933  1.00  0.00    -0.162 NA 
HETATM   12  H1  UNL     1      -5.958  12.744  67.328  1.00  0.00     0.000 HD 
HETATM   13  C   UNL     1      -9.722  12.813  68.211  1.00  0.00    -0.216 A  
HETATM   14  H2  UNL     1      -5.940  14.378  67.549  1.00  0.00     0.000 HD 
HETATM   15  N   UNL     1     -10.439  13.912  67.938  1.00  0.00    -0.239 NA 
BRANCH   4  16
HETATM   16  O   UNL     1      -7.918  18.294  65.715  1.00  0.00    -0.513 OA 
HETATM   17  C   UNL     1      -6.503  18.217  65.840  1.00  0.00    -0.259 C  
ENDBRANCH   4  16
BRANCH  13  18
HETATM   18  N   UNL     1     -10.346  11.792  68.901  1.00  0.00    -0.173 NA 
HETATM   19  C   UNL     1     -12.356  10.916  69.975  1.00  0.00    -0.313 C  
HETATM   20  C   UNL     1     -11.437  12.138  69.814  1.00  0.00    -0.188 C  
HETATM   21  N   UNL     1     -11.615   9.712  70.381  1.00  0.00    -0.255 N  
HETATM   22  C   UNL     1     -10.444   9.407  69.540  1.00  0.00    -0.218 C  
HETATM   23  C   UNL     1     -12.235   8.820  71.242  1.00  0.00    -0.287 C  
HETATM   24  O   UNL     1     -13.337   9.076  71.737  1.00  0.00    -0.351 OA 
HETATM   25  C   UNL     1      -9.538  10.640  69.317  1.00  0.00    -0.144 C  
BRANCH  23  26
HETATM   26  C   UNL     1     -11.465   7.546  71.667  1.00  0.00    -0.261 C  
HETATM   27  C   UNL     1     -10.798   7.725  73.025  1.00  0.00    -0.451 C  
HETATM   28  C   UNL     1     -10.570   6.305  73.462  1.00  0.00    -0.288 C  
HETATM   29  C   UNL     1     -11.801   5.610  72.925  1.00  0.00    -0.044 C  
HETATM   30  O   UNL     1     -12.245   6.349  71.777  1.00  0.00    -0.342 OA 
ENDBRANCH  23  26
ENDBRANCH  13  18
ENDBRANCH   2   3
TORSDOF 4
ENDMDL
MODEL       17
REMARK 921   NORMALIZED FREE ENERGY PREDICTED BY IDOCK:   -6.24 KCAL/MOL
REMARK 922        TOTAL FREE ENERGY PREDICTED BY IDOCK:   -8.22 KCAL/MOL
REMARK 923 INTER-LIGAND FREE ENERGY PREDICTED BY IDOCK:   -8.14 KCAL/MOL
REMARK 924 INTRA-LIGAND FREE ENERGY PREDICTED BY IDOCK:   -0.08 KCAL/MOL
REMARK 927      BINDING AFFINITY PREDICTED BY RF-SCORE:    0.00 PKD
ROOT
HETATM    1  C   UNL     1      -8.646   5.242  69.911  1.00  0.00    -0.102 C  
HETATM    2  O   UNL     1      -9.430   5.257  71.101  1.00  0.00    -0.149 OA 
ENDROOT
BRANCH   2   3
HETATM    3  C   UNL     1     -10.256   6.338  71.261  1.00  0.00    -0.200 A  
HETATM    4  C   UNL     1     -11.077   6.403  72.393  1.00  0.00    -0.268 A  
HETATM    5  C   UNL     1     -11.958   7.480  72.532  1.00  0.00    -0.215 A  
HETATM    6  C   UNL     1     -11.148   8.481  70.478  1.00  0.00    -0.244 A  
HETATM    7  C   UNL     1     -11.984   8.531  71.586  1.00  0.00    -0.372 A  
HETATM    8  C   UNL     1     -10.298   7.392  70.335  1.00  0.00    -0.215 A  
HETATM    9  C   UNL     1     -12.786   9.671  71.652  1.00  0.00    -0.407 A  
HETATM   10  N   UNL     1     -13.693   9.865  72.701  1.00  0.00    -0.588 NA 
HETATM   11  N   UNL     1     -12.758  10.641  70.728  1.00  0.00    -0.371 NA 
HETATM   12  H1  UNL     1     -14.278  10.699  72.749  1.00  0.00     0.000 HD 
HETATM   13  C   UNL     1     -11.914  10.507  69.696  1.00  0.00    -0.208 A  
HETATM   14  H2  UNL     1     -13.179   9.791  73.579  1.00  0.00     0.000 HD 
HETATM   15  N   UNL     1     -11.118   9.440  69.550  1.00  0.00    -0.169 NA 
BRANCH   4  16
HETATM   16  O   UNL     1     -11.182   5.480  73.399  1.00  0.00    -0.271 OA 
HETATM   17  C   UNL     1     -10.297   5.634  74.502  1.00  0.00    -0.232 C  
ENDBRANCH   4  16
BRANCH  13  18
HETATM   18  N   UNL     1     -11.768  11.548  68.798  1.00  0.00    -0.311 NA 
HETATM   19  C   UNL     1     -11.550  12.300  66.486  1.00  0.00    -0.377 C  
HETATM   20  C   UNL     1     -11.077  11.280  67.536  1.00  0.00    -0.286 C  
HETATM   21  N   UNL     1     -11.402  13.688  66.951  1.00  0.00    -0.315 N  
HETATM   22  C   UNL     1     -11.994  13.951  68.274  1.00  0.00    -0.357 C  
HETATM   23  C   UNL     1     -11.057  14.657  66.022  1.00  0.00    -0.332 C  
HETATM   24  O   UNL     1     -10.780  14.351  64.859  1.00  0.00    -0.388 OA 
HETATM   25  C   UNL     1     -11.577  12.902  69.330  1.00  0.00    -0.302 C  
BRANCH  23  26
HETATM   26  C   UNL     1     -10.907  16.121  66.503  1.00  0.00    -0.139 C  
HETATM   27  C   UNL     1     -10.044  16.211  67.756  1.00  0.00    -0.250 C  
HETATM   28  C   UNL     1      -9.615  17.652  67.749  1.00  0.00    -0.267 C  
HETATM   29  C   UNL     1      -9.438  17.919  66.271  1.00  0.00    -0.220 C  
HETATM   30  O   UNL     1     -10.318  17.031  65.565  1.00  0.00    -0.585 OA 
ENDBRANCH  23  26
ENDBRANCH  13  18
ENDBRANCH   2   3
TORSDOF 4
ENDMDL
MODEL       18
REMARK 921   NORMALIZED FREE ENERGY PREDICTED BY IDOCK:   -6.23 KCAL/MOL
REMARK 922        TOTAL FREE ENERGY PREDICTED BY IDOCK:   -8.21 KCAL/MOL
REMARK 923 INTER-LIGAND FREE ENERGY PREDICTED BY IDOCK:   -7.59 KCAL/MOL
REMARK 924 INTRA-LIGAND FREE ENERGY PREDICTED BY IDOCK:   -0.62 KCAL/MOL
REMARK 927      BINDING AFFINITY PREDICTED BY RF-SCORE:    0.00 PKD
ROOT
HETATM    1  C   UNL     1     -10.836  16.554  69.392  1.00  0.00    -0.311 C  
HETATM    2  O   UNL     1     -11.878  15.848  68.723  1.00  0.00    -0.393 OA 
ENDROOT
BRANCH   2   3
HETATM    3  C   UNL     1     -11.565  14.584  68.296  1.00  0.00    -0.329 A  
HETATM    4  C   UNL     1     -11.157  14.399  66.969  1.00  0.00    -0.313 A  
HETATM    5  C   UNL     1     -10.887  13.104  66.518  1.00  0.00    -0.291 A  
HETATM    6  C   UNL     1     -11.332  12.183  68.716  1.00  0.00    -0.288 A  
HETATM    7  C   UNL     1     -10.955  11.994  67.392  1.00  0.00    -0.311 A  
HETATM    8  C   UNL     1     -11.626  13.471  69.147  1.00  0.00    -0.359 A  
HETATM    9  C   UNL     1     -10.662  10.671  67.060  1.00  0.00    -0.259 A  
HETATM   10  N   UNL     1     -10.279  10.313  65.762  1.00  0.00    -0.246 NA 
HETATM   11  N   UNL     1     -10.734   9.662  67.938  1.00  0.00    -0.258 NA 
HETATM   12  H1  UNL     1     -10.064   9.346  65.519  1.00  0.00     0.000 HD 
HETATM   13  C   UNL     1     -11.102   9.942  69.196  1.00  0.00    -0.159 A  
HETATM   14  H2  UNL     1      -9.478  10.888  65.500  1.00  0.00     0.000 HD 
HETATM   15  N   UNL     1     -11.412  11.182  69.596  1.00  0.00    -0.282 NA 
BRANCH   4  16
HETATM   16  O   UNL     1     -11.040  15.352  65.994  1.00  0.00    -0.313 OA 
HETATM   17  C   UNL     1      -9.774  15.989  65.872  1.00  0.00    -0.343 C  
ENDBRANCH   4  16
BRANCH  13  18
HETATM   18  N   UNL     1     -11.060   8.947  70.154  1.00  0.00    -0.231 NA 
HETATM   19  C   UNL     1     -11.022   8.314  72.512  1.00  0.00    -0.354 C  
HETATM   20  C   UNL     1     -10.437   9.253  71.443  1.00  0.00    -0.338 C  
HETATM   21  N   UNL     1     -10.911   6.898  72.130  1.00  0.00    -0.229 N  
HETATM   22  C   UNL     1     -11.433   6.588  70.787  1.00  0.00    -0.360 C  
HETATM   23  C   UNL     1     -10.670   5.967  73.128  1.00  0.00    -0.260 C  
HETATM   24  O   UNL     1     -10.452   6.324  74.290  1.00  0.00    -0.305 OA 
HETATM   25  C   UNL     1     -10.902   7.559  69.707  1.00  0.00    -0.225 C  
BRANCH  23  26
HETATM   26  C   UNL     1     -10.561   4.474  72.736  1.00  0.00    -0.195 C  
HETATM   27  C   UNL     1      -9.142   3.949  72.928  1.00  0.00    -0.122 C  
HETATM   28  C   UNL     1      -9.355   2.463  72.996  1.00  0.00    -0.115 C  
HETATM   29  C   UNL     1     -10.672   2.367  73.733  1.00  0.00    -0.171 C  
HETATM   30  O   UNL     1     -11.406   3.571  73.461  1.00  0.00    -0.227 OA 
ENDBRANCH  23  26
ENDBRANCH  13  18
ENDBRANCH   2   3
TORSDOF 4
ENDMDL
MODEL       19
REMARK 921   NORMALIZED FREE ENERGY PREDICTED BY IDOCK:   -6.21 KCAL/MOL
REMARK 922        TOTAL FREE ENERGY PREDICTED BY IDOCK:   -8.18 KCAL/MOL
REMARK 923 INTER-LIGAND FREE ENERGY PREDICTED BY IDOCK:   -7.84 KCAL/MOL
REMARK 924 INTRA-LIGAND FREE ENERGY PREDICTED BY IDOCK:   -0.34 KCAL/MOL
REMARK 927      BINDING AFFINITY PREDICTED BY RF-SCORE:    0.00 PKD
ROOT
HETATM    1  C   UNL     1      -7.409  18.650  68.669  1.00  0.00    -0.304 C  
HETATM    2  O   UNL     1      -8.827  18.553  68.557  1.00  0.00    -0.320 OA 
ENDROOT
BRANCH   2   3
HETATM    3  C   UNL     1      -9.297  17.511  67.801  1.00  0.00    -0.257 A  
HETATM    4  C   UNL     1      -9.639  17.745  66.463  1.00  0.00    -0.308 A  
HETATM    5  C   UNL     1     -10.167  16.696  65.705  1.00  0.00    -0.328 A  
HETATM    6  C   UNL     1      -9.932  15.158  67.564  1.00  0.00    -0.225 A  
HETATM    7  C   UNL     1     -10.299  15.396  66.245  1.00  0.00    -0.304 A  
HETATM    8  C   UNL     1      -9.435  16.214  68.317  1.00  0.00    -0.208 A  
HETATM    9  C   UNL     1     -10.767  14.271  65.566  1.00  0.00    -0.331 A  
HETATM   10  N   UNL     1     -11.188  14.347  64.233  1.00  0.00    -0.611 NA 
HETATM   11  N   UNL     1     -10.858  13.059  66.130  1.00  0.00    -0.277 NA 
HETATM   12  H1  UNL     1     -11.530  13.524  63.736  1.00  0.00     0.000 HD 
HETATM   13  C   UNL     1     -10.475  12.925  67.407  1.00  0.00    -0.233 A  
HETATM   14  H2  UNL     1     -10.429  14.751  63.685  1.00  0.00     0.000 HD 
HETATM   15  N   UNL     1     -10.024  13.955  68.136  1.00  0.00    -0.233 NA 
BRANCH   4  16
HETATM   16  O   UNL     1      -9.579  18.932  65.784  1.00  0.00    -0.419 OA 
HETATM   17  C   UNL     1     -10.645  19.849  66.004  1.00  0.00    -0.422 C  
ENDBRANCH   4  16
BRANCH  13  18
HETATM   18  N   UNL     1     -10.434  11.666  67.977  1.00  0.00    -0.188 NA 
HETATM   19  C   UNL     1      -9.847   9.304  67.790  1.00  0.00    -0.171 C  
HETATM   20  C   UNL     1     -10.510  10.503  67.092  1.00  0.00    -0.249 C  
HETATM   21  N   UNL     1     -10.408   9.059  69.128  1.00  0.00    -0.215 N  
HETATM   22  C   UNL     1     -10.443  10.247  69.998  1.00  0.00    -0.241 C  
HETATM   23  C   UNL     1     -10.522   7.747  69.560  1.00  0.00    -0.225 C  
HETATM   24  O   UNL     1     -10.258   6.805  68.807  1.00  0.00    -0.160 OA 
HETATM   25  C   UNL     1     -11.053  11.481  69.294  1.00  0.00    -0.246 C  
BRANCH  23  26
HETATM   26  C   UNL     1     -11.103   7.482  70.970  1.00  0.00    -0.257 C  
HETATM   27  C   UNL     1     -11.352   5.995  71.200  1.00  0.00    -0.300 C  
HETATM   28  C   UNL     1     -11.407   5.907  72.700  1.00  0.00    -0.337 C  
HETATM   29  C   UNL     1     -10.367   6.924  73.114  1.00  0.00    -0.266 C  
HETATM   30  O   UNL     1     -10.295   7.912  72.073  1.00  0.00    -0.202 OA 
ENDBRANCH  23  26
ENDBRANCH  13  18
ENDBRANCH   2   3
TORSDOF 4
ENDMDL
MODEL       20
REMARK 921   NORMALIZED FREE ENERGY PREDICTED BY IDOCK:   -6.20 KCAL/MOL
REMARK 922        TOTAL FREE ENERGY PREDICTED BY IDOCK:   -8.17 KCAL/MOL
REMARK 923 INTER-LIGAND FREE ENERGY PREDICTED BY IDOCK:   -7.60 KCAL/MOL
REMARK 924 INTRA-LIGAND FREE ENERGY PREDICTED BY IDOCK:   -0.57 KCAL/MOL
REMARK 927      BINDING AFFINITY PREDICTED BY RF-SCORE:    0.00 PKD
ROOT
HETATM    1  C   UNL     1     -11.253   6.311  68.955  1.00  0.00    -0.343 C  
HETATM    2  O   UNL     1     -10.757   6.986  70.108  1.00  0.00    -0.224 OA 
ENDROOT
BRANCH   2   3
HETATM    3  C   UNL     1     -11.158   8.288  70.259  1.00  0.00    -0.219 A  
HETATM    4  C   UNL     1     -12.175   8.582  71.175  1.00  0.00    -0.232 A  
HETATM    5  C   UNL     1     -12.620   9.901  71.294  1.00  0.00    -0.480 A  
HETATM    6  C   UNL     1     -10.989  10.658  69.668  1.00  0.00    -0.278 A  
HETATM    7  C   UNL     1     -12.018  10.947  70.555  1.00  0.00    -0.466 A  
HETATM    8  C   UNL     1     -10.574   9.339  69.537  1.00  0.00    -0.236 A  
HETATM    9  C   UNL     1     -12.351  12.300  70.631  1.00  0.00    -0.286 A  
HETATM   10  N   UNL     1     -13.376  12.753  71.470  1.00  0.00    -0.241 NA 
HETATM   11  N   UNL     1     -11.735  13.248  69.913  1.00  0.00    -0.287 NA 
HETATM   12  H1  UNL     1     -13.619  13.741  71.526  1.00  0.00     0.000 HD 
HETATM   13  C   UNL     1     -10.748  12.874  69.086  1.00  0.00    -0.016 A  
HETATM   14  H2  UNL     1     -13.178  12.424  72.415  1.00  0.00     0.000 HD 
HETATM   15  N   UNL     1     -10.373  11.596  68.944  1.00  0.00    -0.190 NA 
BRANCH   4  16
HETATM   16  O   UNL     1     -12.865   7.701  71.964  1.00  0.00    -0.287 OA 
HETATM   17  C   UNL     1     -14.256   7.558  71.697  1.00  0.00    -0.458 C  
ENDBRANCH   4  16
BRANCH  13  18
HETATM   18  N   UNL     1     -10.008  13.839  68.430  1.00  0.00    -0.228 NA 
HETATM   19  C   UNL     1      -7.934  14.487  67.317  1.00  0.00    -0.191 C  
HETATM   20  C   UNL     1      -8.550  13.786  68.540  1.00  0.00    -0.122 C  
HETATM   21  N   UNL     1      -8.458  15.850  67.135  1.00  0.00    -0.183 N  
HETATM   22  C   UNL     1      -9.928  15.940  67.133  1.00  0.00    -0.240 C  
HETATM   23  C   UNL     1      -7.596  16.824  66.654  1.00  0.00    -0.276 C  
HETATM   24  O   UNL     1      -6.398  16.583  66.482  1.00  0.00    -0.278 OA 
HETATM   25  C   UNL     1     -10.569  15.191  68.323  1.00  0.00    -0.243 C  
BRANCH  23  26
HETATM   26  C   UNL     1      -8.142  18.258  66.451  1.00  0.00    -0.258 C  
HETATM   27  C   UNL     1      -8.181  19.031  67.764  1.00  0.00    -0.305 C  
HETATM   28  C   UNL     1      -8.231  20.459  67.296  1.00  0.00    -0.390 C  
HETATM   29  C   UNL     1      -7.347  20.419  66.070  1.00  0.00    -0.163 C  
HETATM   30  O   UNL     1      -7.408  19.085  65.539  1.00  0.00    -0.477 OA 
ENDBRANCH  23  26
ENDBRANCH  13  18
ENDBRANCH   2   3
TORSDOF 4
ENDMDL
MODEL       21
REMARK 921   NORMALIZED FREE ENERGY PREDICTED BY IDOCK:   -6.19 KCAL/MOL
REMARK 922        TOTAL FREE ENERGY PREDICTED BY IDOCK:   -8.16 KCAL/MOL
REMARK 923 INTER-LIGAND FREE ENERGY PREDICTED BY IDOCK:   -7.59 KCAL/MOL
REMARK 924 INTRA-LIGAND FREE ENERGY PREDICTED BY IDOCK:   -0.58 KCAL/MOL
REMARK 927      BINDING AFFINITY PREDICTED BY RF-SCORE:    0.00 PKD
ROOT
HETATM    1  C   UNL     1     -12.378  16.054  72.616  1.00  0.00    -0.502 C  
HETATM    2  O   UNL     1     -11.907  16.362  71.307  1.00  0.00    -0.372 OA 
ENDROOT
BRANCH   2   3
HETATM    3  C   UNL     1     -11.865  15.315  70.424  1.00  0.00    -0.324 A  
HETATM    4  C   UNL     1     -11.810  15.588  69.052  1.00  0.00    -0.354 A  
HETATM    5  C   UNL     1     -11.819  14.521  68.148  1.00  0.00    -0.348 A  
HETATM    6  C   UNL     1     -11.840  12.910  69.959  1.00  0.00    -0.286 A  
HETATM    7  C   UNL     1     -11.816  13.180  68.597  1.00  0.00    -0.363 A  
HETATM    8  C   UNL     1     -11.860  13.978  70.848  1.00  0.00    -0.249 A  
HETATM    9  C   UNL     1     -11.777  12.046  67.786  1.00  0.00    -0.309 A  
HETATM   10  N   UNL     1     -11.762  12.147  66.390  1.00  0.00    -0.560 NA 
HETATM   11  N   UNL     1     -11.763  10.797  68.272  1.00  0.00    -0.494 NA 
HETATM   12  H1  UNL     1     -11.733  11.318  65.797  1.00  0.00     0.000 HD 
HETATM   13  C   UNL     1     -11.783  10.636  69.602  1.00  0.00    -0.296 A  
HETATM   14  H2  UNL     1     -10.981  12.749  66.126  1.00  0.00     0.000 HD 
HETATM   15  N   UNL     1     -11.832  11.670  70.453  1.00  0.00    -0.334 NA 
BRANCH   4  16
HETATM   16  O   UNL     1     -11.811  16.815  68.446  1.00  0.00     0.173 OA 
HETATM   17  C   UNL     1     -10.541  17.361  68.108  1.00  0.00    -0.376 C  
ENDBRANCH   4  16
BRANCH  13  18
HETATM   18  N   UNL     1     -11.639   9.369  70.136  1.00  0.00    -0.146 NA 
HETATM   19  C   UNL     1     -12.428   7.646  71.675  1.00  0.00    -0.335 C  
HETATM   20  C   UNL     1     -12.100   9.139  71.506  1.00  0.00    -0.351 C  
HETATM   21  N   UNL     1     -11.304   6.781  71.283  1.00  0.00    -0.274 N  
HETATM   22  C   UNL     1     -10.752   7.071  69.948  1.00  0.00    -0.240 C  
HETATM   23  C   UNL     1     -11.098   5.611  71.997  1.00  0.00    -0.230 C  
HETATM   24  O   UNL     1     -11.773   5.351  72.998  1.00  0.00    -0.275 OA 
HETATM   25  C   UNL     1     -10.470   8.577  69.738  1.00  0.00    -0.220 C  
BRANCH  23  26
HETATM   26  C   UNL     1      -9.923   4.692  71.585  1.00  0.00    -0.193 C  
HETATM   27  C   UNL     1      -8.760   4.801  72.565  1.00  0.00    -0.118 C  
HETATM   28  C   UNL     1      -7.998   3.531  72.303  1.00  0.00    -0.068 C  
HETATM   29  C   UNL     1      -9.113   2.548  72.025  1.00  0.00    -0.083 C  
HETATM   30  O   UNL     1     -10.222   3.293  71.498  1.00  0.00    -0.060 OA 
ENDBRANCH  23  26
ENDBRANCH  13  18
ENDBRANCH   2   3
TORSDOF 4
ENDMDL
MODEL       22
REMARK 921   NORMALIZED FREE ENERGY PREDICTED BY IDOCK:   -6.17 KCAL/MOL
REMARK 922        TOTAL FREE ENERGY PREDICTED BY IDOCK:   -8.14 KCAL/MOL
REMARK 923 INTER-LIGAND FREE ENERGY PREDICTED BY IDOCK:   -7.58 KCAL/MOL
REMARK 924 INTRA-LIGAND FREE ENERGY PREDICTED BY IDOCK:   -0.55 KCAL/MOL
REMARK 927      BINDING AFFINITY PREDICTED BY RF-SCORE:    0.00 PKD
ROOT
HETATM    1  C   UNL     1     -12.460   8.642  72.289  1.00  0.00    -0.395 C  
HETATM    2  O   UNL     1     -11.406   7.838  71.765  1.00  0.00    -0.248 OA 
ENDROOT
BRANCH   2   3
HETATM    3  C   UNL     1     -10.948   8.188  70.522  1.00  0.00    -0.243 A  
HETATM    4  C   UNL     1     -10.912   7.215  69.515  1.00  0.00    -0.191 A  
HETATM    5  C   UNL     1     -10.398   7.557  68.261  1.00  0.00    -0.233 A  
HETATM    6  C   UNL     1     -10.041   9.848  68.967  1.00  0.00    -0.189 A  
HETATM    7  C   UNL     1      -9.977   8.877  67.976  1.00  0.00    -0.215 A  
HETATM    8  C   UNL     1     -10.527   9.491  70.219  1.00  0.00    -0.319 A  
HETATM    9  C   UNL     1      -9.495   9.336  66.750  1.00  0.00    -0.175 A  
HETATM   10  N   UNL     1      -9.357   8.478  65.653  1.00  0.00    -0.426 NA 
HETATM   11  N   UNL     1      -9.122  10.605  66.538  1.00  0.00    -0.159 NA 
HETATM   12  H1  UNL     1      -9.005   8.813  64.757  1.00  0.00     0.000 HD 
HETATM   13  C   UNL     1      -9.224  11.473  67.554  1.00  0.00    -0.166 A  
HETATM   14  H2  UNL     1     -10.260   8.030  65.488  1.00  0.00     0.000 HD 
HETATM   15  N   UNL     1      -9.666  11.114  68.766  1.00  0.00    -0.200 NA 
BRANCH   4  16
HETATM   16  O   UNL     1     -11.273   5.899  69.616  1.00  0.00    -0.395 OA 
HETATM   17  C   UNL     1     -10.237   4.973  69.922  1.00  0.00    -0.270 C  
ENDBRANCH   4  16
BRANCH  13  18
HETATM   18  N   UNL     1      -8.972  12.813  67.331  1.00  0.00    -0.186 NA 
HETATM   19  C   UNL     1      -7.392  14.675  67.345  1.00  0.00    -0.168 C  
HETATM   20  C   UNL     1      -7.927  13.462  68.125  1.00  0.00    -0.150 C  
HETATM   21  N   UNL     1      -8.467  15.591  66.934  1.00  0.00    -0.233 N  
HETATM   22  C   UNL     1      -9.584  14.938  66.229  1.00  0.00    -0.307 C  
HETATM   23  C   UNL     1      -8.201  16.951  66.924  1.00  0.00    -0.213 C  
HETATM   24  O   UNL     1      -7.127  17.391  67.346  1.00  0.00    -0.158 OA 
HETATM   25  C   UNL     1     -10.098  13.681  66.969  1.00  0.00    -0.248 C  
BRANCH  23  26
HETATM   26  C   UNL     1      -9.325  17.920  66.484  1.00  0.00    -0.280 C  
HETATM   27  C   UNL     1     -10.223  18.301  67.655  1.00  0.00    -0.397 C  
HETATM   28  C   UNL     1     -10.871  19.566  67.166  1.00  0.00    -0.555 C  
HETATM   29  C   UNL     1      -9.748  20.213  66.386  1.00  0.00    -0.415 C  
HETATM   30  O   UNL     1      -8.893  19.162  65.911  1.00  0.00    -0.450 OA 
ENDBRANCH  23  26
ENDBRANCH  13  18
ENDBRANCH   2   3
TORSDOF 4
ENDMDL
MODEL       23
REMARK 921   NORMALIZED FREE ENERGY PREDICTED BY IDOCK:   -6.16 KCAL/MOL
REMARK 922        TOTAL FREE ENERGY PREDICTED BY IDOCK:   -8.12 KCAL/MOL
REMARK 923 INTER-LIGAND FREE ENERGY PREDICTED BY IDOCK:   -7.55 KCAL/MOL
REMARK 924 INTRA-LIGAND FREE ENERGY PREDICTED BY IDOCK:   -0.57 KCAL/MOL
REMARK 927      BINDING AFFINITY PREDICTED BY RF-SCORE:    0.00 PKD
ROOT
HETATM    1  C   UNL     1      -8.594   3.246  68.015  1.00  0.00    -0.096 C  
HETATM    2  O   UNL     1      -9.421   2.936  69.134  1.00  0.00    -0.153 OA 
ENDROOT
BRANCH   2   3
HETATM    3  C   UNL     1      -9.785   3.996  69.921  1.00  0.00    -0.193 A  
HETATM    4  C   UNL     1      -9.890   3.807  71.305  1.00  0.00    -0.149 A  
HETATM    5  C   UNL     1     -10.310   4.874  72.105  1.00  0.00    -0.263 A  
HETATM    6  C   UNL     1     -10.431   6.344  70.181  1.00  0.00    -0.216 A  
HETATM    7  C   UNL     1     -10.565   6.150  71.549  1.00  0.00    -0.288 A  
HETATM    8  C   UNL     1     -10.040   5.269  69.392  1.00  0.00    -0.311 A  
HETATM    9  C   UNL     1     -10.941   7.291  72.259  1.00  0.00    -0.249 A  
HETATM   10  N   UNL     1     -11.131   7.258  73.645  1.00  0.00    -0.554 NA 
HETATM   11  N   UNL     1     -11.157   8.478  71.676  1.00  0.00    -0.269 NA 
HETATM   12  H1  UNL     1     -11.405   8.092  74.164  1.00  0.00     0.000 HD 
HETATM   13  C   UNL     1     -10.997   8.570  70.349  1.00  0.00    -0.238 A  
HETATM   14  H2  UNL     1     -10.280   6.890  74.071  1.00  0.00     0.000 HD 
HETATM   15  N   UNL     1     -10.649   7.522  69.591  1.00  0.00    -0.237 NA 
BRANCH   4  16
HETATM   16  O   UNL     1      -9.687   2.649  72.005  1.00  0.00    -0.124 OA 
HETATM   17  C   UNL     1      -9.257   2.784  73.355  1.00  0.00    -0.084 C  
ENDBRANCH   4  16
BRANCH  13  18
HETATM   18  N   UNL     1     -11.085   9.806  69.737  1.00  0.00    -0.244 NA 
HETATM   19  C   UNL     1     -11.631  12.181  69.888  1.00  0.00    -0.221 C  
HETATM   20  C   UNL     1     -12.087  10.752  70.229  1.00  0.00    -0.348 C  
HETATM   21  N   UNL     1     -11.327  12.342  68.458  1.00  0.00    -0.261 N  
HETATM   22  C   UNL     1     -10.404  11.330  67.916  1.00  0.00    -0.182 C  
HETATM   23  C   UNL     1     -11.626  13.554  67.857  1.00  0.00    -0.342 C  
HETATM   24  O   UNL     1     -12.226  14.439  68.476  1.00  0.00    -0.268 OA 
HETATM   25  C   UNL     1     -10.814   9.889  68.298  1.00  0.00    -0.230 C  
BRANCH  23  26
HETATM   26  C   UNL     1     -11.302  13.734  66.354  1.00  0.00    -0.317 C  
HETATM   27  C   UNL     1     -12.557  13.629  65.496  1.00  0.00    -0.541 C  
HETATM   28  C   UNL     1     -12.136  14.312  64.225  1.00  0.00    -0.467 C  
HETATM   29  C   UNL     1     -11.250  15.422  64.743  1.00  0.00    -0.395 C  
HETATM   30  O   UNL     1     -10.690  14.979  65.990  1.00  0.00    -0.306 OA 
ENDBRANCH  23  26
ENDBRANCH  13  18
ENDBRANCH   2   3
TORSDOF 4
ENDMDL
MODEL       24
REMARK 921   NORMALIZED FREE ENERGY PREDICTED BY IDOCK:   -6.12 KCAL/MOL
REMARK 922        TOTAL FREE ENERGY PREDICTED BY IDOCK:   -8.07 KCAL/MOL
REMARK 923 INTER-LIGAND FREE ENERGY PREDICTED BY IDOCK:   -7.52 KCAL/MOL
REMARK 924 INTRA-LIGAND FREE ENERGY PREDICTED BY IDOCK:   -0.56 KCAL/MOL
REMARK 927      BINDING AFFINITY PREDICTED BY RF-SCORE:    0.00 PKD
ROOT
HETATM    1  C   UNL     1     -11.788   7.183  71.338  1.00  0.00    -0.308 C  
HETATM    2  O   UNL     1     -11.292   6.457  70.217  1.00  0.00    -0.347 OA 
ENDROOT
BRANCH   2   3
HETATM    3  C   UNL     1     -10.893   7.210  69.144  1.00  0.00    -0.162 A  
HETATM    4  C   UNL     1     -10.690   6.579  67.911  1.00  0.00    -0.287 A  
HETATM    5  C   UNL     1     -10.235   7.338  66.828  1.00  0.00    -0.305 A  
HETATM    6  C   UNL     1     -10.271   9.364  68.158  1.00  0.00    -0.200 A  
HETATM    7  C   UNL     1     -10.040   8.734  66.942  1.00  0.00    -0.348 A  
HETATM    8  C   UNL     1     -10.696   8.596  69.235  1.00  0.00    -0.151 A  
HETATM    9  C   UNL     1      -9.636   9.590  65.917  1.00  0.00    -0.261 A  
HETATM   10  N   UNL     1      -9.352   9.109  64.634  1.00  0.00    -0.415 NA 
HETATM   11  N   UNL     1      -9.481  10.911  66.084  1.00  0.00    -0.193 NA 
HETATM   12  H1  UNL     1      -9.057   9.735  63.885  1.00  0.00     0.000 HD 
HETATM   13  C   UNL     1      -9.732  11.430  67.294  1.00  0.00    -0.185 A  
HETATM   14  H2  UNL     1     -10.165   8.588  64.306  1.00  0.00     0.000 HD 
HETATM   15  N   UNL     1     -10.113  10.678  68.335  1.00  0.00    -0.160 NA 
BRANCH   4  16
HETATM   16  O   UNL     1     -10.826   5.248  67.625  1.00  0.00    -0.069 OA 
HETATM   17  C   UNL     1      -9.624   4.499  67.484  1.00  0.00    -0.172 C  
ENDBRANCH   4  16
BRANCH  13  18
HETATM   18  N   UNL     1      -9.707  12.801  67.464  1.00  0.00    -0.197 NA 
HETATM   19  C   UNL     1      -9.772  14.724  68.967  1.00  0.00    -0.190 C  
HETATM   20  C   UNL     1     -10.409  13.368  68.616  1.00  0.00    -0.205 C  
HETATM   21  N   UNL     1      -9.719  15.630  67.810  1.00  0.00    -0.218 N  
HETATM   22  C   UNL     1      -9.115  15.039  66.603  1.00  0.00    -0.280 C  
HETATM   23  C   UNL     1      -9.901  16.986  68.031  1.00  0.00    -0.275 C  
HETATM   24  O   UNL     1     -10.201  17.412  69.151  1.00  0.00    -0.329 OA 
HETATM   25  C   UNL     1      -9.701  13.649  66.267  1.00  0.00    -0.283 C  
BRANCH  23  26
HETATM   26  C   UNL     1      -9.838  17.948  66.820  1.00  0.00    -0.333 C  
HETATM   27  C   UNL     1     -10.678  19.198  67.056  1.00  0.00    -0.542 C  
HETATM   28  C   UNL     1     -10.097  20.167  66.064  1.00  0.00    -0.497 C  
HETATM   29  C   UNL     1      -8.628  19.808  66.096  1.00  0.00    -0.338 C  
HETATM   30  O   UNL     1      -8.533  18.423  66.464  1.00  0.00    -0.264 OA 
ENDBRANCH  23  26
ENDBRANCH  13  18
ENDBRANCH   2   3
TORSDOF 4
ENDMDL
MODEL       25
REMARK 921   NORMALIZED FREE ENERGY PREDICTED BY IDOCK:   -6.07 KCAL/MOL
REMARK 922        TOTAL FREE ENERGY PREDICTED BY IDOCK:   -8.01 KCAL/MOL
REMARK 923 INTER-LIGAND FREE ENERGY PREDICTED BY IDOCK:   -7.91 KCAL/MOL
REMARK 924 INTRA-LIGAND FREE ENERGY PREDICTED BY IDOCK:   -0.10 KCAL/MOL
REMARK 927      BINDING AFFINITY PREDICTED BY RF-SCORE:    0.00 PKD
ROOT
HETATM    1  C   UNL     1      -7.551  16.943  66.386  1.00  0.00    -0.304 C  
HETATM    2  O   UNL     1      -8.824  16.499  65.924  1.00  0.00    -0.464 OA 
ENDROOT
BRANCH   2   3
HETATM    3  C   UNL     1      -9.711  16.111  66.894  1.00  0.00    -0.236 A  
HETATM    4  C   UNL     1     -10.596  17.059  67.422  1.00  0.00    -0.289 A  
HETATM    5  C   UNL     1     -11.466  16.677  68.447  1.00  0.00    -0.023 A  
HETATM    6  C   UNL     1     -10.653  14.395  68.365  1.00  0.00    -0.247 A  
HETATM    7  C   UNL     1     -11.511  15.342  68.910  1.00  0.00    -0.346 A  
HETATM    8  C   UNL     1      -9.773  14.792  67.367  1.00  0.00    -0.214 A  
HETATM    9  C   UNL     1     -12.370  14.844  69.890  1.00  0.00    -0.280 A  
HETATM   10  N   UNL     1     -13.287  15.673  70.546  1.00  0.00    -0.788 NA 
HETATM   11  N   UNL     1     -12.374  13.562  70.280  1.00  0.00    -0.322 NA 
HETATM   12  H1  UNL     1     -13.915  15.310  71.263  1.00  0.00     0.000 HD 
HETATM   13  C   UNL     1     -11.512  12.720  69.692  1.00  0.00    -0.185 A  
HETATM   14  H2  UNL     1     -13.855  16.137  69.837  1.00  0.00     0.000 HD 
HETATM   15  N   UNL     1     -10.646  13.117  68.751  1.00  0.00    -0.234 NA 
BRANCH   4  16
HETATM   16  O   UNL     1     -10.687  18.385  67.096  1.00  0.00    -0.399 OA 
HETATM   17  C   UNL     1     -10.058  19.305  67.981  1.00  0.00    -0.400 C  
ENDBRANCH   4  16
BRANCH  13  18
HETATM   18  N   UNL     1     -11.580  11.369  69.977  1.00  0.00    -0.308 NA 
HETATM   19  C   UNL     1     -12.786   9.502  70.986  1.00  0.00    -0.221 C  
HETATM   20  C   UNL     1     -12.306  10.950  71.177  1.00  0.00    -0.374 C  
HETATM   21  N   UNL     1     -11.687   8.594  70.621  1.00  0.00    -0.214 N  
HETATM   22  C   UNL     1     -10.872   9.055  69.483  1.00  0.00    -0.166 C  
HETATM   23  C   UNL     1     -11.718   7.298  71.109  1.00  0.00    -0.303 C  
HETATM   24  O   UNL     1     -12.587   6.942  71.911  1.00  0.00    -0.339 OA 
HETATM   25  C   UNL     1     -10.429  10.528  69.629  1.00  0.00    -0.219 C  
BRANCH  23  26
HETATM   26  C   UNL     1     -10.570   6.335  70.723  1.00  0.00    -0.243 C  
HETATM   27  C   UNL     1     -10.617   5.976  69.242  1.00  0.00    -0.366 C  
HETATM   28  C   UNL     1      -9.215   5.499  68.981  1.00  0.00    -0.143 C  
HETATM   29  C   UNL     1      -8.401   6.418  69.864  1.00  0.00    -0.130 C  
HETATM   30  O   UNL     1      -9.241   6.817  70.959  1.00  0.00    -0.156 OA 
ENDBRANCH  23  26
ENDBRANCH  13  18
ENDBRANCH   2   3
TORSDOF 4
ENDMDL
MODEL       26
REMARK 921   NORMALIZED FREE ENERGY PREDICTED BY IDOCK:   -6.07 KCAL/MOL
REMARK 922        TOTAL FREE ENERGY PREDICTED BY IDOCK:   -8.01 KCAL/MOL
REMARK 923 INTER-LIGAND FREE ENERGY PREDICTED BY IDOCK:   -7.53 KCAL/MOL
REMARK 924 INTRA-LIGAND FREE ENERGY PREDICTED BY IDOCK:   -0.49 KCAL/MOL
REMARK 927      BINDING AFFINITY PREDICTED BY RF-SCORE:    0.00 PKD
ROOT
HETATM    1  C   UNL     1      -6.477  17.679  66.001  1.00  0.00    -0.230 C  
HETATM    2  O   UNL     1      -7.850  17.928  65.713  1.00  0.00    -0.542 OA 
ENDROOT
BRANCH   2   3
HETATM    3  C   UNL     1      -8.756  17.209  66.448  1.00  0.00    -0.256 A  
HETATM    4  C   UNL     1      -9.808  17.886  67.077  1.00  0.00    -0.314 A  
HETATM    5  C   UNL     1     -10.704  17.162  67.869  1.00  0.00    -0.355 A  
HETATM    6  C   UNL     1      -9.576  15.082  67.343  1.00  0.00    -0.205 A  
HETATM    7  C   UNL     1     -10.602  15.756  67.991  1.00  0.00    -0.279 A  
HETATM    8  C   UNL     1      -8.674  15.815  66.581  1.00  0.00    -0.323 A  
HETATM    9  C   UNL     1     -11.466  14.933  68.713  1.00  0.00    -0.307 A  
HETATM   10  N   UNL     1     -12.545  15.461  69.433  1.00  0.00    -0.596 NA 
HETATM   11  N   UNL     1     -11.325  13.602  68.781  1.00  0.00    -0.269 NA 
HETATM   12  H1  UNL     1     -13.177  14.859  69.961  1.00  0.00     0.000 HD 
HETATM   13  C   UNL     1     -10.306  13.039  68.118  1.00  0.00    -0.240 A  
HETATM   14  H2  UNL     1     -13.107  16.021  68.792  1.00  0.00     0.000 HD 
HETATM   15  N   UNL     1      -9.424  13.757  67.410  1.00  0.00    -0.216 NA 
BRANCH   4  16
HETATM   16  O   UNL     1     -10.054  19.233  67.069  1.00  0.00    -0.329 OA 
HETATM   17  C   UNL     1     -10.650  19.767  65.893  1.00  0.00    -0.453 C  
ENDBRANCH   4  16
BRANCH  13  18
HETATM   18  N   UNL     1     -10.209  11.662  68.062  1.00  0.00    -0.185 NA 
HETATM   19  C   UNL     1     -10.473   9.596  66.787  1.00  0.00    -0.186 C  
HETATM   20  C   UNL     1     -11.117  10.940  67.170  1.00  0.00    -0.240 C  
HETATM   21  N   UNL     1     -10.069   8.817  67.967  1.00  0.00    -0.187 N  
HETATM   22  C   UNL     1      -9.245   9.562  68.935  1.00  0.00    -0.145 C  
HETATM   23  C   UNL     1     -10.186   7.437  67.912  1.00  0.00    -0.194 C  
HETATM   24  O   UNL     1     -10.709   6.882  66.940  1.00  0.00    -0.318 OA 
HETATM   25  C   UNL     1      -9.847  10.941  69.287  1.00  0.00    -0.090 C  
BRANCH  23  26
HETATM   26  C   UNL     1      -9.755   6.608  69.147  1.00  0.00    -0.145 C  
HETATM   27  C   UNL     1     -10.935   5.859  69.755  1.00  0.00    -0.452 C  
HETATM   28  C   UNL     1     -10.256   4.781  70.552  1.00  0.00    -0.252 C  
HETATM   29  C   UNL     1      -9.072   4.440  69.674  1.00  0.00    -0.114 C  
HETATM   30  O   UNL     1      -8.747   5.615  68.915  1.00  0.00    -0.107 OA 
ENDBRANCH  23  26
ENDBRANCH  13  18
ENDBRANCH   2   3
TORSDOF 4
ENDMDL
MODEL       27
REMARK 921   NORMALIZED FREE ENERGY PREDICTED BY IDOCK:   -6.03 KCAL/MOL
REMARK 922        TOTAL FREE ENERGY PREDICTED BY IDOCK:   -7.96 KCAL/MOL
REMARK 923 INTER-LIGAND FREE ENERGY PREDICTED BY IDOCK:   -7.37 KCAL/MOL
REMARK 924 INTRA-LIGAND FREE ENERGY PREDICTED BY IDOCK:   -0.58 KCAL/MOL
REMARK 927      BINDING AFFINITY PREDICTED BY RF-SCORE:    0.00 PKD
ROOT
HETATM    1  C   UNL     1     -10.131   6.861  73.947  1.00  0.00    -0.357 C  
HETATM    2  O   UNL     1      -9.264   6.342  72.942  1.00  0.00    -0.138 OA 
ENDROOT
BRANCH   2   3
HETATM    3  C   UNL     1      -9.644   6.573  71.646  1.00  0.00    -0.160 A  
HETATM    4  C   UNL     1     -10.016   5.486  70.846  1.00  0.00    -0.199 A  
HETATM    5  C   UNL     1     -10.356   5.713  69.509  1.00  0.00    -0.345 A  
HETATM    6  C   UNL     1     -10.051   8.103  69.778  1.00  0.00    -0.197 A  
HETATM    7  C   UNL     1     -10.392   7.023  68.975  1.00  0.00    -0.208 A  
HETATM    8  C   UNL     1      -9.688   7.863  71.097  1.00  0.00    -0.182 A  
HETATM    9  C   UNL     1     -10.761   7.366  67.674  1.00  0.00    -0.207 A  
HETATM   10  N   UNL     1     -11.121   6.390  66.736  1.00  0.00    -0.720 NA 
HETATM   11  N   UNL     1     -10.787   8.629  67.228  1.00  0.00    -0.130 NA 
HETATM   12  H1  UNL     1     -11.391   6.641  65.785  1.00  0.00     0.000 HD 
HETATM   13  C   UNL     1     -10.447   9.607  68.078  1.00  0.00    -0.229 A  
HETATM   14  H2  UNL     1     -11.872   5.829  67.138  1.00  0.00     0.000 HD 
HETATM   15  N   UNL     1     -10.069   9.365  69.341  1.00  0.00    -0.189 NA 
BRANCH   4  16
HETATM   16  O   UNL     1     -10.035   4.163  71.195  1.00  0.00    -0.188 OA 
HETATM   17  C   UNL     1      -9.423   3.253  70.289  1.00  0.00    -0.164 C  
ENDBRANCH   4  16
BRANCH  13  18
HETATM   18  N   UNL     1     -10.588  10.926  67.690  1.00  0.00    -0.208 NA 
HETATM   19  C   UNL     1     -11.555  12.564  66.161  1.00  0.00    -0.395 C  
HETATM   20  C   UNL     1     -10.839  11.208  66.277  1.00  0.00    -0.205 C  
HETATM   21  N   UNL     1     -10.827  13.640  66.852  1.00  0.00    -0.282 N  
HETATM   22  C   UNL     1     -10.466  13.330  68.246  1.00  0.00    -0.250 C  
HETATM   23  C   UNL     1     -10.848  14.908  66.294  1.00  0.00    -0.331 C  
HETATM   24  O   UNL     1     -11.375  15.111  65.196  1.00  0.00    -0.368 OA 
HETATM   25  C   UNL     1      -9.797  11.944  68.391  1.00  0.00    -0.201 C  
BRANCH  23  26
HETATM   26  C   UNL     1     -10.091  16.047  67.020  1.00  0.00    -0.271 C  
HETATM   27  C   UNL     1      -8.938  16.577  66.175  1.00  0.00    -0.344 C  
HETATM   28  C   UNL     1      -8.688  17.928  66.783  1.00  0.00    -0.269 C  
HETATM   29  C   UNL     1     -10.088  18.378  67.137  1.00  0.00    -0.353 C  
HETATM   30  O   UNL     1     -10.873  17.198  67.368  1.00  0.00    -0.284 OA 
ENDBRANCH  23  26
ENDBRANCH  13  18
ENDBRANCH   2   3
TORSDOF 4
ENDMDL
MODEL       28
REMARK 921   NORMALIZED FREE ENERGY PREDICTED BY IDOCK:   -6.02 KCAL/MOL
REMARK 922        TOTAL FREE ENERGY PREDICTED BY IDOCK:   -7.95 KCAL/MOL
REMARK 923 INTER-LIGAND FREE ENERGY PREDICTED BY IDOCK:   -7.43 KCAL/MOL
REMARK 924 INTRA-LIGAND FREE ENERGY PREDICTED BY IDOCK:   -0.52 KCAL/MOL
REMARK 927      BINDING AFFINITY PREDICTED BY RF-SCORE:    0.00 PKD
ROOT
HETATM    1  C   UNL     1      -6.607  17.656  66.129  1.00  0.00    -0.267 C  
HETATM    2  O   UNL     1      -7.949  17.611  65.651  1.00  0.00    -0.529 OA 
ENDROOT
BRANCH   2   3
HETATM    3  C   UNL     1      -8.846  16.948  66.447  1.00  0.00    -0.287 A  
HETATM    4  C   UNL     1      -9.803  17.688  67.153  1.00  0.00    -0.306 A  
HETATM    5  C   UNL     1     -10.686  17.018  68.004  1.00  0.00    -0.365 A  
HETATM    6  C   UNL     1      -9.741  14.872  67.388  1.00  0.00    -0.217 A  
HETATM    7  C   UNL     1     -10.671  15.607  68.112  1.00  0.00    -0.287 A  
HETATM    8  C   UNL     1      -8.849  15.550  66.567  1.00  0.00    -0.348 A  
HETATM    9  C   UNL     1     -11.534  14.837  68.891  1.00  0.00    -0.297 A  
HETATM   10  N   UNL     1     -12.520  15.429  69.689  1.00  0.00    -0.605 NA 
HETATM   11  N   UNL     1     -11.478  13.499  68.943  1.00  0.00    -0.283 NA 
HETATM   12  H1  UNL     1     -13.152  14.866  70.259  1.00  0.00     0.000 HD 
HETATM   13  C   UNL     1     -10.550  12.876  68.205  1.00  0.00    -0.237 A  
HETATM   14  H2  UNL     1     -13.088  16.031  69.093  1.00  0.00     0.000 HD 
HETATM   15  N   UNL     1      -9.674  13.539  67.438  1.00  0.00    -0.224 NA 
BRANCH   4  16
HETATM   16  O   UNL     1      -9.957  19.048  67.169  1.00  0.00    -0.311 OA 
HETATM   17  C   UNL     1     -10.586  19.633  66.035  1.00  0.00    -0.483 C  
ENDBRANCH   4  16
BRANCH  13  18
HETATM   18  N   UNL     1     -10.550  11.496  68.136  1.00  0.00    -0.188 NA 
HETATM   19  C   UNL     1     -10.781   9.344  69.267  1.00  0.00    -0.211 C  
HETATM   20  C   UNL     1     -10.143  10.743  69.323  1.00  0.00    -0.177 C  
HETATM   21  N   UNL     1     -10.487   8.649  68.004  1.00  0.00    -0.218 N  
HETATM   22  C   UNL     1     -10.785   9.434  66.794  1.00  0.00    -0.059 C  
HETATM   23  C   UNL     1     -10.301   7.276  68.041  1.00  0.00    -0.197 C  
HETATM   24  O   UNL     1     -10.281   6.666  69.114  1.00  0.00    -0.165 OA 
HETATM   25  C   UNL     1     -10.202  10.865  66.857  1.00  0.00    -0.228 C  
BRANCH  23  26
HETATM   26  C   UNL     1      -9.999   6.535  66.715  1.00  0.00    -0.166 C  
HETATM   27  C   UNL     1      -8.597   5.937  66.717  1.00  0.00    -0.113 C  
HETATM   28  C   UNL     1      -8.693   4.889  65.644  1.00  0.00    -0.135 C  
HETATM   29  C   UNL     1     -10.105   4.380  65.826  1.00  0.00    -0.245 C  
HETATM   30  O   UNL     1     -10.879   5.452  66.387  1.00  0.00    -0.284 OA 
ENDBRANCH  23  26
ENDBRANCH  13  18
ENDBRANCH   2   3
TORSDOF 4
ENDMDL
MODEL       29
REMARK 921   NORMALIZED FREE ENERGY PREDICTED BY IDOCK:   -5.98 KCAL/MOL
REMARK 922        TOTAL FREE ENERGY PREDICTED BY IDOCK:   -7.90 KCAL/MOL
REMARK 923 INTER-LIGAND FREE ENERGY PREDICTED BY IDOCK:   -7.86 KCAL/MOL
REMARK 924 INTRA-LIGAND FREE ENERGY PREDICTED BY IDOCK:   -0.04 KCAL/MOL
REMARK 927      BINDING AFFINITY PREDICTED BY RF-SCORE:    0.00 PKD
ROOT
HETATM    1  C   UNL     1      -6.763   5.984  65.569  1.00  0.00    -0.048 C  
HETATM    2  O   UNL     1      -7.894   6.630  64.990  1.00  0.00    -0.100 OA 
ENDROOT
BRANCH   2   3
HETATM    3  C   UNL     1      -8.652   7.389  65.842  1.00  0.00    -0.153 A  
HETATM    4  C   UNL     1      -9.162   6.797  67.004  1.00  0.00    -0.137 A  
HETATM    5  C   UNL     1      -9.977   7.556  67.849  1.00  0.00    -0.203 A  
HETATM    6  C   UNL     1      -9.708   9.514  66.446  1.00  0.00    -0.232 A  
HETATM    7  C   UNL     1     -10.238   8.921  67.584  1.00  0.00    -0.296 A  
HETATM    8  C   UNL     1      -8.922   8.743  65.598  1.00  0.00    -0.248 A  
HETATM    9  C   UNL     1     -10.995   9.779  68.382  1.00  0.00    -0.152 A  
HETATM   10  N   UNL     1     -11.609   9.331  69.557  1.00  0.00    -0.370 NA 
HETATM   11  N   UNL     1     -11.199  11.069  68.083  1.00  0.00    -0.277 NA 
HETATM   12  H1  UNL     1     -12.163   9.958  70.140  1.00  0.00     0.000 HD 
HETATM   13  C   UNL     1     -10.641  11.555  66.965  1.00  0.00    -0.242 A  
HETATM   14  H2  UNL     1     -10.892   8.907  70.145  1.00  0.00     0.000 HD 
HETATM   15  N   UNL     1      -9.909  10.798  66.137  1.00  0.00    -0.212 NA 
BRANCH   4  16
HETATM   16  O   UNL     1      -9.012   5.500  67.412  1.00  0.00    -0.110 OA 
HETATM   17  C   UNL     1      -9.998   4.573  66.972  1.00  0.00    -0.179 C  
ENDBRANCH   4  16
BRANCH  13  18
HETATM   18  N   UNL     1     -10.723  12.908  66.697  1.00  0.00    -0.263 NA 
HETATM   19  C   UNL     1     -11.519  14.711  65.255  1.00  0.00    -0.361 C  
HETATM   20  C   UNL     1     -10.840  13.331  65.300  1.00  0.00    -0.301 C  
HETATM   21  N   UNL     1     -10.837  15.695  66.109  1.00  0.00    -0.298 N  
HETATM   22  C   UNL     1     -10.609  15.244  67.493  1.00  0.00    -0.273 C  
HETATM   23  C   UNL     1     -10.785  17.011  65.679  1.00  0.00    -0.144 C  
HETATM   24  O   UNL     1     -11.207  17.332  64.563  1.00  0.00    -1.083 OA 
HETATM   25  C   UNL     1      -9.981  13.833  67.560  1.00  0.00    -0.233 C  
BRANCH  23  26
HETATM   26  C   UNL     1     -10.077  18.055  66.576  1.00  0.00    -0.379 C  
HETATM   27  C   UNL     1      -9.885  19.380  65.846  1.00  0.00    -0.266 C  
HETATM   28  C   UNL     1      -9.681  20.345  66.980  1.00  0.00    -0.588 C  
HETATM   29  C   UNL     1     -10.617  19.796  68.033  1.00  0.00    -0.300 C  
HETATM   30  O   UNL     1     -10.744  18.385  67.801  1.00  0.00    -0.414 OA 
ENDBRANCH  23  26
ENDBRANCH  13  18
ENDBRANCH   2   3
TORSDOF 4
ENDMDL
MODEL       30
REMARK 921   NORMALIZED FREE ENERGY PREDICTED BY IDOCK:   -5.96 KCAL/MOL
REMARK 922        TOTAL FREE ENERGY PREDICTED BY IDOCK:   -7.87 KCAL/MOL
REMARK 923 INTER-LIGAND FREE ENERGY PREDICTED BY IDOCK:   -8.04 KCAL/MOL
REMARK 924 INTRA-LIGAND FREE ENERGY PREDICTED BY IDOCK:    0.16 KCAL/MOL
REMARK 927      BINDING AFFINITY PREDICTED BY RF-SCORE:    0.00 PKD
ROOT
HETATM    1  C   UNL     1      -7.111  18.739  68.955  1.00  0.00    -0.295 C  
HETATM    2  O   UNL     1      -8.499  18.997  68.761  1.00  0.00    -0.355 OA 
ENDROOT
BRANCH   2   3
HETATM    3  C   UNL     1      -9.127  18.220  67.823  1.00  0.00    -0.267 A  
HETATM    4  C   UNL     1      -9.632  18.828  66.667  1.00  0.00    -0.336 A  
HETATM    5  C   UNL     1     -10.317  18.045  65.733  1.00  0.00    -0.178 A  
HETATM    6  C   UNL     1      -9.921  16.040  67.038  1.00  0.00    -0.257 A  
HETATM    7  C   UNL     1     -10.449  16.647  65.905  1.00  0.00    -0.324 A  
HETATM    8  C   UNL     1      -9.267  16.832  67.973  1.00  0.00    -0.228 A  
HETATM    9  C   UNL     1     -11.068  15.768  65.016  1.00  0.00    -0.370 A  
HETATM   10  N   UNL     1     -11.661  16.225  63.833  1.00  0.00    -1.573 NA 
HETATM   11  N   UNL     1     -11.151  14.448  65.229  1.00  0.00    -0.324 NA 
HETATM   12  H1  UNL     1     -12.113  15.582  63.183  1.00  0.00     0.000 HD 
HETATM   13  C   UNL     1     -10.607  13.952  66.349  1.00  0.00    -0.280 A  
HETATM   14  H2  UNL     1     -10.960  16.755  63.314  1.00  0.00     0.000 HD 
HETATM   15  N   UNL     1     -10.004  14.727  67.261  1.00  0.00    -0.230 NA 
BRANCH   4  16
HETATM   16  O   UNL     1      -9.597  20.157  66.343  1.00  0.00    -0.399 OA 
HETATM   17  C   UNL     1      -9.595  21.080  67.426  1.00  0.00    -0.121 C  
ENDBRANCH   4  16
BRANCH  13  18
HETATM   18  N   UNL     1     -10.562  12.584  66.535  1.00  0.00    -0.239 NA 
HETATM   19  C   UNL     1     -11.178  10.632  67.866  1.00  0.00    -0.308 C  
HETATM   20  C   UNL     1     -10.630  12.068  67.903  1.00  0.00    -0.202 C  
HETATM   21  N   UNL     1     -10.414   9.768  66.953  1.00  0.00    -0.230 N  
HETATM   22  C   UNL     1     -10.238  10.321  65.599  1.00  0.00    -0.231 C  
HETATM   23  C   UNL     1     -10.237   8.438  67.303  1.00  0.00    -0.279 C  
HETATM   24  O   UNL     1     -10.621   8.014  68.397  1.00  0.00    -0.186 OA 
HETATM   25  C   UNL     1      -9.743  11.785  65.616  1.00  0.00    -0.233 C  
BRANCH  23  26
HETATM   26  C   UNL     1      -9.441   7.521  66.343  1.00  0.00    -0.147 C  
HETATM   27  C   UNL     1      -7.942   7.780  66.439  1.00  0.00    -0.099 C  
HETATM   28  C   UNL     1      -7.360   6.517  65.869  1.00  0.00    -0.079 C  
HETATM   29  C   UNL     1      -8.328   5.470  66.371  1.00  0.00    -0.111 C  
HETATM   30  O   UNL     1      -9.601   6.111  66.548  1.00  0.00    -0.155 OA 
ENDBRANCH  23  26
ENDBRANCH  13  18
ENDBRANCH   2   3
TORSDOF 4
ENDMDL
MODEL       31
REMARK 921   NORMALIZED FREE ENERGY PREDICTED BY IDOCK:   -5.84 KCAL/MOL
REMARK 922        TOTAL FREE ENERGY PREDICTED BY IDOCK:   -7.73 KCAL/MOL
REMARK 923 INTER-LIGAND FREE ENERGY PREDICTED BY IDOCK:   -7.20 KCAL/MOL
REMARK 924 INTRA-LIGAND FREE ENERGY PREDICTED BY IDOCK:   -0.54 KCAL/MOL
REMARK 927      BINDING AFFINITY PREDICTED BY RF-SCORE:    0.00 PKD
ROOT
HETATM    1  C   UNL     1     -14.134   8.499  71.809  1.00  0.00    -0.444 C  
HETATM    2  O   UNL     1     -12.753   8.696  72.101  1.00  0.00    -0.347 OA 
ENDROOT
BRANCH   2   3
HETATM    3  C   UNL     1     -11.958   9.034  71.038  1.00  0.00    -0.269 A  
HETATM    4  C   UNL     1     -11.406   8.013  70.253  1.00  0.00    -0.141 A  
HETATM    5  C   UNL     1     -10.555   8.354  69.198  1.00  0.00    -0.177 A  
HETATM    6  C   UNL     1     -10.867  10.718  69.633  1.00  0.00    -0.241 A  
HETATM    7  C   UNL     1     -10.296   9.705  68.873  1.00  0.00    -0.220 A  
HETATM    8  C   UNL     1     -11.690  10.368  70.697  1.00  0.00    -0.444 A  
HETATM    9  C   UNL     1      -9.504  10.156  67.817  1.00  0.00    -0.144 A  
HETATM   10  N   UNL     1      -8.847   9.260  66.964  1.00  0.00    -0.123 NA 
HETATM   11  N   UNL     1      -9.305  11.454  67.551  1.00  0.00    -0.162 NA 
HETATM   12  H1  UNL     1      -8.268   9.589  66.192  1.00  0.00     0.000 HD 
HETATM   13  C   UNL     1      -9.903  12.359  68.337  1.00  0.00    -0.198 A  
HETATM   14  H2  UNL     1      -9.544   8.620  66.583  1.00  0.00     0.000 HD 
HETATM   15  N   UNL     1     -10.670  12.014  69.379  1.00  0.00    -0.015 NA 
BRANCH   4  16
HETATM   16  O   UNL     1     -11.547   6.662  70.426  1.00  0.00    -0.358 OA 
HETATM   17  C   UNL     1     -10.630   5.830  69.726  1.00  0.00    -0.318 C  
ENDBRANCH   4  16
BRANCH  13  18
HETATM   18  N   UNL     1      -9.824  13.700  68.012  1.00  0.00    -0.236 NA 
HETATM   19  C   UNL     1     -10.770  15.632  66.857  1.00  0.00    -0.307 C  
HETATM   20  C   UNL     1     -10.408  14.141  66.745  1.00  0.00    -0.274 C  
HETATM   21  N   UNL     1      -9.626  16.451  67.290  1.00  0.00    -0.232 N  
HETATM   22  C   UNL     1      -8.953  15.959  68.505  1.00  0.00    -0.199 C  
HETATM   23  C   UNL     1      -9.500  17.728  66.767  1.00  0.00    -0.285 C  
HETATM   24  O   UNL     1     -10.264  18.132  65.886  1.00  0.00    -0.548 OA 
HETATM   25  C   UNL     1      -8.635  14.448  68.436  1.00  0.00    -0.174 C  
BRANCH  23  26
HETATM   26  C   UNL     1      -8.304  18.599  67.225  1.00  0.00    -0.261 C  
HETATM   27  C   UNL     1      -7.175  18.577  66.201  1.00  0.00    -0.301 C  
HETATM   28  C   UNL     1      -6.395  19.812  66.556  1.00  0.00    -0.186 C  
HETATM   29  C   UNL     1      -7.492  20.771  66.962  1.00  0.00    -0.271 C  
HETATM   30  O   UNL     1      -8.590  19.985  67.453  1.00  0.00    -0.319 OA 
ENDBRANCH  23  26
ENDBRANCH  13  18
ENDBRANCH   2   3
TORSDOF 4
ENDMDL
MODEL       32
REMARK 921   NORMALIZED FREE ENERGY PREDICTED BY IDOCK:   -5.84 KCAL/MOL
REMARK 922        TOTAL FREE ENERGY PREDICTED BY IDOCK:   -7.73 KCAL/MOL
REMARK 923 INTER-LIGAND FREE ENERGY PREDICTED BY IDOCK:   -7.18 KCAL/MOL
REMARK 924 INTRA-LIGAND FREE ENERGY PREDICTED BY IDOCK:   -0.55 KCAL/MOL
REMARK 927      BINDING AFFINITY PREDICTED BY RF-SCORE:    0.00 PKD
ROOT
HETATM    1  C   UNL     1      -6.403   5.097  72.029  1.00  0.00    -0.035 C  
HETATM    2  O   UNL     1      -6.746   4.305  70.895  1.00  0.00    -0.033 OA 
ENDROOT
BRANCH   2   3
HETATM    3  C   UNL     1      -7.701   4.831  70.065  1.00  0.00    -0.055 A  
HETATM    4  C   UNL     1      -8.247   4.021  69.062  1.00  0.00    -0.069 A  
HETATM    5  C   UNL     1      -9.185   4.570  68.183  1.00  0.00    -0.170 A  
HETATM    6  C   UNL     1      -9.115   6.696  69.346  1.00  0.00    -0.143 A  
HETATM    7  C   UNL     1      -9.636   5.903  68.331  1.00  0.00    -0.138 A  
HETATM    8  C   UNL     1      -8.163   6.149  70.196  1.00  0.00    -0.120 A  
HETATM    9  C   UNL     1     -10.599   6.533  67.543  1.00  0.00    -0.280 A  
HETATM   10  N   UNL     1     -11.211   5.873  66.471  1.00  0.00    -0.741 NA 
HETATM   11  N   UNL     1     -10.994   7.798  67.741  1.00  0.00    -0.017 NA 
HETATM   12  H1  UNL     1     -11.915   6.334  65.895  1.00  0.00     0.000 HD 
HETATM   13  C   UNL     1     -10.439   8.485  68.749  1.00  0.00    -0.184 A  
HETATM   14  H2  UNL     1     -11.613   5.005  66.824  1.00  0.00     0.000 HD 
HETATM   15  N   UNL     1      -9.499   7.959  69.547  1.00  0.00    -0.160 NA 
BRANCH   4  16
HETATM   16  O   UNL     1      -7.927   2.722  68.775  1.00  0.00    -0.053 OA 
HETATM   17  C   UNL     1      -9.006   1.856  68.440  1.00  0.00    -0.130 C  
ENDBRANCH   4  16
BRANCH  13  18
HETATM   18  N   UNL     1     -10.917   9.743  69.060  1.00  0.00    -0.198 NA 
HETATM   19  C   UNL     1     -11.456  12.013  68.340  1.00  0.00    -0.301 C  
HETATM   20  C   UNL     1     -10.413  10.884  68.294  1.00  0.00    -0.179 C  
HETATM   21  N   UNL     1     -11.843  12.358  69.717  1.00  0.00    -0.331 N  
HETATM   22  C   UNL     1     -12.249  11.206  70.540  1.00  0.00    -0.384 C  
HETATM   23  C   UNL     1     -12.120  13.685  70.006  1.00  0.00    -0.348 C  
HETATM   24  O   UNL     1     -11.948  14.569  69.161  1.00  0.00    -0.313 OA 
HETATM   25  C   UNL     1     -11.241  10.036  70.461  1.00  0.00    -0.336 C  
BRANCH  23  26
HETATM   26  C   UNL     1     -12.536  14.054  71.451  1.00  0.00    -0.372 C  
HETATM   27  C   UNL     1     -11.743  15.247  71.972  1.00  0.00    -0.529 C  
HETATM   28  C   UNL     1     -12.607  15.741  73.099  1.00  0.00    -0.607 C  
HETATM   29  C   UNL     1     -13.998  15.498  72.558  1.00  0.00    -0.555 C  
HETATM   30  O   UNL     1     -13.915  14.399  71.637  1.00  0.00    -0.400 OA 
ENDBRANCH  23  26
ENDBRANCH  13  18
ENDBRANCH   2   3
TORSDOF 4
ENDMDL
MODEL       33
REMARK 921   NORMALIZED FREE ENERGY PREDICTED BY IDOCK:   -5.84 KCAL/MOL
REMARK 922        TOTAL FREE ENERGY PREDICTED BY IDOCK:   -7.72 KCAL/MOL
REMARK 923 INTER-LIGAND FREE ENERGY PREDICTED BY IDOCK:   -7.69 KCAL/MOL
REMARK 924 INTRA-LIGAND FREE ENERGY PREDICTED BY IDOCK:   -0.04 KCAL/MOL
REMARK 927      BINDING AFFINITY PREDICTED BY RF-SCORE:    0.00 PKD
ROOT
HETATM    1  C   UNL     1      -6.261  16.069  68.037  1.00  0.00    -0.126 C  
HETATM    2  O   UNL     1      -7.403  16.737  67.507  1.00  0.00    -0.142 OA 
ENDROOT
BRANCH   2   3
HETATM    3  C   UNL     1      -8.445  15.931  67.130  1.00  0.00    -0.199 A  
HETATM    4  C   UNL     1      -9.428  16.450  66.277  1.00  0.00    -0.317 A  
HETATM    5  C   UNL     1     -10.518  15.646  65.931  1.00  0.00    -0.358 A  
HETATM    6  C   UNL     1      -9.619  13.783  67.195  1.00  0.00    -0.244 A  
HETATM    7  C   UNL     1     -10.609  14.306  66.373  1.00  0.00    -0.286 A  
HETATM    8  C   UNL     1      -8.554  14.599  67.555  1.00  0.00    -0.196 A  
HETATM    9  C   UNL     1     -11.625  13.405  66.050  1.00  0.00    -0.344 A  
HETATM   10  N   UNL     1     -12.704  13.782  65.241  1.00  0.00    -0.672 NA 
HETATM   11  N   UNL     1     -11.651  12.140  66.491  1.00  0.00    -0.484 NA 
HETATM   12  H1  UNL     1     -13.446  13.123  65.005  1.00  0.00     0.000 HD 
HETATM   13  C   UNL     1     -10.647  11.724  67.276  1.00  0.00    -0.224 A  
HETATM   14  H2  UNL     1     -12.328  14.157  64.370  1.00  0.00     0.000 HD 
HETATM   15  N   UNL     1      -9.639  12.526  67.644  1.00  0.00    -0.185 NA 
BRANCH   4  16
HETATM   16  O   UNL     1      -9.498  17.716  65.761  1.00  0.00    -0.516 OA 
HETATM   17  C   UNL     1     -10.583  18.526  66.201  1.00  0.00    -0.338 C  
ENDBRANCH   4  16
BRANCH  13  18
HETATM   18  N   UNL     1     -10.577  10.392  67.640  1.00  0.00    -0.236 NA 
HETATM   19  C   UNL     1      -9.958   8.099  67.076  1.00  0.00    -0.259 C  
HETATM   20  C   UNL     1     -10.652   9.381  66.585  1.00  0.00    -0.100 C  
HETATM   21  N   UNL     1     -10.490   7.638  68.367  1.00  0.00    -0.191 N  
HETATM   22  C   UNL     1     -10.526   8.674  69.414  1.00  0.00    -0.218 C  
HETATM   23  C   UNL     1     -10.575   6.272  68.590  1.00  0.00    -0.264 C  
HETATM   24  O   UNL     1     -10.311   5.465  67.694  1.00  0.00    -0.193 OA 
HETATM   25  C   UNL     1     -11.168   9.991  68.922  1.00  0.00    -0.131 C  
BRANCH  23  26
HETATM   26  C   UNL     1     -11.126   5.779  69.950  1.00  0.00    -0.257 C  
HETATM   27  C   UNL     1     -10.071   5.874  71.046  1.00  0.00    -0.252 C  
HETATM   28  C   UNL     1     -10.904   5.854  72.298  1.00  0.00    -0.292 C  
HETATM   29  C   UNL     1     -12.125   6.641  71.875  1.00  0.00    -0.340 C  
HETATM   30  O   UNL     1     -12.270   6.480  70.455  1.00  0.00    -0.325 OA 
ENDBRANCH  23  26
ENDBRANCH  13  18
ENDBRANCH   2   3
TORSDOF 4
ENDMDL
MODEL       34
REMARK 921   NORMALIZED FREE ENERGY PREDICTED BY IDOCK:   -5.82 KCAL/MOL
REMARK 922        TOTAL FREE ENERGY PREDICTED BY IDOCK:   -7.71 KCAL/MOL
REMARK 923 INTER-LIGAND FREE ENERGY PREDICTED BY IDOCK:   -7.14 KCAL/MOL
REMARK 924 INTRA-LIGAND FREE ENERGY PREDICTED BY IDOCK:   -0.56 KCAL/MOL
REMARK 927      BINDING AFFINITY PREDICTED BY RF-SCORE:    0.00 PKD
ROOT
HETATM    1  C   UNL     1     -12.628  12.103  63.599  1.00  0.00    -0.504 C  
HETATM    2  O   UNL     1     -12.673  12.840  64.818  1.00  0.00    -0.644 OA 
ENDROOT
BRANCH   2   3
HETATM    3  C   UNL     1     -11.680  12.563  65.721  1.00  0.00    -0.426 A  
HETATM    4  C   UNL     1     -10.550  13.389  65.760  1.00  0.00    -0.282 A  
HETATM    5  C   UNL     1      -9.514  13.079  66.646  1.00  0.00    -0.256 A  
HETATM    6  C   UNL     1     -10.752  11.189  67.523  1.00  0.00    -0.236 A  
HETATM    7  C   UNL     1      -9.618  11.990  67.542  1.00  0.00    -0.177 A  
HETATM    8  C   UNL     1     -11.764  11.489  66.620  1.00  0.00     0.048 A  
HETATM    9  C   UNL     1      -8.668  11.622  68.496  1.00  0.00    -0.130 A  
HETATM   10  N   UNL     1      -7.463  12.321  68.634  1.00  0.00    -0.141 NA 
HETATM   11  N   UNL     1      -8.829  10.584  69.328  1.00  0.00    -0.153 NA 
HETATM   12  H1  UNL     1      -6.770  12.052  69.331  1.00  0.00     0.000 HD 
HETATM   13  C   UNL     1      -9.961   9.872  69.239  1.00  0.00    -0.207 A  
HETATM   14  H2  UNL     1      -7.686  13.306  68.776  1.00  0.00     0.000 HD 
HETATM   15  N   UNL     1     -10.919  10.150  68.345  1.00  0.00    -0.251 NA 
BRANCH   4  16
HETATM   16  O   UNL     1     -10.284  14.474  64.969  1.00  0.00    -0.404 OA 
HETATM   17  C   UNL     1     -10.586  15.753  65.515  1.00  0.00    -0.406 C  
ENDBRANCH   4  16
BRANCH  13  18
HETATM   18  N   UNL     1     -10.214   8.879  70.166  1.00  0.00    -0.188 NA 
HETATM   19  C   UNL     1     -10.433   8.204  72.503  1.00  0.00    -0.339 C  
HETATM   20  C   UNL     1      -9.585   8.984  71.483  1.00  0.00    -0.270 C  
HETATM   21  N   UNL     1     -10.674   6.816  72.079  1.00  0.00    -0.214 N  
HETATM   22  C   UNL     1     -11.204   6.682  70.712  1.00  0.00    -0.315 C  
HETATM   23  C   UNL     1     -10.719   5.833  73.055  1.00  0.00    -0.257 C  
HETATM   24  O   UNL     1     -10.463   6.095  74.234  1.00  0.00    -0.287 OA 
HETATM   25  C   UNL     1     -10.400   7.507  69.681  1.00  0.00    -0.225 C  
BRANCH  23  26
HETATM   26  C   UNL     1     -10.981   4.371  72.619  1.00  0.00    -0.029 C  
HETATM   27  C   UNL     1      -9.700   3.689  72.153  1.00  0.00    -0.231 C  
HETATM   28  C   UNL     1     -10.048   2.232  72.273  1.00  0.00    -0.229 C  
HETATM   29  C   UNL     1     -10.914   2.216  73.513  1.00  0.00    -0.186 C  
HETATM   30  O   UNL     1     -11.534   3.507  73.620  1.00  0.00    -0.201 OA 
ENDBRANCH  23  26
ENDBRANCH  13  18
ENDBRANCH   2   3
TORSDOF 4
ENDMDL
MODEL       35
REMARK 921   NORMALIZED FREE ENERGY PREDICTED BY IDOCK:   -5.73 KCAL/MOL
REMARK 922        TOTAL FREE ENERGY PREDICTED BY IDOCK:   -7.59 KCAL/MOL
REMARK 923 INTER-LIGAND FREE ENERGY PREDICTED BY IDOCK:   -7.21 KCAL/MOL
REMARK 924 INTRA-LIGAND FREE ENERGY PREDICTED BY IDOCK:   -0.38 KCAL/MOL
REMARK 927      BINDING AFFINITY PREDICTED BY RF-SCORE:    0.00 PKD
ROOT
HETATM    1  C   UNL     1      -8.466  18.096  68.571  1.00  0.00    -0.299 C  
HETATM    2  O   UNL     1      -8.259  17.442  67.322  1.00  0.00    -0.199 OA 
ENDROOT
BRANCH   2   3
HETATM    3  C   UNL     1      -9.199  16.509  66.972  1.00  0.00    -0.218 A  
HETATM    4  C   UNL     1     -10.182  16.855  66.036  1.00  0.00    -0.336 A  
HETATM    5  C   UNL     1     -11.172  15.922  65.716  1.00  0.00     0.037 A  
HETATM    6  C   UNL     1     -10.166  14.267  67.174  1.00  0.00    -0.254 A  
HETATM    7  C   UNL     1     -11.158  14.620  66.269  1.00  0.00    -0.336 A  
HETATM    8  C   UNL     1      -9.203  15.212  67.507  1.00  0.00    -0.188 A  
HETATM    9  C   UNL     1     -12.065  13.600  65.982  1.00  0.00    -0.441 A  
HETATM   10  N   UNL     1     -13.132  13.799  65.099  1.00  0.00    -0.751 NA 
HETATM   11  N   UNL     1     -11.993  12.379  66.531  1.00  0.00    -0.605 NA 
HETATM   12  H1  UNL     1     -13.796  13.053  64.889  1.00  0.00     0.000 HD 
HETATM   13  C   UNL     1     -10.996  12.130  67.391  1.00  0.00    -0.260 A  
HETATM   14  H2  UNL     1     -12.750  14.137  64.215  1.00  0.00     0.000 HD 
HETATM   15  N   UNL     1     -10.089  13.056  67.730  1.00  0.00    -0.224 NA 
BRANCH   4  16
HETATM   16  O   UNL     1     -10.346  18.061  65.410  1.00  0.00    -0.558 OA 
HETATM   17  C   UNL     1     -10.783  19.147  66.218  1.00  0.00    -0.355 C  
ENDBRANCH   4  16
BRANCH  13  18
HETATM   18  N   UNL     1     -10.818  10.847  67.873  1.00  0.00    -0.226 NA 
HETATM   19  C   UNL     1     -11.003   9.262  69.720  1.00  0.00    -0.196 C  
HETATM   20  C   UNL     1     -10.559  10.674  69.303  1.00  0.00    -0.233 C  
HETATM   21  N   UNL     1     -10.391   8.217  68.884  1.00  0.00    -0.214 N  
HETATM   22  C   UNL     1     -10.544   8.431  67.435  1.00  0.00    -0.243 C  
HETATM   23  C   UNL     1     -10.053   7.014  69.484  1.00  0.00    -0.173 C  
HETATM   24  O   UNL     1     -10.165   6.858  70.703  1.00  0.00    -0.194 OA 
HETATM   25  C   UNL     1     -10.159   9.865  67.004  1.00  0.00    -0.218 C  
BRANCH  23  26
HETATM   26  C   UNL     1      -9.416   5.906  68.609  1.00  0.00    -0.122 C  
HETATM   27  C   UNL     1      -8.143   5.357  69.244  1.00  0.00    -0.093 C  
HETATM   28  C   UNL     1      -7.989   4.029  68.558  1.00  0.00    -0.072 C  
HETATM   29  C   UNL     1      -9.426   3.580  68.412  1.00  0.00    -0.145 C  
HETATM   30  O   UNL     1     -10.240   4.762  68.349  1.00  0.00    -0.094 OA 
ENDBRANCH  23  26
ENDBRANCH  13  18
ENDBRANCH   2   3
TORSDOF 4
ENDMDL
MODEL       36
REMARK 921   NORMALIZED FREE ENERGY PREDICTED BY IDOCK:   -5.71 KCAL/MOL
REMARK 922        TOTAL FREE ENERGY PREDICTED BY IDOCK:   -7.57 KCAL/MOL
REMARK 923 INTER-LIGAND FREE ENERGY PREDICTED BY IDOCK:   -8.46 KCAL/MOL
REMARK 924 INTRA-LIGAND FREE ENERGY PREDICTED BY IDOCK:    0.89 KCAL/MOL
REMARK 927      BINDING AFFINITY PREDICTED BY RF-SCORE:    0.00 PKD
ROOT
HETATM    1  C   UNL     1      -9.943  17.732  68.709  1.00  0.00    -0.367 C  
HETATM    2  O   UNL     1      -9.594  17.741  67.327  1.00  0.00    -0.263 OA 
ENDROOT
BRANCH   2   3
HETATM    3  C   UNL     1     -10.065  16.692  66.583  1.00  0.00    -0.301 A  
HETATM    4  C   UNL     1     -10.730  16.959  65.380  1.00  0.00    -0.150 A  
HETATM    5  C   UNL     1     -11.256  15.893  64.644  1.00  0.00    -0.361 A  
HETATM    6  C   UNL     1     -10.387  14.289  66.240  1.00  0.00    -0.294 A  
HETATM    7  C   UNL     1     -11.072  14.554  65.061  1.00  0.00    -0.393 A  
HETATM    8  C   UNL     1      -9.892  15.357  66.977  1.00  0.00    -0.236 A  
HETATM    9  C   UNL     1     -11.511  13.418  64.382  1.00  0.00    -0.384 A  
HETATM   10  N   UNL     1     -12.229  13.516  63.184  1.00  0.00    -0.999 NA 
HETATM   11  N   UNL     1     -11.295  12.171  64.822  1.00  0.00    -0.319 NA 
HETATM   12  H1  UNL     1     -12.550  12.685  62.687  1.00  0.00     0.000 HD 
HETATM   13  C   UNL     1     -10.619  12.013  65.969  1.00  0.00    -0.268 A  
HETATM   14  H2  UNL     1     -11.680  14.078  62.533  1.00  0.00     0.000 HD 
HETATM   15  N   UNL     1     -10.172  13.050  66.689  1.00  0.00    -0.252 NA 
BRANCH   4  16
HETATM   16  O   UNL     1     -10.998  18.184  64.831  1.00  0.00    -0.718 OA 
HETATM   17  C   UNL     1     -10.785  19.318  65.664  1.00  0.00    -0.251 C  
ENDBRANCH   4  16
BRANCH  13  18
HETATM   18  N   UNL     1     -10.268  10.742  66.382  1.00  0.00    -0.233 NA 
HETATM   19  C   UNL     1      -8.920   8.733  66.053  1.00  0.00    -0.192 C  
HETATM   20  C   UNL     1      -9.809   9.788  65.372  1.00  0.00    -0.295 C  
HETATM   21  N   UNL     1      -9.591   8.096  67.197  1.00  0.00    -0.162 N  
HETATM   22  C   UNL     1     -10.159   9.043  68.172  1.00  0.00    -0.191 C  
HETATM   23  C   UNL     1      -9.342   6.754  67.437  1.00  0.00    -0.130 C  
HETATM   24  O   UNL     1      -8.661   6.084  66.655  1.00  0.00    -0.110 OA 
HETATM   25  C   UNL     1     -11.008  10.147  67.500  1.00  0.00    -0.255 C  
BRANCH  23  26
HETATM   26  C   UNL     1     -10.037   6.078  68.645  1.00  0.00    -0.168 C  
HETATM   27  C   UNL     1      -9.309   6.383  69.949  1.00  0.00    -0.156 C  
HETATM   28  C   UNL     1     -10.366   6.101  70.981  1.00  0.00    -0.260 C  
HETATM   29  C   UNL     1     -11.620   6.579  70.285  1.00  0.00    -0.409 C  
HETATM   30  O   UNL     1     -11.403   6.450  68.871  1.00  0.00    -0.341 OA 
ENDBRANCH  23  26
ENDBRANCH  13  18
ENDBRANCH   2   3
TORSDOF 4
ENDMDL
MODEL       37
REMARK 921   NORMALIZED FREE ENERGY PREDICTED BY IDOCK:   -5.68 KCAL/MOL
REMARK 922        TOTAL FREE ENERGY PREDICTED BY IDOCK:   -7.53 KCAL/MOL
REMARK 923 INTER-LIGAND FREE ENERGY PREDICTED BY IDOCK:   -6.98 KCAL/MOL
REMARK 924 INTRA-LIGAND FREE ENERGY PREDICTED BY IDOCK:   -0.55 KCAL/MOL
REMARK 927      BINDING AFFINITY PREDICTED BY RF-SCORE:    0.00 PKD
ROOT
HETATM    1  C   UNL     1     -11.966  15.925  71.278  1.00  0.00    -0.442 C  
HETATM    2  O   UNL     1     -11.291  16.505  70.165  1.00  0.00    -0.267 OA 
ENDROOT
BRANCH   2   3
HETATM    3  C   UNL     1     -11.059  15.670  69.104  1.00  0.00    -0.284 A  
HETATM    4  C   UNL     1     -10.789  16.228  67.848  1.00  0.00    -0.330 A  
HETATM    5  C   UNL     1     -10.602  15.378  66.754  1.00  0.00    -0.309 A  
HETATM    6  C   UNL     1     -10.854  13.419  68.159  1.00  0.00    -0.255 A  
HETATM    7  C   UNL     1     -10.616  13.972  66.908  1.00  0.00    -0.280 A  
HETATM    8  C   UNL     1     -11.067  14.273  69.235  1.00  0.00    -0.297 A  
HETATM    9  C   UNL     1     -10.394  13.036  65.897  1.00  0.00    -0.288 A  
HETATM   10  N   UNL     1     -10.152  13.432  64.577  1.00  0.00    -0.634 NA 
HETATM   11  N   UNL     1     -10.409  11.713  66.107  1.00  0.00    -0.233 NA 
HETATM   12  H1  UNL     1      -9.990  12.748  63.838  1.00  0.00     0.000 HD 
HETATM   13  C   UNL     1     -10.642  11.273  67.351  1.00  0.00    -0.224 A  
HETATM   14  H2  UNL     1      -9.365  14.081  64.582  1.00  0.00     0.000 HD 
HETATM   15  N   UNL     1     -10.876  12.102  68.377  1.00  0.00    -0.214 NA 
BRANCH   4  16
HETATM   16  O   UNL     1     -10.741  17.556  67.521  1.00  0.00    -0.349 OA 
HETATM   17  C   UNL     1      -9.471  18.192  67.611  1.00  0.00    -0.264 C  
ENDBRANCH   4  16
BRANCH  13  18
HETATM   18  N   UNL     1     -10.536   9.923  67.626  1.00  0.00    -0.227 NA 
HETATM   19  C   UNL     1     -10.601   8.109  69.259  1.00  0.00    -0.182 C  
HETATM   20  C   UNL     1     -10.073   9.521  68.955  1.00  0.00    -0.193 C  
HETATM   21  N   UNL     1     -10.252   7.146  68.203  1.00  0.00    -0.180 N  
HETATM   22  C   UNL     1     -10.610   7.581  66.842  1.00  0.00    -0.297 C  
HETATM   23  C   UNL     1      -9.961   5.843  68.575  1.00  0.00    -0.148 C  
HETATM   24  O   UNL     1      -9.894   5.522  69.765  1.00  0.00    -0.165 OA 
HETATM   25  C   UNL     1     -10.139   9.022  66.538  1.00  0.00    -0.283 C  
BRANCH  23  26
HETATM   26  C   UNL     1      -9.602   4.821  67.468  1.00  0.00    -0.158 C  
HETATM   27  C   UNL     1      -8.147   4.959  67.033  1.00  0.00    -0.107 C  
HETATM   28  C   UNL     1      -7.877   3.628  66.388  1.00  0.00    -0.089 C  
HETATM   29  C   UNL     1      -8.679   2.688  67.259  1.00  0.00    -0.118 C  
HETATM   30  O   UNL     1      -9.771   3.439  67.812  1.00  0.00    -0.162 OA 
ENDBRANCH  23  26
ENDBRANCH  13  18
ENDBRANCH   2   3
TORSDOF 4
ENDMDL
MODEL       38
REMARK 921   NORMALIZED FREE ENERGY PREDICTED BY IDOCK:   -5.68 KCAL/MOL
REMARK 922        TOTAL FREE ENERGY PREDICTED BY IDOCK:   -7.53 KCAL/MOL
REMARK 923 INTER-LIGAND FREE ENERGY PREDICTED BY IDOCK:   -7.48 KCAL/MOL
REMARK 924 INTRA-LIGAND FREE ENERGY PREDICTED BY IDOCK:   -0.05 KCAL/MOL
REMARK 927      BINDING AFFINITY PREDICTED BY RF-SCORE:    0.00 PKD
ROOT
HETATM    1  C   UNL     1     -11.473  15.088  67.041  1.00  0.00    -0.284 C  
HETATM    2  O   UNL     1     -12.293  13.992  66.646  1.00  0.00    -0.451 OA 
ENDROOT
BRANCH   2   3
HETATM    3  C   UNL     1     -11.675  12.770  66.597  1.00  0.00    -0.393 A  
HETATM    4  C   UNL     1     -11.037  12.381  65.413  1.00  0.00    -0.306 A  
HETATM    5  C   UNL     1     -10.450  11.114  65.343  1.00  0.00    -0.321 A  
HETATM    6  C   UNL     1     -11.042  10.651  67.648  1.00  0.00    -0.319 A  
HETATM    7  C   UNL     1     -10.434  10.252  66.464  1.00  0.00    -0.241 A  
HETATM    8  C   UNL     1     -11.647  11.900  67.697  1.00  0.00    -0.382 A  
HETATM    9  C   UNL     1      -9.837   8.992  66.519  1.00  0.00    -0.268 A  
HETATM   10  N   UNL     1      -9.194   8.440  65.405  1.00  0.00    -0.420 NA 
HETATM   11  N   UNL     1      -9.845   8.225  67.618  1.00  0.00    -0.159 NA 
HETATM   12  H1  UNL     1      -8.758   7.520  65.445  1.00  0.00     0.000 HD 
HETATM   13  C   UNL     1     -10.452   8.696  68.715  1.00  0.00    -0.185 A  
HETATM   14  H2  UNL     1      -8.491   9.107  65.085  1.00  0.00     0.000 HD 
HETATM   15  N   UNL     1     -11.060   9.890  68.745  1.00  0.00    -0.179 NA 
BRANCH   4  16
HETATM   16  O   UNL     1     -10.959  13.083  64.240  1.00  0.00    -0.358 OA 
HETATM   17  C   UNL     1     -12.049  12.942  63.337  1.00  0.00    -0.530 C  
ENDBRANCH   4  16
BRANCH  13  18
HETATM   18  N   UNL     1     -10.366   7.988  69.898  1.00  0.00    -0.216 NA 
HETATM   19  C   UNL     1     -10.204   7.995  72.334  1.00  0.00    -0.280 C  
HETATM   20  C   UNL     1      -9.671   8.608  71.027  1.00  0.00    -0.210 C  
HETATM   21  N   UNL     1     -10.124   6.526  72.333  1.00  0.00    -0.171 N  
HETATM   22  C   UNL     1     -10.720   5.886  71.148  1.00  0.00    -0.265 C  
HETATM   23  C   UNL     1      -9.835   5.886  73.528  1.00  0.00    -0.168 C  
HETATM   24  O   UNL     1      -9.551   6.530  74.542  1.00  0.00    -0.233 OA 
HETATM   25  C   UNL     1     -10.242   6.528  69.825  1.00  0.00    -0.187 C  
BRANCH  23  26
HETATM   26  C   UNL     1      -9.758   4.339  73.537  1.00  0.00    -0.116 C  
HETATM   27  C   UNL     1     -11.142   3.712  73.650  1.00  0.00    -0.317 C  
HETATM   28  C   UNL     1     -10.906   2.318  73.141  1.00  0.00    -0.259 C  
HETATM   29  C   UNL     1      -9.891   2.550  72.045  1.00  0.00    -0.156 C  
HETATM   30  O   UNL     1      -9.154   3.735  72.386  1.00  0.00    -0.102 OA 
ENDBRANCH  23  26
ENDBRANCH  13  18
ENDBRANCH   2   3
TORSDOF 4
ENDMDL
MODEL       39
REMARK 921   NORMALIZED FREE ENERGY PREDICTED BY IDOCK:   -5.63 KCAL/MOL
REMARK 922        TOTAL FREE ENERGY PREDICTED BY IDOCK:   -7.47 KCAL/MOL
REMARK 923 INTER-LIGAND FREE ENERGY PREDICTED BY IDOCK:   -6.90 KCAL/MOL
REMARK 924 INTRA-LIGAND FREE ENERGY PREDICTED BY IDOCK:   -0.57 KCAL/MOL
REMARK 927      BINDING AFFINITY PREDICTED BY RF-SCORE:    0.00 PKD
ROOT
HETATM    1  C   UNL     1     -12.273  15.187  64.340  1.00  0.00    -0.275 C  
HETATM    2  O   UNL     1     -11.036  15.860  64.559  1.00  0.00    -0.527 OA 
ENDROOT
BRANCH   2   3
HETATM    3  C   UNL     1     -10.205  15.297  65.492  1.00  0.00    -0.388 A  
HETATM    4  C   UNL     1      -9.171  16.072  66.033  1.00  0.00    -0.340 A  
HETATM    5  C   UNL     1      -8.291  15.484  66.947  1.00  0.00    -0.290 A  
HETATM    6  C   UNL     1      -9.512  13.391  66.864  1.00  0.00    -0.253 A  
HETATM    7  C   UNL     1      -8.468  14.149  67.379  1.00  0.00    -0.214 A  
HETATM    8  C   UNL     1     -10.363  13.976  65.935  1.00  0.00    -0.327 A  
HETATM    9  C   UNL     1      -7.681  13.482  68.319  1.00  0.00    -0.137 A  
HETATM   10  N   UNL     1      -6.582  14.103  68.922  1.00  0.00    -0.093 NA 
HETATM   11  N   UNL     1      -7.906  12.216  68.698  1.00  0.00    -0.113 NA 
HETATM   12  H1  UNL     1      -6.007  13.616  69.609  1.00  0.00     0.000 HD 
HETATM   13  C   UNL     1      -8.942  11.566  68.149  1.00  0.00    -0.172 A  
HETATM   14  H2  UNL     1      -6.905  14.974  69.345  1.00  0.00     0.000 HD 
HETATM   15  N   UNL     1      -9.740  12.128  67.231  1.00  0.00    -0.189 NA 
BRANCH   4  16
HETATM   16  O   UNL     1      -8.855  17.368  65.729  1.00  0.00    -0.522 OA 
HETATM   17  C   UNL     1      -7.805  17.964  66.483  1.00  0.00    -0.264 C  
ENDBRANCH   4  16
BRANCH  13  18
HETATM   18  N   UNL     1      -9.278  10.309  68.612  1.00  0.00    -0.151 NA 
HETATM   19  C   UNL     1     -10.494   8.217  68.290  1.00  0.00    -0.160 C  
HETATM   20  C   UNL     1     -10.574   9.751  68.223  1.00  0.00    -0.229 C  
HETATM   21  N   UNL     1     -10.022   7.740  69.599  1.00  0.00    -0.186 N  
HETATM   22  C   UNL     1      -8.774   8.372  70.061  1.00  0.00    -0.133 C  
HETATM   23  C   UNL     1     -10.554   6.561  70.098  1.00  0.00    -0.227 C  
HETATM   24  O   UNL     1     -11.472   5.980  69.511  1.00  0.00    -0.384 OA 
HETATM   25  C   UNL     1      -8.813   9.913  69.947  1.00  0.00    -0.195 C  
BRANCH  23  26
HETATM   26  C   UNL     1     -10.056   6.049  71.471  1.00  0.00    -0.192 C  
HETATM   27  C   UNL     1     -11.211   5.857  72.447  1.00  0.00    -0.340 C  
HETATM   28  C   UNL     1     -10.621   4.919  73.463  1.00  0.00    -0.311 C  
HETATM   29  C   UNL     1      -9.750   4.031  72.604  1.00  0.00    -0.145 C  
HETATM   30  O   UNL     1      -9.353   4.799  71.457  1.00  0.00    -0.137 OA 
ENDBRANCH  23  26
ENDBRANCH  13  18
ENDBRANCH   2   3
TORSDOF 4
ENDMDL
MODEL       40
REMARK 921   NORMALIZED FREE ENERGY PREDICTED BY IDOCK:   -5.58 KCAL/MOL
REMARK 922        TOTAL FREE ENERGY PREDICTED BY IDOCK:   -7.40 KCAL/MOL
REMARK 923 INTER-LIGAND FREE ENERGY PREDICTED BY IDOCK:   -6.84 KCAL/MOL
REMARK 924 INTRA-LIGAND FREE ENERGY PREDICTED BY IDOCK:   -0.56 KCAL/MOL
REMARK 927      BINDING AFFINITY PREDICTED BY RF-SCORE:    0.00 PKD
ROOT
HETATM    1  C   UNL     1     -12.741  12.140  63.230  1.00  0.00    -0.285 C  
HETATM    2  O   UNL     1     -12.520  13.311  64.010  1.00  0.00    -0.618 OA 
ENDROOT
BRANCH   2   3
HETATM    3  C   UNL     1     -11.624  13.186  65.039  1.00  0.00    -0.325 A  
HETATM    4  C   UNL     1     -10.891  14.309  65.440  1.00  0.00    -0.342 A  
HETATM    5  C   UNL     1      -9.940  14.171  66.456  1.00  0.00    -0.289 A  
HETATM    6  C   UNL     1     -10.503  11.831  66.744  1.00  0.00    -0.225 A  
HETATM    7  C   UNL     1      -9.755  12.938  67.123  1.00  0.00    -0.221 A  
HETATM    8  C   UNL     1     -11.426  11.973  65.715  1.00  0.00    -0.377 A  
HETATM    9  C   UNL     1      -8.872  12.703  68.177  1.00  0.00    -0.194 A  
HETATM   10  N   UNL     1      -8.036  13.713  68.668  1.00  0.00    -0.276 NA 
HETATM   11  N   UNL     1      -8.749  11.512  68.778  1.00  0.00    -0.099 NA 
HETATM   12  H1  UNL     1      -7.391  13.541  69.439  1.00  0.00     0.000 HD 
HETATM   13  C   UNL     1      -9.518  10.503  68.347  1.00  0.00    -0.157 A  
HETATM   14  H2  UNL     1      -8.621  14.510  68.921  1.00  0.00     0.000 HD 
HETATM   15  N   UNL     1     -10.384  10.639  67.334  1.00  0.00    -0.207 NA 
BRANCH   4  16
HETATM   16  O   UNL     1     -10.940  15.569  64.907  1.00  0.00    -0.419 OA 
HETATM   17  C   UNL     1     -10.495  16.633  65.740  1.00  0.00    -0.311 C  
ENDBRANCH   4  16
BRANCH  13  18
HETATM   18  N   UNL     1      -9.509   9.301  69.029  1.00  0.00    -0.153 NA 
HETATM   19  C   UNL     1      -9.500   6.860  68.967  1.00  0.00    -0.137 C  
HETATM   20  C   UNL     1     -10.133   8.140  68.393  1.00  0.00    -0.200 C  
HETATM   21  N   UNL     1      -9.556   6.823  70.437  1.00  0.00    -0.169 N  
HETATM   22  C   UNL     1      -9.034   8.033  71.095  1.00  0.00    -0.141 C  
HETATM   23  C   UNL     1      -9.749   5.597  71.054  1.00  0.00    -0.173 C  
HETATM   24  O   UNL     1      -9.972   4.580  70.390  1.00  0.00    -0.222 OA 
HETATM   25  C   UNL     1      -9.614   9.333  70.492  1.00  0.00    -0.262 C  
BRANCH  23  26
HETATM   26  C   UNL     1      -9.800   5.548  72.600  1.00  0.00    -0.162 C  
HETATM   27  C   UNL     1     -10.942   4.667  73.093  1.00  0.00    -0.364 C  
HETATM   28  C   UNL     1     -10.520   4.348  74.500  1.00  0.00    -0.295 C  
HETATM   29  C   UNL     1      -9.019   4.225  74.357  1.00  0.00    -0.100 C  
HETATM   30  O   UNL     1      -8.623   5.051  73.251  1.00  0.00    -0.112 OA 
ENDBRANCH  23  26
ENDBRANCH  13  18
ENDBRANCH   2   3
TORSDOF 4
ENDMDL
MODEL       41
REMARK 921   NORMALIZED FREE ENERGY PREDICTED BY IDOCK:   -5.56 KCAL/MOL
REMARK 922        TOTAL FREE ENERGY PREDICTED BY IDOCK:   -7.37 KCAL/MOL
REMARK 923 INTER-LIGAND FREE ENERGY PREDICTED BY IDOCK:   -7.36 KCAL/MOL
REMARK 924 INTRA-LIGAND FREE ENERGY PREDICTED BY IDOCK:   -0.02 KCAL/MOL
REMARK 927      BINDING AFFINITY PREDICTED BY RF-SCORE:    0.00 PKD
ROOT
HETATM    1  C   UNL     1     -11.537  15.737  71.763  1.00  0.00    -0.456 C  
HETATM    2  O   UNL     1     -11.495  16.458  70.535  1.00  0.00    -0.328 OA 
ENDROOT
BRANCH   2   3
HETATM    3  C   UNL     1     -11.183  15.725  69.420  1.00  0.00    -0.324 A  
HETATM    4  C   UNL     1     -10.893  16.398  68.226  1.00  0.00    -0.347 A  
HETATM    5  C   UNL     1     -10.624  15.651  67.076  1.00  0.00    -0.311 A  
HETATM    6  C   UNL     1     -10.834  13.572  68.306  1.00  0.00    -0.259 A  
HETATM    7  C   UNL     1     -10.576  14.238  67.115  1.00  0.00    -0.279 A  
HETATM    8  C   UNL     1     -11.128  14.324  69.437  1.00  0.00    -0.283 A  
HETATM    9  C   UNL     1     -10.271  13.400  66.042  1.00  0.00    -0.300 A  
HETATM   10  N   UNL     1      -9.999  13.914  64.768  1.00  0.00    -0.602 NA 
HETATM   11  N   UNL     1     -10.229  12.064  66.143  1.00  0.00    -0.220 NA 
HETATM   12  H1  UNL     1      -9.776  13.302  63.984  1.00  0.00     0.000 HD 
HETATM   13  C   UNL     1     -10.487  11.512  67.337  1.00  0.00    -0.209 A  
HETATM   14  H2  UNL     1      -9.245  14.595  64.859  1.00  0.00     0.000 HD 
HETATM   15  N   UNL     1     -10.800  12.242  68.416  1.00  0.00    -0.220 NA 
BRANCH   4  16
HETATM   16  O   UNL     1     -10.898  17.749  68.010  1.00  0.00    -0.354 OA 
HETATM   17  C   UNL     1     -10.133  18.222  66.907  1.00  0.00    -0.366 C  
ENDBRANCH   4  16
BRANCH  13  18
HETATM   18  N   UNL     1     -10.326  10.150  67.506  1.00  0.00    -0.214 NA 
HETATM   19  C   UNL     1      -9.786   7.972  66.543  1.00  0.00    -0.219 C  
HETATM   20  C   UNL     1     -10.583   9.275  66.361  1.00  0.00     0.033 C  
HETATM   21  N   UNL     1     -10.054   7.333  67.840  1.00  0.00    -0.168 N  
HETATM   22  C   UNL     1      -9.908   8.228  69.001  1.00  0.00    -0.176 C  
HETATM   23  C   UNL     1     -10.072   5.948  67.896  1.00  0.00    -0.162 C  
HETATM   24  O   UNL     1      -9.969   5.269  66.870  1.00  0.00    -0.155 OA 
HETATM   25  C   UNL     1     -10.654   9.569  68.812  1.00  0.00    -0.214 C  
BRANCH  23  26
HETATM   26  C   UNL     1     -10.344   5.267  69.260  1.00  0.00    -0.215 C  
HETATM   27  C   UNL     1      -9.054   5.051  70.043  1.00  0.00    -0.166 C  
HETATM   28  C   UNL     1      -9.556   4.882  71.450  1.00  0.00    -0.226 C  
HETATM   29  C   UNL     1     -10.716   5.851  71.488  1.00  0.00    -0.256 C  
HETATM   30  O   UNL     1     -11.220   5.972  70.149  1.00  0.00    -0.363 OA 
ENDBRANCH  23  26
ENDBRANCH  13  18
ENDBRANCH   2   3
TORSDOF 4
ENDMDL
MODEL       42
REMARK 921   NORMALIZED FREE ENERGY PREDICTED BY IDOCK:   -5.55 KCAL/MOL
REMARK 922        TOTAL FREE ENERGY PREDICTED BY IDOCK:   -7.37 KCAL/MOL
REMARK 923 INTER-LIGAND FREE ENERGY PREDICTED BY IDOCK:   -6.91 KCAL/MOL
REMARK 924 INTRA-LIGAND FREE ENERGY PREDICTED BY IDOCK:   -0.46 KCAL/MOL
REMARK 927      BINDING AFFINITY PREDICTED BY RF-SCORE:    0.00 PKD
ROOT
HETATM    1  C   UNL     1      -9.498   3.904  66.835  1.00  0.00    -0.202 C  
HETATM    2  O   UNL     1      -9.511   3.867  68.259  1.00  0.00    -0.159 OA 
ENDROOT
BRANCH   2   3
HETATM    3  C   UNL     1      -9.882   5.028  68.885  1.00  0.00    -0.175 A  
HETATM    4  C   UNL     1     -10.092   5.014  70.270  1.00  0.00    -0.269 A  
HETATM    5  C   UNL     1     -10.519   6.185  70.902  1.00  0.00    -0.282 A  
HETATM    6  C   UNL     1     -10.439   7.411  68.813  1.00  0.00    -0.199 A  
HETATM    7  C   UNL     1     -10.677   7.391  70.181  1.00  0.00    -0.254 A  
HETATM    8  C   UNL     1     -10.042   6.235  68.190  1.00  0.00    -0.173 A  
HETATM    9  C   UNL     1     -11.050   8.623  70.719  1.00  0.00    -0.255 A  
HETATM   10  N   UNL     1     -11.338   8.768  72.082  1.00  0.00    -0.360 NA 
HETATM   11  N   UNL     1     -11.172   9.737  69.985  1.00  0.00    -0.251 NA 
HETATM   12  H1  UNL     1     -11.611   9.668  72.475  1.00  0.00     0.000 HD 
HETATM   13  C   UNL     1     -10.916   9.660  68.671  1.00  0.00    -0.111 A  
HETATM   14  H2  UNL     1     -10.536   8.424  72.611  1.00  0.00     0.000 HD 
HETATM   15  N   UNL     1     -10.563   8.515  68.072  1.00  0.00    -0.180 NA 
BRANCH   4  16
HETATM   16  O   UNL     1      -9.990   3.943  71.117  1.00  0.00    -0.177 OA 
HETATM   17  C   UNL     1      -8.960   4.000  72.097  1.00  0.00    -0.114 C  
ENDBRANCH   4  16
BRANCH  13  18
HETATM   18  N   UNL     1     -10.906  10.814  67.912  1.00  0.00    -0.242 NA 
HETATM   19  C   UNL     1     -10.553  11.893  65.750  1.00  0.00    -0.267 C  
HETATM   20  C   UNL     1      -9.997  10.882  66.767  1.00  0.00    -0.205 C  
HETATM   21  N   UNL     1     -10.823  13.204  66.360  1.00  0.00    -0.285 N  
HETATM   22  C   UNL     1     -11.647  13.148  67.580  1.00  0.00    -0.349 C  
HETATM   23  C   UNL     1     -10.600  14.340  65.597  1.00  0.00    -0.319 C  
HETATM   24  O   UNL     1     -10.092  14.261  64.475  1.00  0.00    -0.254 OA 
HETATM   25  C   UNL     1     -11.137  12.094  68.591  1.00  0.00    -0.251 C  
BRANCH  23  26
HETATM   26  C   UNL     1     -10.891  15.723  66.229  1.00  0.00    -0.232 C  
HETATM   27  C   UNL     1      -9.866  16.072  67.301  1.00  0.00    -0.236 C  
HETATM   28  C   UNL     1     -10.003  17.566  67.403  1.00  0.00    -0.315 C  
HETATM   29  C   UNL     1     -10.266  17.956  65.966  1.00  0.00    -0.295 C  
HETATM   30  O   UNL     1     -10.896  16.836  65.325  1.00  0.00    -0.497 OA 
ENDBRANCH  23  26
ENDBRANCH  13  18
ENDBRANCH   2   3
TORSDOF 4
ENDMDL
MODEL       43
REMARK 921   NORMALIZED FREE ENERGY PREDICTED BY IDOCK:   -5.53 KCAL/MOL
REMARK 922        TOTAL FREE ENERGY PREDICTED BY IDOCK:   -7.35 KCAL/MOL
REMARK 923 INTER-LIGAND FREE ENERGY PREDICTED BY IDOCK:   -6.83 KCAL/MOL
REMARK 924 INTRA-LIGAND FREE ENERGY PREDICTED BY IDOCK:   -0.52 KCAL/MOL
REMARK 927      BINDING AFFINITY PREDICTED BY RF-SCORE:    0.00 PKD
ROOT
HETATM    1  C   UNL     1      -9.373   2.026  70.749  1.00  0.00    -0.125 C  
HETATM    2  O   UNL     1     -10.101   2.541  71.860  1.00  0.00    -0.162 OA 
ENDROOT
BRANCH   2   3
HETATM    3  C   UNL     1      -9.869   3.855  72.171  1.00  0.00    -0.166 A  
HETATM    4  C   UNL     1      -9.216   4.162  73.372  1.00  0.00    -0.101 A  
HETATM    5  C   UNL     1      -9.023   5.504  73.714  1.00  0.00    -0.124 A  
HETATM    6  C   UNL     1     -10.035   6.239  71.637  1.00  0.00    -0.179 A  
HETATM    7  C   UNL     1      -9.415   6.546  72.842  1.00  0.00    -0.151 A  
HETATM    8  C   UNL     1     -10.248   4.903  71.320  1.00  0.00    -0.248 A  
HETATM    9  C   UNL     1      -9.228   7.911  73.062  1.00  0.00    -0.254 A  
HETATM   10  N   UNL     1      -8.629   8.385  74.235  1.00  0.00    -0.336 NA 
HETATM   11  N   UNL     1      -9.611   8.854  72.190  1.00  0.00    -0.322 NA 
HETATM   12  H1  UNL     1      -8.492   9.383  74.396  1.00  0.00     0.000 HD 
HETATM   13  C   UNL     1     -10.197   8.461  71.051  1.00  0.00    -0.199 A  
HETATM   14  H2  UNL     1      -7.724   7.924  74.335  1.00  0.00     0.000 HD 
HETATM   15  N   UNL     1     -10.425   7.172  70.765  1.00  0.00    -0.211 NA 
BRANCH   4  16
HETATM   16  O   UNL     1      -8.776   3.287  74.327  1.00  0.00    -0.082 OA 
HETATM   17  C   UNL     1      -7.453   2.787  74.175  1.00  0.00    -0.043 C  
ENDBRANCH   4  16
BRANCH  13  18
HETATM   18  N   UNL     1     -10.485   9.397  70.076  1.00  0.00    -0.218 NA 
HETATM   19  C   UNL     1     -11.122  11.680  69.492  1.00  0.00    -0.164 C  
HETATM   20  C   UNL     1     -11.412  10.480  70.409  1.00  0.00    -0.341 C  
HETATM   21  N   UNL     1     -11.142  11.310  68.068  1.00  0.00    -0.243 N  
HETATM   22  C   UNL     1     -10.300  10.150  67.730  1.00  0.00    -0.210 C  
HETATM   23  C   UNL     1     -11.633  12.234  67.158  1.00  0.00    -0.353 C  
HETATM   24  O   UNL     1     -12.136  13.295  67.539  1.00  0.00    -0.343 OA 
HETATM   25  C   UNL     1     -10.535   8.952  68.679  1.00  0.00    -0.193 C  
BRANCH  23  26
HETATM   26  C   UNL     1     -11.649  11.855  65.657  1.00  0.00    -0.210 C  
HETATM   27  C   UNL     1     -12.638  12.714  64.877  1.00  0.00    -0.525 C  
HETATM   28  C   UNL     1     -12.148  12.564  63.463  1.00  0.00    -0.653 C  
HETATM   29  C   UNL     1     -10.648  12.512  63.654  1.00  0.00    -0.409 C  
HETATM   30  O   UNL     1     -10.400  11.981  64.965  1.00  0.00    -0.263 OA 
ENDBRANCH  23  26
ENDBRANCH  13  18
ENDBRANCH   2   3
TORSDOF 4
ENDMDL
MODEL       44
REMARK 921   NORMALIZED FREE ENERGY PREDICTED BY IDOCK:   -5.53 KCAL/MOL
REMARK 922        TOTAL FREE ENERGY PREDICTED BY IDOCK:   -7.34 KCAL/MOL
REMARK 923 INTER-LIGAND FREE ENERGY PREDICTED BY IDOCK:   -6.76 KCAL/MOL
REMARK 924 INTRA-LIGAND FREE ENERGY PREDICTED BY IDOCK:   -0.58 KCAL/MOL
REMARK 927      BINDING AFFINITY PREDICTED BY RF-SCORE:    0.00 PKD
ROOT
HETATM    1  C   UNL     1      -6.622   5.048  69.093  1.00  0.00    -0.047 C  
HETATM    2  O   UNL     1      -7.712   4.859  68.194  1.00  0.00    -0.081 OA 
ENDROOT
BRANCH   2   3
HETATM    3  C   UNL     1      -8.048   5.941  67.424  1.00  0.00    -0.102 A  
HETATM    4  C   UNL     1      -7.897   5.858  66.034  1.00  0.00    -0.105 A  
HETATM    5  C   UNL     1      -8.191   6.978  65.252  1.00  0.00    -0.128 A  
HETATM    6  C   UNL     1      -8.875   8.237  67.208  1.00  0.00    -0.130 A  
HETATM    7  C   UNL     1      -8.698   8.164  65.832  1.00  0.00    -0.184 A  
HETATM    8  C   UNL     1      -8.552   7.127  67.979  1.00  0.00    -0.128 A  
HETATM    9  C   UNL     1      -9.067   9.320  65.143  1.00  0.00    -0.206 A  
HETATM   10  N   UNL     1      -8.938   9.412  63.752  1.00  0.00    -0.400 NA 
HETATM   11  N   UNL     1      -9.553  10.411  65.749  1.00  0.00    -0.201 NA 
HETATM   12  H1  UNL     1      -9.208  10.256  63.248  1.00  0.00     0.000 HD 
HETATM   13  C   UNL     1      -9.694  10.385  67.081  1.00  0.00    -0.172 A  
HETATM   14  H2  UNL     1      -9.436   8.625  63.336  1.00  0.00     0.000 HD 
HETATM   15  N   UNL     1      -9.353   9.322  67.821  1.00  0.00    -0.129 NA 
BRANCH   4  16
HETATM   16  O   UNL     1      -7.422   4.798  65.311  1.00  0.00    -0.074 OA 
HETATM   17  C   UNL     1      -8.371   3.813  64.921  1.00  0.00    -0.100 C  
ENDBRANCH   4  16
BRANCH  13  18
HETATM   18  N   UNL     1     -10.311  11.443  67.721  1.00  0.00    -0.178 NA 
HETATM   19  C   UNL     1     -11.120  13.746  67.652  1.00  0.00    -0.273 C  
HETATM   20  C   UNL     1      -9.952  12.803  67.315  1.00  0.00    -0.219 C  
HETATM   21  N   UNL     1     -11.528  13.645  69.061  1.00  0.00    -0.280 N  
HETATM   22  C   UNL     1     -11.787  12.270  69.522  1.00  0.00    -0.315 C  
HETATM   23  C   UNL     1     -11.954  14.797  69.704  1.00  0.00    -0.316 C  
HETATM   24  O   UNL     1     -11.895  15.896  69.143  1.00  0.00    -0.389 OA 
HETATM   25  C   UNL     1     -10.651  11.294  69.141  1.00  0.00    -0.187 C  
BRANCH  23  26
HETATM   26  C   UNL     1     -12.393  14.698  71.185  1.00  0.00    -0.335 C  
HETATM   27  C   UNL     1     -11.817  15.839  72.015  1.00  0.00    -0.582 C  
HETATM   28  C   UNL     1     -12.727  15.858  73.212  1.00  0.00    -0.650 C  
HETATM   29  C   UNL     1     -14.064  15.513  72.595  1.00  0.00    -0.450 C  
HETATM   30  O   UNL     1     -13.807  14.725  71.423  1.00  0.00    -0.396 OA 
ENDBRANCH  23  26
ENDBRANCH  13  18
ENDBRANCH   2   3
TORSDOF 4
ENDMDL
MODEL       45
REMARK 921   NORMALIZED FREE ENERGY PREDICTED BY IDOCK:   -5.52 KCAL/MOL
REMARK 922        TOTAL FREE ENERGY PREDICTED BY IDOCK:   -7.34 KCAL/MOL
REMARK 923 INTER-LIGAND FREE ENERGY PREDICTED BY IDOCK:   -6.79 KCAL/MOL
REMARK 924 INTRA-LIGAND FREE ENERGY PREDICTED BY IDOCK:   -0.55 KCAL/MOL
REMARK 927      BINDING AFFINITY PREDICTED BY RF-SCORE:    0.00 PKD
ROOT
HETATM    1  C   UNL     1     -12.156  14.398  70.388  1.00  0.00    -0.331 C  
HETATM    2  O   UNL     1     -12.398  14.079  69.020  1.00  0.00    -0.307 OA 
ENDROOT
BRANCH   2   3
HETATM    3  C   UNL     1     -11.908  12.873  68.591  1.00  0.00    -0.312 A  
HETATM    4  C   UNL     1     -11.434  12.763  67.278  1.00  0.00    -0.337 A  
HETATM    5  C   UNL     1     -10.982  11.521  66.823  1.00  0.00    -0.347 A  
HETATM    6  C   UNL     1     -11.377  10.517  68.994  1.00  0.00    -0.257 A  
HETATM    7  C   UNL     1     -10.934  10.399  67.682  1.00  0.00    -0.374 A  
HETATM    8  C   UNL     1     -11.851  11.749  69.427  1.00  0.00    -0.398 A  
HETATM    9  C   UNL     1     -10.459   9.131  67.347  1.00  0.00    -0.271 A  
HETATM   10  N   UNL     1      -9.988   8.845  66.060  1.00  0.00    -0.431 NA 
HETATM   11  N   UNL     1     -10.428   8.107  68.211  1.00  0.00    -0.191 NA 
HETATM   12  H1  UNL     1      -9.641   7.918  65.815  1.00  0.00     0.000 HD 
HETATM   13  C   UNL     1     -10.872   8.318  69.458  1.00  0.00    -0.116 A  
HETATM   14  H2  UNL     1      -9.261   9.523  65.833  1.00  0.00     0.000 HD 
HETATM   15  N   UNL     1     -11.356   9.501  69.860  1.00  0.00    -0.179 NA 
BRANCH   4  16
HETATM   16  O   UNL     1     -11.409  13.737  66.317  1.00  0.00    -0.310 OA 
HETATM   17  C   UNL     1     -12.633  14.000  65.641  1.00  0.00    -0.512 C  
ENDBRANCH   4  16
BRANCH  13  18
HETATM   18  N   UNL     1     -10.734   7.323  70.407  1.00  0.00    -0.230 NA 
HETATM   19  C   UNL     1     -11.401   6.373  72.554  1.00  0.00    -0.264 C  
HETATM   20  C   UNL     1     -11.007   7.657  71.805  1.00  0.00    -0.239 C  
HETATM   21  N   UNL     1     -10.403   5.305  72.392  1.00  0.00    -0.201 N  
HETATM   22  C   UNL     1     -10.031   5.028  70.994  1.00  0.00    -0.211 C  
HETATM   23  C   UNL     1     -10.171   4.457  73.464  1.00  0.00    -0.164 C  
HETATM   24  O   UNL     1     -10.709   4.654  74.558  1.00  0.00    -0.333 OA 
HETATM   25  C   UNL     1      -9.687   6.314  70.207  1.00  0.00    -0.164 C  
BRANCH  23  26
HETATM   26  C   UNL     1      -9.128   3.325  73.298  1.00  0.00    -0.089 C  
HETATM   27  C   UNL     1      -7.738   3.781  73.727  1.00  0.00    -0.075 C  
HETATM   28  C   UNL     1      -7.034   2.476  73.975  1.00  0.00    -0.031 C  
HETATM   29  C   UNL     1      -8.141   1.628  74.560  1.00  0.00    -0.041 C  
HETATM   30  O   UNL     1      -9.384   2.124  74.038  1.00  0.00    -0.074 OA 
ENDBRANCH  23  26
ENDBRANCH  13  18
ENDBRANCH   2   3
TORSDOF 4
ENDMDL
MODEL       46
REMARK 921   NORMALIZED FREE ENERGY PREDICTED BY IDOCK:   -5.51 KCAL/MOL
REMARK 922        TOTAL FREE ENERGY PREDICTED BY IDOCK:   -7.32 KCAL/MOL
REMARK 923 INTER-LIGAND FREE ENERGY PREDICTED BY IDOCK:   -6.81 KCAL/MOL
REMARK 924 INTRA-LIGAND FREE ENERGY PREDICTED BY IDOCK:   -0.51 KCAL/MOL
REMARK 927      BINDING AFFINITY PREDICTED BY RF-SCORE:    0.00 PKD
ROOT
HETATM    1  C   UNL     1      -8.472   8.051  70.237  1.00  0.00    -0.127 C  
HETATM    2  O   UNL     1      -8.332   7.777  68.845  1.00  0.00    -0.126 OA 
ENDROOT
BRANCH   2   3
HETATM    3  C   UNL     1      -8.843   8.723  67.995  1.00  0.00    -0.141 A  
HETATM    4  C   UNL     1      -9.653   8.309  66.930  1.00  0.00    -0.207 A  
HETATM    5  C   UNL     1     -10.133   9.267  66.032  1.00  0.00    -0.262 A  
HETATM    6  C   UNL     1      -9.090  11.056  67.292  1.00  0.00    -0.138 A  
HETATM    7  C   UNL     1      -9.869  10.644  66.219  1.00  0.00    -0.263 A  
HETATM    8  C   UNL     1      -8.594  10.093  68.163  1.00  0.00    -0.118 A  
HETATM    9  C   UNL     1     -10.337  11.683  65.414  1.00  0.00    -0.267 A  
HETATM   10  N   UNL     1     -11.125  11.434  64.285  1.00  0.00    -0.325 NA 
HETATM   11  N   UNL     1     -10.062  12.973  65.650  1.00  0.00    -0.280 NA 
HETATM   12  H1  UNL     1     -11.467  12.193  63.697  1.00  0.00     0.000 HD 
HETATM   13  C   UNL     1      -9.305  13.275  66.714  1.00  0.00    -0.252 A  
HETATM   14  H2  UNL     1     -11.929  10.878  64.578  1.00  0.00     0.000 HD 
HETATM   15  N   UNL     1      -8.806  12.338  67.532  1.00  0.00    -0.173 NA 
BRANCH   4  16
HETATM   16  O   UNL     1     -10.005   7.028  66.600  1.00  0.00    -0.194 OA 
HETATM   17  C   UNL     1     -11.028   6.424  67.383  1.00  0.00    -0.376 C  
ENDBRANCH   4  16
BRANCH  13  18
HETATM   18  N   UNL     1      -9.112  14.599  67.058  1.00  0.00    -0.226 NA 
HETATM   19  C   UNL     1     -10.060  16.745  67.732  1.00  0.00    -0.281 C  
HETATM   20  C   UNL     1     -10.183  15.553  66.768  1.00  0.00    -0.280 C  
HETATM   21  N   UNL     1      -8.718  17.347  67.706  1.00  0.00    -0.228 N  
HETATM   22  C   UNL     1      -7.618  16.384  67.885  1.00  0.00    -0.148 C  
HETATM   23  C   UNL     1      -8.613  18.720  67.862  1.00  0.00    -0.296 C  
HETATM   24  O   UNL     1      -9.620  19.432  67.917  1.00  0.00    -0.316 OA 
HETATM   25  C   UNL     1      -7.755  15.149  66.966  1.00  0.00    -0.123 C  
BRANCH  23  26
HETATM   26  C   UNL     1      -7.203  19.360  67.844  1.00  0.00    -0.256 C  
HETATM   27  C   UNL     1      -7.235  20.762  67.247  1.00  0.00    -0.415 C  
HETATM   28  C   UNL     1      -5.962  21.364  67.773  1.00  0.00    -0.362 C  
HETATM   29  C   UNL     1      -5.877  20.761  69.157  1.00  0.00    -0.338 C  
HETATM   30  O   UNL     1      -6.561  19.499  69.118  1.00  0.00    -0.296 OA 
ENDBRANCH  23  26
ENDBRANCH  13  18
ENDBRANCH   2   3
TORSDOF 4
ENDMDL
MODEL       47
REMARK 921   NORMALIZED FREE ENERGY PREDICTED BY IDOCK:   -5.40 KCAL/MOL
REMARK 922        TOTAL FREE ENERGY PREDICTED BY IDOCK:   -7.18 KCAL/MOL
REMARK 923 INTER-LIGAND FREE ENERGY PREDICTED BY IDOCK:   -6.65 KCAL/MOL
REMARK 924 INTRA-LIGAND FREE ENERGY PREDICTED BY IDOCK:   -0.53 KCAL/MOL
REMARK 927      BINDING AFFINITY PREDICTED BY RF-SCORE:    0.00 PKD
ROOT
HETATM    1  C   UNL     1      -6.936   7.541  66.033  1.00  0.00    -0.061 C  
HETATM    2  O   UNL     1      -8.347   7.428  65.865  1.00  0.00    -0.126 OA 
ENDROOT
BRANCH   2   3
HETATM    3  C   UNL     1      -9.112   8.190  66.708  1.00  0.00    -0.157 A  
HETATM    4  C   UNL     1      -9.937   7.549  67.640  1.00  0.00    -0.171 A  
HETATM    5  C   UNL     1     -10.756   8.324  68.467  1.00  0.00    -0.065 A  
HETATM    6  C   UNL     1      -9.874  10.373  67.517  1.00  0.00    -0.172 A  
HETATM    7  C   UNL     1     -10.715   9.737  68.421  1.00  0.00    -0.262 A  
HETATM    8  C   UNL     1      -9.085   9.592  66.681  1.00  0.00    -0.176 A  
HETATM    9  C   UNL     1     -11.452  10.603  69.230  1.00  0.00    -0.281 A  
HETATM   10  N   UNL     1     -12.355  10.120  70.184  1.00  0.00    -0.504 NA 
HETATM   11  N   UNL     1     -11.361  11.938  69.148  1.00  0.00    -0.259 NA 
HETATM   12  H1  UNL     1     -12.893  10.753  70.775  1.00  0.00     0.000 HD 
HETATM   13  C   UNL     1     -10.517  12.460  68.248  1.00  0.00    -0.225 A  
HETATM   14  H2  UNL     1     -11.854   9.472  70.792  1.00  0.00     0.000 HD 
HETATM   15  N   UNL     1      -9.782  11.701  67.425  1.00  0.00    -0.176 NA 
BRANCH   4  16
HETATM   16  O   UNL     1     -10.103   6.202  67.818  1.00  0.00    -0.128 OA 
HETATM   17  C   UNL     1      -9.138   5.541  68.628  1.00  0.00    -0.117 C  
ENDBRANCH   4  16
BRANCH  13  18
HETATM   18  N   UNL     1     -10.304  13.825  68.227  1.00  0.00    -0.241 NA 
HETATM   19  C   UNL     1     -11.225  16.086  68.222  1.00  0.00    -0.350 C  
HETATM   20  C   UNL     1     -11.326  14.676  67.616  1.00  0.00    -0.336 C  
HETATM   21  N   UNL     1      -9.866  16.640  68.120  1.00  0.00    -0.244 N  
HETATM   22  C   UNL     1      -8.808  15.750  68.630  1.00  0.00    -0.199 C  
HETATM   23  C   UNL     1      -9.728  18.001  67.900  1.00  0.00    -0.297 C  
HETATM   24  O   UNL     1     -10.715  18.714  67.691  1.00  0.00    -0.427 OA 
HETATM   25  C   UNL     1      -8.928  14.311  68.077  1.00  0.00    -0.183 C  
BRANCH  23  26
HETATM   26  C   UNL     1      -8.301  18.593  67.801  1.00  0.00    -0.267 C  
HETATM   27  C   UNL     1      -8.283  19.867  66.964  1.00  0.00    -0.356 C  
HETATM   28  C   UNL     1      -7.003  20.522  67.403  1.00  0.00    -0.363 C  
HETATM   29  C   UNL     1      -6.960  20.173  68.874  1.00  0.00    -0.195 C  
HETATM   30  O   UNL     1      -7.679  18.941  69.044  1.00  0.00    -0.306 OA 
ENDBRANCH  23  26
ENDBRANCH  13  18
ENDBRANCH   2   3
TORSDOF 4
ENDMDL
MODEL       48
REMARK 921   NORMALIZED FREE ENERGY PREDICTED BY IDOCK:   -5.38 KCAL/MOL
REMARK 922        TOTAL FREE ENERGY PREDICTED BY IDOCK:   -7.16 KCAL/MOL
REMARK 923 INTER-LIGAND FREE ENERGY PREDICTED BY IDOCK:   -6.59 KCAL/MOL
REMARK 924 INTRA-LIGAND FREE ENERGY PREDICTED BY IDOCK:   -0.57 KCAL/MOL
REMARK 927      BINDING AFFINITY PREDICTED BY RF-SCORE:    0.00 PKD
ROOT
HETATM    1  C   UNL     1      -8.735   2.262  69.549  1.00  0.00    -0.072 C  
HETATM    2  O   UNL     1      -9.250   2.460  70.863  1.00  0.00    -0.103 OA 
ENDROOT
BRANCH   2   3
HETATM    3  C   UNL     1      -9.686   3.727  71.150  1.00  0.00    -0.175 A  
HETATM    4  C   UNL     1     -10.002   4.050  72.476  1.00  0.00    -0.160 A  
HETATM    5  C   UNL     1     -10.495   5.326  72.763  1.00  0.00    -0.262 A  
HETATM    6  C   UNL     1     -10.276   5.996  70.444  1.00  0.00    -0.204 A  
HETATM    7  C   UNL     1     -10.617   6.309  71.753  1.00  0.00    -0.266 A  
HETATM    8  C   UNL     1      -9.814   4.716  70.164  1.00  0.00    -0.306 A  
HETATM    9  C   UNL     1     -11.051   7.622  71.937  1.00  0.00    -0.249 A  
HETATM   10  N   UNL     1     -11.444   8.091  73.196  1.00  0.00    -0.490 NA 
HETATM   11  N   UNL     1     -11.135   8.513  70.940  1.00  0.00    -0.249 NA 
HETATM   12  H1  UNL     1     -11.761   9.051  73.331  1.00  0.00     0.000 HD 
HETATM   13  C   UNL     1     -10.778   8.121  69.709  1.00  0.00    -0.229 A  
HETATM   14  H2  UNL     1     -10.679   7.918  73.849  1.00  0.00     0.000 HD 
HETATM   15  N   UNL     1     -10.362   6.876  69.443  1.00  0.00    -0.197 NA 
BRANCH   4  16
HETATM   16  O   UNL     1      -9.947   3.229  73.569  1.00  0.00    -0.106 OA 
HETATM   17  C   UNL     1      -8.796   3.344  74.398  1.00  0.00    -0.086 C  
ENDBRANCH   4  16
BRANCH  13  18
HETATM   18  N   UNL     1     -10.729   9.049  68.687  1.00  0.00    -0.150 NA 
HETATM   19  C   UNL     1     -10.024   9.633  66.423  1.00  0.00    -0.255 C  
HETATM   20  C   UNL     1      -9.599   8.997  67.758  1.00  0.00    -0.150 C  
HETATM   21  N   UNL     1     -10.573  10.986  66.601  1.00  0.00    -0.257 N  
HETATM   22  C   UNL     1     -11.638  11.081  67.615  1.00  0.00    -0.143 C  
HETATM   23  C   UNL     1     -10.315  11.931  65.621  1.00  0.00    -0.247 C  
HETATM   24  O   UNL     1      -9.562  11.678  64.677  1.00  0.00    -0.216 OA 
HETATM   25  C   UNL     1     -11.252  10.395  68.946  1.00  0.00    -0.235 C  
BRANCH  23  26
HETATM   26  C   UNL     1     -10.897  13.355  65.797  1.00  0.00    -0.275 C  
HETATM   27  C   UNL     1      -9.968  14.413  65.211  1.00  0.00    -0.314 C  
HETATM   28  C   UNL     1     -10.893  15.583  65.021  1.00  0.00    -0.468 C  
HETATM   29  C   UNL     1     -12.181  14.903  64.613  1.00  0.00    -0.341 C  
HETATM   30  O   UNL     1     -12.176  13.589  65.194  1.00  0.00    -0.382 OA 
ENDBRANCH  23  26
ENDBRANCH  13  18
ENDBRANCH   2   3
TORSDOF 4
ENDMDL
MODEL       49
REMARK 921   NORMALIZED FREE ENERGY PREDICTED BY IDOCK:   -5.38 KCAL/MOL
REMARK 922        TOTAL FREE ENERGY PREDICTED BY IDOCK:   -7.15 KCAL/MOL
REMARK 923 INTER-LIGAND FREE ENERGY PREDICTED BY IDOCK:   -6.78 KCAL/MOL
REMARK 924 INTRA-LIGAND FREE ENERGY PREDICTED BY IDOCK:   -0.37 KCAL/MOL
REMARK 927      BINDING AFFINITY PREDICTED BY RF-SCORE:    0.00 PKD
ROOT
HETATM    1  C   UNL     1      -9.528   2.477  68.389  1.00  0.00    -0.154 C  
HETATM    2  O   UNL     1      -9.235   2.442  69.783  1.00  0.00    -0.105 OA 
ENDROOT
BRANCH   2   3
HETATM    3  C   UNL     1      -9.614   3.545  70.502  1.00  0.00    -0.176 A  
HETATM    4  C   UNL     1      -9.674   3.455  71.899  1.00  0.00    -0.165 A  
HETATM    5  C   UNL     1     -10.109   4.563  72.631  1.00  0.00    -0.229 A  
HETATM    6  C   UNL     1     -10.336   5.883  70.610  1.00  0.00    -0.235 A  
HETATM    7  C   UNL     1     -10.424   5.785  71.993  1.00  0.00    -0.267 A  
HETATM    8  C   UNL     1      -9.929   4.766  69.889  1.00  0.00    -0.306 A  
HETATM    9  C   UNL     1     -10.821   6.962  72.629  1.00  0.00    -0.257 A  
HETATM   10  N   UNL     1     -10.970   7.026  74.019  1.00  0.00    -0.395 NA 
HETATM   11  N   UNL     1     -11.095   8.096  71.968  1.00  0.00    -0.284 NA 
HETATM   12  H1  UNL     1     -11.260   7.886  74.484  1.00  0.00     0.000 HD 
HETATM   13  C   UNL     1     -10.976   8.095  70.634  1.00  0.00    -0.244 A  
HETATM   14  H2  UNL     1     -10.095   6.718  74.444  1.00  0.00     0.000 HD 
HETATM   15  N   UNL     1     -10.613   7.006  69.943  1.00  0.00    -0.221 NA 
BRANCH   4  16
HETATM   16  O   UNL     1      -9.410   2.359  72.674  1.00  0.00    -0.080 OA 
HETATM   17  C   UNL     1      -8.100   2.264  73.222  1.00  0.00    -0.051 C  
ENDBRANCH   4  16
BRANCH  13  18
HETATM   18  N   UNL     1     -11.126   9.279  69.937  1.00  0.00    -0.217 NA 
HETATM   19  C   UNL     1     -11.019  10.487  67.818  1.00  0.00    -0.313 C  
HETATM   20  C   UNL     1     -10.304   9.488  68.744  1.00  0.00    -0.208 C  
HETATM   21  N   UNL     1     -11.372  11.735  68.512  1.00  0.00    -0.247 N  
HETATM   22  C   UNL     1     -12.104  11.542  69.775  1.00  0.00    -0.306 C  
HETATM   23  C   UNL     1     -11.308  12.922  67.798  1.00  0.00    -0.299 C  
HETATM   24  O   UNL     1     -10.870  12.946  66.644  1.00  0.00    -0.263 OA 
HETATM   25  C   UNL     1     -11.432  10.497  70.695  1.00  0.00    -0.327 C  
BRANCH  23  26
HETATM   26  C   UNL     1     -11.686  14.239  68.519  1.00  0.00    -0.341 C  
HETATM   27  C   UNL     1     -10.728  14.541  69.665  1.00  0.00    -0.128 C  
HETATM   28  C   UNL     1     -10.932  16.016  69.875  1.00  0.00    -0.353 C  
HETATM   29  C   UNL     1     -11.144  16.508  68.460  1.00  0.00    -0.335 C  
HETATM   30  O   UNL     1     -11.695  15.418  67.704  1.00  0.00    -0.275 OA 
ENDBRANCH  23  26
ENDBRANCH  13  18
ENDBRANCH   2   3
TORSDOF 4
ENDMDL
MODEL       50
REMARK 921   NORMALIZED FREE ENERGY PREDICTED BY IDOCK:   -5.35 KCAL/MOL
REMARK 922        TOTAL FREE ENERGY PREDICTED BY IDOCK:   -7.12 KCAL/MOL
REMARK 923 INTER-LIGAND FREE ENERGY PREDICTED BY IDOCK:   -7.06 KCAL/MOL
REMARK 924 INTRA-LIGAND FREE ENERGY PREDICTED BY IDOCK:   -0.06 KCAL/MOL
REMARK 927      BINDING AFFINITY PREDICTED BY RF-SCORE:    0.00 PKD
ROOT
HETATM    1  C   UNL     1     -12.134  14.493  69.708  1.00  0.00    -0.331 C  
HETATM    2  O   UNL     1     -12.128  14.628  68.289  1.00  0.00    -0.281 OA 
ENDROOT
BRANCH   2   3
HETATM    3  C   UNL     1     -11.661  13.547  67.588  1.00  0.00    -0.363 A  
HETATM    4  C   UNL     1     -11.321  13.710  66.239  1.00  0.00    -0.312 A  
HETATM    5  C   UNL     1     -10.893  12.597  65.509  1.00  0.00    -0.310 A  
HETATM    6  C   UNL     1     -11.046  11.179  67.469  1.00  0.00    -0.291 A  
HETATM    7  C   UNL     1     -10.737  11.333  66.124  1.00  0.00    -0.307 A  
HETATM    8  C   UNL     1     -11.497  12.285  68.179  1.00  0.00    -0.371 A  
HETATM    9  C   UNL     1     -10.273  10.173  65.503  1.00  0.00    -0.218 A  
HETATM   10  N   UNL     1      -9.931  10.158  64.146  1.00  0.00    -0.455 NA 
HETATM   11  N   UNL     1     -10.135   9.004  66.144  1.00  0.00    -0.256 NA 
HETATM   12  H1  UNL     1      -9.592   9.310  63.692  1.00  0.00     0.000 HD 
HETATM   13  C   UNL     1     -10.453   8.954  67.445  1.00  0.00    -0.277 A  
HETATM   14  H2  UNL     1      -9.245  10.896  63.986  1.00  0.00     0.000 HD 
HETATM   15  N   UNL     1     -10.916  10.017  68.114  1.00  0.00    -0.254 NA 
BRANCH   4  16
HETATM   16  O   UNL     1     -11.414  14.851  65.489  1.00  0.00    -0.347 OA 
HETATM   17  C   UNL     1     -10.239  15.647  65.389  1.00  0.00    -0.370 C  
ENDBRANCH   4  16
BRANCH  13  18
HETATM   18  N   UNL     1     -10.199   7.801  68.163  1.00  0.00    -0.196 NA 
HETATM   19  C   UNL     1      -9.546   5.448  68.181  1.00  0.00    -0.124 C  
HETATM   20  C   UNL     1     -10.430   6.512  67.508  1.00  0.00    -0.240 C  
HETATM   21  N   UNL     1      -9.738   5.407  69.639  1.00  0.00    -0.162 N  
HETATM   22  C   UNL     1      -9.620   6.715  70.305  1.00  0.00    -0.161 C  
HETATM   23  C   UNL     1      -9.665   4.177  70.274  1.00  0.00    -0.207 C  
HETATM   24  O   UNL     1      -9.546   3.133  69.625  1.00  0.00    -0.149 OA 
HETATM   25  C   UNL     1     -10.456   7.813  69.608  1.00  0.00    -0.229 C  
BRANCH  23  26
HETATM   26  C   UNL     1      -9.857   4.125  71.809  1.00  0.00    -0.182 C  
HETATM   27  C   UNL     1      -8.564   4.459  72.545  1.00  0.00    -0.112 C  
HETATM   28  C   UNL     1      -9.061   4.848  73.909  1.00  0.00    -0.112 C  
HETATM   29  C   UNL     1     -10.354   5.560  73.581  1.00  0.00    -0.237 C  
HETATM   30  O   UNL     1     -10.845   5.013  72.348  1.00  0.00    -0.213 OA 
ENDBRANCH  23  26
ENDBRANCH  13  18
ENDBRANCH   2   3
TORSDOF 4
ENDMDL
MODEL       51
REMARK 921   NORMALIZED FREE ENERGY PREDICTED BY IDOCK:   -5.25 KCAL/MOL
REMARK 922        TOTAL FREE ENERGY PREDICTED BY IDOCK:   -7.00 KCAL/MOL
REMARK 923 INTER-LIGAND FREE ENERGY PREDICTED BY IDOCK:   -7.00 KCAL/MOL
REMARK 924 INTRA-LIGAND FREE ENERGY PREDICTED BY IDOCK:   -0.00 KCAL/MOL
REMARK 927      BINDING AFFINITY PREDICTED BY RF-SCORE:    0.00 PKD
ROOT
HETATM    1  C   UNL     1      -7.313   6.503  65.981  1.00  0.00    -0.080 C  
HETATM    2  O   UNL     1      -8.200   7.331  65.233  1.00  0.00    -0.130 OA 
ENDROOT
BRANCH   2   3
HETATM    3  C   UNL     1      -8.939   8.227  65.959  1.00  0.00    -0.181 A  
HETATM    4  C   UNL     1     -10.079   7.775  66.635  1.00  0.00    -0.224 A  
HETATM    5  C   UNL     1     -10.862   8.697  67.335  1.00  0.00    -0.083 A  
HETATM    6  C   UNL     1      -9.339  10.500  66.780  1.00  0.00    -0.157 A  
HETATM    7  C   UNL     1     -10.486  10.058  67.426  1.00  0.00    -0.316 A  
HETATM    8  C   UNL     1      -8.583   9.580  66.063  1.00  0.00    -0.145 A  
HETATM    9  C   UNL     1     -11.166  11.049  68.135  1.00  0.00    -0.302 A  
HETATM   10  N   UNL     1     -12.348  10.768  68.830  1.00  0.00    -0.792 NA 
HETATM   11  N   UNL     1     -10.753  12.322  68.193  1.00  0.00    -0.208 NA 
HETATM   12  H1  UNL     1     -12.845  11.493  69.348  1.00  0.00     0.000 HD 
HETATM   13  C   UNL     1      -9.630  12.654  67.541  1.00  0.00    -0.184 A  
HETATM   14  H2  UNL     1     -12.161   9.996  69.470  1.00  0.00     0.000 HD 
HETATM   15  N   UNL     1      -8.923  11.768  66.827  1.00  0.00    -0.191 NA 
BRANCH   4  16
HETATM   16  O   UNL     1     -10.587   6.504  66.653  1.00  0.00    -0.230 OA 
HETATM   17  C   UNL     1     -10.961   5.984  67.923  1.00  0.00    -0.237 C  
ENDBRANCH   4  16
BRANCH  13  18
HETATM   18  N   UNL     1      -9.109  13.925  67.687  1.00  0.00    -0.188 NA 
HETATM   19  C   UNL     1      -7.196  15.357  68.189  1.00  0.00    -0.118 C  
HETATM   20  C   UNL     1      -7.994  14.114  68.617  1.00  0.00    -0.132 C  
HETATM   21  N   UNL     1      -8.050  16.547  68.051  1.00  0.00    -0.164 N  
HETATM   22  C   UNL     1      -9.241  16.345  67.207  1.00  0.00    -0.215 C  
HETATM   23  C   UNL     1      -7.521  17.777  68.407  1.00  0.00    -0.263 C  
HETATM   24  O   UNL     1      -6.402  17.863  68.922  1.00  0.00    -0.201 OA 
HETATM   25  C   UNL     1     -10.025  15.067  67.584  1.00  0.00    -0.225 C  
BRANCH  23  26
HETATM   26  C   UNL     1      -8.411  19.035  68.257  1.00  0.00    -0.331 C  
HETATM   27  C   UNL     1      -8.510  19.478  66.801  1.00  0.00    -0.337 C  
HETATM   28  C   UNL     1      -9.752  20.325  66.806  1.00  0.00    -0.571 C  
HETATM   29  C   UNL     1     -10.630  19.590  67.794  1.00  0.00    -0.415 C  
HETATM   30  O   UNL     1      -9.764  18.904  68.712  1.00  0.00    -0.375 OA 
ENDBRANCH  23  26
ENDBRANCH  13  18
ENDBRANCH   2   3
TORSDOF 4
ENDMDL
MODEL       52
REMARK 921   NORMALIZED FREE ENERGY PREDICTED BY IDOCK:   -5.23 KCAL/MOL
REMARK 922        TOTAL FREE ENERGY PREDICTED BY IDOCK:   -6.98 KCAL/MOL
REMARK 923 INTER-LIGAND FREE ENERGY PREDICTED BY IDOCK:   -6.42 KCAL/MOL
REMARK 924 INTRA-LIGAND FREE ENERGY PREDICTED BY IDOCK:   -0.56 KCAL/MOL
REMARK 927      BINDING AFFINITY PREDICTED BY RF-SCORE:    0.00 PKD
ROOT
HETATM    1  C   UNL     1     -11.069   5.965  72.909  1.00  0.00    -0.269 C  
HETATM    2  O   UNL     1      -9.849   5.973  72.171  1.00  0.00    -0.162 OA 
ENDROOT
BRANCH   2   3
HETATM    3  C   UNL     1      -9.885   6.618  70.962  1.00  0.00    -0.182 A  
HETATM    4  C   UNL     1      -9.992   5.857  69.791  1.00  0.00    -0.181 A  
HETATM    5  C   UNL     1      -9.977   6.510  68.555  1.00  0.00    -0.148 A  
HETATM    6  C   UNL     1      -9.847   8.676  69.636  1.00  0.00    -0.186 A  
HETATM    7  C   UNL     1      -9.923   7.921  68.473  1.00  0.00    -0.200 A  
HETATM    8  C   UNL     1      -9.833   8.015  70.858  1.00  0.00    -0.195 A  
HETATM    9  C   UNL     1      -9.951   8.674  67.298  1.00  0.00    -0.219 A  
HETATM   10  N   UNL     1     -10.013   8.061  66.041  1.00  0.00    -0.418 NA 
HETATM   11  N   UNL     1      -9.908  10.013  67.285  1.00  0.00    -0.174 NA 
HETATM   12  H1  UNL     1     -10.034   8.612  65.183  1.00  0.00     0.000 HD 
HETATM   13  C   UNL     1      -9.841  10.656  68.459  1.00  0.00    -0.168 A  
HETATM   14  H2  UNL     1     -10.821   7.438  66.034  1.00  0.00     0.000 HD 
HETATM   15  N   UNL     1      -9.798  10.010  69.632  1.00  0.00    -0.226 NA 
BRANCH   4  16
HETATM   16  O   UNL     1     -10.051   4.494  69.687  1.00  0.00    -0.221 OA 
HETATM   17  C   UNL     1      -8.820   3.817  69.458  1.00  0.00    -0.092 C  
ENDBRANCH   4  16
BRANCH  13  18
HETATM   18  N   UNL     1      -9.926  12.035  68.485  1.00  0.00    -0.205 NA 
HETATM   19  C   UNL     1     -11.184  14.042  69.077  1.00  0.00    -0.276 C  
HETATM   20  C   UNL     1     -11.254  12.647  68.432  1.00  0.00    -0.279 C  
HETATM   21  N   UNL     1     -10.130  14.878  68.481  1.00  0.00    -0.226 N  
HETATM   22  C   UNL     1      -8.806  14.235  68.422  1.00  0.00    -0.187 C  
HETATM   23  C   UNL     1     -10.365  16.238  68.356  1.00  0.00    -0.271 C  
HETATM   24  O   UNL     1     -11.466  16.721  68.641  1.00  0.00    -0.188 OA 
HETATM   25  C   UNL     1      -8.865  12.808  67.831  1.00  0.00    -0.186 C  
BRANCH  23  26
HETATM   26  C   UNL     1      -9.258  17.126  67.738  1.00  0.00    -0.241 C  
HETATM   27  C   UNL     1      -9.810  18.011  66.626  1.00  0.00    -0.352 C  
HETATM   28  C   UNL     1      -8.770  19.093  66.531  1.00  0.00    -0.348 C  
HETATM   29  C   UNL     1      -8.366  19.269  67.978  1.00  0.00    -0.315 C  
HETATM   30  O   UNL     1      -8.590  18.015  68.642  1.00  0.00    -0.303 OA 
ENDBRANCH  23  26
ENDBRANCH  13  18
ENDBRANCH   2   3
TORSDOF 4
ENDMDL
MODEL       53
REMARK 921   NORMALIZED FREE ENERGY PREDICTED BY IDOCK:   -5.22 KCAL/MOL
REMARK 922        TOTAL FREE ENERGY PREDICTED BY IDOCK:   -6.96 KCAL/MOL
REMARK 923 INTER-LIGAND FREE ENERGY PREDICTED BY IDOCK:   -6.43 KCAL/MOL
REMARK 924 INTRA-LIGAND FREE ENERGY PREDICTED BY IDOCK:   -0.53 KCAL/MOL
REMARK 927      BINDING AFFINITY PREDICTED BY RF-SCORE:    0.00 PKD
ROOT
HETATM    1  C   UNL     1      -8.182   5.195  64.945  1.00  0.00    -0.136 C  
HETATM    2  O   UNL     1      -9.491   4.963  65.458  1.00  0.00    -0.160 OA 
ENDROOT
BRANCH   2   3
HETATM    3  C   UNL     1      -9.786   5.575  66.648  1.00  0.00    -0.159 A  
HETATM    4  C   UNL     1      -9.851   4.798  67.811  1.00  0.00    -0.141 A  
HETATM    5  C   UNL     1     -10.200   5.412  69.018  1.00  0.00    -0.291 A  
HETATM    6  C   UNL     1     -10.328   7.582  67.943  1.00  0.00    -0.210 A  
HETATM    7  C   UNL     1     -10.423   6.807  69.092  1.00  0.00    -0.240 A  
HETATM    8  C   UNL     1     -10.008   6.957  66.744  1.00  0.00    -0.248 A  
HETATM    9  C   UNL     1     -10.728   7.526  70.248  1.00  0.00    -0.238 A  
HETATM   10  N   UNL     1     -10.872   6.890  71.487  1.00  0.00    -0.228 NA 
HETATM   11  N   UNL     1     -10.917   8.853  70.258  1.00  0.00    -0.241 NA 
HETATM   12  H1  UNL     1     -11.095   7.416  72.331  1.00  0.00     0.000 HD 
HETATM   13  C   UNL     1     -10.800   9.517  69.099  1.00  0.00    -0.173 A  
HETATM   14  H2  UNL     1     -10.022   6.354  71.666  1.00  0.00     0.000 HD 
HETATM   15  N   UNL     1     -10.520   8.903  67.942  1.00  0.00    -0.234 NA 
BRANCH   4  16
HETATM   16  O   UNL     1      -9.670   3.446  67.921  1.00  0.00    -0.152 OA 
HETATM   17  C   UNL     1      -9.359   2.945  69.216  1.00  0.00    -0.137 C  
ENDBRANCH   4  16
BRANCH  13  18
HETATM   18  N   UNL     1     -10.859  10.898  69.098  1.00  0.00    -0.220 NA 
HETATM   19  C   UNL     1     -11.804  12.952  70.019  1.00  0.00    -0.286 C  
HETATM   20  C   UNL     1     -12.113  11.537  69.501  1.00  0.00    -0.284 C  
HETATM   21  N   UNL     1     -11.029  13.743  69.050  1.00  0.00    -0.254 N  
HETATM   22  C   UNL     1      -9.819  13.070  68.546  1.00  0.00    -0.151 C  
HETATM   23  C   UNL     1     -11.283  15.102  68.963  1.00  0.00    -0.273 C  
HETATM   24  O   UNL     1     -12.204  15.619  69.603  1.00  0.00    -0.352 OA 
HETATM   25  C   UNL     1     -10.098  11.624  68.075  1.00  0.00    -0.189 C  
BRANCH  23  26
HETATM   26  C   UNL     1     -10.466  15.943  67.952  1.00  0.00    -0.288 C  
HETATM   27  C   UNL     1     -11.008  15.793  66.535  1.00  0.00    -0.165 C  
HETATM   28  C   UNL     1     -10.455  17.010  65.848  1.00  0.00    -0.282 C  
HETATM   29  C   UNL     1     -10.521  18.048  66.946  1.00  0.00    -0.341 C  
HETATM   30  O   UNL     1     -10.424  17.354  68.200  1.00  0.00    -0.355 OA 
ENDBRANCH  23  26
ENDBRANCH  13  18
ENDBRANCH   2   3
TORSDOF 4
ENDMDL
MODEL       54
REMARK 921   NORMALIZED FREE ENERGY PREDICTED BY IDOCK:   -5.20 KCAL/MOL
REMARK 922        TOTAL FREE ENERGY PREDICTED BY IDOCK:   -6.94 KCAL/MOL
REMARK 923 INTER-LIGAND FREE ENERGY PREDICTED BY IDOCK:   -6.95 KCAL/MOL
REMARK 924 INTRA-LIGAND FREE ENERGY PREDICTED BY IDOCK:    0.01 KCAL/MOL
REMARK 927      BINDING AFFINITY PREDICTED BY RF-SCORE:    0.00 PKD
ROOT
HETATM    1  C   UNL     1     -13.797  15.080  71.438  1.00  0.00    -0.479 C  
HETATM    2  O   UNL     1     -12.734  15.668  70.693  1.00  0.00    -0.454 OA 
ENDROOT
BRANCH   2   3
HETATM    3  C   UNL     1     -12.092  14.839  69.810  1.00  0.00    -0.319 A  
HETATM    4  C   UNL     1     -11.562  15.382  68.633  1.00  0.00    -0.359 A  
HETATM    5  C   UNL     1     -10.951  14.530  67.709  1.00  0.00    -0.282 A  
HETATM    6  C   UNL     1     -11.303  12.615  69.153  1.00  0.00    -0.282 A  
HETATM    7  C   UNL     1     -10.803  13.148  67.972  1.00  0.00    -0.261 A  
HETATM    8  C   UNL     1     -11.933  13.466  70.052  1.00  0.00    -0.407 A  
HETATM    9  C   UNL     1     -10.171  12.221  67.143  1.00  0.00    -0.211 A  
HETATM   10  N   UNL     1      -9.625  12.597  65.910  1.00  0.00    -0.405 NA 
HETATM   11  N   UNL     1     -10.051  10.923  67.453  1.00  0.00    -0.186 NA 
HETATM   12  H1  UNL     1      -9.163  11.919  65.305  1.00  0.00     0.000 HD 
HETATM   13  C   UNL     1     -10.561  10.501  68.619  1.00  0.00    -0.200 A  
HETATM   14  H2  UNL     1      -8.975  13.365  66.075  1.00  0.00     0.000 HD 
HETATM   15  N   UNL     1     -11.194  11.323  69.468  1.00  0.00    -0.268 NA 
BRANCH   4  16
HETATM   16  O   UNL     1     -11.617  16.686  68.220  1.00  0.00    -0.145 OA 
HETATM   17  C   UNL     1     -10.381  17.387  68.149  1.00  0.00    -0.366 C  
ENDBRANCH   4  16
BRANCH  13  18
HETATM   18  N   UNL     1     -10.341   9.199  69.027  1.00  0.00    -0.211 NA 
HETATM   19  C   UNL     1      -9.636   6.927  68.479  1.00  0.00    -0.131 C  
HETATM   20  C   UNL     1     -10.485   8.130  68.037  1.00  0.00    -0.183 C  
HETATM   21  N   UNL     1      -9.948   6.499  69.852  1.00  0.00    -0.166 N  
HETATM   22  C   UNL     1      -9.917   7.585  70.848  1.00  0.00    -0.180 C  
HETATM   23  C   UNL     1      -9.899   5.145  70.143  1.00  0.00    -0.230 C  
HETATM   24  O   UNL     1      -9.702   4.311  69.255  1.00  0.00    -0.186 OA 
HETATM   25  C   UNL     1     -10.718   8.827  70.395  1.00  0.00    -0.225 C  
BRANCH  23  26
HETATM   26  C   UNL     1     -10.218   4.688  71.588  1.00  0.00    -0.163 C  
HETATM   27  C   UNL     1      -9.734   3.266  71.842  1.00  0.00    -0.233 C  
HETATM   28  C   UNL     1      -9.665   3.213  73.343  1.00  0.00    -0.151 C  
HETATM   29  C   UNL     1      -9.200   4.610  73.686  1.00  0.00    -0.114 C  
HETATM   30  O   UNL     1      -9.648   5.482  72.637  1.00  0.00    -0.150 OA 
ENDBRANCH  23  26
ENDBRANCH  13  18
ENDBRANCH   2   3
TORSDOF 4
ENDMDL
MODEL       55
REMARK 921   NORMALIZED FREE ENERGY PREDICTED BY IDOCK:   -5.19 KCAL/MOL
REMARK 922        TOTAL FREE ENERGY PREDICTED BY IDOCK:   -6.92 KCAL/MOL
REMARK 923 INTER-LIGAND FREE ENERGY PREDICTED BY IDOCK:   -6.37 KCAL/MOL
REMARK 924 INTRA-LIGAND FREE ENERGY PREDICTED BY IDOCK:   -0.55 KCAL/MOL
REMARK 927      BINDING AFFINITY PREDICTED BY RF-SCORE:    0.00 PKD
ROOT
HETATM    1  C   UNL     1     -10.701  19.556  65.934  1.00  0.00    -0.420 C  
HETATM    2  O   UNL     1     -10.522  18.939  67.207  1.00  0.00    -0.392 OA 
ENDROOT
BRANCH   2   3
HETATM    3  C   UNL     1      -9.532  17.995  67.281  1.00  0.00    -0.260 A  
HETATM    4  C   UNL     1      -8.203  18.417  67.417  1.00  0.00    -0.244 A  
HETATM    5  C   UNL     1      -7.187  17.457  67.441  1.00  0.00    -0.188 A  
HETATM    6  C   UNL     1      -8.804  15.657  67.293  1.00  0.00    -0.198 A  
HETATM    7  C   UNL     1      -7.483  16.075  67.398  1.00  0.00    -0.208 A  
HETATM    8  C   UNL     1      -9.804  16.620  67.241  1.00  0.00    -0.255 A  
HETATM    9  C   UNL     1      -6.554  15.036  67.464  1.00  0.00    -0.125 A  
HETATM   10  N   UNL     1      -5.181  15.291  67.559  1.00  0.00    -0.334 NA 
HETATM   11  N   UNL     1      -6.898  13.742  67.430  1.00  0.00    -0.206 NA 
HETATM   12  H1  UNL     1      -4.501  14.532  67.607  1.00  0.00     0.000 HD 
HETATM   13  C   UNL     1      -8.198  13.435  67.333  1.00  0.00    -0.183 A  
HETATM   14  H2  UNL     1      -5.028  15.901  68.363  1.00  0.00     0.000 HD 
HETATM   15  N   UNL     1      -9.155  14.369  67.253  1.00  0.00    -0.204 NA 
BRANCH   4  16
HETATM   16  O   UNL     1      -7.739  19.703  67.470  1.00  0.00    -0.254 OA 
HETATM   17  C   UNL     1      -7.027  20.174  66.332  1.00  0.00    -0.242 C  
ENDBRANCH   4  16
BRANCH  13  18
HETATM   18  N   UNL     1      -8.595  12.114  67.426  1.00  0.00    -0.166 NA 
HETATM   19  C   UNL     1      -9.679  10.179  66.407  1.00  0.00    -0.205 C  
HETATM   20  C   UNL     1      -9.775  11.691  66.672  1.00  0.00    -0.202 C  
HETATM   21  N   UNL     1      -9.468   9.410  67.643  1.00  0.00    -0.131 N  
HETATM   22  C   UNL     1      -8.351   9.890  68.474  1.00  0.00    -0.108 C  
HETATM   23  C   UNL     1     -10.064   8.163  67.748  1.00  0.00    -0.204 C  
HETATM   24  O   UNL     1     -10.835   7.751  66.875  1.00  0.00    -0.311 OA 
HETATM   25  C   UNL     1      -8.397  11.419  68.702  1.00  0.00    -0.136 C  
BRANCH  23  26
HETATM   26  C   UNL     1      -9.840   7.343  69.042  1.00  0.00    -0.168 C  
HETATM   27  C   UNL     1     -11.031   7.455  69.987  1.00  0.00    -0.264 C  
HETATM   28  C   UNL     1     -10.854   6.253  70.872  1.00  0.00    -0.329 C  
HETATM   29  C   UNL     1     -10.312   5.226  69.903  1.00  0.00    -0.304 C  
HETATM   30  O   UNL     1      -9.620   5.938  68.864  1.00  0.00    -0.127 OA 
ENDBRANCH  23  26
ENDBRANCH  13  18
ENDBRANCH   2   3
TORSDOF 4
ENDMDL
MODEL       56
REMARK 921   NORMALIZED FREE ENERGY PREDICTED BY IDOCK:   -5.14 KCAL/MOL
REMARK 922        TOTAL FREE ENERGY PREDICTED BY IDOCK:   -6.86 KCAL/MOL
REMARK 923 INTER-LIGAND FREE ENERGY PREDICTED BY IDOCK:   -6.32 KCAL/MOL
REMARK 924 INTRA-LIGAND FREE ENERGY PREDICTED BY IDOCK:   -0.54 KCAL/MOL
REMARK 927      BINDING AFFINITY PREDICTED BY RF-SCORE:    0.00 PKD
ROOT
HETATM    1  C   UNL     1     -10.385  17.271  68.911  1.00  0.00    -0.352 C  
HETATM    2  O   UNL     1     -10.007  17.015  67.560  1.00  0.00    -0.260 OA 
ENDROOT
BRANCH   2   3
HETATM    3  C   UNL     1     -10.140  15.719  67.137  1.00  0.00    -0.251 A  
HETATM    4  C   UNL     1     -10.403  15.471  65.784  1.00  0.00    -0.363 A  
HETATM    5  C   UNL     1     -10.588  14.152  65.359  1.00  0.00    -0.358 A  
HETATM    6  C   UNL     1     -10.160  13.312  67.593  1.00  0.00    -0.229 A  
HETATM    7  C   UNL     1     -10.450  13.068  66.257  1.00  0.00    -0.285 A  
HETATM    8  C   UNL     1     -10.005  14.629  68.010  1.00  0.00    -0.220 A  
HETATM    9  C   UNL     1     -10.566  11.716  65.931  1.00  0.00    -0.271 A  
HETATM   10  N   UNL     1     -10.869  11.304  64.628  1.00  0.00    -0.299 NA 
HETATM   11  N   UNL     1     -10.413  10.731  66.825  1.00  0.00    -0.243 NA 
HETATM   12  H1  UNL     1     -10.954  10.316  64.390  1.00  0.00     0.000 HD 
HETATM   13  C   UNL     1     -10.128  11.064  68.091  1.00  0.00    -0.179 A  
HETATM   14  H2  UNL     1     -10.184  11.721  63.998  1.00  0.00     0.000 HD 
HETATM   15  N   UNL     1     -10.010  12.337  68.492  1.00  0.00    -0.201 NA 
BRANCH   4  16
HETATM   16  O   UNL     1     -10.571  16.393  64.786  1.00  0.00    -0.676 OA 
HETATM   17  C   UNL     1     -11.725  16.247  63.968  1.00  0.00     0.480 C  
ENDBRANCH   4  16
BRANCH  13  18
HETATM   18  N   UNL     1      -9.836  10.071  69.007  1.00  0.00    -0.188 NA 
HETATM   19  C   UNL     1      -8.234   8.468  69.914  1.00  0.00    -0.121 C  
HETATM   20  C   UNL     1      -8.854   9.052  68.634  1.00  0.00    -0.137 C  
HETATM   21  N   UNL     1      -9.255   7.979  70.854  1.00  0.00    -0.147 N  
HETATM   22  C   UNL     1     -10.317   8.954  71.158  1.00  0.00    -0.268 C  
HETATM   23  C   UNL     1      -8.967   6.851  71.605  1.00  0.00    -0.135 C  
HETATM   24  O   UNL     1      -7.928   6.211  71.419  1.00  0.00    -0.110 OA 
HETATM   25  C   UNL     1     -10.912   9.597  69.884  1.00  0.00    -0.252 C  
BRANCH  23  26
HETATM   26  C   UNL     1     -10.033   6.336  72.603  1.00  0.00    -0.172 C  
HETATM   27  C   UNL     1     -10.523   4.942  72.226  1.00  0.00    -0.267 C  
HETATM   28  C   UNL     1     -11.110   4.447  73.518  1.00  0.00    -0.388 C  
HETATM   29  C   UNL     1     -10.167   5.041  74.540  1.00  0.00    -0.274 C  
HETATM   30  O   UNL     1      -9.617   6.239  73.971  1.00  0.00    -0.154 OA 
ENDBRANCH  23  26
ENDBRANCH  13  18
ENDBRANCH   2   3
TORSDOF 4
ENDMDL
MODEL       57
REMARK 921   NORMALIZED FREE ENERGY PREDICTED BY IDOCK:   -5.13 KCAL/MOL
REMARK 922        TOTAL FREE ENERGY PREDICTED BY IDOCK:   -6.85 KCAL/MOL
REMARK 923 INTER-LIGAND FREE ENERGY PREDICTED BY IDOCK:   -6.88 KCAL/MOL
REMARK 924 INTRA-LIGAND FREE ENERGY PREDICTED BY IDOCK:    0.04 KCAL/MOL
REMARK 927      BINDING AFFINITY PREDICTED BY RF-SCORE:    0.00 PKD
ROOT
HETATM    1  C   UNL     1     -11.258   5.983  68.888  1.00  0.00    -0.173 C  
HETATM    2  O   UNL     1     -10.480   6.594  67.862  1.00  0.00    -0.175 OA 
ENDROOT
BRANCH   2   3
HETATM    3  C   UNL     1      -9.784   7.717  68.227  1.00  0.00    -0.157 A  
HETATM    4  C   UNL     1      -8.629   7.575  69.006  1.00  0.00    -0.136 A  
HETATM    5  C   UNL     1      -7.947   8.722  69.422  1.00  0.00    -0.100 A  
HETATM    6  C   UNL     1      -9.493  10.149  68.217  1.00  0.00    -0.140 A  
HETATM    7  C   UNL     1      -8.364  10.011  69.015  1.00  0.00    -0.134 A  
HETATM    8  C   UNL     1     -10.180   9.004  67.833  1.00  0.00    -0.272 A  
HETATM    9  C   UNL     1      -7.732  11.214  69.331  1.00  0.00     0.034 A  
HETATM   10  N   UNL     1      -6.589  11.247  70.138  1.00  0.00    -0.391 NA 
HETATM   11  N   UNL     1      -8.170  12.406  68.905  1.00  0.00     0.121 NA 
HETATM   12  H1  UNL     1      -6.126  12.126  70.369  1.00  0.00     0.000 HD 
HETATM   13  C   UNL     1      -9.265  12.439  68.134  1.00  0.00    -0.205 A  
HETATM   14  H2  UNL     1      -5.893  10.625  69.724  1.00  0.00     0.000 HD 
HETATM   15  N   UNL     1      -9.940  11.333  67.793  1.00  0.00    -0.174 NA 
BRANCH   4  16
HETATM   16  O   UNL     1      -8.088   6.414  69.489  1.00  0.00    -0.114 OA 
HETATM   17  C   UNL     1      -6.943   6.541  70.324  1.00  0.00    -0.066 C  
ENDBRANCH   4  16
BRANCH  13  18
HETATM   18  N   UNL     1      -9.666  13.636  67.572  1.00  0.00    -0.222 NA 
HETATM   19  C   UNL     1     -10.947  14.821  65.865  1.00  0.00    -0.335 C  
HETATM   20  C   UNL     1      -9.975  13.662  66.142  1.00  0.00    -0.306 C  
HETATM   21  N   UNL     1     -10.442  16.105  66.376  1.00  0.00    -0.306 N  
HETATM   22  C   UNL     1     -10.020  16.072  67.787  1.00  0.00    -0.234 C  
HETATM   23  C   UNL     1     -10.717  17.253  65.650  1.00  0.00    -0.120 C  
HETATM   24  O   UNL     1     -11.279  17.191  64.553  1.00  0.00    -1.104 OA 
HETATM   25  C   UNL     1      -9.089  14.878  68.100  1.00  0.00    -0.177 C  
BRANCH  23  26
HETATM   26  C   UNL     1     -10.196  18.609  66.187  1.00  0.00    -0.416 C  
HETATM   27  C   UNL     1     -11.030  19.100  67.364  1.00  0.00    -0.419 C  
HETATM   28  C   UNL     1     -10.106  20.084  68.025  1.00  0.00    -0.557 C  
HETATM   29  C   UNL     1      -8.758  19.428  67.832  1.00  0.00    -0.317 C  
HETATM   30  O   UNL     1      -8.838  18.621  66.646  1.00  0.00    -0.285 OA 
ENDBRANCH  23  26
ENDBRANCH  13  18
ENDBRANCH   2   3
TORSDOF 4
ENDMDL
MODEL       58
REMARK 921   NORMALIZED FREE ENERGY PREDICTED BY IDOCK:   -5.13 KCAL/MOL
REMARK 922        TOTAL FREE ENERGY PREDICTED BY IDOCK:   -6.84 KCAL/MOL
REMARK 923 INTER-LIGAND FREE ENERGY PREDICTED BY IDOCK:   -6.84 KCAL/MOL
REMARK 924 INTRA-LIGAND FREE ENERGY PREDICTED BY IDOCK:   -0.00 KCAL/MOL
REMARK 927      BINDING AFFINITY PREDICTED BY RF-SCORE:    0.00 PKD
ROOT
HETATM    1  C   UNL     1      -9.553   4.812  65.953  1.00  0.00    -0.180 C  
HETATM    2  O   UNL     1     -10.361   4.679  67.120  1.00  0.00    -0.148 OA 
ENDROOT
BRANCH   2   3
HETATM    3  C   UNL     1     -10.423   5.779  67.934  1.00  0.00    -0.228 A  
HETATM    4  C   UNL     1     -10.271   5.608  69.316  1.00  0.00    -0.239 A  
HETATM    5  C   UNL     1     -10.385   6.722  70.153  1.00  0.00    -0.228 A  
HETATM    6  C   UNL     1     -10.704   8.191  68.251  1.00  0.00    -0.016 A  
HETATM    7  C   UNL     1     -10.583   8.018  69.624  1.00  0.00    -0.223 A  
HETATM    8  C   UNL     1     -10.618   7.073  67.430  1.00  0.00    -0.372 A  
HETATM    9  C   UNL     1     -10.663   9.200  70.362  1.00  0.00    -0.238 A  
HETATM   10  N   UNL     1     -10.573   9.195  71.759  1.00  0.00    -0.358 NA 
HETATM   11  N   UNL     1     -10.841  10.404  69.802  1.00  0.00    -0.274 NA 
HETATM   12  H1  UNL     1     -10.631  10.058  72.298  1.00  0.00     0.000 HD 
HETATM   13  C   UNL     1     -10.941  10.472  68.467  1.00  0.00    -0.252 A  
HETATM   14  H2  UNL     1      -9.707   8.721  72.017  1.00  0.00     0.000 HD 
HETATM   15  N   UNL     1     -10.887   9.386  67.684  1.00  0.00    -0.228 NA 
BRANCH   4  16
HETATM   16  O   UNL     1     -10.078   4.434  69.993  1.00  0.00    -0.218 OA 
HETATM   17  C   UNL     1      -8.733   4.090  70.304  1.00  0.00    -0.074 C  
ENDBRANCH   4  16
BRANCH  13  18
HETATM   18  N   UNL     1     -10.994  11.707  67.851  1.00  0.00    -0.211 NA 
HETATM   19  C   UNL     1     -12.029  13.179  66.201  1.00  0.00    -0.422 C  
HETATM   20  C   UNL     1     -11.470  11.772  66.468  1.00  0.00    -0.255 C  
HETATM   21  N   UNL     1     -11.062  14.236  66.536  1.00  0.00    -0.316 N  
HETATM   22  C   UNL     1     -10.486  14.125  67.887  1.00  0.00    -0.237 C  
HETATM   23  C   UNL     1     -11.036  15.375  65.747  1.00  0.00    -0.309 C  
HETATM   24  O   UNL     1     -11.731  15.459  64.730  1.00  0.00    -0.326 OA 
HETATM   25  C   UNL     1      -9.971  12.700  68.197  1.00  0.00    -0.225 C  
BRANCH  23  26
HETATM   26  C   UNL     1     -10.026  16.495  66.098  1.00  0.00    -0.343 C  
HETATM   27  C   UNL     1     -10.640  17.522  67.043  1.00  0.00    -0.245 C  
HETATM   28  C   UNL     1      -9.426  18.178  67.638  1.00  0.00    -0.264 C  
HETATM   29  C   UNL     1      -8.465  17.016  67.752  1.00  0.00    -0.198 C  
HETATM   30  O   UNL     1      -8.812  16.068  66.731  1.00  0.00    -0.212 OA 
ENDBRANCH  23  26
ENDBRANCH  13  18
ENDBRANCH   2   3
TORSDOF 4
ENDMDL
MODEL       59
REMARK 921   NORMALIZED FREE ENERGY PREDICTED BY IDOCK:   -5.11 KCAL/MOL
REMARK 922        TOTAL FREE ENERGY PREDICTED BY IDOCK:   -6.82 KCAL/MOL
REMARK 923 INTER-LIGAND FREE ENERGY PREDICTED BY IDOCK:   -6.24 KCAL/MOL
REMARK 924 INTRA-LIGAND FREE ENERGY PREDICTED BY IDOCK:   -0.58 KCAL/MOL
REMARK 927      BINDING AFFINITY PREDICTED BY RF-SCORE:    0.00 PKD
ROOT
HETATM    1  C   UNL     1      -7.217  17.536  67.950  1.00  0.00    -0.191 C  
HETATM    2  O   UNL     1      -8.304  16.940  68.652  1.00  0.00    -0.243 OA 
ENDROOT
BRANCH   2   3
HETATM    3  C   UNL     1      -9.112  16.115  67.915  1.00  0.00    -0.192 A  
HETATM    4  C   UNL     1     -10.250  16.653  67.301  1.00  0.00    -0.290 A  
HETATM    5  C   UNL     1     -11.103  15.803  66.590  1.00  0.00    -0.099 A  
HETATM    6  C   UNL     1      -9.656  13.904  67.013  1.00  0.00    -0.254 A  
HETATM    7  C   UNL     1     -10.801  14.431  66.428  1.00  0.00    -0.314 A  
HETATM    8  C   UNL     1      -8.830  14.752  67.741  1.00  0.00    -0.175 A  
HETATM    9  C   UNL     1     -11.554  13.507  65.703  1.00  0.00    -0.325 A  
HETATM   10  N   UNL     1     -12.743  13.877  65.064  1.00  0.00    -0.691 NA 
HETATM   11  N   UNL     1     -11.209  12.219  65.575  1.00  0.00    -0.321 NA 
HETATM   12  H1  UNL     1     -13.293  13.202  64.533  1.00  0.00     0.000 HD 
HETATM   13  C   UNL     1     -10.083  11.803  66.171  1.00  0.00    -0.224 A  
HETATM   14  H2  UNL     1     -12.539  14.667  64.451  1.00  0.00     0.000 HD 
HETATM   15  N   UNL     1      -9.308  12.621  66.896  1.00  0.00    -0.222 NA 
BRANCH   4  16
HETATM   16  O   UNL     1     -10.693  17.947  67.356  1.00  0.00    -0.370 OA 
HETATM   17  C   UNL     1     -10.456  18.753  66.207  1.00  0.00    -0.435 C  
ENDBRANCH   4  16
BRANCH  13  18
HETATM   18  N   UNL     1      -9.632  10.515  65.952  1.00  0.00    -0.193 NA 
HETATM   19  C   UNL     1      -8.174   8.990  64.724  1.00  0.00    -0.160 C  
HETATM   20  C   UNL     1      -9.158  10.166  64.612  1.00  0.00    -0.227 C  
HETATM   21  N   UNL     1      -8.750   7.850  65.456  1.00  0.00    -0.123 N  
HETATM   22  C   UNL     1      -9.334   8.201  66.762  1.00  0.00    -0.183 C  
HETATM   23  C   UNL     1      -8.405   6.571  65.051  1.00  0.00    -0.075 C  
HETATM   24  O   UNL     1      -7.718   6.387  64.042  1.00  0.00    -0.093 OA 
HETATM   25  C   UNL     1     -10.282   9.420  66.680  1.00  0.00    -0.249 C  
BRANCH  23  26
HETATM   26  C   UNL     1      -9.001   5.367  65.821  1.00  0.00    -0.158 C  
HETATM   27  C   UNL     1      -9.252   4.182  64.895  1.00  0.00    -0.154 C  
HETATM   28  C   UNL     1      -9.322   3.030  65.858  1.00  0.00    -0.082 C  
HETATM   29  C   UNL     1      -8.286   3.419  66.889  1.00  0.00    -0.092 C  
HETATM   30  O   UNL     1      -8.202   4.852  66.895  1.00  0.00    -0.107 OA 
ENDBRANCH  23  26
ENDBRANCH  13  18
ENDBRANCH   2   3
TORSDOF 4
ENDMDL
MODEL       60
REMARK 921   NORMALIZED FREE ENERGY PREDICTED BY IDOCK:   -5.10 KCAL/MOL
REMARK 922        TOTAL FREE ENERGY PREDICTED BY IDOCK:   -6.81 KCAL/MOL
REMARK 923 INTER-LIGAND FREE ENERGY PREDICTED BY IDOCK:   -6.40 KCAL/MOL
REMARK 924 INTRA-LIGAND FREE ENERGY PREDICTED BY IDOCK:   -0.41 KCAL/MOL
REMARK 927      BINDING AFFINITY PREDICTED BY RF-SCORE:    0.00 PKD
ROOT
HETATM    1  C   UNL     1     -11.670  14.718  70.941  1.00  0.00    -0.307 C  
HETATM    2  O   UNL     1     -12.522  13.922  70.120  1.00  0.00    -0.333 OA 
ENDROOT
BRANCH   2   3
HETATM    3  C   UNL     1     -11.950  13.408  68.986  1.00  0.00    -0.315 A  
HETATM    4  C   UNL     1     -11.585  14.282  67.955  1.00  0.00    -0.332 A  
HETATM    5  C   UNL     1     -11.048  13.755  66.777  1.00  0.00    -0.316 A  
HETATM    6  C   UNL     1     -11.144  11.504  67.673  1.00  0.00    -0.266 A  
HETATM    7  C   UNL     1     -10.809  12.368  66.638  1.00  0.00    -0.281 A  
HETATM    8  C   UNL     1     -11.703  12.036  68.829  1.00  0.00    -0.377 A  
HETATM    9  C   UNL     1     -10.236  11.743  65.530  1.00  0.00    -0.252 A  
HETATM   10  N   UNL     1      -9.854  12.473  64.398  1.00  0.00    -0.551 NA 
HETATM   11  N   UNL     1     -10.023  10.422  65.461  1.00  0.00    -0.267 NA 
HETATM   12  H1  UNL     1      -9.436  12.016  63.588  1.00  0.00     0.000 HD 
HETATM   13  C   UNL     1     -10.374   9.669  66.513  1.00  0.00    -0.194 A  
HETATM   14  H2  UNL     1      -9.224  13.216  64.700  1.00  0.00     0.000 HD 
HETATM   15  N   UNL     1     -10.940  10.186  67.612  1.00  0.00    -0.297 NA 
BRANCH   4  16
HETATM   16  O   UNL     1     -11.746  15.641  67.920  1.00  0.00    -0.262 OA 
HETATM   17  C   UNL     1     -10.687  16.396  67.344  1.00  0.00    -0.278 C  
ENDBRANCH   4  16
BRANCH  13  18
HETATM   18  N   UNL     1     -10.050   8.326  66.527  1.00  0.00    -0.269 NA 
HETATM   19  C   UNL     1     -10.720   6.016  66.947  1.00  0.00    -0.334 C  
HETATM   20  C   UNL     1     -10.737   7.458  67.484  1.00  0.00    -0.240 C  
HETATM   21  N   UNL     1      -9.361   5.562  66.615  1.00  0.00    -0.136 N  
HETATM   22  C   UNL     1      -8.610   6.479  65.741  1.00  0.00    -0.144 C  
HETATM   23  C   UNL     1      -9.042   4.232  66.842  1.00  0.00    -0.135 C  
HETATM   24  O   UNL     1      -9.840   3.474  67.402  1.00  0.00    -0.106 OA 
HETATM   25  C   UNL     1      -8.664   7.944  66.232  1.00  0.00    -0.154 C  
BRANCH  23  26
HETATM   26  C   UNL     1      -7.616   3.744  66.488  1.00  0.00    -0.084 C  
HETATM   27  C   UNL     1      -7.135   2.675  67.462  1.00  0.00    -0.049 C  
HETATM   28  C   UNL     1      -6.035   2.005  66.687  1.00  0.00    -0.022 C  
HETATM   29  C   UNL     1      -6.577   2.041  65.276  1.00  0.00    -0.027 C  
HETATM   30  O   UNL     1      -7.455   3.174  65.182  1.00  0.00    -0.070 OA 
ENDBRANCH  23  26
ENDBRANCH  13  18
ENDBRANCH   2   3
TORSDOF 4
ENDMDL
MODEL       61
REMARK 921   NORMALIZED FREE ENERGY PREDICTED BY IDOCK:   -5.08 KCAL/MOL
REMARK 922        TOTAL FREE ENERGY PREDICTED BY IDOCK:   -6.79 KCAL/MOL
REMARK 923 INTER-LIGAND FREE ENERGY PREDICTED BY IDOCK:   -6.73 KCAL/MOL
REMARK 924 INTRA-LIGAND FREE ENERGY PREDICTED BY IDOCK:   -0.06 KCAL/MOL
REMARK 927      BINDING AFFINITY PREDICTED BY RF-SCORE:    0.00 PKD
ROOT
HETATM    1  C   UNL     1     -12.154  14.440  69.605  1.00  0.00    -0.334 C  
HETATM    2  O   UNL     1     -12.031  14.629  68.198  1.00  0.00    -0.313 OA 
ENDROOT
BRANCH   2   3
HETATM    3  C   UNL     1     -11.506  13.575  67.497  1.00  0.00    -0.329 A  
HETATM    4  C   UNL     1     -10.987  13.805  66.216  1.00  0.00    -0.297 A  
HETATM    5  C   UNL     1     -10.498  12.722  65.479  1.00  0.00    -0.306 A  
HETATM    6  C   UNL     1     -10.947  11.198  67.310  1.00  0.00    -0.296 A  
HETATM    7  C   UNL     1     -10.459  11.420  66.029  1.00  0.00    -0.305 A  
HETATM    8  C   UNL     1     -11.457  12.276  68.023  1.00  0.00    -0.378 A  
HETATM    9  C   UNL     1      -9.950  10.282  65.402  1.00  0.00    -0.302 A  
HETATM   10  N   UNL     1      -9.433  10.335  64.102  1.00  0.00    -0.282 NA 
HETATM   11  N   UNL     1      -9.930   9.073  65.980  1.00  0.00    -0.256 NA 
HETATM   12  H1  UNL     1      -9.060   9.504  63.644  1.00  0.00     0.000 HD 
HETATM   13  C   UNL     1     -10.418   8.958  67.223  1.00  0.00    -0.277 A  
HETATM   14  H2  UNL     1      -8.710  11.055  64.080  1.00  0.00     0.000 HD 
HETATM   15  N   UNL     1     -10.936   9.997  67.892  1.00  0.00    -0.275 NA 
BRANCH   4  16
HETATM   16  O   UNL     1     -10.948  14.991  65.534  1.00  0.00    -0.328 OA 
HETATM   17  C   UNL     1      -9.827  15.832  65.779  1.00  0.00    -0.348 C  
ENDBRANCH   4  16
BRANCH  13  18
HETATM   18  N   UNL     1     -10.293   7.757  67.894  1.00  0.00    -0.211 NA 
HETATM   19  C   UNL     1     -10.933   6.333  69.771  1.00  0.00    -0.378 C  
HETATM   20  C   UNL     1     -10.507   7.747  69.342  1.00  0.00    -0.220 C  
HETATM   21  N   UNL     1      -9.988   5.303  69.313  1.00  0.00    -0.195 N  
HETATM   22  C   UNL     1      -9.672   5.366  67.875  1.00  0.00    -0.136 C  
HETATM   23  C   UNL     1      -9.759   4.211  70.135  1.00  0.00    -0.208 C  
HETATM   24  O   UNL     1     -10.253   4.152  71.265  1.00  0.00    -0.129 OA 
HETATM   25  C   UNL     1      -9.298   6.792  67.411  1.00  0.00    -0.130 C  
BRANCH  23  26
HETATM   26  C   UNL     1      -8.772   3.119  69.656  1.00  0.00    -0.074 C  
HETATM   27  C   UNL     1      -9.391   2.246  68.570  1.00  0.00    -0.250 C  
HETATM   28  C   UNL     1      -8.180   1.640  67.916  1.00  0.00    -0.069 C  
HETATM   29  C   UNL     1      -7.186   2.778  67.978  1.00  0.00    -0.049 C  
HETATM   30  O   UNL     1      -7.532   3.590  69.111  1.00  0.00    -0.052 OA 
ENDBRANCH  23  26
ENDBRANCH  13  18
ENDBRANCH   2   3
TORSDOF 4
ENDMDL
MODEL       62
REMARK 921   NORMALIZED FREE ENERGY PREDICTED BY IDOCK:   -4.99 KCAL/MOL
REMARK 922        TOTAL FREE ENERGY PREDICTED BY IDOCK:   -6.68 KCAL/MOL
REMARK 923 INTER-LIGAND FREE ENERGY PREDICTED BY IDOCK:   -6.20 KCAL/MOL
REMARK 924 INTRA-LIGAND FREE ENERGY PREDICTED BY IDOCK:   -0.48 KCAL/MOL
REMARK 927      BINDING AFFINITY PREDICTED BY RF-SCORE:    0.00 PKD
ROOT
HETATM    1  C   UNL     1     -10.776  19.585  66.925  1.00  0.00    -0.464 C  
HETATM    2  O   UNL     1     -10.503  18.862  68.122  1.00  0.00    -0.374 OA 
ENDROOT
BRANCH   2   3
HETATM    3  C   UNL     1      -9.571  17.863  68.019  1.00  0.00    -0.290 A  
HETATM    4  C   UNL     1      -8.212  18.200  68.021  1.00  0.00    -0.260 A  
HETATM    5  C   UNL     1      -7.262  17.187  67.865  1.00  0.00    -0.177 A  
HETATM    6  C   UNL     1      -8.994  15.493  67.799  1.00  0.00    -0.173 A  
HETATM    7  C   UNL     1      -7.647  15.830  67.771  1.00  0.00    -0.157 A  
HETATM    8  C   UNL     1      -9.932  16.510  67.926  1.00  0.00    -0.245 A  
HETATM    9  C   UNL     1      -6.783  14.740  67.661  1.00  0.00    -0.176 A  
HETATM   10  N   UNL     1      -5.395  14.912  67.607  1.00  0.00    -0.329 NA 
HETATM   11  N   UNL     1      -7.209  13.471  67.588  1.00  0.00    -0.157 NA 
HETATM   12  H1  UNL     1      -4.763  14.115  67.527  1.00  0.00     0.000 HD 
HETATM   13  C   UNL     1      -8.529  13.244  67.628  1.00  0.00    -0.191 A  
HETATM   14  H2  UNL     1      -5.113  15.455  68.423  1.00  0.00     0.000 HD 
HETATM   15  N   UNL     1      -9.428  14.232  67.721  1.00  0.00    -0.211 NA 
BRANCH   4  16
HETATM   16  O   UNL     1      -7.666  19.453  68.099  1.00  0.00    -0.286 OA 
HETATM   17  C   UNL     1      -6.249  19.527  68.207  1.00  0.00    -0.229 C  
ENDBRANCH   4  16
BRANCH  13  18
HETATM   18  N   UNL     1      -8.993  11.943  67.685  1.00  0.00    -0.163 NA 
HETATM   19  C   UNL     1      -9.902  10.103  69.007  1.00  0.00    -0.205 C  
HETATM   20  C   UNL     1      -8.830  11.204  68.938  1.00  0.00    -0.079 C  
HETATM   21  N   UNL     1      -9.892   9.241  67.815  1.00  0.00    -0.164 N  
HETATM   22  C   UNL     1      -9.943   9.973  66.537  1.00  0.00    -0.225 C  
HETATM   23  C   UNL     1     -10.177   7.895  67.977  1.00  0.00    -0.208 C  
HETATM   24  O   UNL     1     -10.332   7.409  69.102  1.00  0.00    -0.198 OA 
HETATM   25  C   UNL     1      -8.912  11.123  66.471  1.00  0.00    -0.178 C  
BRANCH  23  26
HETATM   26  C   UNL     1     -10.177   6.983  66.726  1.00  0.00    -0.211 C  
HETATM   27  C   UNL     1      -8.801   6.377  66.477  1.00  0.00    -0.140 C  
HETATM   28  C   UNL     1      -9.122   5.197  65.602  1.00  0.00    -0.161 C  
HETATM   29  C   UNL     1     -10.441   4.731  66.175  1.00  0.00    -0.290 C  
HETATM   30  O   UNL     1     -11.085   5.875  66.758  1.00  0.00    -0.262 OA 
ENDBRANCH  23  26
ENDBRANCH  13  18
ENDBRANCH   2   3
TORSDOF 4
ENDMDL
MODEL       63
REMARK 921   NORMALIZED FREE ENERGY PREDICTED BY IDOCK:   -4.98 KCAL/MOL
REMARK 922        TOTAL FREE ENERGY PREDICTED BY IDOCK:   -6.67 KCAL/MOL
REMARK 923 INTER-LIGAND FREE ENERGY PREDICTED BY IDOCK:   -6.12 KCAL/MOL
REMARK 924 INTRA-LIGAND FREE ENERGY PREDICTED BY IDOCK:   -0.55 KCAL/MOL
REMARK 927      BINDING AFFINITY PREDICTED BY RF-SCORE:    0.00 PKD
ROOT
HETATM    1  C   UNL     1     -12.516  13.267  63.134  1.00  0.00     0.031 C  
HETATM    2  O   UNL     1     -12.255  14.553  63.690  1.00  0.00    -0.566 OA 
ENDROOT
BRANCH   2   3
HETATM    3  C   UNL     1     -11.350  14.588  64.719  1.00  0.00    -0.396 A  
HETATM    4  C   UNL     1     -10.809  15.820  65.104  1.00  0.00    -0.428 A  
HETATM    5  C   UNL     1      -9.849  15.852  66.119  1.00  0.00    -0.343 A  
HETATM    6  C   UNL     1     -10.027  13.456  66.441  1.00  0.00    -0.293 A  
HETATM    7  C   UNL     1      -9.467  14.675  66.803  1.00  0.00    -0.275 A  
HETATM    8  C   UNL     1     -10.959  13.432  65.412  1.00  0.00    -0.297 A  
HETATM    9  C   UNL     1      -8.558  14.600  67.859  1.00  0.00    -0.165 A  
HETATM   10  N   UNL     1      -7.897  15.738  68.334  1.00  0.00    -0.132 NA 
HETATM   11  N   UNL     1      -8.245  13.453  68.477  1.00  0.00    -0.130 NA 
HETATM   12  H1  UNL     1      -7.232  15.684  69.106  1.00  0.00     0.000 HD 
HETATM   13  C   UNL     1      -8.841  12.327  68.061  1.00  0.00    -0.182 A  
HETATM   14  H2  UNL     1      -8.603  16.434  68.577  1.00  0.00     0.000 HD 
HETATM   15  N   UNL     1      -9.717  12.308  67.048  1.00  0.00    -0.201 NA 
BRANCH   4  16
HETATM   16  O   UNL     1     -11.060  17.048  64.553  1.00  0.00    -1.098 OA 
HETATM   17  C   UNL     1     -10.712  18.184  65.336  1.00  0.00     0.202 C  
ENDBRANCH   4  16
BRANCH  13  18
HETATM   18  N   UNL     1      -8.639  11.152  68.760  1.00  0.00    -0.155 NA 
HETATM   19  C   UNL     1      -7.122   9.677  69.978  1.00  0.00    -0.104 C  
HETATM   20  C   UNL     1      -7.308  10.543  68.721  1.00  0.00    -0.092 C  
HETATM   21  N   UNL     1      -8.208   8.699  70.146  1.00  0.00    -0.116 N  
HETATM   22  C   UNL     1      -9.561   9.277  70.077  1.00  0.00    -0.209 C  
HETATM   23  C   UNL     1      -7.895   7.457  70.676  1.00  0.00    -0.097 C  
HETATM   24  O   UNL     1      -6.723   7.141  70.904  1.00  0.00    -0.051 OA 
HETATM   25  C   UNL     1      -9.750  10.199  68.850  1.00  0.00    -0.187 C  
BRANCH  23  26
HETATM   26  C   UNL     1      -9.033   6.425  70.864  1.00  0.00    -0.144 C  
HETATM   27  C   UNL     1      -9.152   5.500  69.658  1.00  0.00    -0.152 C  
HETATM   28  C   UNL     1      -9.901   4.327  70.226  1.00  0.00    -0.263 C  
HETATM   29  C   UNL     1      -9.336   4.240  71.626  1.00  0.00    -0.139 C  
HETATM   30  O   UNL     1      -8.915   5.561  72.001  1.00  0.00    -0.134 OA 
ENDBRANCH  23  26
ENDBRANCH  13  18
ENDBRANCH   2   3
TORSDOF 4
ENDMDL
MODEL       64
REMARK 921   NORMALIZED FREE ENERGY PREDICTED BY IDOCK:   -4.98 KCAL/MOL
REMARK 922        TOTAL FREE ENERGY PREDICTED BY IDOCK:   -6.67 KCAL/MOL
REMARK 923 INTER-LIGAND FREE ENERGY PREDICTED BY IDOCK:   -6.26 KCAL/MOL
REMARK 924 INTRA-LIGAND FREE ENERGY PREDICTED BY IDOCK:   -0.40 KCAL/MOL
REMARK 927      BINDING AFFINITY PREDICTED BY RF-SCORE:    0.00 PKD
ROOT
HETATM    1  C   UNL     1     -10.909  19.450  66.844  1.00  0.00    -0.404 C  
HETATM    2  O   UNL     1     -10.397  18.610  65.813  1.00  0.00    -0.573 OA 
ENDROOT
BRANCH   2   3
HETATM    3  C   UNL     1      -9.495  17.658  66.209  1.00  0.00    -0.215 A  
HETATM    4  C   UNL     1      -8.182  18.048  66.499  1.00  0.00    -0.271 A  
HETATM    5  C   UNL     1      -7.247  17.072  66.855  1.00  0.00    -0.244 A  
HETATM    6  C   UNL     1      -8.931  15.332  66.730  1.00  0.00    -0.262 A  
HETATM    7  C   UNL     1      -7.621  15.714  66.989  1.00  0.00    -0.245 A  
HETATM    8  C   UNL     1      -9.845  16.307  66.350  1.00  0.00    -0.310 A  
HETATM    9  C   UNL     1      -6.784  14.670  67.383  1.00  0.00    -0.009 A  
HETATM   10  N   UNL     1      -5.431  14.887  67.668  1.00  0.00    -0.329 NA 
HETATM   11  N   UNL     1      -7.200  13.402  67.503  1.00  0.00    -0.166 NA 
HETATM   12  H1  UNL     1      -4.819  14.124  67.956  1.00  0.00     0.000 HD 
HETATM   13  C   UNL     1      -8.485  13.130  67.236  1.00  0.00    -0.198 A  
HETATM   14  H2  UNL     1      -5.372  15.621  68.375  1.00  0.00     0.000 HD 
HETATM   15  N   UNL     1      -9.353  14.071  66.841  1.00  0.00    -0.248 NA 
BRANCH   4  16
HETATM   16  O   UNL     1      -7.651  19.307  66.420  1.00  0.00    -0.241 OA 
HETATM   17  C   UNL     1      -6.701  19.536  65.385  1.00  0.00    -0.279 C  
ENDBRANCH   4  16
BRANCH  13  18
HETATM   18  N   UNL     1      -8.975  11.860  67.476  1.00  0.00    -0.166 NA 
HETATM   19  C   UNL     1     -10.483  10.401  68.723  1.00  0.00    -0.199 C  
HETATM   20  C   UNL     1      -9.464  11.549  68.820  1.00  0.00    -0.089 C  
HETATM   21  N   UNL     1      -9.941   9.233  68.013  1.00  0.00    -0.173 N  
HETATM   22  C   UNL     1      -9.343   9.543  66.703  1.00  0.00    -0.161 C  
HETATM   23  C   UNL     1     -10.326   7.971  68.437  1.00  0.00    -0.199 C  
HETATM   24  O   UNL     1     -11.022   7.825  69.447  1.00  0.00    -0.165 OA 
HETATM   25  C   UNL     1      -8.358  10.733  66.767  1.00  0.00    -0.136 C  
BRANCH  23  26
HETATM   26  C   UNL     1      -9.766   6.737  67.689  1.00  0.00    -0.126 C  
HETATM   27  C   UNL     1      -9.830   5.484  68.555  1.00  0.00    -0.193 C  
HETATM   28  C   UNL     1      -9.744   4.383  67.535  1.00  0.00    -0.211 C  
HETATM   29  C   UNL     1     -10.530   4.962  66.380  1.00  0.00    -0.280 C  
HETATM   30  O   UNL     1     -10.428   6.392  66.465  1.00  0.00    -0.170 OA 
ENDBRANCH  23  26
ENDBRANCH  13  18
ENDBRANCH   2   3
TORSDOF 4
ENDMDL
MODEL       65
REMARK 921   NORMALIZED FREE ENERGY PREDICTED BY IDOCK:   -4.96 KCAL/MOL
REMARK 922        TOTAL FREE ENERGY PREDICTED BY IDOCK:   -6.64 KCAL/MOL
REMARK 923 INTER-LIGAND FREE ENERGY PREDICTED BY IDOCK:   -6.14 KCAL/MOL
REMARK 924 INTRA-LIGAND FREE ENERGY PREDICTED BY IDOCK:   -0.51 KCAL/MOL
REMARK 927      BINDING AFFINITY PREDICTED BY RF-SCORE:    0.00 PKD
ROOT
HETATM    1  C   UNL     1      -8.823   1.782  71.626  1.00  0.00    -0.064 C  
HETATM    2  O   UNL     1      -9.813   2.643  72.183  1.00  0.00    -0.144 OA 
ENDROOT
BRANCH   2   3
HETATM    3  C   UNL     1      -9.498   3.976  72.214  1.00  0.00    -0.130 A  
HETATM    4  C   UNL     1      -8.692   4.458  73.252  1.00  0.00    -0.100 A  
HETATM    5  C   UNL     1      -8.412   5.826  73.313  1.00  0.00    -0.116 A  
HETATM    6  C   UNL     1      -9.647   6.229  71.267  1.00  0.00    -0.174 A  
HETATM    7  C   UNL     1      -8.872   6.714  72.313  1.00  0.00    -0.133 A  
HETATM    8  C   UNL     1      -9.943   4.873  71.231  1.00  0.00    -0.271 A  
HETATM    9  C   UNL     1      -8.612   8.083  72.251  1.00  0.00    -0.157 A  
HETATM   10  N   UNL     1      -7.856   8.727  73.237  1.00  0.00    -0.389 NA 
HETATM   11  N   UNL     1      -9.067   8.872  71.268  1.00  0.00    -0.239 NA 
HETATM   12  H1  UNL     1      -7.665   9.728  73.192  1.00  0.00     0.000 HD 
HETATM   13  C   UNL     1      -9.803   8.313  70.298  1.00  0.00    -0.184 A  
HETATM   14  H2  UNL     1      -6.962   8.241  73.317  1.00  0.00     0.000 HD 
HETATM   15  N   UNL     1     -10.110   7.009  70.287  1.00  0.00    -0.187 NA 
BRANCH   4  16
HETATM   16  O   UNL     1      -8.167   3.747  74.297  1.00  0.00    -0.081 OA 
HETATM   17  C   UNL     1      -6.825   3.297  74.155  1.00  0.00    -0.040 C  
ENDBRANCH   4  16
BRANCH  13  18
HETATM   18  N   UNL     1     -10.177   9.072  69.205  1.00  0.00    -0.199 NA 
HETATM   19  C   UNL     1     -10.365   9.300  66.782  1.00  0.00    -0.226 C  
HETATM   20  C   UNL     1      -9.455   8.879  67.948  1.00  0.00    -0.142 C  
HETATM   21  N   UNL     1     -10.891  10.664  66.951  1.00  0.00    -0.238 N  
HETATM   22  C   UNL     1     -11.525  10.913  68.257  1.00  0.00    -0.305 C  
HETATM   23  C   UNL     1     -11.056  11.446  65.819  1.00  0.00    -0.153 C  
HETATM   24  O   UNL     1     -10.678  11.051  64.712  1.00  0.00    -0.309 OA 
HETATM   25  C   UNL     1     -10.649  10.441  69.441  1.00  0.00    -0.239 C  
BRANCH  23  26
HETATM   26  C   UNL     1     -11.617  12.880  65.987  1.00  0.00    -0.375 C  
HETATM   27  C   UNL     1     -10.513  13.926  65.879  1.00  0.00    -0.309 C  
HETATM   28  C   UNL     1     -11.286  15.176  65.560  1.00  0.00    -0.320 C  
HETATM   29  C   UNL     1     -12.389  14.646  64.672  1.00  0.00    -0.375 C  
HETATM   30  O   UNL     1     -12.618  13.277  65.041  1.00  0.00    -0.538 OA 
ENDBRANCH  23  26
ENDBRANCH  13  18
ENDBRANCH   2   3
TORSDOF 4
ENDMDL
MODEL       66
REMARK 921   NORMALIZED FREE ENERGY PREDICTED BY IDOCK:   -4.94 KCAL/MOL
REMARK 922        TOTAL FREE ENERGY PREDICTED BY IDOCK:   -6.61 KCAL/MOL
REMARK 923 INTER-LIGAND FREE ENERGY PREDICTED BY IDOCK:   -6.11 KCAL/MOL
REMARK 924 INTRA-LIGAND FREE ENERGY PREDICTED BY IDOCK:   -0.50 KCAL/MOL
REMARK 927      BINDING AFFINITY PREDICTED BY RF-SCORE:    0.00 PKD
ROOT
HETATM    1  C   UNL     1      -7.882   3.223  64.819  1.00  0.00    -0.078 C  
HETATM    2  O   UNL     1      -9.167   3.095  65.423  1.00  0.00    -0.147 OA 
ENDROOT
BRANCH   2   3
HETATM    3  C   UNL     1      -9.468   4.017  66.391  1.00  0.00    -0.191 A  
HETATM    4  C   UNL     1      -9.511   3.606  67.729  1.00  0.00    -0.179 A  
HETATM    5  C   UNL     1      -9.867   4.533  68.712  1.00  0.00    -0.180 A  
HETATM    6  C   UNL     1     -10.047   6.300  67.062  1.00  0.00    -0.176 A  
HETATM    7  C   UNL     1     -10.119   5.886  68.385  1.00  0.00    -0.206 A  
HETATM    8  C   UNL     1      -9.719   5.364  66.089  1.00  0.00    -0.165 A  
HETATM    9  C   UNL     1     -10.434   6.901  69.290  1.00  0.00    -0.214 A  
HETATM   10  N   UNL     1     -10.557   6.645  70.660  1.00  0.00    -0.220 NA 
HETATM   11  N   UNL     1     -10.650   8.171  68.920  1.00  0.00    -0.184 NA 
HETATM   12  H1  UNL     1     -10.787   7.386  71.321  1.00  0.00     0.000 HD 
HETATM   13  C   UNL     1     -10.553   8.477  67.619  1.00  0.00    -0.198 A  
HETATM   14  H2  UNL     1      -9.695   6.199  70.976  1.00  0.00     0.000 HD 
HETATM   15  N   UNL     1     -10.266   7.562  66.684  1.00  0.00    -0.231 NA 
BRANCH   4  16
HETATM   16  O   UNL     1      -9.301   2.345  68.219  1.00  0.00    -0.188 OA 
HETATM   17  C   UNL     1      -9.391   2.185  69.630  1.00  0.00    -0.088 C  
ENDBRANCH   4  16
BRANCH  13  18
HETATM   18  N   UNL     1     -10.642   9.797  67.222  1.00  0.00    -0.264 NA 
HETATM   19  C   UNL     1     -10.670  11.442  65.419  1.00  0.00    -0.253 C  
HETATM   20  C   UNL     1      -9.970  10.195  65.985  1.00  0.00    -0.256 C  
HETATM   21  N   UNL     1     -10.761  12.527  66.409  1.00  0.00    -0.245 N  
HETATM   22  C   UNL     1     -11.334  12.120  67.704  1.00  0.00    -0.314 C  
HETATM   23  C   UNL     1     -10.643  13.833  65.962  1.00  0.00    -0.290 C  
HETATM   24  O   UNL     1     -10.366  14.079  64.784  1.00  0.00    -0.423 OA 
HETATM   25  C   UNL     1     -10.683  10.833  68.261  1.00  0.00    -0.213 C  
BRANCH  23  26
HETATM   26  C   UNL     1     -10.747  14.980  66.996  1.00  0.00    -0.304 C  
HETATM   27  C   UNL     1      -9.495  15.066  67.861  1.00  0.00    -0.195 C  
HETATM   28  C   UNL     1      -9.569  16.469  68.396  1.00  0.00    -0.233 C  
HETATM   29  C   UNL     1     -10.146  17.224  67.220  1.00  0.00    -0.300 C  
HETATM   30  O   UNL     1     -10.934  16.296  66.458  1.00  0.00    -0.177 OA 
ENDBRANCH  23  26
ENDBRANCH  13  18
ENDBRANCH   2   3
TORSDOF 4
ENDMDL
MODEL       67
REMARK 921   NORMALIZED FREE ENERGY PREDICTED BY IDOCK:   -4.93 KCAL/MOL
REMARK 922        TOTAL FREE ENERGY PREDICTED BY IDOCK:   -6.60 KCAL/MOL
REMARK 923 INTER-LIGAND FREE ENERGY PREDICTED BY IDOCK:   -7.57 KCAL/MOL
REMARK 924 INTRA-LIGAND FREE ENERGY PREDICTED BY IDOCK:    0.97 KCAL/MOL
REMARK 927      BINDING AFFINITY PREDICTED BY RF-SCORE:    0.00 PKD
ROOT
HETATM    1  C   UNL     1     -10.434  17.699  68.829  1.00  0.00    -0.287 C  
HETATM    2  O   UNL     1      -9.829  17.592  67.542  1.00  0.00    -0.278 OA 
ENDROOT
BRANCH   2   3
HETATM    3  C   UNL     1     -10.199  16.504  66.796  1.00  0.00    -0.295 A  
HETATM    4  C   UNL     1     -10.733  16.709  65.518  1.00  0.00    -0.223 A  
HETATM    5  C   UNL     1     -11.157  15.603  64.775  1.00  0.00    -0.426 A  
HETATM    6  C   UNL     1     -10.438  14.082  66.521  1.00  0.00    -0.281 A  
HETATM    7  C   UNL     1     -10.995  14.286  65.265  1.00  0.00    -0.347 A  
HETATM    8  C   UNL     1     -10.046  15.190  67.262  1.00  0.00    -0.235 A  
HETATM    9  C   UNL     1     -11.338  13.114  64.590  1.00  0.00    -0.333 A  
HETATM   10  N   UNL     1     -11.923  13.149  63.319  1.00  0.00    -0.806 NA 
HETATM   11  N   UNL     1     -11.149  11.891  65.103  1.00  0.00    -0.311 NA 
HETATM   12  H1  UNL     1     -12.174  12.292  62.825  1.00  0.00     0.000 HD 
HETATM   13  C   UNL     1     -10.599  11.793  66.321  1.00  0.00    -0.252 A  
HETATM   14  H2  UNL     1     -11.317  13.697  62.708  1.00  0.00     0.000 HD 
HETATM   15  N   UNL     1     -10.251  12.867  67.042  1.00  0.00    -0.241 NA 
BRANCH   4  16
HETATM   16  O   UNL     1     -10.962  17.905  64.894  1.00  0.00    -0.827 OA 
HETATM   17  C   UNL     1     -10.771  19.080  65.673  1.00  0.00    -0.182 C  
ENDBRANCH   4  16
BRANCH  13  18
HETATM   18  N   UNL     1     -10.272  10.548  66.822  1.00  0.00    -0.226 NA 
HETATM   19  C   UNL     1      -9.868   9.110  68.754  1.00  0.00    -0.167 C  
HETATM   20  C   UNL     1      -9.584  10.479  68.112  1.00  0.00    -0.154 C  
HETATM   21  N   UNL     1      -9.536   7.994  67.854  1.00  0.00    -0.152 N  
HETATM   22  C   UNL     1     -10.130   8.101  66.510  1.00  0.00    -0.216 C  
HETATM   23  C   UNL     1      -9.022   6.834  68.411  1.00  0.00    -0.124 C  
HETATM   24  O   UNL     1      -8.752   6.773  69.615  1.00  0.00    -0.135 OA 
HETATM   25  C   UNL     1      -9.907   9.491  65.872  1.00  0.00    -0.290 C  
BRANCH  23  26
HETATM   26  C   UNL     1      -8.679   5.652  67.472  1.00  0.00    -0.107 C  
HETATM   27  C   UNL     1      -9.877   4.731  67.274  1.00  0.00    -0.218 C  
HETATM   28  C   UNL     1      -9.520   4.006  66.007  1.00  0.00    -0.186 C  
HETATM   29  C   UNL     1      -8.822   5.086  65.212  1.00  0.00    -0.153 C  
HETATM   30  O   UNL     1      -8.244   6.006  66.152  1.00  0.00    -0.113 OA 
ENDBRANCH  23  26
ENDBRANCH  13  18
ENDBRANCH   2   3
TORSDOF 4
ENDMDL
MODEL       68
REMARK 921   NORMALIZED FREE ENERGY PREDICTED BY IDOCK:   -4.90 KCAL/MOL
REMARK 922        TOTAL FREE ENERGY PREDICTED BY IDOCK:   -6.57 KCAL/MOL
REMARK 923 INTER-LIGAND FREE ENERGY PREDICTED BY IDOCK:   -6.48 KCAL/MOL
REMARK 924 INTRA-LIGAND FREE ENERGY PREDICTED BY IDOCK:   -0.10 KCAL/MOL
REMARK 927      BINDING AFFINITY PREDICTED BY RF-SCORE:    0.00 PKD
ROOT
HETATM    1  C   UNL     1      -9.617  11.782  65.228  1.00  0.00    -0.168 C  
HETATM    2  O   UNL     1      -9.249  12.397  66.460  1.00  0.00    -0.227 OA 
ENDROOT
BRANCH   2   3
HETATM    3  C   UNL     1      -9.969  12.014  67.560  1.00  0.00    -0.192 A  
HETATM    4  C   UNL     1     -10.930  12.890  68.079  1.00  0.00    -0.247 A  
HETATM    5  C   UNL     1     -11.631  12.522  69.232  1.00  0.00    -0.378 A  
HETATM    6  C   UNL     1     -10.500  10.379  69.305  1.00  0.00    -0.234 A  
HETATM    7  C   UNL     1     -11.433  11.260  69.838  1.00  0.00    -0.373 A  
HETATM    8  C   UNL     1      -9.789  10.767  68.176  1.00  0.00    -0.171 A  
HETATM    9  C   UNL     1     -12.110  10.774  70.957  1.00  0.00    -0.346 A  
HETATM   10  N   UNL     1     -13.072  11.546  71.619  1.00  0.00    -0.439 NA 
HETATM   11  N   UNL     1     -11.885   9.561  71.480  1.00  0.00    -0.381 NA 
HETATM   12  H1  UNL     1     -13.567  11.191  72.437  1.00  0.00     0.000 HD 
HETATM   13  C   UNL     1     -10.970   8.779  70.893  1.00  0.00    -0.262 A  
HETATM   14  H2  UNL     1     -13.768  11.837  70.933  1.00  0.00     0.000 HD 
HETATM   15  N   UNL     1     -10.266   9.171  69.822  1.00  0.00    -0.198 NA 
BRANCH   4  16
HETATM   16  O   UNL     1     -11.248  14.142  67.625  1.00  0.00    -0.276 OA 
HETATM   17  C   UNL     1     -12.168  14.215  66.542  1.00  0.00    -0.433 C  
ENDBRANCH   4  16
BRANCH  13  18
HETATM   18  N   UNL     1     -10.808   7.477  71.327  1.00  0.00    -0.233 NA 
HETATM   19  C   UNL     1     -11.433   5.695  72.876  1.00  0.00    -0.243 C  
HETATM   20  C   UNL     1     -11.060   7.182  72.738  1.00  0.00    -0.300 C  
HETATM   21  N   UNL     1     -10.428   4.811  72.264  1.00  0.00    -0.204 N  
HETATM   22  C   UNL     1     -10.077   5.160  70.876  1.00  0.00    -0.232 C  
HETATM   23  C   UNL     1     -10.172   3.592  72.871  1.00  0.00    -0.163 C  
HETATM   24  O   UNL     1     -10.694   3.298  73.951  1.00  0.00    -0.178 OA 
HETATM   25  C   UNL     1      -9.757   6.663  70.706  1.00  0.00    -0.179 C  
BRANCH  23  26
HETATM   26  C   UNL     1      -9.123   2.653  72.229  1.00  0.00    -0.084 C  
HETATM   27  C   UNL     1      -9.705   1.898  71.038  1.00  0.00    -0.161 C  
HETATM   28  C   UNL     1      -8.471   1.479  70.289  1.00  0.00    -0.076 C  
HETATM   29  C   UNL     1      -7.557   2.666  70.498  1.00  0.00    -0.043 C  
HETATM   30  O   UNL     1      -7.932   3.284  71.739  1.00  0.00    -0.056 OA 
ENDBRANCH  23  26
ENDBRANCH  13  18
ENDBRANCH   2   3
TORSDOF 4
ENDMDL
MODEL       69
REMARK 921   NORMALIZED FREE ENERGY PREDICTED BY IDOCK:   -4.87 KCAL/MOL
REMARK 922        TOTAL FREE ENERGY PREDICTED BY IDOCK:   -6.52 KCAL/MOL
REMARK 923 INTER-LIGAND FREE ENERGY PREDICTED BY IDOCK:   -5.95 KCAL/MOL
REMARK 924 INTRA-LIGAND FREE ENERGY PREDICTED BY IDOCK:   -0.57 KCAL/MOL
REMARK 927      BINDING AFFINITY PREDICTED BY RF-SCORE:    0.00 PKD
ROOT
HETATM    1  C   UNL     1     -10.731  19.525  66.156  1.00  0.00    -0.428 C  
HETATM    2  O   UNL     1      -9.429  19.135  65.727  1.00  0.00    -0.398 OA 
ENDROOT
BRANCH   2   3
HETATM    3  C   UNL     1      -8.700  18.398  66.623  1.00  0.00    -0.286 A  
HETATM    4  C   UNL     1      -7.874  19.065  67.537  1.00  0.00    -0.240 A  
HETATM    5  C   UNL     1      -7.091  18.313  68.417  1.00  0.00    -0.264 A  
HETATM    6  C   UNL     1      -8.010  16.241  67.556  1.00  0.00    -0.151 A  
HETATM    7  C   UNL     1      -7.168  16.901  68.443  1.00  0.00    -0.195 A  
HETATM    8  C   UNL     1      -8.762  16.997  66.666  1.00  0.00    -0.282 A  
HETATM    9  C   UNL     1      -6.470  16.058  69.308  1.00  0.00    -0.169 A  
HETATM   10  N   UNL     1      -5.572  16.567  70.254  1.00  0.00    -0.197 NA 
HETATM   11  N   UNL     1      -6.595  14.724  69.292  1.00  0.00    -0.117 NA 
HETATM   12  H1  UNL     1      -5.062  15.951  70.887  1.00  0.00     0.000 HD 
HETATM   13  C   UNL     1      -7.436  14.178  68.404  1.00  0.00    -0.124 A  
HETATM   14  H2  UNL     1      -6.067  17.257  70.819  1.00  0.00     0.000 HD 
HETATM   15  N   UNL     1      -8.136  14.912  67.529  1.00  0.00    -0.167 NA 
BRANCH   4  16
HETATM   16  O   UNL     1      -7.677  20.414  67.649  1.00  0.00    -0.304 OA 
HETATM   17  C   UNL     1      -6.673  20.985  66.817  1.00  0.00    -0.290 C  
ENDBRANCH   4  16
BRANCH  13  18
HETATM   18  N   UNL     1      -7.684  12.819  68.448  1.00  0.00    -0.131 NA 
HETATM   19  C   UNL     1      -6.841  10.547  68.747  1.00  0.00    -0.060 C  
HETATM   20  C   UNL     1      -6.607  11.906  68.064  1.00  0.00    -0.063 C  
HETATM   21  N   UNL     1      -8.185  10.013  68.476  1.00  0.00    -0.105 N  
HETATM   22  C   UNL     1      -9.281  10.959  68.751  1.00  0.00    -0.183 C  
HETATM   23  C   UNL     1      -8.329   8.642  68.335  1.00  0.00    -0.127 C  
HETATM   24  O   UNL     1      -7.344   7.897  68.333  1.00  0.00    -0.096 OA 
HETATM   25  C   UNL     1      -9.035  12.350  68.122  1.00  0.00    -0.196 C  
BRANCH  23  26
HETATM   26  C   UNL     1      -9.741   8.072  68.059  1.00  0.00    -0.160 C  
HETATM   27  C   UNL     1      -9.700   6.961  67.016  1.00  0.00    -0.210 C  
HETATM   28  C   UNL     1     -10.992   6.235  67.267  1.00  0.00    -0.455 C  
HETATM   29  C   UNL     1     -11.117   6.326  68.771  1.00  0.00    -0.346 C  
HETATM   30  O   UNL     1     -10.424   7.513  69.189  1.00  0.00    -0.213 OA 
ENDBRANCH  23  26
ENDBRANCH  13  18
ENDBRANCH   2   3
TORSDOF 4
ENDMDL
MODEL       70
REMARK 921   NORMALIZED FREE ENERGY PREDICTED BY IDOCK:   -4.85 KCAL/MOL
REMARK 922        TOTAL FREE ENERGY PREDICTED BY IDOCK:   -6.51 KCAL/MOL
REMARK 923 INTER-LIGAND FREE ENERGY PREDICTED BY IDOCK:   -5.97 KCAL/MOL
REMARK 924 INTRA-LIGAND FREE ENERGY PREDICTED BY IDOCK:   -0.54 KCAL/MOL
REMARK 927      BINDING AFFINITY PREDICTED BY RF-SCORE:    0.00 PKD
ROOT
HETATM    1  C   UNL     1      -6.331   5.450  71.961  1.00  0.00    -0.039 C  
HETATM    2  O   UNL     1      -7.252   4.550  71.352  1.00  0.00    -0.048 OA 
ENDROOT
BRANCH   2   3
HETATM    3  C   UNL     1      -8.088   5.094  70.412  1.00  0.00    -0.090 A  
HETATM    4  C   UNL     1      -8.798   4.239  69.560  1.00  0.00    -0.091 A  
HETATM    5  C   UNL     1      -9.612   4.793  68.568  1.00  0.00    -0.218 A  
HETATM    6  C   UNL     1      -9.097   7.039  69.319  1.00  0.00    -0.137 A  
HETATM    7  C   UNL     1      -9.779   6.193  68.454  1.00  0.00    -0.133 A  
HETATM    8  C   UNL     1      -8.268   6.479  70.283  1.00  0.00    -0.126 A  
HETATM    9  C   UNL     1     -10.600   6.847  67.535  1.00  0.00    -0.281 A  
HETATM   10  N   UNL     1     -11.344   6.136  66.587  1.00  0.00    -0.706 NA 
HETATM   11  N   UNL     1     -10.725   8.180  67.484  1.00  0.00    -0.213 NA 
HETATM   12  H1  UNL     1     -11.944   6.614  65.915  1.00  0.00     0.000 HD 
HETATM   13  C   UNL     1     -10.031   8.915  68.363  1.00  0.00    -0.178 A  
HETATM   14  H2  UNL     1     -11.913   5.450  67.083  1.00  0.00     0.000 HD 
HETATM   15  N   UNL     1      -9.212   8.369  69.271  1.00  0.00    -0.154 NA 
BRANCH   4  16
HETATM   16  O   UNL     1      -8.754   2.871  69.528  1.00  0.00    -0.063 OA 
HETATM   17  C   UNL     1      -9.527   2.230  68.520  1.00  0.00    -0.149 C  
ENDBRANCH   4  16
BRANCH  13  18
HETATM   18  N   UNL     1     -10.238  10.280  68.422  1.00  0.00    -0.160 NA 
HETATM   19  C   UNL     1     -11.551  12.164  69.252  1.00  0.00    -0.318 C  
HETATM   20  C   UNL     1     -11.605  10.766  68.612  1.00  0.00    -0.272 C  
HETATM   21  N   UNL     1     -10.702  13.092  68.490  1.00  0.00    -0.254 N  
HETATM   22  C   UNL     1      -9.355  12.576  68.191  1.00  0.00    -0.210 C  
HETATM   23  C   UNL     1     -11.080  14.424  68.426  1.00  0.00    -0.255 C  
HETATM   24  O   UNL     1     -12.153  14.803  68.906  1.00  0.00    -0.279 OA 
HETATM   25  C   UNL     1      -9.385  11.147  67.601  1.00  0.00    -0.165 C  
BRANCH  23  26
HETATM   26  C   UNL     1     -10.187  15.409  67.633  1.00  0.00    -0.246 C  
HETATM   27  C   UNL     1     -10.719  15.633  66.223  1.00  0.00    -0.295 C  
HETATM   28  C   UNL     1     -10.064  16.928  65.833  1.00  0.00    -0.302 C  
HETATM   29  C   UNL     1     -10.065  17.687  67.142  1.00  0.00    -0.328 C  
HETATM   30  O   UNL     1     -10.039  16.717  68.201  1.00  0.00    -0.260 OA 
ENDBRANCH  23  26
ENDBRANCH  13  18
ENDBRANCH   2   3
TORSDOF 4
ENDMDL
MODEL       71
REMARK 921   NORMALIZED FREE ENERGY PREDICTED BY IDOCK:   -4.80 KCAL/MOL
REMARK 922        TOTAL FREE ENERGY PREDICTED BY IDOCK:   -6.44 KCAL/MOL
REMARK 923 INTER-LIGAND FREE ENERGY PREDICTED BY IDOCK:   -5.90 KCAL/MOL
REMARK 924 INTRA-LIGAND FREE ENERGY PREDICTED BY IDOCK:   -0.54 KCAL/MOL
REMARK 927      BINDING AFFINITY PREDICTED BY RF-SCORE:    0.00 PKD
ROOT
HETATM    1  C   UNL     1     -10.560   4.835  65.866  1.00  0.00    -0.244 C  
HETATM    2  O   UNL     1      -9.257   5.393  66.015  1.00  0.00    -0.154 OA 
ENDROOT
BRANCH   2   3
HETATM    3  C   UNL     1      -9.117   6.331  67.004  1.00  0.00    -0.123 A  
HETATM    4  C   UNL     1      -8.908   5.900  68.321  1.00  0.00    -0.110 A  
HETATM    5  C   UNL     1      -8.815   6.854  69.339  1.00  0.00    -0.136 A  
HETATM    6  C   UNL     1      -9.040   8.664  67.743  1.00  0.00    -0.135 A  
HETATM    7  C   UNL     1      -8.863   8.238  69.053  1.00  0.00    -0.143 A  
HETATM    8  C   UNL     1      -9.159   7.708  66.742  1.00  0.00    -0.181 A  
HETATM    9  C   UNL     1      -8.733   9.270  69.982  1.00  0.00    -0.195 A  
HETATM   10  N   UNL     1      -8.561   9.007  71.346  1.00  0.00    -0.327 NA 
HETATM   11  N   UNL     1      -8.774  10.567  69.648  1.00  0.00    -0.043 NA 
HETATM   12  H1  UNL     1      -8.466   9.761  72.025  1.00  0.00     0.000 HD 
HETATM   13  C   UNL     1      -8.944  10.882  68.356  1.00  0.00    -0.154 A  
HETATM   14  H2  UNL     1      -7.756   8.389  71.449  1.00  0.00     0.000 HD 
HETATM   15  N   UNL     1      -9.088   9.954  67.401  1.00  0.00    -0.134 NA 
BRANCH   4  16
HETATM   16  O   UNL     1      -8.840   4.611  68.774  1.00  0.00    -0.095 OA 
HETATM   17  C   UNL     1      -9.759   4.243  69.797  1.00  0.00    -0.220 C  
ENDBRANCH   4  16
BRANCH  13  18
HETATM   18  N   UNL     1      -8.861  12.204  67.962  1.00  0.00    -0.175 NA 
HETATM   19  C   UNL     1      -7.480  14.132  67.381  1.00  0.00    -0.134 C  
HETATM   20  C   UNL     1      -7.691  12.979  68.377  1.00  0.00    -0.137 C  
HETATM   21  N   UNL     1      -8.691  14.949  67.211  1.00  0.00    -0.194 N  
HETATM   22  C   UNL     1      -9.907  14.176  66.902  1.00  0.00    -0.265 C  
HETATM   23  C   UNL     1      -8.539  16.312  67.015  1.00  0.00    -0.200 C  
HETATM   24  O   UNL     1      -7.427  16.844  67.083  1.00  0.00    -0.150 OA 
HETATM   25  C   UNL     1     -10.105  12.976  67.857  1.00  0.00    -0.235 C  
BRANCH  23  26
HETATM   26  C   UNL     1      -9.809  17.178  66.827  1.00  0.00    -0.285 C  
HETATM   27  C   UNL     1     -10.146  17.956  68.093  1.00  0.00    -0.368 C  
HETATM   28  C   UNL     1     -11.029  19.055  67.571  1.00  0.00    -0.363 C  
HETATM   29  C   UNL     1     -10.395  19.357  66.231  1.00  0.00    -0.493 C  
HETATM   30  O   UNL     1      -9.752  18.155  65.779  1.00  0.00    -0.503 OA 
ENDBRANCH  23  26
ENDBRANCH  13  18
ENDBRANCH   2   3
TORSDOF 4
ENDMDL
MODEL       72
REMARK 921   NORMALIZED FREE ENERGY PREDICTED BY IDOCK:   -4.72 KCAL/MOL
REMARK 922        TOTAL FREE ENERGY PREDICTED BY IDOCK:   -6.34 KCAL/MOL
REMARK 923 INTER-LIGAND FREE ENERGY PREDICTED BY IDOCK:   -6.27 KCAL/MOL
REMARK 924 INTRA-LIGAND FREE ENERGY PREDICTED BY IDOCK:   -0.06 KCAL/MOL
REMARK 927      BINDING AFFINITY PREDICTED BY RF-SCORE:    0.00 PKD
ROOT
HETATM    1  C   UNL     1      -8.013   4.970  63.838  1.00  0.00    -0.102 C  
HETATM    2  O   UNL     1      -8.272   4.074  64.916  1.00  0.00    -0.096 OA 
ENDROOT
BRANCH   2   3
HETATM    3  C   UNL     1      -8.820   4.633  66.040  1.00  0.00    -0.121 A  
HETATM    4  C   UNL     1      -8.994   3.835  67.178  1.00  0.00    -0.143 A  
HETATM    5  C   UNL     1      -9.598   4.390  68.310  1.00  0.00    -0.199 A  
HETATM    6  C   UNL     1      -9.775   6.552  67.226  1.00  0.00    -0.132 A  
HETATM    7  C   UNL     1      -9.975   5.753  68.345  1.00  0.00    -0.193 A  
HETATM    8  C   UNL     1      -9.199   5.983  66.097  1.00  0.00    -0.154 A  
HETATM    9  C   UNL     1     -10.539   6.418  69.434  1.00  0.00    -0.257 A  
HETATM   10  N   UNL     1     -10.816   5.750  70.633  1.00  0.00    -0.280 NA 
HETATM   11  N   UNL     1     -10.864   7.718  69.411  1.00  0.00    -0.168 NA 
HETATM   12  H1  UNL     1     -11.229   6.236  71.429  1.00  0.00     0.000 HD 
HETATM   13  C   UNL     1     -10.629   8.409  68.287  1.00  0.00    -0.109 A  
HETATM   14  H2  UNL     1      -9.956   5.303  70.950  1.00  0.00     0.000 HD 
HETATM   15  N   UNL     1     -10.101   7.846  67.192  1.00  0.00    -0.229 NA 
BRANCH   4  16
HETATM   16  O   UNL     1      -8.692   2.507  67.317  1.00  0.00    -0.100 OA 
HETATM   17  C   UNL     1      -7.506   2.193  68.037  1.00  0.00    -0.055 C  
ENDBRANCH   4  16
BRANCH  13  18
HETATM   18  N   UNL     1     -10.832   9.776  68.274  1.00  0.00    -0.233 NA 
HETATM   19  C   UNL     1     -11.189  11.850  69.512  1.00  0.00    -0.166 C  
HETATM   20  C   UNL     1     -11.595  10.373  69.371  1.00  0.00    -0.202 C  
HETATM   21  N   UNL     1     -11.314  12.585  68.244  1.00  0.00    -0.263 N  
HETATM   22  C   UNL     1     -10.645  11.942  67.101  1.00  0.00    -0.231 C  
HETATM   23  C   UNL     1     -11.717  13.910  68.293  1.00  0.00    -0.361 C  
HETATM   24  O   UNL     1     -12.061  14.431  69.359  1.00  0.00    -0.306 OA 
HETATM   25  C   UNL     1     -10.995  10.441  66.977  1.00  0.00    -0.154 C  
BRANCH  23  26
HETATM   26  C   UNL     1     -11.843  14.694  66.964  1.00  0.00    -0.337 C  
HETATM   27  C   UNL     1     -10.474  15.006  66.369  1.00  0.00    -0.296 C  
HETATM   28  C   UNL     1     -10.805  15.277  64.928  1.00  0.00    -0.444 C  
HETATM   29  C   UNL     1     -11.916  14.285  64.667  1.00  0.00    -0.455 C  
HETATM   30  O   UNL     1     -12.577  14.042  65.919  1.00  0.00    -0.488 OA 
ENDBRANCH  23  26
ENDBRANCH  13  18
ENDBRANCH   2   3
TORSDOF 4
ENDMDL
MODEL       73
REMARK 921   NORMALIZED FREE ENERGY PREDICTED BY IDOCK:   -4.68 KCAL/MOL
REMARK 922        TOTAL FREE ENERGY PREDICTED BY IDOCK:   -6.30 KCAL/MOL
REMARK 923 INTER-LIGAND FREE ENERGY PREDICTED BY IDOCK:   -6.22 KCAL/MOL
REMARK 924 INTRA-LIGAND FREE ENERGY PREDICTED BY IDOCK:   -0.08 KCAL/MOL
REMARK 927      BINDING AFFINITY PREDICTED BY RF-SCORE:    0.00 PKD
ROOT
HETATM    1  C   UNL     1     -11.374   4.073  73.495  1.00  0.00    -0.186 C  
HETATM    2  O   UNL     1     -10.020   4.455  73.264  1.00  0.00    -0.135 OA 
ENDROOT
BRANCH   2   3
HETATM    3  C   UNL     1      -9.714   4.828  71.982  1.00  0.00    -0.162 A  
HETATM    4  C   UNL     1      -9.095   3.899  71.136  1.00  0.00    -0.120 A  
HETATM    5  C   UNL     1      -8.736   4.293  69.844  1.00  0.00    -0.110 A  
HETATM    6  C   UNL     1      -9.687   6.496  70.189  1.00  0.00    -0.167 A  
HETATM    7  C   UNL     1      -9.046   5.585  69.359  1.00  0.00    -0.134 A  
HETATM    8  C   UNL     1     -10.014   6.103  71.481  1.00  0.00    -0.211 A  
HETATM    9  C   UNL     1      -8.778   6.065  68.077  1.00  0.00    -0.112 A  
HETATM   10  N   UNL     1      -8.125   5.274  67.124  1.00  0.00    -0.101 NA 
HETATM   11  N   UNL     1      -9.107   7.299  67.671  1.00  0.00    -0.125 NA 
HETATM   12  H1  UNL     1      -7.929   5.624  66.187  1.00  0.00     0.000 HD 
HETATM   13  C   UNL     1      -9.729   8.106  68.542  1.00  0.00    -0.162 A  
HETATM   14  H2  UNL     1      -8.644   4.400  67.031  1.00  0.00     0.000 HD 
HETATM   15  N   UNL     1     -10.014   7.730  69.796  1.00  0.00    -0.186 NA 
BRANCH   4  16
HETATM   16  O   UNL     1      -8.722   2.617  71.438  1.00  0.00    -0.062 OA 
HETATM   17  C   UNL     1      -9.696   1.601  71.224  1.00  0.00    -0.134 C  
ENDBRANCH   4  16
BRANCH  13  18
HETATM   18  N   UNL     1     -10.196   9.334  68.116  1.00  0.00    -0.195 NA 
HETATM   19  C   UNL     1     -10.795  11.642  68.643  1.00  0.00    -0.213 C  
HETATM   20  C   UNL     1     -10.917  10.171  69.076  1.00  0.00    -0.226 C  
HETATM   21  N   UNL     1     -11.221  11.849  67.250  1.00  0.00    -0.296 N  
HETATM   22  C   UNL     1     -10.589  10.939  66.280  1.00  0.00    -0.214 C  
HETATM   23  C   UNL     1     -11.867  13.034  66.933  1.00  0.00    -0.380 C  
HETATM   24  O   UNL     1     -12.170  13.847  67.811  1.00  0.00    -0.338 OA 
HETATM   25  C   UNL     1     -10.650   9.461  66.727  1.00  0.00    -0.139 C  
BRANCH  23  26
HETATM   26  C   UNL     1     -12.312  13.263  65.468  1.00  0.00    -0.480 C  
HETATM   27  C   UNL     1     -11.113  13.379  64.533  1.00  0.00    -0.396 C  
HETATM   28  C   UNL     1     -11.723  13.085  63.191  1.00  0.00    -0.139 C  
HETATM   29  C   UNL     1     -12.749  12.029  63.536  1.00  0.00    -0.443 C  
HETATM   30  O   UNL     1     -13.146  12.245  64.899  1.00  0.00    -0.654 OA 
ENDBRANCH  23  26
ENDBRANCH  13  18
ENDBRANCH   2   3
TORSDOF 4
ENDMDL
MODEL       74
REMARK 921   NORMALIZED FREE ENERGY PREDICTED BY IDOCK:   -4.67 KCAL/MOL
REMARK 922        TOTAL FREE ENERGY PREDICTED BY IDOCK:   -6.28 KCAL/MOL
REMARK 923 INTER-LIGAND FREE ENERGY PREDICTED BY IDOCK:   -5.70 KCAL/MOL
REMARK 924 INTRA-LIGAND FREE ENERGY PREDICTED BY IDOCK:   -0.58 KCAL/MOL
REMARK 927      BINDING AFFINITY PREDICTED BY RF-SCORE:    0.00 PKD
ROOT
HETATM    1  C   UNL     1     -10.176  16.497  68.822  1.00  0.00    -0.267 C  
HETATM    2  O   UNL     1      -9.560  16.298  67.553  1.00  0.00    -0.227 OA 
ENDROOT
BRANCH   2   3
HETATM    3  C   UNL     1      -9.797  15.087  66.956  1.00  0.00    -0.238 A  
HETATM    4  C   UNL     1     -10.199  15.060  65.614  1.00  0.00    -0.360 A  
HETATM    5  C   UNL     1     -10.490  13.830  65.019  1.00  0.00    -0.418 A  
HETATM    6  C   UNL     1      -9.897  12.642  67.047  1.00  0.00    -0.225 A  
HETATM    7  C   UNL     1     -10.323  12.616  65.725  1.00  0.00    -0.298 A  
HETATM    8  C   UNL     1      -9.637  13.872  67.638  1.00  0.00    -0.215 A  
HETATM    9  C   UNL     1     -10.538  11.336  65.215  1.00  0.00    -0.261 A  
HETATM   10  N   UNL     1     -10.983  11.139  63.902  1.00  0.00    -0.514 NA 
HETATM   11  N   UNL     1     -10.352  10.219  65.932  1.00  0.00    -0.211 NA 
HETATM   12  H1  UNL     1     -11.140  10.203  63.529  1.00  0.00     0.000 HD 
HETATM   13  C   UNL     1      -9.933  10.344  67.199  1.00  0.00    -0.195 A  
HETATM   14  H2  UNL     1     -10.338  11.623  63.276  1.00  0.00     0.000 HD 
HETATM   15  N   UNL     1      -9.714  11.535  67.771  1.00  0.00    -0.171 NA 
BRANCH   4  16
HETATM   16  O   UNL     1     -10.412  16.130  64.788  1.00  0.00    -0.592 OA 
HETATM   17  C   UNL     1     -11.718  16.263  64.239  1.00  0.00     0.121 C  
ENDBRANCH   4  16
BRANCH  13  18
HETATM   18  N   UNL     1      -9.607   9.212  67.922  1.00  0.00    -0.144 NA 
HETATM   19  C   UNL     1      -8.443   8.203  69.816  1.00  0.00    -0.125 C  
HETATM   20  C   UNL     1      -8.335   9.196  68.646  1.00  0.00    -0.126 C  
HETATM   21  N   UNL     1      -8.884   6.870  69.377  1.00  0.00    -0.136 N  
HETATM   22  C   UNL     1     -10.104   6.876  68.551  1.00  0.00    -0.161 C  
HETATM   23  C   UNL     1      -8.360   5.762  70.023  1.00  0.00    -0.123 C  
HETATM   24  O   UNL     1      -7.472   5.882  70.873  1.00  0.00    -0.086 OA 
HETATM   25  C   UNL     1     -10.038   7.909  67.404  1.00  0.00    -0.226 C  
BRANCH  23  26
HETATM   26  C   UNL     1      -8.825   4.355  69.572  1.00  0.00    -0.089 C  
HETATM   27  C   UNL     1      -7.653   3.387  69.467  1.00  0.00    -0.048 C  
HETATM   28  C   UNL     1      -8.334   2.049  69.531  1.00  0.00    -0.072 C  
HETATM   29  C   UNL     1      -9.456   2.313  70.509  1.00  0.00    -0.107 C  
HETATM   30  O   UNL     1      -9.783   3.709  70.421  1.00  0.00    -0.189 OA 
ENDBRANCH  23  26
ENDBRANCH  13  18
ENDBRANCH   2   3
TORSDOF 4
ENDMDL
MODEL       75
REMARK 921   NORMALIZED FREE ENERGY PREDICTED BY IDOCK:   -4.64 KCAL/MOL
REMARK 922        TOTAL FREE ENERGY PREDICTED BY IDOCK:   -6.24 KCAL/MOL
REMARK 923 INTER-LIGAND FREE ENERGY PREDICTED BY IDOCK:   -5.67 KCAL/MOL
REMARK 924 INTRA-LIGAND FREE ENERGY PREDICTED BY IDOCK:   -0.57 KCAL/MOL
REMARK 927      BINDING AFFINITY PREDICTED BY RF-SCORE:    0.00 PKD
ROOT
HETATM    1  C   UNL     1     -11.719  14.021  69.738  1.00  0.00    -0.313 C  
HETATM    2  O   UNL     1     -12.411  13.890  68.499  1.00  0.00    -0.272 OA 
ENDROOT
BRANCH   2   3
HETATM    3  C   UNL     1     -11.853  13.029  67.590  1.00  0.00    -0.351 A  
HETATM    4  C   UNL     1     -11.790  13.411  66.245  1.00  0.00    -0.394 A  
HETATM    5  C   UNL     1     -11.268  12.514  65.309  1.00  0.00    -0.341 A  
HETATM    6  C   UNL     1     -10.781  10.895  67.046  1.00  0.00    -0.271 A  
HETATM    7  C   UNL     1     -10.746  11.262  65.707  1.00  0.00    -0.284 A  
HETATM    8  C   UNL     1     -11.328  11.783  67.964  1.00  0.00    -0.355 A  
HETATM    9  C   UNL     1     -10.160  10.314  64.866  1.00  0.00    -0.276 A  
HETATM   10  N   UNL     1     -10.060  10.527  63.486  1.00  0.00    -0.474 NA 
HETATM   11  N   UNL     1      -9.671   9.147  65.306  1.00  0.00    -0.055 NA 
HETATM   12  H1  UNL     1      -9.632   9.834  62.872  1.00  0.00     0.000 HD 
HETATM   13  C   UNL     1      -9.745   8.883  66.618  1.00  0.00    -0.237 A  
HETATM   14  H2  UNL     1      -9.582  11.416  63.339  1.00  0.00     0.000 HD 
HETATM   15  N   UNL     1     -10.301   9.732  67.492  1.00  0.00    -0.220 NA 
BRANCH   4  16
HETATM   16  O   UNL     1     -12.248  14.575  65.688  1.00  0.00    -0.351 OA 
HETATM   17  C   UNL     1     -12.163  14.682  64.271  1.00  0.00    -0.408 C  
ENDBRANCH   4  16
BRANCH  13  18
HETATM   18  N   UNL     1      -9.135   7.750  67.119  1.00  0.00    -0.130 NA 
HETATM   19  C   UNL     1      -8.136   5.559  66.716  1.00  0.00    -0.105 C  
HETATM   20  C   UNL     1      -9.321   6.488  66.401  1.00  0.00    -0.143 C  
HETATM   21  N   UNL     1      -7.935   5.384  68.162  1.00  0.00    -0.095 N  
HETATM   22  C   UNL     1      -7.857   6.644  68.921  1.00  0.00    -0.111 C  
HETATM   23  C   UNL     1      -7.507   4.147  68.619  1.00  0.00    -0.055 C  
HETATM   24  O   UNL     1      -7.396   3.189  67.849  1.00  0.00    -0.053 OA 
HETATM   25  C   UNL     1      -9.007   7.617  68.575  1.00  0.00    -0.129 C  
BRANCH  23  26
HETATM   26  C   UNL     1      -7.284   3.958  70.139  1.00  0.00    -0.042 C  
HETATM   27  C   UNL     1      -8.541   3.437  70.826  1.00  0.00    -0.114 C  
HETATM   28  C   UNL     1      -7.995   2.859  72.102  1.00  0.00    -0.055 C  
HETATM   29  C   UNL     1      -6.673   2.282  71.645  1.00  0.00    -0.019 C  
HETATM   30  O   UNL     1      -6.238   3.050  70.512  1.00  0.00    -0.022 OA 
ENDBRANCH  23  26
ENDBRANCH  13  18
ENDBRANCH   2   3
TORSDOF 4
ENDMDL
MODEL       76
REMARK 921   NORMALIZED FREE ENERGY PREDICTED BY IDOCK:   -4.61 KCAL/MOL
REMARK 922        TOTAL FREE ENERGY PREDICTED BY IDOCK:   -6.21 KCAL/MOL
REMARK 923 INTER-LIGAND FREE ENERGY PREDICTED BY IDOCK:   -6.17 KCAL/MOL
REMARK 924 INTRA-LIGAND FREE ENERGY PREDICTED BY IDOCK:   -0.05 KCAL/MOL
REMARK 927      BINDING AFFINITY PREDICTED BY RF-SCORE:    0.00 PKD
ROOT
HETATM    1  C   UNL     1      -7.169   5.900  72.228  1.00  0.00    -0.089 C  
HETATM    2  O   UNL     1      -7.855   4.793  71.650  1.00  0.00    -0.092 OA 
ENDROOT
BRANCH   2   3
HETATM    3  C   UNL     1      -8.523   5.047  70.480  1.00  0.00    -0.105 A  
HETATM    4  C   UNL     1      -9.122   3.982  69.797  1.00  0.00    -0.115 A  
HETATM    5  C   UNL     1      -9.760   4.232  68.578  1.00  0.00    -0.164 A  
HETATM    6  C   UNL     1      -9.296   6.604  68.756  1.00  0.00    -0.131 A  
HETATM    7  C   UNL     1      -9.865   5.544  68.062  1.00  0.00    -0.173 A  
HETATM    8  C   UNL     1      -8.640   6.341  69.952  1.00  0.00    -0.134 A  
HETATM    9  C   UNL     1     -10.518   5.910  66.885  1.00  0.00    -0.286 A  
HETATM   10  N   UNL     1     -11.132   4.957  66.064  1.00  0.00    -0.756 NA 
HETATM   11  N   UNL     1     -10.595   7.176  66.452  1.00  0.00     0.122 NA 
HETATM   12  H1  UNL     1     -11.610   5.225  65.204  1.00  0.00     0.000 HD 
HETATM   13  C   UNL     1     -10.019   8.134  67.192  1.00  0.00    -0.236 A  
HETATM   14  H2  UNL     1     -11.790   4.426  66.636  1.00  0.00     0.000 HD 
HETATM   15  N   UNL     1      -9.363   7.868  68.329  1.00  0.00    -0.143 NA 
BRANCH   4  16
HETATM   16  O   UNL     1      -9.115   2.659  70.147  1.00  0.00    -0.093 OA 
HETATM   17  C   UNL     1      -9.050   1.716  69.083  1.00  0.00    -0.107 C  
ENDBRANCH   4  16
BRANCH  13  18
HETATM   18  N   UNL     1     -10.191   9.459  66.843  1.00  0.00    -0.242 NA 
HETATM   19  C   UNL     1     -10.521  11.138  65.101  1.00  0.00    -0.277 C  
HETATM   20  C   UNL     1      -9.721   9.895  65.527  1.00  0.00    -0.302 C  
HETATM   21  N   UNL     1     -10.482  12.201  66.117  1.00  0.00    -0.242 N  
HETATM   22  C   UNL     1     -10.845  11.757  67.474  1.00  0.00    -0.239 C  
HETATM   23  C   UNL     1     -10.457  13.518  65.687  1.00  0.00    -0.293 C  
HETATM   24  O   UNL     1     -10.365  13.792  64.486  1.00  0.00    -0.437 OA 
HETATM   25  C   UNL     1     -10.094  10.474  67.899  1.00  0.00    -0.176 C  
BRANCH  23  26
HETATM   26  C   UNL     1     -10.424  14.642  66.750  1.00  0.00    -0.277 C  
HETATM   27  C   UNL     1     -11.777  14.803  67.433  1.00  0.00    -0.371 C  
HETATM   28  C   UNL     1     -11.414  15.522  68.703  1.00  0.00    -0.367 C  
HETATM   29  C   UNL     1     -10.077  14.902  69.043  1.00  0.00    -0.237 C  
HETATM   30  O   UNL     1      -9.475  14.474  67.812  1.00  0.00    -0.203 OA 
ENDBRANCH  23  26
ENDBRANCH  13  18
ENDBRANCH   2   3
TORSDOF 4
ENDMDL
MODEL       77
REMARK 921   NORMALIZED FREE ENERGY PREDICTED BY IDOCK:   -4.52 KCAL/MOL
REMARK 922        TOTAL FREE ENERGY PREDICTED BY IDOCK:   -6.09 KCAL/MOL
REMARK 923 INTER-LIGAND FREE ENERGY PREDICTED BY IDOCK:   -6.05 KCAL/MOL
REMARK 924 INTRA-LIGAND FREE ENERGY PREDICTED BY IDOCK:   -0.04 KCAL/MOL
REMARK 927      BINDING AFFINITY PREDICTED BY RF-SCORE:    0.00 PKD
ROOT
HETATM    1  C   UNL     1     -11.516  15.805  70.861  1.00  0.00    -0.403 C  
HETATM    2  O   UNL     1     -10.958  16.422  69.705  1.00  0.00    -0.323 OA 
ENDROOT
BRANCH   2   3
HETATM    3  C   UNL     1     -10.745  15.598  68.630  1.00  0.00    -0.256 A  
HETATM    4  C   UNL     1     -10.658  16.162  67.351  1.00  0.00    -0.311 A  
HETATM    5  C   UNL     1     -10.492  15.319  66.249  1.00  0.00    -0.313 A  
HETATM    6  C   UNL     1     -10.401  13.366  67.683  1.00  0.00    -0.238 A  
HETATM    7  C   UNL     1     -10.345  13.921  66.411  1.00  0.00    -0.289 A  
HETATM    8  C   UNL     1     -10.595  14.211  68.769  1.00  0.00    -0.258 A  
HETATM    9  C   UNL     1     -10.127  12.997  65.389  1.00  0.00    -0.252 A  
HETATM   10  N   UNL     1     -10.058  13.395  64.048  1.00  0.00    -0.749 NA 
HETATM   11  N   UNL     1      -9.984  11.683  65.607  1.00  0.00    -0.231 NA 
HETATM   12  H1  UNL     1      -9.899  12.720  63.301  1.00  0.00     0.000 HD 
HETATM   13  C   UNL     1     -10.048  11.240  66.870  1.00  0.00    -0.212 A  
HETATM   14  H2  UNL     1      -9.346  14.121  63.972  1.00  0.00     0.000 HD 
HETATM   15  N   UNL     1     -10.265  12.058  67.909  1.00  0.00    -0.191 NA 
BRANCH   4  16
HETATM   16  O   UNL     1     -10.781  17.483  67.014  1.00  0.00    -0.276 OA 
HETATM   17  C   UNL     1      -9.627  18.113  66.469  1.00  0.00    -0.317 C  
ENDBRANCH   4  16
BRANCH  13  18
HETATM   18  N   UNL     1      -9.775   9.913  67.141  1.00  0.00    -0.171 NA 
HETATM   19  C   UNL     1     -10.479   7.576  67.071  1.00  0.00    -0.338 C  
HETATM   20  C   UNL     1     -10.899   9.016  67.411  1.00  0.00    -0.045 C  
HETATM   21  N   UNL     1      -9.238   7.182  67.757  1.00  0.00    -0.126 N  
HETATM   22  C   UNL     1      -8.124   8.131  67.589  1.00  0.00    -0.127 C  
HETATM   23  C   UNL     1      -9.114   5.869  68.181  1.00  0.00    -0.117 C  
HETATM   24  O   UNL     1     -10.055   5.076  68.080  1.00  0.00    -0.153 OA 
HETATM   25  C   UNL     1      -8.542   9.592  67.869  1.00  0.00    -0.122 C  
BRANCH  23  26
HETATM   26  C   UNL     1      -7.808   5.444  68.896  1.00  0.00    -0.083 C  
HETATM   27  C   UNL     1      -6.685   5.184  67.898  1.00  0.00    -0.055 C  
HETATM   28  C   UNL     1      -5.457   5.297  68.758  1.00  0.00    -0.007 C  
HETATM   29  C   UNL     1      -5.844   6.403  69.714  1.00  0.00    -0.018 C  
HETATM   30  O   UNL     1      -7.275   6.384  69.838  1.00  0.00    -0.070 OA 
ENDBRANCH  23  26
ENDBRANCH  13  18
ENDBRANCH   2   3
TORSDOF 4
ENDMDL
MODEL       78
REMARK 921   NORMALIZED FREE ENERGY PREDICTED BY IDOCK:   -4.43 KCAL/MOL
REMARK 922        TOTAL FREE ENERGY PREDICTED BY IDOCK:   -5.99 KCAL/MOL
REMARK 923 INTER-LIGAND FREE ENERGY PREDICTED BY IDOCK:   -5.50 KCAL/MOL
REMARK 924 INTRA-LIGAND FREE ENERGY PREDICTED BY IDOCK:   -0.49 KCAL/MOL
REMARK 927      BINDING AFFINITY PREDICTED BY RF-SCORE:    0.00 PKD
ROOT
HETATM    1  C   UNL     1      -5.433   4.463  66.236  1.00  0.00    -0.013 C  
HETATM    2  O   UNL     1      -5.511   5.324  67.369  1.00  0.00    -0.011 OA 
ENDROOT
BRANCH   2   3
HETATM    3  C   UNL     1      -6.757   5.809  67.667  1.00  0.00    -0.059 A  
HETATM    4  C   UNL     1      -7.655   4.988  68.362  1.00  0.00    -0.078 A  
HETATM    5  C   UNL     1      -8.944   5.462  68.623  1.00  0.00    -0.115 A  
HETATM    6  C   UNL     1      -8.431   7.596  67.593  1.00  0.00    -0.117 A  
HETATM    7  C   UNL     1      -9.331   6.772  68.256  1.00  0.00    -0.124 A  
HETATM    8  C   UNL     1      -7.161   7.105  67.314  1.00  0.00    -0.086 A  
HETATM    9  C   UNL     1     -10.571   7.360  68.509  1.00  0.00    -0.153 A  
HETATM   10  N   UNL     1     -11.593   6.657  69.158  1.00  0.00    -0.628 NA 
HETATM   11  N   UNL     1     -10.876   8.613  68.146  1.00  0.00    -0.040 NA 
HETATM   12  H1  UNL     1     -12.499   7.086  69.343  1.00  0.00     0.000 HD 
HETATM   13  C   UNL     1      -9.939   9.334  67.515  1.00  0.00    -0.202 A  
HETATM   14  H2  UNL     1     -11.223   6.310  70.043  1.00  0.00     0.000 HD 
HETATM   15  N   UNL     1      -8.727   8.844  67.223  1.00  0.00    -0.121 NA 
BRANCH   4  16
HETATM   16  O   UNL     1      -7.450   3.703  68.787  1.00  0.00    -0.053 OA 
HETATM   17  C   UNL     1      -8.296   2.704  68.231  1.00  0.00    -0.069 C  
ENDBRANCH   4  16
BRANCH  13  18
HETATM   18  N   UNL     1     -10.176  10.669  67.244  1.00  0.00    -0.198 NA 
HETATM   19  C   UNL     1     -11.195  12.364  65.813  1.00  0.00    -0.333 C  
HETATM   20  C   UNL     1     -10.366  11.069  65.849  1.00  0.00    -0.257 C  
HETATM   21  N   UNL     1     -10.610  13.423  66.651  1.00  0.00    -0.280 N  
HETATM   22  C   UNL     1     -10.307  13.007  68.031  1.00  0.00    -0.234 C  
HETATM   23  C   UNL     1     -10.713  14.734  66.215  1.00  0.00    -0.313 C  
HETATM   24  O   UNL     1     -11.189  15.000  65.107  1.00  0.00    -0.356 OA 
HETATM   25  C   UNL     1      -9.525  11.675  68.090  1.00  0.00    -0.191 C  
BRANCH  23  26
HETATM   26  C   UNL     1     -10.108  15.855  67.095  1.00  0.00    -0.264 C  
HETATM   27  C   UNL     1      -9.699  17.062  66.258  1.00  0.00    -0.302 C  
HETATM   28  C   UNL     1      -9.637  18.159  67.284  1.00  0.00    -0.281 C  
HETATM   29  C   UNL     1     -10.781  17.795  68.203  1.00  0.00    -0.284 C  
HETATM   30  O   UNL     1     -10.960  16.372  68.125  1.00  0.00    -0.337 OA 
ENDBRANCH  23  26
ENDBRANCH  13  18
ENDBRANCH   2   3
TORSDOF 4
ENDMDL
MODEL       79
REMARK 921   NORMALIZED FREE ENERGY PREDICTED BY IDOCK:   -4.40 KCAL/MOL
REMARK 922        TOTAL FREE ENERGY PREDICTED BY IDOCK:   -5.95 KCAL/MOL
REMARK 923 INTER-LIGAND FREE ENERGY PREDICTED BY IDOCK:   -5.40 KCAL/MOL
REMARK 924 INTRA-LIGAND FREE ENERGY PREDICTED BY IDOCK:   -0.55 KCAL/MOL
REMARK 927      BINDING AFFINITY PREDICTED BY RF-SCORE:    0.00 PKD
ROOT
HETATM    1  C   UNL     1     -12.536  13.972  64.359  1.00  0.00    -0.289 C  
HETATM    2  O   UNL     1     -11.828  14.971  65.088  1.00  0.00    -0.301 OA 
ENDROOT
BRANCH   2   3
HETATM    3  C   UNL     1     -10.794  14.523  65.868  1.00  0.00    -0.308 A  
HETATM    4  C   UNL     1      -9.723  15.385  66.135  1.00  0.00    -0.318 A  
HETATM    5  C   UNL     1      -8.644  14.914  66.888  1.00  0.00    -0.269 A  
HETATM    6  C   UNL     1      -9.723  12.765  67.195  1.00  0.00    -0.216 A  
HETATM    7  C   UNL     1      -8.647  13.610  67.435  1.00  0.00    -0.212 A  
HETATM    8  C   UNL     1     -10.778  13.234  66.421  1.00  0.00    -0.291 A  
HETATM    9  C   UNL     1      -7.649  13.057  68.237  1.00  0.00    -0.135 A  
HETATM   10  N   UNL     1      -6.492  13.775  68.562  1.00  0.00    -0.085 NA 
HETATM   11  N   UNL     1      -7.714  11.815  68.738  1.00  0.00    -0.120 NA 
HETATM   12  H1  UNL     1      -5.762  13.371  69.148  1.00  0.00     0.000 HD 
HETATM   13  C   UNL     1      -8.795  11.076  68.456  1.00  0.00    -0.159 A  
HETATM   14  H2  UNL     1      -6.779  14.660  68.982  1.00  0.00     0.000 HD 
HETATM   15  N   UNL     1      -9.794  11.525  67.685  1.00  0.00    -0.179 NA 
BRANCH   4  16
HETATM   16  O   UNL     1      -9.556  16.668  65.686  1.00  0.00    -0.519 OA 
HETATM   17  C   UNL     1      -8.674  17.497  66.435  1.00  0.00    -0.242 C  
ENDBRANCH   4  16
BRANCH  13  18
HETATM   18  N   UNL     1      -8.953   9.843  69.061  1.00  0.00    -0.150 NA 
HETATM   19  C   UNL     1      -9.181   8.531  71.107  1.00  0.00    -0.197 C  
HETATM   20  C   UNL     1      -8.402   9.656  70.404  1.00  0.00    -0.151 C  
HETATM   21  N   UNL     1      -9.214   7.295  70.311  1.00  0.00    -0.155 N  
HETATM   22  C   UNL     1      -9.661   7.481  68.920  1.00  0.00    -0.151 C  
HETATM   23  C   UNL     1      -9.170   6.083  70.982  1.00  0.00    -0.157 C  
HETATM   24  O   UNL     1      -9.003   6.039  72.204  1.00  0.00    -0.142 OA 
HETATM   25  C   UNL     1      -8.931   8.646  68.213  1.00  0.00    -0.142 C  
BRANCH  23  26
HETATM   26  C   UNL     1      -9.214   4.777  70.151  1.00  0.00    -0.135 C  
HETATM   27  C   UNL     1      -7.815   4.215  69.922  1.00  0.00    -0.052 C  
HETATM   28  C   UNL     1      -8.098   2.778  69.584  1.00  0.00    -0.056 C  
HETATM   29  C   UNL     1      -9.273   2.468  70.483  1.00  0.00    -0.127 C  
HETATM   30  O   UNL     1      -9.973   3.700  70.716  1.00  0.00    -0.138 OA 
ENDBRANCH  23  26
ENDBRANCH  13  18
ENDBRANCH   2   3
TORSDOF 4
ENDMDL
MODEL       80
REMARK 921   NORMALIZED FREE ENERGY PREDICTED BY IDOCK:   -4.36 KCAL/MOL
REMARK 922        TOTAL FREE ENERGY PREDICTED BY IDOCK:   -5.90 KCAL/MOL
REMARK 923 INTER-LIGAND FREE ENERGY PREDICTED BY IDOCK:   -5.36 KCAL/MOL
REMARK 924 INTRA-LIGAND FREE ENERGY PREDICTED BY IDOCK:   -0.54 KCAL/MOL
REMARK 927      BINDING AFFINITY PREDICTED BY RF-SCORE:    0.00 PKD
ROOT
HETATM    1  C   UNL     1     -11.572   7.124  70.611  1.00  0.00    -0.314 C  
HETATM    2  O   UNL     1     -11.004   6.502  69.462  1.00  0.00    -0.274 OA 
ENDROOT
BRANCH   2   3
HETATM    3  C   UNL     1     -10.234   7.307  68.665  1.00  0.00    -0.182 A  
HETATM    4  C   UNL     1      -9.523   6.730  67.605  1.00  0.00    -0.118 A  
HETATM    5  C   UNL     1      -8.696   7.542  66.822  1.00  0.00    -0.138 A  
HETATM    6  C   UNL     1      -9.348   9.513  68.074  1.00  0.00    -0.132 A  
HETATM    7  C   UNL     1      -8.619   8.937  67.042  1.00  0.00    -0.120 A  
HETATM    8  C   UNL     1     -10.144   8.693  68.864  1.00  0.00    -0.213 A  
HETATM    9  C   UNL     1      -7.867   9.843  66.293  1.00  0.00    -0.108 A  
HETATM   10  N   UNL     1      -7.067   9.419  65.225  1.00  0.00    -0.089 NA 
HETATM   11  N   UNL     1      -7.843  11.159  66.543  1.00  0.00    -0.154 NA 
HETATM   12  H1  UNL     1      -6.517  10.081  64.678  1.00  0.00     0.000 HD 
HETATM   13  C   UNL     1      -8.584  11.623  67.558  1.00  0.00    -0.149 A  
HETATM   14  H2  UNL     1      -7.656   8.892  64.580  1.00  0.00     0.000 HD 
HETATM   15  N   UNL     1      -9.326  10.822  68.334  1.00  0.00    -0.160 NA 
BRANCH   4  16
HETATM   16  O   UNL     1      -9.479   5.408  67.254  1.00  0.00    -0.117 OA 
HETATM   17  C   UNL     1      -8.815   5.092  66.036  1.00  0.00    -0.130 C  
ENDBRANCH   4  16
BRANCH  13  18
HETATM   18  N   UNL     1      -8.683  12.987  67.760  1.00  0.00    -0.176 NA 
HETATM   19  C   UNL     1     -10.088  14.957  68.085  1.00  0.00    -0.222 C  
HETATM   20  C   UNL     1      -9.874  13.676  67.261  1.00  0.00    -0.241 C  
HETATM   21  N   UNL     1      -8.889  15.808  68.112  1.00  0.00    -0.176 N  
HETATM   22  C   UNL     1      -7.655  15.106  68.505  1.00  0.00    -0.120 C  
HETATM   23  C   UNL     1      -9.062  17.183  68.113  1.00  0.00    -0.247 C  
HETATM   24  O   UNL     1     -10.184  17.683  67.991  1.00  0.00    -0.323 OA 
HETATM   25  C   UNL     1      -7.452  13.784  67.729  1.00  0.00    -0.163 C  
BRANCH  23  26
HETATM   26  C   UNL     1      -7.804  18.086  68.150  1.00  0.00    -0.272 C  
HETATM   27  C   UNL     1      -8.011  19.363  67.344  1.00  0.00    -0.299 C  
HETATM   28  C   UNL     1      -6.955  20.273  67.906  1.00  0.00    -0.326 C  
HETATM   29  C   UNL     1      -6.950  19.885  69.367  1.00  0.00    -0.260 C  
HETATM   30  O   UNL     1      -7.379  18.516  69.450  1.00  0.00    -0.136 OA 
ENDBRANCH  23  26
ENDBRANCH  13  18
ENDBRANCH   2   3
TORSDOF 4
ENDMDL
MODEL       81
REMARK 921   NORMALIZED FREE ENERGY PREDICTED BY IDOCK:   -4.33 KCAL/MOL
REMARK 922        TOTAL FREE ENERGY PREDICTED BY IDOCK:   -5.87 KCAL/MOL
REMARK 923 INTER-LIGAND FREE ENERGY PREDICTED BY IDOCK:   -5.45 KCAL/MOL
REMARK 924 INTRA-LIGAND FREE ENERGY PREDICTED BY IDOCK:   -0.41 KCAL/MOL
REMARK 927      BINDING AFFINITY PREDICTED BY RF-SCORE:    0.00 PKD
ROOT
HETATM    1  C   UNL     1      -5.672   7.053  71.327  1.00  0.00    -0.035 C  
HETATM    2  O   UNL     1      -6.121   7.278  69.993  1.00  0.00    -0.026 OA 
ENDROOT
BRANCH   2   3
HETATM    3  C   UNL     1      -7.294   7.975  69.867  1.00  0.00    -0.066 A  
HETATM    4  C   UNL     1      -8.491   7.364  70.261  1.00  0.00    -0.136 A  
HETATM    5  C   UNL     1      -9.694   8.053  70.086  1.00  0.00    -0.176 A  
HETATM    6  C   UNL     1      -8.525   9.990  69.217  1.00  0.00    -0.163 A  
HETATM    7  C   UNL     1      -9.715   9.374  69.581  1.00  0.00    -0.202 A  
HETATM    8  C   UNL     1      -7.337   9.285  69.369  1.00  0.00    -0.077 A  
HETATM    9  C   UNL     1     -10.850  10.167  69.411  1.00  0.00    -0.241 A  
HETATM   10  N   UNL     1     -12.128   9.688  69.719  1.00  0.00    -0.323 NA 
HETATM   11  N   UNL     1     -10.804  11.420  68.937  1.00  0.00    -0.205 NA 
HETATM   12  H1  UNL     1     -12.958  10.268  69.595  1.00  0.00     0.000 HD 
HETATM   13  C   UNL     1      -9.608  11.932  68.617  1.00  0.00    -0.093 A  
HETATM   14  H2  UNL     1     -12.117   9.359  70.685  1.00  0.00     0.000 HD 
HETATM   15  N   UNL     1      -8.470  11.236  68.739  1.00  0.00    -0.142 NA 
BRANCH   4  16
HETATM   16  O   UNL     1      -8.655   6.101  70.763  1.00  0.00    -0.132 OA 
HETATM   17  C   UNL     1      -9.769   5.360  70.280  1.00  0.00    -0.192 C  
ENDBRANCH   4  16
BRANCH  13  18
HETATM   18  N   UNL     1      -9.513  13.261  68.250  1.00  0.00    -0.217 NA 
HETATM   19  C   UNL     1     -10.506  15.205  67.157  1.00  0.00    -0.280 C  
HETATM   20  C   UNL     1     -10.219  13.698  67.045  1.00  0.00    -0.250 C  
HETATM   21  N   UNL     1      -9.290  15.984  67.437  1.00  0.00    -0.215 N  
HETATM   22  C   UNL     1      -8.504  15.492  68.581  1.00  0.00    -0.174 C  
HETATM   23  C   UNL     1      -9.173  17.243  66.869  1.00  0.00    -0.254 C  
HETATM   24  O   UNL     1     -10.016  17.659  66.068  1.00  0.00    -0.469 OA 
HETATM   25  C   UNL     1      -8.255  13.967  68.517  1.00  0.00    -0.136 C  
BRANCH  23  26
HETATM   26  C   UNL     1      -7.900  18.073  67.167  1.00  0.00    -0.217 C  
HETATM   27  C   UNL     1      -7.035  18.230  65.922  1.00  0.00    -0.312 C  
HETATM   28  C   UNL     1      -6.188  19.423  66.268  1.00  0.00    -0.185 C  
HETATM   29  C   UNL     1      -7.158  20.282  67.048  1.00  0.00    -0.264 C  
HETATM   30  O   UNL     1      -8.118  19.403  67.655  1.00  0.00    -0.270 OA 
ENDBRANCH  23  26
ENDBRANCH  13  18
ENDBRANCH   2   3
TORSDOF 4
ENDMDL
MODEL       82
REMARK 921   NORMALIZED FREE ENERGY PREDICTED BY IDOCK:   -4.32 KCAL/MOL
REMARK 922        TOTAL FREE ENERGY PREDICTED BY IDOCK:   -5.85 KCAL/MOL
REMARK 923 INTER-LIGAND FREE ENERGY PREDICTED BY IDOCK:   -5.29 KCAL/MOL
REMARK 924 INTRA-LIGAND FREE ENERGY PREDICTED BY IDOCK:   -0.56 KCAL/MOL
REMARK 927      BINDING AFFINITY PREDICTED BY RF-SCORE:    0.00 PKD
ROOT
HETATM    1  C   UNL     1     -10.936  18.234  67.648  1.00  0.00    -0.103 C  
HETATM    2  O   UNL     1     -10.525  17.357  66.603  1.00  0.00    -0.310 OA 
ENDROOT
BRANCH   2   3
HETATM    3  C   UNL     1      -9.576  16.427  66.940  1.00  0.00    -0.244 A  
HETATM    4  C   UNL     1      -8.238  16.829  67.039  1.00  0.00    -0.194 A  
HETATM    5  C   UNL     1      -7.263  15.872  67.333  1.00  0.00    -0.227 A  
HETATM    6  C   UNL     1      -8.944  14.136  67.528  1.00  0.00    -0.198 A  
HETATM    7  C   UNL     1      -7.613  14.527  67.597  1.00  0.00    -0.198 A  
HETATM    8  C   UNL     1      -9.902  15.089  67.207  1.00  0.00    -0.228 A  
HETATM    9  C   UNL     1      -6.729  13.505  67.946  1.00  0.00    -0.150 A  
HETATM   10  N   UNL     1      -5.352  13.734  68.045  1.00  0.00    -0.112 NA 
HETATM   11  N   UNL     1      -7.123  12.249  68.195  1.00  0.00    -0.082 NA 
HETATM   12  H1  UNL     1      -4.706  12.987  68.300  1.00  0.00     0.000 HD 
HETATM   13  C   UNL     1      -8.430  11.967  68.110  1.00  0.00    -0.163 A  
HETATM   14  H2  UNL     1      -5.207  14.509  68.692  1.00  0.00     0.000 HD 
HETATM   15  N   UNL     1      -9.345  12.885  67.770  1.00  0.00    -0.195 NA 
BRANCH   4  16
HETATM   16  O   UNL     1      -7.726  18.078  66.815  1.00  0.00    -0.207 OA 
HETATM   17  C   UNL     1      -7.128  18.732  67.928  1.00  0.00    -0.237 C  
ENDBRANCH   4  16
BRANCH  13  18
HETATM   18  N   UNL     1      -8.883  10.717  68.486  1.00  0.00    -0.141 NA 
HETATM   19  C   UNL     1     -10.497   8.906  68.212  1.00  0.00    -0.195 C  
HETATM   20  C   UNL     1     -10.310  10.427  68.349  1.00  0.00    -0.174 C  
HETATM   21  N   UNL     1      -9.853   8.166  69.308  1.00  0.00    -0.178 N  
HETATM   22  C   UNL     1      -8.442   8.524  69.537  1.00  0.00    -0.127 C  
HETATM   23  C   UNL     1     -10.471   7.016  69.774  1.00  0.00    -0.219 C  
HETATM   24  O   UNL     1     -11.582   6.677  69.354  1.00  0.00    -0.274 OA 
HETATM   25  C   UNL     1      -8.225  10.053  69.618  1.00  0.00    -0.175 C  
BRANCH  23  26
HETATM   26  C   UNL     1      -9.795   6.227  70.922  1.00  0.00    -0.181 C  
HETATM   27  C   UNL     1     -10.266   6.714  72.287  1.00  0.00    -0.206 C  
HETATM   28  C   UNL     1      -9.925   5.553  73.179  1.00  0.00    -0.191 C  
HETATM   29  C   UNL     1     -10.205   4.372  72.277  1.00  0.00    -0.188 C  
HETATM   30  O   UNL     1     -10.015   4.810  70.923  1.00  0.00    -0.193 OA 
ENDBRANCH  23  26
ENDBRANCH  13  18
ENDBRANCH   2   3
TORSDOF 4
ENDMDL
MODEL       83
REMARK 921   NORMALIZED FREE ENERGY PREDICTED BY IDOCK:   -4.30 KCAL/MOL
REMARK 922        TOTAL FREE ENERGY PREDICTED BY IDOCK:   -5.83 KCAL/MOL
REMARK 923 INTER-LIGAND FREE ENERGY PREDICTED BY IDOCK:   -5.25 KCAL/MOL
REMARK 924 INTRA-LIGAND FREE ENERGY PREDICTED BY IDOCK:   -0.58 KCAL/MOL
REMARK 927      BINDING AFFINITY PREDICTED BY RF-SCORE:    0.00 PKD
ROOT
HETATM    1  C   UNL     1     -12.006  15.032  64.287  1.00  0.00    -0.295 C  
HETATM    2  O   UNL     1     -11.149  15.778  65.148  1.00  0.00    -0.363 OA 
ENDROOT
BRANCH   2   3
HETATM    3  C   UNL     1     -10.296  15.042  65.927  1.00  0.00    -0.313 A  
HETATM    4  C   UNL     1      -9.649  15.667  67.000  1.00  0.00    -0.223 A  
HETATM    5  C   UNL     1      -8.740  14.931  67.765  1.00  0.00    -0.168 A  
HETATM    6  C   UNL     1      -9.179  12.931  66.468  1.00  0.00    -0.182 A  
HETATM    7  C   UNL     1      -8.514  13.557  67.514  1.00  0.00    -0.192 A  
HETATM    8  C   UNL     1     -10.059  13.679  65.696  1.00  0.00    -0.299 A  
HETATM    9  C   UNL     1      -7.668  12.720  68.243  1.00  0.00    -0.136 A  
HETATM   10  N   UNL     1      -6.917  13.202  69.321  1.00  0.00    -0.288 NA 
HETATM   11  N   UNL     1      -7.505  11.420  67.963  1.00  0.00    -0.095 NA 
HETATM   12  H1  UNL     1      -6.299  12.590  69.854  1.00  0.00     0.000 HD 
HETATM   13  C   UNL     1      -8.193  10.902  66.937  1.00  0.00    -0.135 A  
HETATM   14  H2  UNL     1      -7.558  13.649  69.977  1.00  0.00     0.000 HD 
HETATM   15  N   UNL     1      -9.017  11.637  66.178  1.00  0.00    -0.203 NA 
BRANCH   4  16
HETATM   16  O   UNL     1      -9.746  16.978  67.382  1.00  0.00    -0.244 OA 
HETATM   17  C   UNL     1     -10.645  17.269  68.446  1.00  0.00    -0.368 C  
ENDBRANCH   4  16
BRANCH  13  18
HETATM   18  N   UNL     1      -8.146   9.541  66.704  1.00  0.00    -0.108 NA 
HETATM   19  C   UNL     1      -8.123   7.690  65.111  1.00  0.00    -0.134 C  
HETATM   20  C   UNL     1      -8.790   9.023  65.496  1.00  0.00    -0.194 C  
HETATM   21  N   UNL     1      -8.114   6.731  66.227  1.00  0.00    -0.108 N  
HETATM   22  C   UNL     1      -7.571   7.269  67.486  1.00  0.00    -0.109 C  
HETATM   23  C   UNL     1      -8.271   5.385  65.934  1.00  0.00    -0.119 C  
HETATM   24  O   UNL     1      -8.516   5.010  64.784  1.00  0.00    -0.137 OA 
HETATM   25  C   UNL     1      -8.186   8.638  67.859  1.00  0.00    -0.115 C  
BRANCH  23  26
HETATM   26  C   UNL     1      -8.254   4.368  67.102  1.00  0.00    -0.101 C  
HETATM   27  C   UNL     1      -9.656   3.865  67.424  1.00  0.00    -0.218 C  
HETATM   28  C   UNL     1      -9.377   2.588  68.166  1.00  0.00    -0.261 C  
HETATM   29  C   UNL     1      -8.160   2.061  67.439  1.00  0.00    -0.066 C  
HETATM   30  O   UNL     1      -7.460   3.192  66.896  1.00  0.00    -0.072 OA 
ENDBRANCH  23  26
ENDBRANCH  13  18
ENDBRANCH   2   3
TORSDOF 4
ENDMDL
MODEL       84
REMARK 921   NORMALIZED FREE ENERGY PREDICTED BY IDOCK:   -4.30 KCAL/MOL
REMARK 922        TOTAL FREE ENERGY PREDICTED BY IDOCK:   -5.83 KCAL/MOL
REMARK 923 INTER-LIGAND FREE ENERGY PREDICTED BY IDOCK:   -6.48 KCAL/MOL
REMARK 924 INTRA-LIGAND FREE ENERGY PREDICTED BY IDOCK:    0.65 KCAL/MOL
REMARK 927      BINDING AFFINITY PREDICTED BY RF-SCORE:    0.00 PKD
ROOT
HETATM    1  C   UNL     1      -9.901  18.433  69.023  1.00  0.00    -0.260 C  
HETATM    2  O   UNL     1      -9.412  18.277  67.694  1.00  0.00    -0.267 OA 
ENDROOT
BRANCH   2   3
HETATM    3  C   UNL     1      -9.861  17.174  67.016  1.00  0.00    -0.276 A  
HETATM    4  C   UNL     1     -10.523  17.352  65.795  1.00  0.00    -0.215 A  
HETATM    5  C   UNL     1     -11.027  16.232  65.127  1.00  0.00    -0.285 A  
HETATM    6  C   UNL     1     -10.138  14.748  66.825  1.00  0.00    -0.256 A  
HETATM    7  C   UNL     1     -10.821  14.926  65.629  1.00  0.00    -0.347 A  
HETATM    8  C   UNL     1      -9.666  15.870  67.495  1.00  0.00    -0.223 A  
HETATM    9  C   UNL     1     -11.236  13.741  65.022  1.00  0.00    -0.335 A  
HETATM   10  N   UNL     1     -11.949  13.750  63.817  1.00  0.00    -0.710 NA 
HETATM   11  N   UNL     1     -11.001  12.529  65.542  1.00  0.00    -0.279 NA 
HETATM   12  H1  UNL     1     -12.253  12.884  63.373  1.00  0.00     0.000 HD 
HETATM   13  C   UNL     1     -10.328  12.456  66.698  1.00  0.00    -0.226 A  
HETATM   14  H2  UNL     1     -11.406  14.279  63.134  1.00  0.00     0.000 HD 
HETATM   15  N   UNL     1      -9.903  13.544  67.354  1.00  0.00    -0.224 NA 
BRANCH   4  16
HETATM   16  O   UNL     1     -10.811  18.535  65.169  1.00  0.00    -0.588 OA 
HETATM   17  C   UNL     1     -10.760  19.710  65.969  1.00  0.00    -0.424 C  
ENDBRANCH   4  16
BRANCH  13  18
HETATM   18  N   UNL     1      -9.957  11.220  67.193  1.00  0.00    -0.190 NA 
HETATM   19  C   UNL     1     -10.606   9.022  68.033  1.00  0.00    -0.186 C  
HETATM   20  C   UNL     1     -10.875  10.535  68.104  1.00  0.00    -0.253 C  
HETATM   21  N   UNL     1      -9.192   8.696  68.273  1.00  0.00    -0.138 N  
HETATM   22  C   UNL     1      -8.244   9.458  67.443  1.00  0.00    -0.121 C  
HETATM   23  C   UNL     1      -8.897   7.527  68.956  1.00  0.00    -0.132 C  
HETATM   24  O   UNL     1      -9.794   6.830  69.440  1.00  0.00    -0.155 OA 
HETATM   25  C   UNL     1      -8.534  10.977  67.454  1.00  0.00    -0.132 C  
BRANCH  23  26
HETATM   26  C   UNL     1      -7.410   7.172  69.206  1.00  0.00    -0.091 C  
HETATM   27  C   UNL     1      -6.709   8.251  70.023  1.00  0.00    -0.042 C  
HETATM   28  C   UNL     1      -5.516   7.518  70.568  1.00  0.00    -0.023 C  
HETATM   29  C   UNL     1      -6.083   6.140  70.824  1.00  0.00    -0.038 C  
HETATM   30  O   UNL     1      -7.167   5.943  69.903  1.00  0.00    -0.069 OA 
ENDBRANCH  23  26
ENDBRANCH  13  18
ENDBRANCH   2   3
TORSDOF 4
ENDMDL
MODEL       85
REMARK 921   NORMALIZED FREE ENERGY PREDICTED BY IDOCK:   -4.27 KCAL/MOL
REMARK 922        TOTAL FREE ENERGY PREDICTED BY IDOCK:   -5.79 KCAL/MOL
REMARK 923 INTER-LIGAND FREE ENERGY PREDICTED BY IDOCK:   -6.46 KCAL/MOL
REMARK 924 INTRA-LIGAND FREE ENERGY PREDICTED BY IDOCK:    0.67 KCAL/MOL
REMARK 927      BINDING AFFINITY PREDICTED BY RF-SCORE:    0.00 PKD
ROOT
HETATM    1  C   UNL     1     -10.907  15.765  68.907  1.00  0.00    -0.260 C  
HETATM    2  O   UNL     1     -12.165  15.418  69.479  1.00  0.00    -0.313 OA 
ENDROOT
BRANCH   2   3
HETATM    3  C   UNL     1     -12.267  14.145  69.974  1.00  0.00    -0.357 A  
HETATM    4  C   UNL     1     -13.210  13.881  70.976  1.00  0.00    -0.190 A  
HETATM    5  C   UNL     1     -13.281  12.594  71.518  1.00  0.00    -0.313 A  
HETATM    6  C   UNL     1     -11.553  11.803  70.013  1.00  0.00    -0.236 A  
HETATM    7  C   UNL     1     -12.467  11.547  71.027  1.00  0.00    -0.458 A  
HETATM    8  C   UNL     1     -11.470  13.092  69.501  1.00  0.00    -0.289 A  
HETATM    9  C   UNL     1     -12.489  10.221  71.461  1.00  0.00    -0.422 A  
HETATM   10  N   UNL     1     -13.346   9.803  72.486  1.00  0.00    -0.595 NA 
HETATM   11  N   UNL     1     -11.699   9.268  70.948  1.00  0.00    -0.288 NA 
HETATM   12  H1  UNL     1     -13.363   8.834  72.803  1.00  0.00     0.000 HD 
HETATM   13  C   UNL     1     -10.852   9.609  69.967  1.00  0.00    -0.264 A  
HETATM   14  H2  UNL     1     -14.298  10.066  72.227  1.00  0.00     0.000 HD 
HETATM   15  N   UNL     1     -10.757  10.861  69.500  1.00  0.00    -0.229 NA 
BRANCH   4  16
HETATM   16  O   UNL     1     -14.069  14.768  71.565  1.00  0.00    -0.418 OA 
HETATM   17  C   UNL     1     -13.483  15.798  72.353  1.00  0.00    -0.463 C  
ENDBRANCH   4  16
BRANCH  13  18
HETATM   18  N   UNL     1     -10.118   8.627  69.330  1.00  0.00    -0.196 NA 
HETATM   19  C   UNL     1      -8.790   6.583  69.473  1.00  0.00    -0.138 C  
HETATM   20  C   UNL     1      -9.037   7.978  70.073  1.00  0.00    -0.152 C  
HETATM   21  N   UNL     1      -8.553   6.636  68.022  1.00  0.00    -0.119 N  
HETATM   22  C   UNL     1      -9.574   7.383  67.266  1.00  0.00    -0.150 C  
HETATM   23  C   UNL     1      -7.647   5.742  67.473  1.00  0.00    -0.093 C  
HETATM   24  O   UNL     1      -6.980   4.992  68.193  1.00  0.00    -0.058 OA 
HETATM   25  C   UNL     1      -9.879   8.764  67.889  1.00  0.00    -0.169 C  
BRANCH  23  26
HETATM   26  C   UNL     1      -7.398   5.786  65.946  1.00  0.00    -0.073 C  
HETATM   27  C   UNL     1      -7.729   7.156  65.366  1.00  0.00    -0.111 C  
HETATM   28  C   UNL     1      -6.970   7.148  64.069  1.00  0.00    -0.057 C  
HETATM   29  C   UNL     1      -5.718   6.386  64.442  1.00  0.00    -0.022 C  
HETATM   30  O   UNL     1      -6.058   5.502  65.521  1.00  0.00    -0.027 OA 
ENDBRANCH  23  26
ENDBRANCH  13  18
ENDBRANCH   2   3
TORSDOF 4
ENDMDL
MODEL       86
REMARK 921   NORMALIZED FREE ENERGY PREDICTED BY IDOCK:   -4.24 KCAL/MOL
REMARK 922        TOTAL FREE ENERGY PREDICTED BY IDOCK:   -5.76 KCAL/MOL
REMARK 923 INTER-LIGAND FREE ENERGY PREDICTED BY IDOCK:   -5.20 KCAL/MOL
REMARK 924 INTRA-LIGAND FREE ENERGY PREDICTED BY IDOCK:   -0.56 KCAL/MOL
REMARK 927      BINDING AFFINITY PREDICTED BY RF-SCORE:    0.00 PKD
ROOT
HETATM    1  C   UNL     1     -11.772  15.045  64.521  1.00  0.00    -0.368 C  
HETATM    2  O   UNL     1     -11.176  15.430  65.758  1.00  0.00    -0.298 OA 
ENDROOT
BRANCH   2   3
HETATM    3  C   UNL     1     -10.435  14.466  66.390  1.00  0.00    -0.295 A  
HETATM    4  C   UNL     1      -9.946  14.724  67.677  1.00  0.00    -0.226 A  
HETATM    5  C   UNL     1      -9.147  13.763  68.303  1.00  0.00    -0.195 A  
HETATM    6  C   UNL     1      -9.394  12.250  66.425  1.00  0.00    -0.219 A  
HETATM    7  C   UNL     1      -8.883  12.516  67.689  1.00  0.00    -0.179 A  
HETATM    8  C   UNL     1     -10.163  13.224  65.800  1.00  0.00    -0.296 A  
HETATM    9  C   UNL     1      -8.142  11.472  68.243  1.00  0.00    -0.148 A  
HETATM   10  N   UNL     1      -7.549  11.588  69.505  1.00  0.00    -0.346 NA 
HETATM   11  N   UNL     1      -7.936  10.306  67.615  1.00  0.00    -0.102 NA 
HETATM   12  H1  UNL     1      -7.007  10.824  69.910  1.00  0.00     0.000 HD 
HETATM   13  C   UNL     1      -8.473  10.139  66.399  1.00  0.00    -0.131 A  
HETATM   14  H2  UNL     1      -8.276  11.845  70.173  1.00  0.00     0.000 HD 
HETATM   15  N   UNL     1      -9.189  11.094  65.790  1.00  0.00    -0.211 NA 
BRANCH   4  16
HETATM   16  O   UNL     1     -10.100  15.867  68.413  1.00  0.00    -0.218 OA 
HETATM   17  C   UNL     1     -11.165  15.881  69.356  1.00  0.00    -0.336 C  
ENDBRANCH   4  16
BRANCH  13  18
HETATM   18  N   UNL     1      -8.389   8.905  65.782  1.00  0.00    -0.127 NA 
HETATM   19  C   UNL     1      -7.383   7.489  64.067  1.00  0.00    -0.095 C  
HETATM   20  C   UNL     1      -8.005   8.862  64.370  1.00  0.00    -0.137 C  
HETATM   21  N   UNL     1      -8.261   6.379  64.468  1.00  0.00    -0.085 N  
HETATM   22  C   UNL     1      -8.750   6.462  65.855  1.00  0.00    -0.145 C  
HETATM   23  C   UNL     1      -8.273   5.236  63.684  1.00  0.00    -0.126 C  
HETATM   24  O   UNL     1      -7.644   5.188  62.622  1.00  0.00    -0.052 OA 
HETATM   25  C   UNL     1      -9.326   7.855  66.198  1.00  0.00    -0.125 C  
BRANCH  23  26
HETATM   26  C   UNL     1      -9.188   4.060  64.104  1.00  0.00    -0.146 C  
HETATM   27  C   UNL     1     -10.381   3.919  63.166  1.00  0.00    -0.185 C  
HETATM   28  C   UNL     1     -10.819   2.503  63.413  1.00  0.00    -0.210 C  
HETATM   29  C   UNL     1      -9.498   1.798  63.624  1.00  0.00    -0.111 C  
HETATM   30  O   UNL     1      -8.571   2.767  64.138  1.00  0.00    -0.086 OA 
ENDBRANCH  23  26
ENDBRANCH  13  18
ENDBRANCH   2   3
TORSDOF 4
ENDMDL
MODEL       87
REMARK 921   NORMALIZED FREE ENERGY PREDICTED BY IDOCK:   -4.21 KCAL/MOL
REMARK 922        TOTAL FREE ENERGY PREDICTED BY IDOCK:   -5.71 KCAL/MOL
REMARK 923 INTER-LIGAND FREE ENERGY PREDICTED BY IDOCK:   -5.63 KCAL/MOL
REMARK 924 INTRA-LIGAND FREE ENERGY PREDICTED BY IDOCK:   -0.08 KCAL/MOL
REMARK 927      BINDING AFFINITY PREDICTED BY RF-SCORE:    0.00 PKD
ROOT
HETATM    1  C   UNL     1     -10.530  11.406  63.609  1.00  0.00    -0.414 C  
HETATM    2  O   UNL     1     -10.267  10.264  64.420  1.00  0.00    -0.298 OA 
ENDROOT
BRANCH   2   3
HETATM    3  C   UNL     1      -9.486  10.481  65.524  1.00  0.00    -0.216 A  
HETATM    4  C   UNL     1      -8.980   9.378  66.224  1.00  0.00    -0.156 A  
HETATM    5  C   UNL     1      -8.225   9.597  67.380  1.00  0.00    -0.114 A  
HETATM    6  C   UNL     1      -8.389  11.999  67.102  1.00  0.00    -0.181 A  
HETATM    7  C   UNL     1      -7.912  10.906  67.813  1.00  0.00    -0.111 A  
HETATM    8  C   UNL     1      -9.162  11.770  65.971  1.00  0.00    -0.202 A  
HETATM    9  C   UNL     1      -7.130  11.236  68.921  1.00  0.00    -0.104 A  
HETATM   10  N   UNL     1      -6.584  10.248  69.749  1.00  0.00    -0.074 NA 
HETATM   11  N   UNL     1      -6.857  12.499  69.275  1.00  0.00    -0.063 NA 
HETATM   12  H1  UNL     1      -6.013  10.489  70.558  1.00  0.00     0.000 HD 
HETATM   13  C   UNL     1      -7.358  13.489  68.524  1.00  0.00    -0.114 A  
HETATM   14  H2  UNL     1      -6.046   9.608  69.164  1.00  0.00     0.000 HD 
HETATM   15  N   UNL     1      -8.127  13.261  67.451  1.00  0.00    -0.178 NA 
BRANCH   4  16
HETATM   16  O   UNL     1      -9.185   8.053  65.949  1.00  0.00    -0.156 OA 
HETATM   17  C   UNL     1     -10.092   7.358  66.797  1.00  0.00    -0.235 C  
ENDBRANCH   4  16
BRANCH  13  18
HETATM   18  N   UNL     1      -6.989  14.795  68.786  1.00  0.00    -0.097 NA 
HETATM   19  C   UNL     1      -5.714  16.378  70.139  1.00  0.00    -0.187 C  
HETATM   20  C   UNL     1      -6.647  15.155  70.163  1.00  0.00    -0.096 C  
HETATM   21  N   UNL     1      -6.280  17.494  69.366  1.00  0.00    -0.241 N  
HETATM   22  C   UNL     1      -6.734  17.128  68.013  1.00  0.00    -0.161 C  
HETATM   23  C   UNL     1      -6.032  18.786  69.804  1.00  0.00    -0.256 C  
HETATM   24  O   UNL     1      -5.442  18.993  70.868  1.00  0.00    -0.236 OA 
HETATM   25  C   UNL     1      -7.626  15.865  68.010  1.00  0.00    -0.129 C  
BRANCH  23  26
HETATM   26  C   UNL     1      -6.617  19.966  68.991  1.00  0.00    -0.328 C  
HETATM   27  C   UNL     1      -5.804  20.231  67.729  1.00  0.00    -0.238 C  
HETATM   28  C   UNL     1      -6.773  21.003  66.878  1.00  0.00    -0.388 C  
HETATM   29  C   UNL     1      -8.089  20.340  67.219  1.00  0.00    -0.338 C  
HETATM   30  O   UNL     1      -7.972  19.814  68.551  1.00  0.00    -0.322 OA 
ENDBRANCH  23  26
ENDBRANCH  13  18
ENDBRANCH   2   3
TORSDOF 4
ENDMDL
MODEL       88
REMARK 921   NORMALIZED FREE ENERGY PREDICTED BY IDOCK:   -4.21 KCAL/MOL
REMARK 922        TOTAL FREE ENERGY PREDICTED BY IDOCK:   -5.71 KCAL/MOL
REMARK 923 INTER-LIGAND FREE ENERGY PREDICTED BY IDOCK:   -5.16 KCAL/MOL
REMARK 924 INTRA-LIGAND FREE ENERGY PREDICTED BY IDOCK:   -0.55 KCAL/MOL
REMARK 927      BINDING AFFINITY PREDICTED BY RF-SCORE:    0.00 PKD
ROOT
HETATM    1  C   UNL     1      -7.713   5.783  73.114  1.00  0.00    -0.099 C  
HETATM    2  O   UNL     1      -8.899   5.288  72.496  1.00  0.00    -0.126 OA 
ENDROOT
BRANCH   2   3
HETATM    3  C   UNL     1      -9.172   5.778  71.247  1.00  0.00    -0.146 A  
HETATM    4  C   UNL     1      -9.773   4.935  70.304  1.00  0.00    -0.217 A  
HETATM    5  C   UNL     1     -10.006   5.418  69.013  1.00  0.00    -0.260 A  
HETATM    6  C   UNL     1      -9.138   7.601  69.611  1.00  0.00    -0.147 A  
HETATM    7  C   UNL     1      -9.707   6.756  68.667  1.00  0.00    -0.131 A  
HETATM    8  C   UNL     1      -8.884   7.102  70.882  1.00  0.00    -0.150 A  
HETATM    9  C   UNL     1      -9.942   7.352  67.427  1.00  0.00    -0.183 A  
HETATM   10  N   UNL     1     -10.499   6.631  66.365  1.00  0.00    -0.473 NA 
HETATM   11  N   UNL     1      -9.647   8.632  67.162  1.00  0.00    -0.161 NA 
HETATM   12  H1  UNL     1     -10.671   7.067  65.459  1.00  0.00     0.000 HD 
HETATM   13  C   UNL     1      -9.104   9.372  68.139  1.00  0.00    -0.127 A  
HETATM   14  H2  UNL     1     -11.376   6.222  66.688  1.00  0.00     0.000 HD 
HETATM   15  N   UNL     1      -8.835   8.875  69.353  1.00  0.00    -0.141 NA 
BRANCH   4  16
HETATM   16  O   UNL     1     -10.124   3.622  70.466  1.00  0.00    -0.007 OA 
HETATM   17  C   UNL     1      -9.168   2.650  70.059  1.00  0.00    -0.132 C  
ENDBRANCH   4  16
BRANCH  13  18
HETATM   18  N   UNL     1      -8.909  10.725  67.938  1.00  0.00    -0.130 NA 
HETATM   19  C   UNL     1      -7.422  12.551  67.294  1.00  0.00    -0.125 C  
HETATM   20  C   UNL     1      -7.562  11.265  68.127  1.00  0.00    -0.105 C  
HETATM   21  N   UNL     1      -8.488  13.522  67.587  1.00  0.00    -0.170 N  
HETATM   22  C   UNL     1      -9.851  12.969  67.511  1.00  0.00    -0.209 C  
HETATM   23  C   UNL     1      -8.169  14.871  67.561  1.00  0.00    -0.182 C  
HETATM   24  O   UNL     1      -7.004  15.246  67.400  1.00  0.00    -0.186 OA 
HETATM   25  C   UNL     1      -9.996  11.644  68.294  1.00  0.00    -0.201 C  
BRANCH  23  26
HETATM   26  C   UNL     1      -9.287  15.900  67.859  1.00  0.00    -0.207 C  
HETATM   27  C   UNL     1      -8.870  16.875  68.954  1.00  0.00    -0.216 C  
HETATM   28  C   UNL     1      -9.810  18.028  68.733  1.00  0.00    -0.360 C  
HETATM   29  C   UNL     1      -9.929  18.052  67.225  1.00  0.00    -0.323 C  
HETATM   30  O   UNL     1      -9.700  16.715  66.754  1.00  0.00    -0.241 OA 
ENDBRANCH  23  26
ENDBRANCH  13  18
ENDBRANCH   2   3
TORSDOF 4
ENDMDL
MODEL       89
REMARK 921   NORMALIZED FREE ENERGY PREDICTED BY IDOCK:   -4.18 KCAL/MOL
REMARK 922        TOTAL FREE ENERGY PREDICTED BY IDOCK:   -5.68 KCAL/MOL
REMARK 923 INTER-LIGAND FREE ENERGY PREDICTED BY IDOCK:   -5.93 KCAL/MOL
REMARK 924 INTRA-LIGAND FREE ENERGY PREDICTED BY IDOCK:    0.25 KCAL/MOL
REMARK 927      BINDING AFFINITY PREDICTED BY RF-SCORE:    0.00 PKD
ROOT
HETATM    1  C   UNL     1      -6.437  18.336  66.321  1.00  0.00    -0.214 C  
HETATM    2  O   UNL     1      -7.798  18.361  65.899  1.00  0.00    -0.481 OA 
ENDROOT
BRANCH   2   3
HETATM    3  C   UNL     1      -8.614  17.411  66.453  1.00  0.00    -0.247 A  
HETATM    4  C   UNL     1      -9.877  17.793  66.923  1.00  0.00    -0.312 A  
HETATM    5  C   UNL     1     -10.691  16.835  67.534  1.00  0.00    -0.275 A  
HETATM    6  C   UNL     1      -9.049  15.098  67.131  1.00  0.00    -0.211 A  
HETATM    7  C   UNL     1     -10.289  15.482  67.625  1.00  0.00    -0.269 A  
HETATM    8  C   UNL     1      -8.236  16.064  66.551  1.00  0.00    -0.334 A  
HETATM    9  C   UNL     1     -11.040  14.440  68.169  1.00  0.00    -0.264 A  
HETATM   10  N   UNL     1     -12.307  14.664  68.721  1.00  0.00    -0.588 NA 
HETATM   11  N   UNL     1     -10.608  13.172  68.216  1.00  0.00    -0.241 NA 
HETATM   12  H1  UNL     1     -12.856  13.902  69.119  1.00  0.00     0.000 HD 
HETATM   13  C   UNL     1      -9.399  12.896  67.710  1.00  0.00    -0.203 A  
HETATM   14  H2  UNL     1     -12.879  15.129  68.015  1.00  0.00     0.000 HD 
HETATM   15  N   UNL     1      -8.608  13.839  67.179  1.00  0.00    -0.211 NA 
BRANCH   4  16
HETATM   16  O   UNL     1     -10.422  19.049  66.919  1.00  0.00    -0.379 OA 
HETATM   17  C   UNL     1     -10.765  19.592  65.650  1.00  0.00    -0.329 C  
ENDBRANCH   4  16
BRANCH  13  18
HETATM   18  N   UNL     1      -8.980  11.582  67.625  1.00  0.00    -0.156 NA 
HETATM   19  C   UNL     1      -8.559   9.445  68.729  1.00  0.00    -0.127 C  
HETATM   20  C   UNL     1      -8.376  10.971  68.809  1.00  0.00    -0.144 C  
HETATM   21  N   UNL     1      -8.056   8.890  67.463  1.00  0.00    -0.108 N  
HETATM   22  C   UNL     1      -8.568   9.566  66.258  1.00  0.00    -0.130 C  
HETATM   23  C   UNL     1      -7.464   7.637  67.486  1.00  0.00    -0.104 C  
HETATM   24  O   UNL     1      -7.270   7.047  68.553  1.00  0.00    -0.085 OA 
HETATM   25  C   UNL     1      -8.446  11.105  66.345  1.00  0.00    -0.167 C  
BRANCH  23  26
HETATM   26  C   UNL     1      -6.940   7.043  66.157  1.00  0.00    -0.065 C  
HETATM   27  C   UNL     1      -8.036   6.994  65.098  1.00  0.00    -0.128 C  
HETATM   28  C   UNL     1      -7.246   6.892  63.822  1.00  0.00    -0.066 C  
HETATM   29  C   UNL     1      -6.048   7.763  64.124  1.00  0.00    -0.053 C  
HETATM   30  O   UNL     1      -5.846   7.739  65.546  1.00  0.00    -0.037 OA 
ENDBRANCH  23  26
ENDBRANCH  13  18
ENDBRANCH   2   3
TORSDOF 4
ENDMDL
MODEL       90
REMARK 921   NORMALIZED FREE ENERGY PREDICTED BY IDOCK:   -4.18 KCAL/MOL
REMARK 922        TOTAL FREE ENERGY PREDICTED BY IDOCK:   -5.67 KCAL/MOL
REMARK 923 INTER-LIGAND FREE ENERGY PREDICTED BY IDOCK:   -5.62 KCAL/MOL
REMARK 924 INTRA-LIGAND FREE ENERGY PREDICTED BY IDOCK:   -0.05 KCAL/MOL
REMARK 927      BINDING AFFINITY PREDICTED BY RF-SCORE:    0.00 PKD
ROOT
HETATM    1  C   UNL     1      -6.267   5.753  72.556  1.00  0.00    -0.048 C  
HETATM    2  O   UNL     1      -6.193   4.980  71.362  1.00  0.00    -0.023 OA 
ENDROOT
BRANCH   2   3
HETATM    3  C   UNL     1      -7.138   5.257  70.409  1.00  0.00    -0.061 A  
HETATM    4  C   UNL     1      -7.687   4.201  69.671  1.00  0.00    -0.053 A  
HETATM    5  C   UNL     1      -8.613   4.487  68.665  1.00  0.00    -0.101 A  
HETATM    6  C   UNL     1      -8.528   6.855  69.179  1.00  0.00    -0.129 A  
HETATM    7  C   UNL     1      -9.051   5.811  68.427  1.00  0.00    -0.118 A  
HETATM    8  C   UNL     1      -7.586   6.562  70.158  1.00  0.00    -0.096 A  
HETATM    9  C   UNL     1     -10.003   6.201  67.484  1.00  0.00    -0.137 A  
HETATM   10  N   UNL     1     -10.615   5.269  66.637  1.00  0.00    -0.357 NA 
HETATM   11  N   UNL     1     -10.386   7.473  67.312  1.00  0.00    -0.265 NA 
HETATM   12  H1  UNL     1     -11.311   5.555  65.949  1.00  0.00     0.000 HD 
HETATM   13  C   UNL     1      -9.829   8.412  68.090  1.00  0.00    -0.169 A  
HETATM   14  H2  UNL     1     -11.029   4.540  67.219  1.00  0.00     0.000 HD 
HETATM   15  N   UNL     1      -8.899   8.126  69.011  1.00  0.00    -0.144 NA 
BRANCH   4  16
HETATM   16  O   UNL     1      -7.379   2.871  69.767  1.00  0.00    -0.044 OA 
HETATM   17  C   UNL     1      -6.427   2.367  68.837  1.00  0.00    -0.029 C  
ENDBRANCH   4  16
BRANCH  13  18
HETATM   18  N   UNL     1     -10.295   9.711  68.027  1.00  0.00    -0.205 NA 
HETATM   19  C   UNL     1     -10.977  11.747  69.189  1.00  0.00    -0.209 C  
HETATM   20  C   UNL     1     -11.095  10.214  69.144  1.00  0.00    -0.212 C  
HETATM   21  N   UNL     1     -11.317  12.369  67.900  1.00  0.00    -0.268 N  
HETATM   22  C   UNL     1     -10.602  11.800  66.744  1.00  0.00    -0.238 C  
HETATM   23  C   UNL     1     -11.967  13.593  67.915  1.00  0.00    -0.347 C  
HETATM   24  O   UNL     1     -12.345  14.099  68.976  1.00  0.00    -0.294 OA 
HETATM   25  C   UNL     1     -10.659  10.256  66.714  1.00  0.00    -0.185 C  
BRANCH  23  26
HETATM   26  C   UNL     1     -12.320  14.258  66.562  1.00  0.00    -0.314 C  
HETATM   27  C   UNL     1     -11.111  14.958  65.953  1.00  0.00    -0.338 C  
HETATM   28  C   UNL     1     -11.500  15.070  64.505  1.00  0.00    -0.320 C  
HETATM   29  C   UNL     1     -12.251  13.777  64.280  1.00  0.00    -0.400 C  
HETATM   30  O   UNL     1     -12.812  13.380  65.541  1.00  0.00    -0.521 OA 
ENDBRANCH  23  26
ENDBRANCH  13  18
ENDBRANCH   2   3
TORSDOF 4
ENDMDL
MODEL       91
REMARK 921   NORMALIZED FREE ENERGY PREDICTED BY IDOCK:   -4.15 KCAL/MOL
REMARK 922        TOTAL FREE ENERGY PREDICTED BY IDOCK:   -5.64 KCAL/MOL
REMARK 923 INTER-LIGAND FREE ENERGY PREDICTED BY IDOCK:   -5.63 KCAL/MOL
REMARK 924 INTRA-LIGAND FREE ENERGY PREDICTED BY IDOCK:   -0.02 KCAL/MOL
REMARK 927      BINDING AFFINITY PREDICTED BY RF-SCORE:    0.00 PKD
ROOT
HETATM    1  C   UNL     1     -10.516   7.909  67.077  1.00  0.00    -0.349 C  
HETATM    2  O   UNL     1      -9.414   8.550  66.439  1.00  0.00    -0.197 OA 
ENDROOT
BRANCH   2   3
HETATM    3  C   UNL     1      -8.617   9.316  67.248  1.00  0.00    -0.125 A  
HETATM    4  C   UNL     1      -7.673   8.682  68.065  1.00  0.00    -0.102 A  
HETATM    5  C   UNL     1      -6.894   9.458  68.928  1.00  0.00    -0.055 A  
HETATM    6  C   UNL     1      -7.914  11.499  68.109  1.00  0.00    -0.136 A  
HETATM    7  C   UNL     1      -6.998  10.869  68.941  1.00  0.00    -0.084 A  
HETATM    8  C   UNL     1      -8.703  10.716  67.275  1.00  0.00    -0.129 A  
HETATM    9  C   UNL     1      -6.239  11.738  69.725  1.00  0.00    -0.138 A  
HETATM   10  N   UNL     1      -5.280  11.260  70.626  1.00  0.00    -0.102 NA 
HETATM   11  N   UNL     1      -6.375  13.070  69.684  1.00  0.00    -0.113 NA 
HETATM   12  H1  UNL     1      -4.725  11.895  71.198  1.00  0.00     0.000 HD 
HETATM   13  C   UNL     1      -7.283  13.588  68.845  1.00  0.00    -0.070 A  
HETATM   14  H2  UNL     1      -4.637  10.658  70.111  1.00  0.00     0.000 HD 
HETATM   15  N   UNL     1      -8.061  12.825  68.066  1.00  0.00    -0.151 NA 
BRANCH   4  16
HETATM   16  O   UNL     1      -7.441   7.339  68.181  1.00  0.00    -0.097 OA 
HETATM   17  C   UNL     1      -6.543   6.761  67.242  1.00  0.00    -0.054 C  
ENDBRANCH   4  16
BRANCH  13  18
HETATM   18  N   UNL     1      -7.358  14.959  68.685  1.00  0.00    -0.114 NA 
HETATM   19  C   UNL     1      -6.342  17.158  68.985  1.00  0.00    -0.204 C  
HETATM   20  C   UNL     1      -6.657  15.808  69.649  1.00  0.00    -0.182 C  
HETATM   21  N   UNL     1      -7.541  17.790  68.412  1.00  0.00    -0.260 N  
HETATM   22  C   UNL     1      -8.323  16.913  67.523  1.00  0.00    -0.189 C  
HETATM   23  C   UNL     1      -7.641  19.171  68.463  1.00  0.00    -0.334 C  
HETATM   24  O   UNL     1      -6.800  19.847  69.064  1.00  0.00    -0.319 OA 
HETATM   25  C   UNL     1      -8.600  15.528  68.150  1.00  0.00    -0.152 C  
BRANCH  23  26
HETATM   26  C   UNL     1      -8.896  19.844  67.854  1.00  0.00    -0.298 C  
HETATM   27  C   UNL     1      -8.865  19.805  66.331  1.00  0.00    -0.428 C  
HETATM   28  C   UNL     1     -10.311  20.014  65.975  1.00  0.00    -0.556 C  
HETATM   29  C   UNL     1     -11.018  19.261  67.080  1.00  0.00    -0.312 C  
HETATM   30  O   UNL     1     -10.157  19.274  68.229  1.00  0.00    -0.379 OA 
ENDBRANCH  23  26
ENDBRANCH  13  18
ENDBRANCH   2   3
TORSDOF 4
ENDMDL
MODEL       92
REMARK 921   NORMALIZED FREE ENERGY PREDICTED BY IDOCK:   -4.13 KCAL/MOL
REMARK 922        TOTAL FREE ENERGY PREDICTED BY IDOCK:   -5.61 KCAL/MOL
REMARK 923 INTER-LIGAND FREE ENERGY PREDICTED BY IDOCK:   -5.51 KCAL/MOL
REMARK 924 INTRA-LIGAND FREE ENERGY PREDICTED BY IDOCK:   -0.11 KCAL/MOL
REMARK 927      BINDING AFFINITY PREDICTED BY RF-SCORE:    0.00 PKD
ROOT
HETATM    1  C   UNL     1     -12.589  12.160  63.534  1.00  0.00    -0.506 C  
HETATM    2  O   UNL     1     -12.849  12.563  64.877  1.00  0.00    -0.758 OA 
ENDROOT
BRANCH   2   3
HETATM    3  C   UNL     1     -11.770  12.560  65.721  1.00  0.00    -0.426 A  
HETATM    4  C   UNL     1     -11.266  13.784  66.180  1.00  0.00    -0.300 A  
HETATM    5  C   UNL     1     -10.135  13.786  67.001  1.00  0.00    -0.256 A  
HETATM    6  C   UNL     1     -10.054  11.363  66.994  1.00  0.00    -0.208 A  
HETATM    7  C   UNL     1      -9.536  12.577  67.426  1.00  0.00    -0.184 A  
HETATM    8  C   UNL     1     -11.162  11.373  66.155  1.00  0.00    -0.203 A  
HETATM    9  C   UNL     1      -8.438  12.463  68.280  1.00  0.00    -0.170 A  
HETATM   10  N   UNL     1      -7.792  13.595  68.792  1.00  0.00    -0.284 NA 
HETATM   11  N   UNL     1      -7.921  11.286  68.656  1.00  0.00    -0.140 NA 
HETATM   12  H1  UNL     1      -6.990  13.511  69.416  1.00  0.00     0.000 HD 
HETATM   13  C   UNL     1      -8.493  10.166  68.193  1.00  0.00    -0.118 A  
HETATM   14  H2  UNL     1      -8.492  14.174  69.256  1.00  0.00     0.000 HD 
HETATM   15  N   UNL     1      -9.543  10.185  67.360  1.00  0.00    -0.152 NA 
BRANCH   4  16
HETATM   16  O   UNL     1     -11.716  15.038  65.870  1.00  0.00    -0.248 OA 
HETATM   17  C   UNL     1     -11.135  15.662  64.731  1.00  0.00    -0.412 C  
ENDBRANCH   4  16
BRANCH  13  18
HETATM   18  N   UNL     1      -8.067   8.939  68.664  1.00  0.00    -0.110 NA 
HETATM   19  C   UNL     1      -6.439   7.636  69.933  1.00  0.00    -0.034 C  
HETATM   20  C   UNL     1      -6.633   8.740  68.880  1.00  0.00    -0.053 C  
HETATM   21  N   UNL     1      -7.154   6.399  69.582  1.00  0.00    -0.070 N  
HETATM   22  C   UNL     1      -8.576   6.594  69.251  1.00  0.00    -0.131 C  
HETATM   23  C   UNL     1      -6.568   5.188  69.912  1.00  0.00    -0.036 C  
HETATM   24  O   UNL     1      -5.432   5.142  70.394  1.00  0.00    -0.004 OA 
HETATM   25  C   UNL     1      -8.798   7.740  68.238  1.00  0.00    -0.129 C  
BRANCH  23  26
HETATM   26  C   UNL     1      -7.319   3.882  69.553  1.00  0.00    -0.053 C  
HETATM   27  C   UNL     1      -8.526   3.666  70.459  1.00  0.00    -0.102 C  
HETATM   28  C   UNL     1      -9.358   2.702  69.661  1.00  0.00    -0.184 C  
HETATM   29  C   UNL     1      -9.118   3.175  68.245  1.00  0.00    -0.164 C  
HETATM   30  O   UNL     1      -7.823   3.796  68.214  1.00  0.00    -0.071 OA 
ENDBRANCH  23  26
ENDBRANCH  13  18
ENDBRANCH   2   3
TORSDOF 4
ENDMDL
MODEL       93
REMARK 921   NORMALIZED FREE ENERGY PREDICTED BY IDOCK:   -4.10 KCAL/MOL
REMARK 922        TOTAL FREE ENERGY PREDICTED BY IDOCK:   -5.58 KCAL/MOL
REMARK 923 INTER-LIGAND FREE ENERGY PREDICTED BY IDOCK:   -5.21 KCAL/MOL
REMARK 924 INTRA-LIGAND FREE ENERGY PREDICTED BY IDOCK:   -0.37 KCAL/MOL
REMARK 927      BINDING AFFINITY PREDICTED BY RF-SCORE:    0.00 PKD
ROOT
HETATM    1  C   UNL     1     -11.313  16.056  64.705  1.00  0.00    -0.280 C  
HETATM    2  O   UNL     1     -10.268  16.950  65.081  1.00  0.00    -0.595 OA 
ENDROOT
BRANCH   2   3
HETATM    3  C   UNL     1      -9.412  16.496  66.049  1.00  0.00    -0.282 A  
HETATM    4  C   UNL     1      -8.692  17.427  66.808  1.00  0.00    -0.255 A  
HETATM    5  C   UNL     1      -7.780  16.965  67.761  1.00  0.00    -0.184 A  
HETATM    6  C   UNL     1      -8.359  14.660  67.282  1.00  0.00    -0.213 A  
HETATM    7  C   UNL     1      -7.623  15.583  68.015  1.00  0.00    -0.133 A  
HETATM    8  C   UNL     1      -9.242  15.130  66.317  1.00  0.00    -0.336 A  
HETATM    9  C   UNL     1      -6.780  15.017  68.972  1.00  0.00    -0.116 A  
HETATM   10  N   UNL     1      -5.962  15.812  69.784  1.00  0.00    -0.151 NA 
HETATM   11  N   UNL     1      -6.682  13.696  69.174  1.00  0.00    -0.111 NA 
HETATM   12  H1  UNL     1      -5.346  15.398  70.484  1.00  0.00     0.000 HD 
HETATM   13  C   UNL     1      -7.437  12.884  68.422  1.00  0.00    -0.124 A  
HETATM   14  H2  UNL     1      -6.554  16.497  70.253  1.00  0.00     0.000 HD 
HETATM   15  N   UNL     1      -8.264  13.342  67.473  1.00  0.00    -0.174 NA 
BRANCH   4  16
HETATM   16  O   UNL     1      -8.719  18.791  66.694  1.00  0.00    -0.284 OA 
HETATM   17  C   UNL     1      -9.660  19.482  67.507  1.00  0.00    -0.327 C  
ENDBRANCH   4  16
BRANCH  13  18
HETATM   18  N   UNL     1      -7.456  11.529  68.693  1.00  0.00    -0.111 NA 
HETATM   19  C   UNL     1      -6.343   9.359  68.590  1.00  0.00    -0.048 C  
HETATM   20  C   UNL     1      -6.703  10.636  67.812  1.00  0.00    -0.068 C  
HETATM   21  N   UNL     1      -7.524   8.724  69.195  1.00  0.00    -0.075 N  
HETATM   22  C   UNL     1      -8.359   9.635  69.997  1.00  0.00    -0.182 C  
HETATM   23  C   UNL     1      -7.565   7.340  69.256  1.00  0.00    -0.102 C  
HETATM   24  O   UNL     1      -6.685   6.654  68.726  1.00  0.00    -0.052 OA 
HETATM   25  C   UNL     1      -8.683  10.951  69.253  1.00  0.00     0.029 C  
BRANCH  23  26
HETATM   26  C   UNL     1      -8.801   6.665  69.899  1.00  0.00    -0.144 C  
HETATM   27  C   UNL     1     -10.060   6.907  69.075  1.00  0.00    -0.175 C  
HETATM   28  C   UNL     1     -10.970   5.807  69.547  1.00  0.00    -0.374 C  
HETATM   29  C   UNL     1     -10.000   4.667  69.761  1.00  0.00    -0.225 C  
HETATM   30  O   UNL     1      -8.721   5.243  70.070  1.00  0.00    -0.112 OA 
ENDBRANCH  23  26
ENDBRANCH  13  18
ENDBRANCH   2   3
TORSDOF 4
ENDMDL
MODEL       94
REMARK 921   NORMALIZED FREE ENERGY PREDICTED BY IDOCK:   -4.05 KCAL/MOL
REMARK 922        TOTAL FREE ENERGY PREDICTED BY IDOCK:   -5.52 KCAL/MOL
REMARK 923 INTER-LIGAND FREE ENERGY PREDICTED BY IDOCK:   -4.99 KCAL/MOL
REMARK 924 INTRA-LIGAND FREE ENERGY PREDICTED BY IDOCK:   -0.53 KCAL/MOL
REMARK 927      BINDING AFFINITY PREDICTED BY RF-SCORE:    0.00 PKD
ROOT
HETATM    1  C   UNL     1     -12.418  14.393  70.469  1.00  0.00    -0.350 C  
HETATM    2  O   UNL     1     -11.825  15.091  69.376  1.00  0.00    -0.303 OA 
ENDROOT
BRANCH   2   3
HETATM    3  C   UNL     1     -10.653  14.568  68.897  1.00  0.00    -0.249 A  
HETATM    4  C   UNL     1      -9.531  15.400  68.798  1.00  0.00    -0.211 A  
HETATM    5  C   UNL     1      -8.348  14.882  68.262  1.00  0.00    -0.148 A  
HETATM    6  C   UNL     1      -9.356  12.691  68.007  1.00  0.00    -0.209 A  
HETATM    7  C   UNL     1      -8.250  13.523  67.882  1.00  0.00    -0.168 A  
HETATM    8  C   UNL     1     -10.534  13.224  68.515  1.00  0.00    -0.259 A  
HETATM    9  C   UNL     1      -7.110  12.893  67.382  1.00  0.00    -0.125 A  
HETATM   10  N   UNL     1      -5.916  13.597  67.184  1.00  0.00    -0.340 NA 
HETATM   11  N   UNL     1      -7.075  11.596  67.049  1.00  0.00    -0.144 NA 
HETATM   12  H1  UNL     1      -5.082  13.137  66.819  1.00  0.00     0.000 HD 
HETATM   13  C   UNL     1      -8.190  10.871  67.211  1.00  0.00    -0.123 A  
HETATM   14  H2  UNL     1      -5.666  14.047  68.064  1.00  0.00     0.000 HD 
HETATM   15  N   UNL     1      -9.332  11.399  67.673  1.00  0.00    -0.157 NA 
BRANCH   4  16
HETATM   16  O   UNL     1      -9.449  16.729  69.115  1.00  0.00    -0.243 OA 
HETATM   17  C   UNL     1      -9.891  17.650  68.125  1.00  0.00    -0.318 C  
ENDBRANCH   4  16
BRANCH  13  18
HETATM   18  N   UNL     1      -8.151   9.506  67.000  1.00  0.00    -0.112 NA 
HETATM   19  C   UNL     1      -8.087   7.631  65.437  1.00  0.00    -0.128 C  
HETATM   20  C   UNL     1      -8.751   8.977  65.775  1.00  0.00    -0.169 C  
HETATM   21  N   UNL     1      -8.134   6.689  66.566  1.00  0.00    -0.109 N  
HETATM   22  C   UNL     1      -7.637   7.240  67.838  1.00  0.00    -0.111 C  
HETATM   23  C   UNL     1      -8.297   5.341  66.287  1.00  0.00    -0.114 C  
HETATM   24  O   UNL     1      -8.500   4.951  65.133  1.00  0.00    -0.127 OA 
HETATM   25  C   UNL     1      -8.249   8.621  68.166  1.00  0.00    -0.115 C  
BRANCH  23  26
HETATM   26  C   UNL     1      -8.339   4.342  67.469  1.00  0.00    -0.099 C  
HETATM   27  C   UNL     1      -9.648   3.561  67.492  1.00  0.00    -0.177 C  
HETATM   28  C   UNL     1      -9.293   2.363  68.329  1.00  0.00    -0.265 C  
HETATM   29  C   UNL     1      -7.863   2.100  67.911  1.00  0.00    -0.059 C  
HETATM   30  O   UNL     1      -7.301   3.354  67.492  1.00  0.00    -0.058 OA 
ENDBRANCH  23  26
ENDBRANCH  13  18
ENDBRANCH   2   3
TORSDOF 4
ENDMDL
MODEL       95
REMARK 921   NORMALIZED FREE ENERGY PREDICTED BY IDOCK:   -4.02 KCAL/MOL
REMARK 922        TOTAL FREE ENERGY PREDICTED BY IDOCK:   -5.48 KCAL/MOL
REMARK 923 INTER-LIGAND FREE ENERGY PREDICTED BY IDOCK:   -5.18 KCAL/MOL
REMARK 924 INTRA-LIGAND FREE ENERGY PREDICTED BY IDOCK:   -0.30 KCAL/MOL
REMARK 927      BINDING AFFINITY PREDICTED BY RF-SCORE:    0.00 PKD
ROOT
HETATM    1  C   UNL     1     -14.402  14.119  71.903  1.00  0.00    -0.455 C  
HETATM    2  O   UNL     1     -13.067  13.658  72.095  1.00  0.00    -0.378 OA 
ENDROOT
BRANCH   2   3
HETATM    3  C   UNL     1     -12.511  12.980  71.042  1.00  0.00    -0.296 A  
HETATM    4  C   UNL     1     -12.326  13.651  69.826  1.00  0.00    -0.228 A  
HETATM    5  C   UNL     1     -11.806  12.947  68.736  1.00  0.00    -0.353 A  
HETATM    6  C   UNL     1     -11.563  10.940  70.074  1.00  0.00    -0.341 A  
HETATM    7  C   UNL     1     -11.406  11.596  68.860  1.00  0.00    -0.328 A  
HETATM    8  C   UNL     1     -12.107  11.641  71.143  1.00  0.00    -0.093 A  
HETATM    9  C   UNL     1     -10.833  10.817  67.854  1.00  0.00    -0.264 A  
HETATM   10  N   UNL     1     -10.620  11.327  66.568  1.00  0.00    -0.257 NA 
HETATM   11  N   UNL     1     -10.463   9.542  68.035  1.00  0.00    -0.219 NA 
HETATM   12  H1  UNL     1     -10.201  10.758  65.833  1.00  0.00     0.000 HD 
HETATM   13  C   UNL     1     -10.649   8.995  69.245  1.00  0.00    -0.213 A  
HETATM   14  H2  UNL     1     -10.069  12.181  66.656  1.00  0.00     0.000 HD 
HETATM   15  N   UNL     1     -11.202   9.668  70.262  1.00  0.00    -0.258 NA 
BRANCH   4  16
HETATM   16  O   UNL     1     -12.657  14.946  69.531  1.00  0.00    -0.143 OA 
HETATM   17  C   UNL     1     -12.131  15.480  68.322  1.00  0.00     0.119 C  
ENDBRANCH   4  16
BRANCH  13  18
HETATM   18  N   UNL     1     -10.160   7.728  69.501  1.00  0.00    -0.189 NA 
HETATM   19  C   UNL     1     -10.597   5.364  69.926  1.00  0.00    -0.281 C  
HETATM   20  C   UNL     1     -10.994   6.808  70.276  1.00  0.00    -0.291 C  
HETATM   21  N   UNL     1      -9.155   5.127  70.092  1.00  0.00    -0.125 N  
HETATM   22  C   UNL     1      -8.296   6.110  69.409  1.00  0.00    -0.116 C  
HETATM   23  C   UNL     1      -8.743   3.884  70.545  1.00  0.00    -0.076 C  
HETATM   24  O   UNL     1      -9.565   3.033  70.900  1.00  0.00    -0.153 OA 
HETATM   25  C   UNL     1      -8.716   7.569  69.701  1.00  0.00    -0.137 C  
BRANCH  23  26
HETATM   26  C   UNL     1      -7.227   3.624  70.714  1.00  0.00    -0.037 C  
HETATM   27  C   UNL     1      -6.785   3.817  72.160  1.00  0.00    -0.022 C  
HETATM   28  C   UNL     1      -5.490   3.055  72.206  1.00  0.00    -0.004 C  
HETATM   29  C   UNL     1      -5.781   1.885  71.292  1.00  0.00    -0.012 C  
HETATM   30  O   UNL     1      -6.770   2.317  70.344  1.00  0.00    -0.031 OA 
ENDBRANCH  23  26
ENDBRANCH  13  18
ENDBRANCH   2   3
TORSDOF 4
ENDMDL
MODEL       96
REMARK 921   NORMALIZED FREE ENERGY PREDICTED BY IDOCK:   -4.00 KCAL/MOL
REMARK 922        TOTAL FREE ENERGY PREDICTED BY IDOCK:   -5.45 KCAL/MOL
REMARK 923 INTER-LIGAND FREE ENERGY PREDICTED BY IDOCK:   -5.44 KCAL/MOL
REMARK 924 INTRA-LIGAND FREE ENERGY PREDICTED BY IDOCK:   -0.01 KCAL/MOL
REMARK 927      BINDING AFFINITY PREDICTED BY RF-SCORE:    0.00 PKD
ROOT
HETATM    1  C   UNL     1     -13.081  15.377  71.213  1.00  0.00    -0.493 C  
HETATM    2  O   UNL     1     -13.029  15.368  69.789  1.00  0.00    -0.010 OA 
ENDROOT
BRANCH   2   3
HETATM    3  C   UNL     1     -11.868  14.897  69.235  1.00  0.00    -0.318 A  
HETATM    4  C   UNL     1     -10.883  15.814  68.845  1.00  0.00    -0.260 A  
HETATM    5  C   UNL     1      -9.719  15.339  68.234  1.00  0.00    -0.210 A  
HETATM    6  C   UNL     1     -10.458  13.043  68.479  1.00  0.00    -0.249 A  
HETATM    7  C   UNL     1      -9.494  13.953  68.065  1.00  0.00    -0.208 A  
HETATM    8  C   UNL     1     -11.624  13.527  69.059  1.00  0.00    -0.356 A  
HETATM    9  C   UNL     1      -8.352  13.371  67.513  1.00  0.00    -0.190 A  
HETATM   10  N   UNL     1      -7.293  14.152  67.036  1.00  0.00    -0.332 NA 
HETATM   11  N   UNL     1      -8.191  12.047  67.390  1.00  0.00    -0.159 NA 
HETATM   12  H1  UNL     1      -6.458  13.727  66.633  1.00  0.00     0.000 HD 
HETATM   13  C   UNL     1      -9.174  11.246  67.823  1.00  0.00    -0.156 A  
HETATM   14  H2  UNL     1      -6.996  14.774  67.788  1.00  0.00     0.000 HD 
HETATM   15  N   UNL     1     -10.308  11.722  68.355  1.00  0.00    -0.208 NA 
BRANCH   4  16
HETATM   16  O   UNL     1     -10.936  17.179  68.931  1.00  0.00    -0.236 OA 
HETATM   17  C   UNL     1     -10.347  17.909  67.861  1.00  0.00    -0.389 C  
ENDBRANCH   4  16
BRANCH  13  18
HETATM   18  N   UNL     1      -8.985   9.878  67.829  1.00  0.00    -0.131 NA 
HETATM   19  C   UNL     1      -8.430   7.848  69.068  1.00  0.00    -0.131 C  
HETATM   20  C   UNL     1      -8.046   9.313  68.800  1.00  0.00    -0.104 C  
HETATM   21  N   UNL     1      -8.532   7.063  67.827  1.00  0.00    -0.120 N  
HETATM   22  C   UNL     1      -9.386   7.671  66.793  1.00  0.00    -0.172 C  
HETATM   23  C   UNL     1      -8.134   5.736  67.858  1.00  0.00    -0.098 C  
HETATM   24  O   UNL     1      -7.613   5.252  68.867  1.00  0.00    -0.079 OA 
HETATM   25  C   UNL     1      -9.054   9.162  66.550  1.00  0.00    -0.156 C  
BRANCH  23  26
HETATM   26  C   UNL     1      -8.246   4.901  66.559  1.00  0.00    -0.107 C  
HETATM   27  C   UNL     1      -9.701   4.667  66.170  1.00  0.00    -0.211 C  
HETATM   28  C   UNL     1      -9.593   4.324  64.711  1.00  0.00    -0.169 C  
HETATM   29  C   UNL     1      -8.467   5.226  64.258  1.00  0.00    -0.115 C  
HETATM   30  O   UNL     1      -7.624   5.464  65.397  1.00  0.00    -0.076 OA 
ENDBRANCH  23  26
ENDBRANCH  13  18
ENDBRANCH   2   3
TORSDOF 4
ENDMDL
MODEL       97
REMARK 921   NORMALIZED FREE ENERGY PREDICTED BY IDOCK:   -3.95 KCAL/MOL
REMARK 922        TOTAL FREE ENERGY PREDICTED BY IDOCK:   -5.40 KCAL/MOL
REMARK 923 INTER-LIGAND FREE ENERGY PREDICTED BY IDOCK:   -4.83 KCAL/MOL
REMARK 924 INTRA-LIGAND FREE ENERGY PREDICTED BY IDOCK:   -0.57 KCAL/MOL
REMARK 927      BINDING AFFINITY PREDICTED BY RF-SCORE:    0.00 PKD
ROOT
HETATM    1  C   UNL     1      -6.608   4.825  71.732  1.00  0.00    -0.031 C  
HETATM    2  O   UNL     1      -5.830   4.946  70.545  1.00  0.00    -0.015 OA 
ENDROOT
BRANCH   2   3
HETATM    3  C   UNL     1      -6.505   5.363  69.427  1.00  0.00    -0.038 A  
HETATM    4  C   UNL     1      -6.741   4.444  68.397  1.00  0.00    -0.047 A  
HETATM    5  C   UNL     1      -7.384   4.880  67.234  1.00  0.00    -0.082 A  
HETATM    6  C   UNL     1      -7.647   7.111  68.146  1.00  0.00    -0.115 A  
HETATM    7  C   UNL     1      -7.855   6.208  67.112  1.00  0.00    -0.102 A  
HETATM    8  C   UNL     1      -6.981   6.675  69.285  1.00  0.00    -0.074 A  
HETATM    9  C   UNL     1      -8.549   6.733  66.021  1.00  0.00    -0.145 A  
HETATM   10  N   UNL     1      -8.827   5.955  64.891  1.00  0.00    -0.367 NA 
HETATM   11  N   UNL     1      -8.981   8.000  65.967  1.00  0.00    -0.173 NA 
HETATM   12  H1  UNL     1      -9.334   6.338  64.093  1.00  0.00     0.000 HD 
HETATM   13  C   UNL     1      -8.737   8.796  67.017  1.00  0.00    -0.123 A  
HETATM   14  H2  UNL     1      -9.317   5.115  65.200  1.00  0.00     0.000 HD 
HETATM   15  N   UNL     1      -8.069   8.376  68.100  1.00  0.00    -0.119 NA 
BRANCH   4  16
HETATM   16  O   UNL     1      -6.355   3.132  68.347  1.00  0.00    -0.031 OA 
HETATM   17  C   UNL     1      -6.237   2.549  67.054  1.00  0.00    -0.024 C  
ENDBRANCH   4  16
BRANCH  13  18
HETATM   18  N   UNL     1      -9.281  10.066  67.049  1.00  0.00    -0.145 NA 
HETATM   19  C   UNL     1     -11.189  11.535  66.645  1.00  0.00    -0.271 C  
HETATM   20  C   UNL     1     -10.325  10.396  66.077  1.00  0.00    -0.192 C  
HETATM   21  N   UNL     1     -10.381  12.696  67.053  1.00  0.00    -0.232 N  
HETATM   22  C   UNL     1      -9.255  12.368  67.944  1.00  0.00    -0.192 C  
HETATM   23  C   UNL     1     -10.915  13.962  66.871  1.00  0.00    -0.295 C  
HETATM   24  O   UNL     1     -11.992  14.119  66.289  1.00  0.00    -0.394 OA 
HETATM   25  C   UNL     1      -8.408  11.185  67.420  1.00  0.00    -0.135 C  
BRANCH  23  26
HETATM   26  C   UNL     1     -10.075  15.187  67.306  1.00  0.00    -0.235 C  
HETATM   27  C   UNL     1      -9.811  16.126  66.135  1.00  0.00    -0.358 C  
HETATM   28  C   UNL     1      -9.467  17.415  66.827  1.00  0.00    -0.282 C  
HETATM   29  C   UNL     1     -10.390  17.385  68.024  1.00  0.00    -0.362 C  
HETATM   30  O   UNL     1     -10.648  16.007  68.334  1.00  0.00    -0.248 OA 
ENDBRANCH  23  26
ENDBRANCH  13  18
ENDBRANCH   2   3
TORSDOF 4
ENDMDL
MODEL       98
REMARK 921   NORMALIZED FREE ENERGY PREDICTED BY IDOCK:   -3.92 KCAL/MOL
REMARK 922        TOTAL FREE ENERGY PREDICTED BY IDOCK:   -5.35 KCAL/MOL
REMARK 923 INTER-LIGAND FREE ENERGY PREDICTED BY IDOCK:   -4.80 KCAL/MOL
REMARK 924 INTRA-LIGAND FREE ENERGY PREDICTED BY IDOCK:   -0.55 KCAL/MOL
REMARK 927      BINDING AFFINITY PREDICTED BY RF-SCORE:    0.00 PKD
ROOT
HETATM    1  C   UNL     1     -11.439   6.810  72.292  1.00  0.00    -0.276 C  
HETATM    2  O   UNL     1     -10.134   7.175  72.733  1.00  0.00    -0.175 OA 
ENDROOT
BRANCH   2   3
HETATM    3  C   UNL     1      -9.239   7.501  71.748  1.00  0.00    -0.140 A  
HETATM    4  C   UNL     1      -8.430   6.495  71.206  1.00  0.00    -0.126 A  
HETATM    5  C   UNL     1      -7.482   6.835  70.237  1.00  0.00    -0.090 A  
HETATM    6  C   UNL     1      -8.195   9.152  70.271  1.00  0.00    -0.159 A  
HETATM    7  C   UNL     1      -7.372   8.160  69.753  1.00  0.00    -0.065 A  
HETATM    8  C   UNL     1      -9.115   8.808  71.253  1.00  0.00    -0.300 A  
HETATM    9  C   UNL     1      -6.497   8.597  68.759  1.00  0.00    -0.053 A  
HETATM   10  N   UNL     1      -5.593   7.722  68.145  1.00  0.00    -0.031 NA 
HETATM   11  N   UNL     1      -6.447   9.867  68.333  1.00  0.00    -0.054 NA 
HETATM   12  H1  UNL     1      -4.953   8.042  67.419  1.00  0.00     0.000 HD 
HETATM   13  C   UNL     1      -7.285  10.754  68.888  1.00  0.00    -0.088 A  
HETATM   14  H2  UNL     1      -6.122   6.933  67.773  1.00  0.00     0.000 HD 
HETATM   15  N   UNL     1      -8.149  10.420  69.856  1.00  0.00    -0.056 NA 
BRANCH   4  16
HETATM   16  O   UNL     1      -8.401   5.172  71.556  1.00  0.00    -0.116 OA 
HETATM   17  C   UNL     1      -7.231   4.443  71.205  1.00  0.00    -0.040 C  
ENDBRANCH   4  16
BRANCH  13  18
HETATM   18  N   UNL     1      -7.349  12.038  68.382  1.00  0.00    -0.090 NA 
HETATM   19  C   UNL     1      -6.191  14.056  67.642  1.00  0.00    -0.093 C  
HETATM   20  C   UNL     1      -6.282  12.975  68.733  1.00  0.00    -0.079 C  
HETATM   21  N   UNL     1      -7.485  14.710  67.397  1.00  0.00    -0.198 N  
HETATM   22  C   UNL     1      -8.599  13.777  67.151  1.00  0.00    -0.198 C  
HETATM   23  C   UNL     1      -7.488  16.060  67.084  1.00  0.00    -0.218 C  
HETATM   24  O   UNL     1      -6.446  16.720  67.112  1.00  0.00    -0.154 OA 
HETATM   25  C   UNL     1      -8.672  12.648  68.205  1.00  0.00    -0.190 C  
BRANCH  23  26
HETATM   26  C   UNL     1      -8.847  16.753  66.817  1.00  0.00    -0.230 C  
HETATM   27  C   UNL     1      -9.478  17.259  68.108  1.00  0.00    -0.278 C  
HETATM   28  C   UNL     1     -10.451  18.290  67.608  1.00  0.00    -0.431 C  
HETATM   29  C   UNL     1      -9.699  18.893  66.443  1.00  0.00    -0.363 C  
HETATM   30  O   UNL     1      -8.810  17.885  65.937  1.00  0.00    -0.506 OA 
ENDBRANCH  23  26
ENDBRANCH  13  18
ENDBRANCH   2   3
TORSDOF 4
ENDMDL
MODEL       99
REMARK 921   NORMALIZED FREE ENERGY PREDICTED BY IDOCK:   -3.85 KCAL/MOL
REMARK 922        TOTAL FREE ENERGY PREDICTED BY IDOCK:   -5.27 KCAL/MOL
REMARK 923 INTER-LIGAND FREE ENERGY PREDICTED BY IDOCK:   -5.23 KCAL/MOL
REMARK 924 INTRA-LIGAND FREE ENERGY PREDICTED BY IDOCK:   -0.04 KCAL/MOL
REMARK 927      BINDING AFFINITY PREDICTED BY RF-SCORE:    0.00 PKD
ROOT
HETATM    1  C   UNL     1      -6.911  20.201  65.585  1.00  0.00    -0.287 C  
HETATM    2  O   UNL     1      -7.274  18.895  65.146  1.00  0.00    -0.418 OA 
ENDROOT
BRANCH   2   3
HETATM    3  C   UNL     1      -7.977  18.135  66.044  1.00  0.00    -0.115 A  
HETATM    4  C   UNL     1      -9.050  18.717  66.730  1.00  0.00    -0.312 A  
HETATM    5  C   UNL     1      -9.736  17.959  67.684  1.00  0.00    -0.280 A  
HETATM    6  C   UNL     1      -8.361  16.019  67.214  1.00  0.00    -0.181 A  
HETATM    7  C   UNL     1      -9.406  16.603  67.917  1.00  0.00    -0.221 A  
HETATM    8  C   UNL     1      -7.668  16.789  66.289  1.00  0.00    -0.310 A  
HETATM    9  C   UNL     1     -10.054  15.745  68.806  1.00  0.00    -0.215 A  
HETATM   10  N   UNL     1     -11.120  16.186  69.599  1.00  0.00    -0.328 NA 
HETATM   11  N   UNL     1      -9.702  14.464  68.975  1.00  0.00    -0.136 NA 
HETATM   12  H1  UNL     1     -11.593  15.559  70.250  1.00  0.00     0.000 HD 
HETATM   13  C   UNL     1      -8.683  13.986  68.248  1.00  0.00    -0.182 A  
HETATM   14  H2  UNL     1     -11.826  16.589  68.982  1.00  0.00     0.000 HD 
HETATM   15  N   UNL     1      -8.000  14.744  67.380  1.00  0.00    -0.185 NA 
BRANCH   4  16
HETATM   16  O   UNL     1      -9.500  20.006  66.632  1.00  0.00    -0.363 OA 
HETATM   17  C   UNL     1     -10.642  20.223  65.811  1.00  0.00    -0.116 C  
ENDBRANCH   4  16
BRANCH  13  18
HETATM   18  N   UNL     1      -8.381  12.639  68.303  1.00  0.00    -0.170 NA 
HETATM   19  C   UNL     1      -6.717  10.859  68.138  1.00  0.00    -0.063 C  
HETATM   20  C   UNL     1      -7.263  12.146  67.497  1.00  0.00    -0.133 C  
HETATM   21  N   UNL     1      -7.770   9.855  68.354  1.00  0.00    -0.084 N  
HETATM   22  C   UNL     1      -8.955  10.361  69.069  1.00  0.00    -0.179 C  
HETATM   23  C   UNL     1      -7.441   8.518  68.198  1.00  0.00    -0.097 C  
HETATM   24  O   UNL     1      -6.325   8.181  67.788  1.00  0.00    -0.050 OA 
HETATM   25  C   UNL     1      -9.484  11.686  68.475  1.00  0.00    -0.173 C  
BRANCH  23  26
HETATM   26  C   UNL     1      -8.541   7.454  68.432  1.00  0.00    -0.124 C  
HETATM   27  C   UNL     1      -8.317   6.220  67.565  1.00  0.00    -0.113 C  
HETATM   28  C   UNL     1      -9.126   5.174  68.279  1.00  0.00    -0.128 C  
HETATM   29  C   UNL     1      -8.918   5.551  69.729  1.00  0.00    -0.125 C  
HETATM   30  O   UNL     1      -8.664   6.964  69.773  1.00  0.00    -0.140 OA 
ENDBRANCH  23  26
ENDBRANCH  13  18
ENDBRANCH   2   3
TORSDOF 4
ENDMDL
MODEL      100
REMARK 921   NORMALIZED FREE ENERGY PREDICTED BY IDOCK:   -3.85 KCAL/MOL
REMARK 922        TOTAL FREE ENERGY PREDICTED BY IDOCK:   -5.27 KCAL/MOL
REMARK 923 INTER-LIGAND FREE ENERGY PREDICTED BY IDOCK:   -4.75 KCAL/MOL
REMARK 924 INTRA-LIGAND FREE ENERGY PREDICTED BY IDOCK:   -0.51 KCAL/MOL
REMARK 927      BINDING AFFINITY PREDICTED BY RF-SCORE:    0.00 PKD
ROOT
HETATM    1  C   UNL     1      -8.543   3.357  67.821  1.00  0.00    -0.101 C  
HETATM    2  O   UNL     1      -9.038   3.742  66.541  1.00  0.00    -0.134 OA 
ENDROOT
BRANCH   2   3
HETATM    3  C   UNL     1      -8.500   4.884  66.010  1.00  0.00    -0.117 A  
HETATM    4  C   UNL     1      -7.483   4.773  65.053  1.00  0.00    -0.076 A  
HETATM    5  C   UNL     1      -6.898   5.938  64.547  1.00  0.00    -0.050 A  
HETATM    6  C   UNL     1      -8.388   7.326  65.863  1.00  0.00    -0.144 A  
HETATM    7  C   UNL     1      -7.359   7.217  64.936  1.00  0.00    -0.080 A  
HETATM    8  C   UNL     1      -8.943   6.163  66.380  1.00  0.00    -0.156 A  
HETATM    9  C   UNL     1      -6.881   8.439  64.460  1.00  0.00    -0.069 A  
HETATM   10  N   UNL     1      -5.836   8.501  63.530  1.00  0.00    -0.071 NA 
HETATM   11  N   UNL     1      -7.368   9.622  64.858  1.00  0.00    -0.112 NA 
HETATM   12  H1  UNL     1      -5.487   9.393  63.182  1.00  0.00     0.000 HD 
HETATM   13  C   UNL     1      -8.365   9.627  65.753  1.00  0.00    -0.128 A  
HETATM   14  H2  UNL     1      -6.097   7.930  62.725  1.00  0.00     0.000 HD 
HETATM   15  N   UNL     1      -8.875   8.501  66.270  1.00  0.00    -0.147 NA 
BRANCH   4  16
HETATM   16  O   UNL     1      -6.918   3.625  64.569  1.00  0.00    -0.047 OA 
HETATM   17  C   UNL     1      -7.379   3.170  63.302  1.00  0.00    -0.053 C  
ENDBRANCH   4  16
BRANCH  13  18
HETATM   18  N   UNL     1      -8.975  10.822  66.085  1.00  0.00    -0.171 NA 
HETATM   19  C   UNL     1     -10.896  12.316  65.889  1.00  0.00    -0.271 C  
HETATM   20  C   UNL     1      -9.913  11.410  65.128  1.00  0.00    -0.264 C  
HETATM   21  N   UNL     1     -10.205  13.314  66.720  1.00  0.00    -0.250 N  
HETATM   22  C   UNL     1      -9.176  12.753  67.613  1.00  0.00    -0.192 C  
HETATM   23  C   UNL     1     -10.779  14.568  66.851  1.00  0.00    -0.288 C  
HETATM   24  O   UNL     1     -11.787  14.875  66.207  1.00  0.00    -0.264 OA 
HETATM   25  C   UNL     1      -8.212  11.793  66.878  1.00  0.00    -0.166 C  
BRANCH  23  26
HETATM   26  C   UNL     1     -10.062  15.621  67.730  1.00  0.00    -0.226 C  
HETATM   27  C   UNL     1      -8.884  16.251  66.996  1.00  0.00    -0.228 C  
HETATM   28  C   UNL     1      -8.671  17.526  67.764  1.00  0.00    -0.230 C  
HETATM   29  C   UNL     1     -10.088  17.924  68.112  1.00  0.00    -0.366 C  
HETATM   30  O   UNL     1     -10.869  16.719  68.176  1.00  0.00    -0.350 OA 
ENDBRANCH  23  26
ENDBRANCH  13  18
ENDBRANCH   2   3
TORSDOF 4
ENDMDL
MODEL      101
REMARK 921   NORMALIZED FREE ENERGY PREDICTED BY IDOCK:   -3.84 KCAL/MOL
REMARK 922        TOTAL FREE ENERGY PREDICTED BY IDOCK:   -5.26 KCAL/MOL
REMARK 923 INTER-LIGAND FREE ENERGY PREDICTED BY IDOCK:   -4.74 KCAL/MOL
REMARK 924 INTRA-LIGAND FREE ENERGY PREDICTED BY IDOCK:   -0.52 KCAL/MOL
REMARK 927      BINDING AFFINITY PREDICTED BY RF-SCORE:    0.00 PKD
ROOT
HETATM    1  C   UNL     1     -12.082   4.376  73.215  1.00  0.00     0.310 C  
HETATM    2  O   UNL     1     -10.675   4.146  73.206  1.00  0.00    -0.178 OA 
ENDROOT
BRANCH   2   3
HETATM    3  C   UNL     1      -9.990   4.673  72.143  1.00  0.00    -0.181 A  
HETATM    4  C   UNL     1      -8.972   3.915  71.550  1.00  0.00    -0.107 A  
HETATM    5  C   UNL     1      -8.238   4.471  70.498  1.00  0.00    -0.072 A  
HETATM    6  C   UNL     1      -9.578   6.490  70.554  1.00  0.00    -0.169 A  
HETATM    7  C   UNL     1      -8.549   5.751  69.984  1.00  0.00    -0.128 A  
HETATM    8  C   UNL     1     -10.283   5.940  71.617  1.00  0.00    -0.249 A  
HETATM    9  C   UNL     1      -7.915   6.379  68.911  1.00  0.00    -0.110 A  
HETATM   10  N   UNL     1      -6.849   5.771  68.237  1.00  0.00    -0.061 NA 
HETATM   11  N   UNL     1      -8.263   7.592  68.462  1.00  0.00    -0.124 NA 
HETATM   12  H1  UNL     1      -6.386   6.230  67.453  1.00  0.00     0.000 HD 
HETATM   13  C   UNL     1      -9.273   8.227  69.072  1.00  0.00    -0.147 A  
HETATM   14  H2  UNL     1      -7.159   4.850  67.925  1.00  0.00     0.000 HD 
HETATM   15  N   UNL     1      -9.928   7.702  70.116  1.00  0.00    -0.185 NA 
BRANCH   4  16
HETATM   16  O   UNL     1      -8.540   2.670  71.918  1.00  0.00    -0.069 OA 
HETATM   17  C   UNL     1      -7.205   2.327  71.565  1.00  0.00    -0.032 C  
ENDBRANCH   4  16
BRANCH  13  18
HETATM   18  N   UNL     1      -9.740   9.419  68.552  1.00  0.00    -0.147 NA 
HETATM   19  C   UNL     1     -11.403  10.612  67.221  1.00  0.00    -0.040 C  
HETATM   20  C   UNL     1     -10.483   9.381  67.292  1.00  0.00    -0.264 C  
HETATM   21  N   UNL     1     -10.667  11.869  67.427  1.00  0.00    -0.224 N  
HETATM   22  C   UNL     1      -9.824  11.887  68.635  1.00  0.00    -0.131 C  
HETATM   23  C   UNL     1     -11.071  12.988  66.717  1.00  0.00    -0.286 C  
HETATM   24  O   UNL     1     -11.955  12.911  65.858  1.00  0.00    -0.406 OA 
HETATM   25  C   UNL     1      -8.934  10.628  68.755  1.00  0.00    -0.172 C  
BRANCH  23  26
HETATM   26  C   UNL     1     -10.307  14.317  66.936  1.00  0.00    -0.268 C  
HETATM   27  C   UNL     1     -10.282  15.161  65.667  1.00  0.00    -0.387 C  
HETATM   28  C   UNL     1      -9.983  16.535  66.200  1.00  0.00    -0.363 C  
HETATM   29  C   UNL     1     -10.743  16.538  67.507  1.00  0.00    -0.283 C  
HETATM   30  O   UNL     1     -10.825  15.177  67.959  1.00  0.00    -0.267 OA 
ENDBRANCH  23  26
ENDBRANCH  13  18
ENDBRANCH   2   3
TORSDOF 4
ENDMDL
MODEL      102
REMARK 921   NORMALIZED FREE ENERGY PREDICTED BY IDOCK:   -3.83 KCAL/MOL
REMARK 922        TOTAL FREE ENERGY PREDICTED BY IDOCK:   -5.25 KCAL/MOL
REMARK 923 INTER-LIGAND FREE ENERGY PREDICTED BY IDOCK:   -4.91 KCAL/MOL
REMARK 924 INTRA-LIGAND FREE ENERGY PREDICTED BY IDOCK:   -0.33 KCAL/MOL
REMARK 927      BINDING AFFINITY PREDICTED BY RF-SCORE:    0.00 PKD
ROOT
HETATM    1  C   UNL     1      -5.936   3.552  64.362  1.00  0.00    -0.018 C  
HETATM    2  O   UNL     1      -7.217   3.917  63.853  1.00  0.00    -0.049 OA 
ENDROOT
BRANCH   2   3
HETATM    3  C   UNL     1      -8.041   4.579  64.725  1.00  0.00    -0.101 A  
HETATM    4  C   UNL     1      -8.856   3.833  65.585  1.00  0.00    -0.123 A  
HETATM    5  C   UNL     1      -9.734   4.505  66.440  1.00  0.00    -0.218 A  
HETATM    6  C   UNL     1      -8.933   6.658  65.663  1.00  0.00     0.035 A  
HETATM    7  C   UNL     1      -9.764   5.918  66.495  1.00  0.00    -0.185 A  
HETATM    8  C   UNL     1      -8.084   5.979  64.797  1.00  0.00    -0.132 A  
HETATM    9  C   UNL     1     -10.563   6.688  67.342  1.00  0.00    -0.301 A  
HETATM   10  N   UNL     1     -11.465   6.094  68.232  1.00  0.00    -0.331 NA 
HETATM   11  N   UNL     1     -10.538   8.027  67.357  1.00  0.00    -0.285 NA 
HETATM   12  H1  UNL     1     -12.049   6.656  68.851  1.00  0.00     0.000 HD 
HETATM   13  C   UNL     1      -9.699   8.654  66.520  1.00  0.00    -0.255 A  
HETATM   14  H2  UNL     1     -10.947   5.429  68.808  1.00  0.00     0.000 HD 
HETATM   15  N   UNL     1      -8.905   7.992  65.667  1.00  0.00    -0.134 NA 
BRANCH   4  16
HETATM   16  O   UNL     1      -8.958   2.470  65.662  1.00  0.00    -0.131 OA 
HETATM   17  C   UNL     1      -8.273   1.838  66.737  1.00  0.00    -0.079 C  
ENDBRANCH   4  16
BRANCH  13  18
HETATM   18  N   UNL     1      -9.555  10.025  66.602  1.00  0.00    -0.178 NA 
HETATM   19  C   UNL     1      -8.917  11.988  67.907  1.00  0.00    -0.182 C  
HETATM   20  C   UNL     1      -9.691  10.659  67.914  1.00  0.00    -0.161 C  
HETATM   21  N   UNL     1      -9.318  12.860  66.792  1.00  0.00    -0.238 N  
HETATM   22  C   UNL     1      -9.295  12.207  65.472  1.00  0.00     0.018 C  
HETATM   23  C   UNL     1      -9.341  14.229  67.007  1.00  0.00    -0.241 C  
HETATM   24  O   UNL     1      -9.132  14.699  68.129  1.00  0.00    -0.176 OA 
HETATM   25  C   UNL     1     -10.018  10.840  65.473  1.00  0.00    -0.263 C  
BRANCH  23  26
HETATM   26  C   UNL     1      -9.754  15.154  65.836  1.00  0.00    -0.350 C  
HETATM   27  C   UNL     1     -11.176  14.862  65.370  1.00  0.00    -0.359 C  
HETATM   28  C   UNL     1     -11.543  16.127  64.645  1.00  0.00    -0.133 C  
HETATM   29  C   UNL     1     -10.855  17.181  65.484  1.00  0.00    -0.055 C  
HETATM   30  O   UNL     1      -9.719  16.561  66.106  1.00  0.00    -0.288 OA 
ENDBRANCH  23  26
ENDBRANCH  13  18
ENDBRANCH   2   3
TORSDOF 4
ENDMDL
MODEL      103
REMARK 921   NORMALIZED FREE ENERGY PREDICTED BY IDOCK:   -3.82 KCAL/MOL
REMARK 922        TOTAL FREE ENERGY PREDICTED BY IDOCK:   -5.24 KCAL/MOL
REMARK 923 INTER-LIGAND FREE ENERGY PREDICTED BY IDOCK:   -5.52 KCAL/MOL
REMARK 924 INTRA-LIGAND FREE ENERGY PREDICTED BY IDOCK:    0.28 KCAL/MOL
REMARK 927      BINDING AFFINITY PREDICTED BY RF-SCORE:    0.00 PKD
ROOT
HETATM    1  C   UNL     1      -8.849   4.297  64.251  1.00  0.00    -0.145 C  
HETATM    2  O   UNL     1      -9.135   3.629  65.478  1.00  0.00    -0.135 OA 
ENDROOT
BRANCH   2   3
HETATM    3  C   UNL     1      -9.198   4.424  66.592  1.00  0.00    -0.137 A  
HETATM    4  C   UNL     1      -8.673   3.944  67.798  1.00  0.00    -0.103 A  
HETATM    5  C   UNL     1      -8.782   4.733  68.946  1.00  0.00    -0.107 A  
HETATM    6  C   UNL     1      -9.845   6.514  67.692  1.00  0.00    -0.125 A  
HETATM    7  C   UNL     1      -9.351   6.027  68.895  1.00  0.00    -0.131 A  
HETATM    8  C   UNL     1      -9.757   5.710  66.562  1.00  0.00    -0.181 A  
HETATM    9  C   UNL     1      -9.466   6.913  69.967  1.00  0.00    -0.158 A  
HETATM   10  N   UNL     1      -9.027   6.567  71.250  1.00  0.00    -0.142 NA 
HETATM   11  N   UNL     1     -10.005   8.134  69.853  1.00  0.00    -0.187 NA 
HETATM   12  H1  UNL     1      -9.110   7.215  72.033  1.00  0.00     0.000 HD 
HETATM   13  C   UNL     1     -10.450   8.520  68.649  1.00  0.00    -0.169 A  
HETATM   14  H2  UNL     1      -8.050   6.281  71.182  1.00  0.00     0.000 HD 
HETATM   15  N   UNL     1     -10.389   7.727  67.571  1.00  0.00    -0.241 NA 
BRANCH   4  16
HETATM   16  O   UNL     1      -8.095   2.724  68.027  1.00  0.00    -0.061 OA 
HETATM   17  C   UNL     1      -8.899   1.749  68.680  1.00  0.00    -0.090 C  
ENDBRANCH   4  16
BRANCH  13  18
HETATM   18  N   UNL     1     -10.892   9.817  68.471  1.00  0.00    -0.212 NA 
HETATM   19  C   UNL     1     -11.600  11.596  66.956  1.00  0.00    -0.189 C  
HETATM   20  C   UNL     1     -10.557  10.496  67.219  1.00  0.00    -0.264 C  
HETATM   21  N   UNL     1     -11.742  12.512  68.099  1.00  0.00    -0.336 N  
HETATM   22  C   UNL     1     -11.969  11.841  69.391  1.00  0.00    -0.298 C  
HETATM   23  C   UNL     1     -11.991  13.851  67.838  1.00  0.00    -0.358 C  
HETATM   24  O   UNL     1     -11.992  14.283  66.682  1.00  0.00    -0.410 OA 
HETATM   25  C   UNL     1     -10.966  10.693  69.646  1.00  0.00    -0.278 C  
BRANCH  23  26
HETATM   26  C   UNL     1     -12.151  14.819  69.035  1.00  0.00    -0.221 C  
HETATM   27  C   UNL     1     -13.056  14.231  70.112  1.00  0.00     0.165 C  
HETATM   28  C   UNL     1     -12.677  15.035  71.324  1.00  0.00    -0.419 C  
HETATM   29  C   UNL     1     -11.191  15.228  71.123  1.00  0.00    -0.330 C  
HETATM   30  O   UNL     1     -10.940  15.187  69.709  1.00  0.00    -0.254 OA 
ENDBRANCH  23  26
ENDBRANCH  13  18
ENDBRANCH   2   3
TORSDOF 4
ENDMDL
MODEL      104
REMARK 921   NORMALIZED FREE ENERGY PREDICTED BY IDOCK:   -3.80 KCAL/MOL
REMARK 922        TOTAL FREE ENERGY PREDICTED BY IDOCK:   -5.21 KCAL/MOL
REMARK 923 INTER-LIGAND FREE ENERGY PREDICTED BY IDOCK:   -4.84 KCAL/MOL
REMARK 924 INTRA-LIGAND FREE ENERGY PREDICTED BY IDOCK:   -0.37 KCAL/MOL
REMARK 927      BINDING AFFINITY PREDICTED BY RF-SCORE:    0.00 PKD
ROOT
HETATM    1  C   UNL     1      -8.172   3.728  67.474  1.00  0.00    -0.090 C  
HETATM    2  O   UNL     1      -8.929   4.043  66.308  1.00  0.00    -0.117 OA 
ENDROOT
BRANCH   2   3
HETATM    3  C   UNL     1      -8.624   5.232  65.699  1.00  0.00    -0.143 A  
HETATM    4  C   UNL     1      -7.955   5.212  64.469  1.00  0.00    -0.106 A  
HETATM    5  C   UNL     1      -7.598   6.424  63.871  1.00  0.00    -0.099 A  
HETATM    6  C   UNL     1      -8.647   7.680  65.659  1.00  0.00    -0.123 A  
HETATM    7  C   UNL     1      -7.958   7.662  64.454  1.00  0.00    -0.123 A  
HETATM    8  C   UNL     1      -8.972   6.470  66.259  1.00  0.00    -0.168 A  
HETATM    9  C   UNL     1      -7.696   8.924  63.920  1.00  0.00    -0.129 A  
HETATM   10  N   UNL     1      -6.998   9.077  62.716  1.00  0.00    -0.093 NA 
HETATM   11  N   UNL     1      -8.073  10.064  64.515  1.00  0.00    -0.151 NA 
HETATM   12  H1  UNL     1      -6.806   9.999  62.327  1.00  0.00     0.000 HD 
HETATM   13  C   UNL     1      -8.739   9.982  65.675  1.00  0.00    -0.155 A  
HETATM   14  H2  UNL     1      -7.478   8.528  62.003  1.00  0.00     0.000 HD 
HETATM   15  N   UNL     1      -9.023   8.811  66.261  1.00  0.00    -0.161 NA 
BRANCH   4  16
HETATM   16  O   UNL     1      -7.531   4.114  63.770  1.00  0.00    -0.057 OA 
HETATM   17  C   UNL     1      -8.337   3.705  62.671  1.00  0.00    -0.077 C  
ENDBRANCH   4  16
BRANCH  13  18
HETATM   18  N   UNL     1      -9.255  11.130  66.246  1.00  0.00    -0.188 NA 
HETATM   19  C   UNL     1      -8.962  13.475  66.857  1.00  0.00    -0.209 C  
HETATM   20  C   UNL     1      -8.323  12.077  66.859  1.00  0.00    -0.159 C  
HETATM   21  N   UNL     1     -10.295  13.479  67.481  1.00  0.00    -0.236 N  
HETATM   22  C   UNL     1     -11.215  12.457  66.953  1.00  0.00    -0.305 C  
HETATM   23  C   UNL     1     -10.672  14.595  68.211  1.00  0.00    -0.239 C  
HETATM   24  O   UNL     1      -9.877  15.516  68.421  1.00  0.00    -0.205 OA 
HETATM   25  C   UNL     1     -10.570  11.053  66.892  1.00  0.00    -0.258 C  
BRANCH  23  26
HETATM   26  C   UNL     1     -12.076  14.610  68.864  1.00  0.00    -0.216 C  
HETATM   27  C   UNL     1     -12.212  13.519  69.920  1.00  0.00    -0.356 C  
HETATM   28  C   UNL     1     -13.370  14.010  70.743  1.00  0.00    -0.086 C  
HETATM   29  C   UNL     1     -13.152  15.506  70.730  1.00  0.00    -0.390 C  
HETATM   30  O   UNL     1     -12.450  15.828  69.520  1.00  0.00    -0.199 OA 
ENDBRANCH  23  26
ENDBRANCH  13  18
ENDBRANCH   2   3
TORSDOF 4
ENDMDL
MODEL      105
REMARK 921   NORMALIZED FREE ENERGY PREDICTED BY IDOCK:   -3.77 KCAL/MOL
REMARK 922        TOTAL FREE ENERGY PREDICTED BY IDOCK:   -5.17 KCAL/MOL
REMARK 923 INTER-LIGAND FREE ENERGY PREDICTED BY IDOCK:   -4.98 KCAL/MOL
REMARK 924 INTRA-LIGAND FREE ENERGY PREDICTED BY IDOCK:   -0.20 KCAL/MOL
REMARK 927      BINDING AFFINITY PREDICTED BY RF-SCORE:    0.00 PKD
ROOT
HETATM    1  C   UNL     1     -11.330  14.883  70.378  1.00  0.00    -0.243 C  
HETATM    2  O   UNL     1     -11.887  13.969  69.437  1.00  0.00    -0.289 OA 
ENDROOT
BRANCH   2   3
HETATM    3  C   UNL     1     -11.925  12.656  69.829  1.00  0.00    -0.295 A  
HETATM    4  C   UNL     1     -12.737  12.296  70.912  1.00  0.00    -0.187 A  
HETATM    5  C   UNL     1     -12.739  10.967  71.345  1.00  0.00    -0.534 A  
HETATM    6  C   UNL     1     -11.208  10.328  69.578  1.00  0.00    -0.261 A  
HETATM    7  C   UNL     1     -11.990   9.975  70.670  1.00  0.00    -0.401 A  
HETATM    8  C   UNL     1     -11.191  11.657  69.173  1.00  0.00    -0.325 A  
HETATM    9  C   UNL     1     -11.957   8.617  70.987  1.00  0.00    -0.243 A  
HETATM   10  N   UNL     1     -12.681   8.103  72.070  1.00  0.00    -0.363 NA 
HETATM   11  N   UNL     1     -11.235   7.721  70.301  1.00  0.00    -0.243 NA 
HETATM   12  H1  UNL     1     -12.657   7.110  72.301  1.00  0.00     0.000 HD 
HETATM   13  C   UNL     1     -10.515   8.155  69.257  1.00  0.00    -0.214 A  
HETATM   14  H2  UNL     1     -13.657   8.375  71.953  1.00  0.00     0.000 HD 
HETATM   15  N   UNL     1     -10.481   9.443  68.892  1.00  0.00    -0.213 NA 
BRANCH   4  16
HETATM   16  O   UNL     1     -13.518  13.120  71.677  1.00  0.00    -0.346 OA 
HETATM   17  C   UNL     1     -13.083  13.357  73.011  1.00  0.00     0.487 C  
ENDBRANCH   4  16
BRANCH  13  18
HETATM   18  N   UNL     1      -9.865   7.240  68.452  1.00  0.00    -0.152 NA 
HETATM   19  C   UNL     1      -9.757   6.012  66.344  1.00  0.00    -0.121 C  
HETATM   20  C   UNL     1     -10.663   6.462  67.503  1.00  0.00    -0.319 C  
HETATM   21  N   UNL     1      -8.557   5.304  66.818  1.00  0.00    -0.107 N  
HETATM   22  C   UNL     1      -7.799   6.022  67.857  1.00  0.00    -0.105 C  
HETATM   23  C   UNL     1      -8.070   4.257  66.052  1.00  0.00    -0.102 C  
HETATM   24  O   UNL     1      -8.681   3.860  65.056  1.00  0.00    -0.112 OA 
HETATM   25  C   UNL     1      -8.702   6.534  69.003  1.00  0.00    -0.128 C  
BRANCH  23  26
HETATM   26  C   UNL     1      -6.803   3.512  66.540  1.00  0.00    -0.053 C  
HETATM   27  C   UNL     1      -7.114   2.592  67.715  1.00  0.00    -0.049 C  
HETATM   28  C   UNL     1      -5.953   1.637  67.692  1.00  0.00    -0.020 C  
HETATM   29  C   UNL     1      -5.705   1.480  66.208  1.00  0.00    -0.017 C  
HETATM   30  O   UNL     1      -6.148   2.687  65.568  1.00  0.00    -0.022 OA 
ENDBRANCH  23  26
ENDBRANCH  13  18
ENDBRANCH   2   3
TORSDOF 4
ENDMDL
MODEL      106
REMARK 921   NORMALIZED FREE ENERGY PREDICTED BY IDOCK:   -3.76 KCAL/MOL
REMARK 922        TOTAL FREE ENERGY PREDICTED BY IDOCK:   -5.16 KCAL/MOL
REMARK 923 INTER-LIGAND FREE ENERGY PREDICTED BY IDOCK:   -4.63 KCAL/MOL
REMARK 924 INTRA-LIGAND FREE ENERGY PREDICTED BY IDOCK:   -0.53 KCAL/MOL
REMARK 927      BINDING AFFINITY PREDICTED BY RF-SCORE:    0.00 PKD
ROOT
HETATM    1  C   UNL     1      -5.446  14.527  69.474  1.00  0.00    -0.091 C  
HETATM    2  O   UNL     1      -6.424  15.331  68.820  1.00  0.00    -0.094 OA 
ENDROOT
BRANCH   2   3
HETATM    3  C   UNL     1      -7.473  14.656  68.254  1.00  0.00    -0.117 A  
HETATM    4  C   UNL     1      -8.685  15.330  68.057  1.00  0.00    -0.160 A  
HETATM    5  C   UNL     1      -9.772  14.629  67.526  1.00  0.00    -0.210 A  
HETATM    6  C   UNL     1      -8.437  12.619  67.296  1.00  0.00    -0.193 A  
HETATM    7  C   UNL     1      -9.648  13.278  67.127  1.00  0.00    -0.240 A  
HETATM    8  C   UNL     1      -7.371  13.317  67.850  1.00  0.00    -0.134 A  
HETATM    9  C   UNL     1     -10.650  12.501  66.545  1.00  0.00    -0.242 A  
HETATM   10  N   UNL     1     -11.932  13.015  66.319  1.00  0.00    -0.410 NA 
HETATM   11  N   UNL     1     -10.468  11.226  66.176  1.00  0.00    -0.248 NA 
HETATM   12  H1  UNL     1     -12.665  12.447  65.893  1.00  0.00     0.000 HD 
HETATM   13  C   UNL     1      -9.262  10.676  66.374  1.00  0.00    -0.168 A  
HETATM   14  H2  UNL     1     -11.837  13.869  65.769  1.00  0.00     0.000 HD 
HETATM   15  N   UNL     1      -8.248  11.347  66.937  1.00  0.00    -0.152 NA 
BRANCH   4  16
HETATM   16  O   UNL     1      -8.980  16.626  68.385  1.00  0.00    -0.208 OA 
HETATM   17  C   UNL     1     -10.344  17.016  68.284  1.00  0.00    -0.347 C  
ENDBRANCH   4  16
BRANCH  13  18
HETATM   18  N   UNL     1      -9.004   9.409  65.888  1.00  0.00    -0.166 NA 
HETATM   19  C   UNL     1      -7.830   7.977  64.296  1.00  0.00    -0.137 C  
HETATM   20  C   UNL     1      -8.647   9.268  64.475  1.00  0.00    -0.195 C  
HETATM   21  N   UNL     1      -8.523   6.800  64.844  1.00  0.00    -0.019 N  
HETATM   22  C   UNL     1      -8.991   6.962  66.232  1.00  0.00    -0.151 C  
HETATM   23  C   UNL     1      -8.377   5.589  64.186  1.00  0.00    -0.102 C  
HETATM   24  O   UNL     1      -7.770   5.519  63.113  1.00  0.00    -0.070 OA 
HETATM   25  C   UNL     1      -9.764   8.284  66.446  1.00  0.00    -0.230 C  
BRANCH  23  26
HETATM   26  C   UNL     1      -9.096   4.344  64.761  1.00  0.00    -0.152 C  
HETATM   27  C   UNL     1      -9.532   3.391  63.654  1.00  0.00    -0.122 C  
HETATM   28  C   UNL     1      -9.716   2.098  64.397  1.00  0.00    -0.064 C  
HETATM   29  C   UNL     1      -8.602   2.160  65.418  1.00  0.00    -0.111 C  
HETATM   30  O   UNL     1      -8.333   3.547  65.676  1.00  0.00    -0.103 OA 
ENDBRANCH  23  26
ENDBRANCH  13  18
ENDBRANCH   2   3
TORSDOF 4
ENDMDL
MODEL      107
REMARK 921   NORMALIZED FREE ENERGY PREDICTED BY IDOCK:   -3.72 KCAL/MOL
REMARK 922        TOTAL FREE ENERGY PREDICTED BY IDOCK:   -5.12 KCAL/MOL
REMARK 923 INTER-LIGAND FREE ENERGY PREDICTED BY IDOCK:   -4.86 KCAL/MOL
REMARK 924 INTRA-LIGAND FREE ENERGY PREDICTED BY IDOCK:   -0.26 KCAL/MOL
REMARK 927      BINDING AFFINITY PREDICTED BY RF-SCORE:    0.00 PKD
ROOT
HETATM    1  C   UNL     1     -11.330  14.883  70.378  1.00  0.00    -0.243 C  
HETATM    2  O   UNL     1     -11.880  13.962  69.439  1.00  0.00    -0.290 OA 
ENDROOT
BRANCH   2   3
HETATM    3  C   UNL     1     -11.911  12.651  69.835  1.00  0.00    -0.294 A  
HETATM    4  C   UNL     1     -12.722  12.289  70.918  1.00  0.00    -0.187 A  
HETATM    5  C   UNL     1     -12.717  10.962  71.355  1.00  0.00    -0.539 A  
HETATM    6  C   UNL     1     -11.179  10.326  69.592  1.00  0.00    -0.269 A  
HETATM    7  C   UNL     1     -11.961   9.972  70.685  1.00  0.00    -0.401 A  
HETATM    8  C   UNL     1     -11.170  11.654  69.184  1.00  0.00    -0.325 A  
HETATM    9  C   UNL     1     -11.920   8.615  71.006  1.00  0.00    -0.243 A  
HETATM   10  N   UNL     1     -12.642   8.100  72.089  1.00  0.00    -0.417 NA 
HETATM   11  N   UNL     1     -11.191   7.722  70.323  1.00  0.00    -0.243 NA 
HETATM   12  H1  UNL     1     -12.613   7.108  72.324  1.00  0.00     0.000 HD 
HETATM   13  C   UNL     1     -10.473   8.157  69.279  1.00  0.00    -0.214 A  
HETATM   14  H2  UNL     1     -13.620   8.366  71.970  1.00  0.00     0.000 HD 
HETATM   15  N   UNL     1     -10.446   9.444  68.910  1.00  0.00    -0.213 NA 
BRANCH   4  16
HETATM   16  O   UNL     1     -13.510  13.110  71.679  1.00  0.00    -0.346 OA 
HETATM   17  C   UNL     1     -14.140  12.522  72.811  1.00  0.00     0.926 C  
ENDBRANCH   4  16
BRANCH  13  18
HETATM   18  N   UNL     1      -9.815   7.243  68.478  1.00  0.00    -0.153 NA 
HETATM   19  C   UNL     1      -7.715   6.362  67.598  1.00  0.00    -0.102 C  
HETATM   20  C   UNL     1      -8.531   7.632  67.894  1.00  0.00    -0.123 C  
HETATM   21  N   UNL     1      -8.464   5.398  66.776  1.00  0.00    -0.108 N  
HETATM   22  C   UNL     1      -9.807   5.077  67.289  1.00  0.00    -0.179 C  
HETATM   23  C   UNL     1      -7.763   4.648  65.845  1.00  0.00    -0.094 C  
HETATM   24  O   UNL     1      -6.563   4.854  65.637  1.00  0.00    -0.039 OA 
HETATM   25  C   UNL     1     -10.622   6.341  67.648  1.00  0.00    -0.271 C  
BRANCH  23  26
HETATM   26  C   UNL     1      -8.542   3.626  64.982  1.00  0.00    -0.109 C  
HETATM   27  C   UNL     1      -9.361   4.320  63.900  1.00  0.00    -0.138 C  
HETATM   28  C   UNL     1      -9.599   3.210  62.915  1.00  0.00    -0.094 C  
HETATM   29  C   UNL     1      -8.297   2.443  62.985  1.00  0.00    -0.077 C  
HETATM   30  O   UNL     1      -7.747   2.650  64.296  1.00  0.00    -0.073 OA 
ENDBRANCH  23  26
ENDBRANCH  13  18
ENDBRANCH   2   3
TORSDOF 4
ENDMDL
MODEL      108
REMARK 921   NORMALIZED FREE ENERGY PREDICTED BY IDOCK:   -3.69 KCAL/MOL
REMARK 922        TOTAL FREE ENERGY PREDICTED BY IDOCK:   -5.07 KCAL/MOL
REMARK 923 INTER-LIGAND FREE ENERGY PREDICTED BY IDOCK:   -5.18 KCAL/MOL
REMARK 924 INTRA-LIGAND FREE ENERGY PREDICTED BY IDOCK:    0.12 KCAL/MOL
REMARK 927      BINDING AFFINITY PREDICTED BY RF-SCORE:    0.00 PKD
ROOT
HETATM    1  C   UNL     1     -11.265  16.907  68.485  1.00  0.00    -0.112 C  
HETATM    2  O   UNL     1     -10.097  17.058  67.682  1.00  0.00    -0.279 OA 
ENDROOT
BRANCH   2   3
HETATM    3  C   UNL     1      -9.235  15.994  67.674  1.00  0.00    -0.205 A  
HETATM    4  C   UNL     1      -7.863  16.235  67.528  1.00  0.00    -0.146 A  
HETATM    5  C   UNL     1      -6.986  15.148  67.469  1.00  0.00    -0.220 A  
HETATM    6  C   UNL     1      -8.810  13.585  67.794  1.00  0.00    -0.198 A  
HETATM    7  C   UNL     1      -7.453  13.821  67.620  1.00  0.00    -0.187 A  
HETATM    8  C   UNL     1      -9.676  14.671  67.823  1.00  0.00    -0.215 A  
HETATM    9  C   UNL     1      -6.663  12.671  67.625  1.00  0.00    -0.144 A  
HETATM   10  N   UNL     1      -5.276  12.739  67.447  1.00  0.00    -0.292 NA 
HETATM   11  N   UNL     1      -7.163  11.439  67.784  1.00  0.00    -0.085 NA 
HETATM   12  H1  UNL     1      -4.698  11.898  67.451  1.00  0.00     0.000 HD 
HETATM   13  C   UNL     1      -8.486  11.310  67.951  1.00  0.00    -0.133 A  
HETATM   14  H2  UNL     1      -4.900  13.381  68.145  1.00  0.00     0.000 HD 
HETATM   15  N   UNL     1      -9.318  12.360  67.948  1.00  0.00    -0.189 NA 
BRANCH   4  16
HETATM   16  O   UNL     1      -7.243  17.445  67.368  1.00  0.00    -0.161 OA 
HETATM   17  C   UNL     1      -7.064  17.899  66.031  1.00  0.00    -0.305 C  
ENDBRANCH   4  16
BRANCH  13  18
HETATM   18  N   UNL     1      -9.017  10.069  68.247  1.00  0.00    -0.119 NA 
HETATM   19  C   UNL     1     -10.579   8.717  69.549  1.00  0.00    -0.219 C  
HETATM   20  C   UNL     1      -9.526   9.837  69.599  1.00  0.00    -0.219 C  
HETATM   21  N   UNL     1     -10.066   7.500  68.901  1.00  0.00    -0.186 N  
HETATM   22  C   UNL     1      -9.448   7.728  67.583  1.00  0.00    -0.144 C  
HETATM   23  C   UNL     1     -10.493   6.273  69.382  1.00  0.00    -0.243 C  
HETATM   24  O   UNL     1     -11.201   6.197  70.391  1.00  0.00    -0.333 OA 
HETATM   25  C   UNL     1      -8.429   8.891  67.600  1.00  0.00    -0.121 C  
BRANCH  23  26
HETATM   26  C   UNL     1      -9.964   4.987  68.700  1.00  0.00    -0.144 C  
HETATM   27  C   UNL     1     -10.239   4.998  67.201  1.00  0.00    -0.234 C  
HETATM   28  C   UNL     1      -9.251   3.990  66.685  1.00  0.00    -0.173 C  
HETATM   29  C   UNL     1      -8.060   4.229  67.585  1.00  0.00    -0.095 C  
HETATM   30  O   UNL     1      -8.558   4.741  68.831  1.00  0.00    -0.084 OA 
ENDBRANCH  23  26
ENDBRANCH  13  18
ENDBRANCH   2   3
TORSDOF 4
ENDMDL
MODEL      109
REMARK 921   NORMALIZED FREE ENERGY PREDICTED BY IDOCK:   -3.68 KCAL/MOL
REMARK 922        TOTAL FREE ENERGY PREDICTED BY IDOCK:   -5.06 KCAL/MOL
REMARK 923 INTER-LIGAND FREE ENERGY PREDICTED BY IDOCK:   -5.06 KCAL/MOL
REMARK 924 INTRA-LIGAND FREE ENERGY PREDICTED BY IDOCK:   -0.00 KCAL/MOL
REMARK 927      BINDING AFFINITY PREDICTED BY RF-SCORE:    0.00 PKD
ROOT
HETATM    1  C   UNL     1      -9.297   3.177  65.543  1.00  0.00    -0.117 C  
HETATM    2  O   UNL     1      -8.101   3.784  65.061  1.00  0.00    -0.092 OA 
ENDROOT
BRANCH   2   3
HETATM    3  C   UNL     1      -7.731   4.950  65.678  1.00  0.00    -0.087 A  
HETATM    4  C   UNL     1      -6.545   4.975  66.422  1.00  0.00    -0.049 A  
HETATM    5  C   UNL     1      -6.191   6.149  67.094  1.00  0.00    -0.029 A  
HETATM    6  C   UNL     1      -8.134   7.304  66.218  1.00  0.00    -0.121 A  
HETATM    7  C   UNL     1      -6.973   7.322  66.980  1.00  0.00    -0.081 A  
HETATM    8  C   UNL     1      -8.491   6.124  65.577  1.00  0.00    -0.149 A  
HETATM    9  C   UNL     1      -6.688   8.555  67.567  1.00  0.00    -0.063 A  
HETATM   10  N   UNL     1      -5.560   8.735  68.376  1.00  0.00    -0.038 NA 
HETATM   11  N   UNL     1      -7.463   9.637  67.412  1.00  0.00    -0.091 NA 
HETATM   12  H1  UNL     1      -5.352   9.636  68.805  1.00  0.00     0.000 HD 
HETATM   13  C   UNL     1      -8.562   9.525  66.653  1.00  0.00    -0.134 A  
HETATM   14  H2  UNL     1      -4.740   8.443  67.844  1.00  0.00     0.000 HD 
HETATM   15  N   UNL     1      -8.915   8.376  66.063  1.00  0.00    -0.176 NA 
BRANCH   4  16
HETATM   16  O   UNL     1      -5.676   3.940  66.639  1.00  0.00    -0.021 OA 
HETATM   17  C   UNL     1      -5.892   3.160  67.810  1.00  0.00    -0.023 C  
ENDBRANCH   4  16
BRANCH  13  18
HETATM   18  N   UNL     1      -9.310  10.652  66.369  1.00  0.00    -0.165 NA 
HETATM   19  C   UNL     1     -11.283  11.645  65.328  1.00  0.00    -0.199 C  
HETATM   20  C   UNL     1     -10.118  10.657  65.148  1.00  0.00    -0.307 C  
HETATM   21  N   UNL     1     -10.820  12.983  65.728  1.00  0.00    -0.271 N  
HETATM   22  C   UNL     1      -9.914  12.990  66.890  1.00  0.00    -0.243 C  
HETATM   23  C   UNL     1     -11.505  14.086  65.242  1.00  0.00    -0.322 C  
HETATM   24  O   UNL     1     -12.412  13.956  64.415  1.00  0.00    -0.613 OA 
HETATM   25  C   UNL     1      -8.769  11.960  66.755  1.00  0.00    -0.193 C  
BRANCH  23  26
HETATM   26  C   UNL     1     -11.029  15.497  65.666  1.00  0.00    -0.303 C  
HETATM   27  C   UNL     1     -11.068  15.667  67.180  1.00  0.00    -0.218 C  
HETATM   28  C   UNL     1     -10.135  16.825  67.398  1.00  0.00    -0.276 C  
HETATM   29  C   UNL     1      -9.076  16.578  66.346  1.00  0.00    -0.297 C  
HETATM   30  O   UNL     1      -9.698  15.854  65.273  1.00  0.00    -0.385 OA 
ENDBRANCH  23  26
ENDBRANCH  13  18
ENDBRANCH   2   3
TORSDOF 4
ENDMDL
MODEL      110
REMARK 921   NORMALIZED FREE ENERGY PREDICTED BY IDOCK:   -3.68 KCAL/MOL
REMARK 922        TOTAL FREE ENERGY PREDICTED BY IDOCK:   -5.06 KCAL/MOL
REMARK 923 INTER-LIGAND FREE ENERGY PREDICTED BY IDOCK:   -6.26 KCAL/MOL
REMARK 924 INTRA-LIGAND FREE ENERGY PREDICTED BY IDOCK:    1.20 KCAL/MOL
REMARK 927      BINDING AFFINITY PREDICTED BY RF-SCORE:    0.00 PKD
ROOT
HETATM    1  C   UNL     1     -13.973  13.716  72.306  1.00  0.00    -0.563 C  
HETATM    2  O   UNL     1     -13.358  12.462  72.026  1.00  0.00    -0.507 OA 
ENDROOT
BRANCH   2   3
HETATM    3  C   UNL     1     -12.573  12.417  70.903  1.00  0.00    -0.246 A  
HETATM    4  C   UNL     1     -12.311  13.607  70.212  1.00  0.00    -0.322 A  
HETATM    5  C   UNL     1     -11.553  13.556  69.039  1.00  0.00    -0.356 A  
HETATM    6  C   UNL     1     -11.233  11.165  69.280  1.00  0.00    -0.267 A  
HETATM    7  C   UNL     1     -10.997  12.340  68.578  1.00  0.00    -0.275 A  
HETATM    8  C   UNL     1     -12.011  11.223  70.430  1.00  0.00    -0.471 A  
HETATM    9  C   UNL     1     -10.189  12.185  67.451  1.00  0.00    -0.198 A  
HETATM   10  N   UNL     1      -9.868  13.271  66.628  1.00  0.00    -0.269 NA 
HETATM   11  N   UNL     1      -9.681  11.005  67.070  1.00  0.00    -0.180 NA 
HETATM   12  H1  UNL     1      -9.278  13.158  65.805  1.00  0.00     0.000 HD 
HETATM   13  C   UNL     1      -9.959   9.926  67.815  1.00  0.00    -0.165 A  
HETATM   14  H2  UNL     1      -9.454  13.998  67.214  1.00  0.00     0.000 HD 
HETATM   15  N   UNL     1     -10.735   9.985  68.905  1.00  0.00    -0.211 NA 
BRANCH   4  16
HETATM   16  O   UNL     1     -12.768  14.862  70.513  1.00  0.00    -0.346 OA 
HETATM   17  C   UNL     1     -11.783  15.865  70.733  1.00  0.00    -0.401 C  
ENDBRANCH   4  16
BRANCH  13  18
HETATM   18  N   UNL     1      -9.346   8.723  67.524  1.00  0.00    -0.135 NA 
HETATM   19  C   UNL     1      -7.583   7.103  68.005  1.00  0.00    -0.111 C  
HETATM   20  C   UNL     1      -7.914   8.591  67.798  1.00  0.00    -0.107 C  
HETATM   21  N   UNL     1      -8.043   6.270  66.882  1.00  0.00    -0.108 N  
HETATM   22  C   UNL     1      -9.456   6.469  66.517  1.00  0.00    -0.154 C  
HETATM   23  C   UNL     1      -7.268   5.182  66.515  1.00  0.00    -0.077 C  
HETATM   24  O   UNL     1      -6.171   4.975  67.043  1.00  0.00    -0.030 OA 
HETATM   25  C   UNL     1      -9.823   7.963  66.363  1.00  0.00    -0.147 C  
BRANCH  23  26
HETATM   26  C   UNL     1      -7.749   4.295  65.340  1.00  0.00    -0.086 C  
HETATM   27  C   UNL     1      -8.799   3.288  65.796  1.00  0.00    -0.136 C  
HETATM   28  C   UNL     1      -9.471   2.917  64.503  1.00  0.00    -0.146 C  
HETATM   29  C   UNL     1      -9.460   4.231  63.755  1.00  0.00    -0.118 C  
HETATM   30  O   UNL     1      -8.336   4.988  64.231  1.00  0.00    -0.125 OA 
ENDBRANCH  23  26
ENDBRANCH  13  18
ENDBRANCH   2   3
TORSDOF 4
ENDMDL
MODEL      111
REMARK 921   NORMALIZED FREE ENERGY PREDICTED BY IDOCK:   -3.68 KCAL/MOL
REMARK 922        TOTAL FREE ENERGY PREDICTED BY IDOCK:   -5.05 KCAL/MOL
REMARK 923 INTER-LIGAND FREE ENERGY PREDICTED BY IDOCK:   -4.55 KCAL/MOL
REMARK 924 INTRA-LIGAND FREE ENERGY PREDICTED BY IDOCK:   -0.51 KCAL/MOL
REMARK 927      BINDING AFFINITY PREDICTED BY RF-SCORE:    0.00 PKD
ROOT
HETATM    1  C   UNL     1      -5.146   2.690  66.535  1.00  0.00    -0.005 C  
HETATM    2  O   UNL     1      -5.735   3.302  67.679  1.00  0.00    -0.020 OA 
ENDROOT
BRANCH   2   3
HETATM    3  C   UNL     1      -6.856   4.054  67.446  1.00  0.00    -0.051 A  
HETATM    4  C   UNL     1      -8.063   3.403  67.163  1.00  0.00    -0.083 A  
HETATM    5  C   UNL     1      -9.195   4.169  66.875  1.00  0.00    -0.169 A  
HETATM    6  C   UNL     1      -7.966   6.227  67.237  1.00  0.00    -0.109 A  
HETATM    7  C   UNL     1      -9.157   5.582  66.928  1.00  0.00    -0.115 A  
HETATM    8  C   UNL     1      -6.840   5.456  67.495  1.00  0.00    -0.060 A  
HETATM    9  C   UNL     1     -10.235   6.439  66.706  1.00  0.00    -0.195 A  
HETATM   10  N   UNL     1     -11.502   5.946  66.371  1.00  0.00    -0.463 NA 
HETATM   11  N   UNL     1     -10.139   7.773  66.782  1.00  0.00    -0.270 NA 
HETATM   12  H1  UNL     1     -12.290   6.572  66.209  1.00  0.00     0.000 HD 
HETATM   13  C   UNL     1      -8.949   8.305  67.093  1.00  0.00    -0.138 A  
HETATM   14  H2  UNL     1     -11.778   5.273  67.087  1.00  0.00     0.000 HD 
HETATM   15  N   UNL     1      -7.860   7.556  67.310  1.00  0.00    -0.115 NA 
BRANCH   4  16
HETATM   16  O   UNL     1      -8.278   2.054  67.068  1.00  0.00    -0.074 OA 
HETATM   17  C   UNL     1      -8.803   1.576  65.835  1.00  0.00    -0.119 C  
ENDBRANCH   4  16
BRANCH  13  18
HETATM   18  N   UNL     1      -8.847   9.666  67.307  1.00  0.00    -0.131 NA 
HETATM   19  C   UNL     1      -7.493  11.583  67.979  1.00  0.00    -0.098 C  
HETATM   20  C   UNL     1      -7.902  10.140  68.319  1.00  0.00    -0.093 C  
HETATM   21  N   UNL     1      -8.657  12.466  67.808  1.00  0.00    -0.162 N  
HETATM   22  C   UNL     1      -9.676  11.954  66.876  1.00  0.00    -0.200 C  
HETATM   23  C   UNL     1      -8.549  13.782  68.230  1.00  0.00    -0.175 C  
HETATM   24  O   UNL     1      -7.542  14.177  68.827  1.00  0.00    -0.125 OA 
HETATM   25  C   UNL     1     -10.058  10.484  67.164  1.00  0.00    -0.209 C  
BRANCH  23  26
HETATM   26  C   UNL     1      -9.767  14.720  68.046  1.00  0.00    -0.213 C  
HETATM   27  C   UNL     1     -10.621  14.778  69.307  1.00  0.00    -0.248 C  
HETATM   28  C   UNL     1     -11.391  16.055  69.115  1.00  0.00    -0.352 C  
HETATM   29  C   UNL     1     -10.368  16.940  68.439  1.00  0.00    -0.338 C  
HETATM   30  O   UNL     1      -9.465  16.083  67.722  1.00  0.00    -0.215 OA 
ENDBRANCH  23  26
ENDBRANCH  13  18
ENDBRANCH   2   3
TORSDOF 4
ENDMDL
MODEL      112
REMARK 921   NORMALIZED FREE ENERGY PREDICTED BY IDOCK:   -3.63 KCAL/MOL
REMARK 922        TOTAL FREE ENERGY PREDICTED BY IDOCK:   -5.00 KCAL/MOL
REMARK 923 INTER-LIGAND FREE ENERGY PREDICTED BY IDOCK:   -5.04 KCAL/MOL
REMARK 924 INTRA-LIGAND FREE ENERGY PREDICTED BY IDOCK:    0.05 KCAL/MOL
REMARK 927      BINDING AFFINITY PREDICTED BY RF-SCORE:    0.00 PKD
ROOT
HETATM    1  C   UNL     1      -9.209  19.742  66.228  1.00  0.00    -0.388 C  
HETATM    2  O   UNL     1      -8.458  20.012  67.409  1.00  0.00    -0.314 OA 
ENDROOT
BRANCH   2   3
HETATM    3  C   UNL     1      -7.889  18.924  68.018  1.00  0.00    -0.277 A  
HETATM    4  C   UNL     1      -6.925  19.132  69.012  1.00  0.00    -0.335 A  
HETATM    5  C   UNL     1      -6.307  18.024  69.599  1.00  0.00    -0.178 A  
HETATM    6  C   UNL     1      -7.664  16.501  68.289  1.00  0.00    -0.176 A  
HETATM    7  C   UNL     1      -6.686  16.705  69.253  1.00  0.00    -0.221 A  
HETATM    8  C   UNL     1      -8.251  17.609  67.691  1.00  0.00    -0.225 A  
HETATM    9  C   UNL     1      -6.171  15.534  69.809  1.00  0.00    -0.159 A  
HETATM   10  N   UNL     1      -5.168  15.569  70.785  1.00  0.00    -0.148 NA 
HETATM   11  N   UNL     1      -6.579  14.310  69.448  1.00  0.00    -0.126 NA 
HETATM   12  H1  UNL     1      -4.792  14.712  71.191  1.00  0.00     0.000 HD 
HETATM   13  C   UNL     1      -7.533  14.212  68.511  1.00  0.00    -0.123 A  
HETATM   14  H2  UNL     1      -5.494  16.162  71.549  1.00  0.00     0.000 HD 
HETATM   15  N   UNL     1      -8.073  15.285  67.919  1.00  0.00    -0.133 NA 
BRANCH   4  16
HETATM   16  O   UNL     1      -6.440  20.329  69.464  1.00  0.00    -0.307 OA 
HETATM   17  C   UNL     1      -5.694  20.300  70.676  1.00  0.00    -0.321 C  
ENDBRANCH   4  16
BRANCH  13  18
HETATM   18  N   UNL     1      -8.067  12.973  68.211  1.00  0.00    -0.149 NA 
HETATM   19  C   UNL     1      -9.909  11.654  67.303  1.00  0.00    -0.187 C  
HETATM   20  C   UNL     1      -9.523  12.826  68.221  1.00  0.00    -0.203 C  
HETATM   21  N   UNL     1      -9.194  10.416  67.651  1.00  0.00    -0.147 N  
HETATM   22  C   UNL     1      -7.733  10.568  67.756  1.00  0.00    -0.093 C  
HETATM   23  C   UNL     1      -9.865   9.211  67.511  1.00  0.00    -0.177 C  
HETATM   24  O   UNL     1     -11.060   9.181  67.203  1.00  0.00    -0.003 OA 
HETATM   25  C   UNL     1      -7.324  11.778  68.627  1.00  0.00    -0.115 C  
BRANCH  23  26
HETATM   26  C   UNL     1      -9.116   7.903  67.866  1.00  0.00    -0.131 C  
HETATM   27  C   UNL     1      -8.499   7.260  66.630  1.00  0.00    -0.124 C  
HETATM   28  C   UNL     1      -7.449   6.363  67.224  1.00  0.00    -0.088 C  
HETATM   29  C   UNL     1      -6.960   7.185  68.396  1.00  0.00    -0.076 C  
HETATM   30  O   UNL     1      -8.044   8.031  68.810  1.00  0.00    -0.121 OA 
ENDBRANCH  23  26
ENDBRANCH  13  18
ENDBRANCH   2   3
TORSDOF 4
ENDMDL
MODEL      113
REMARK 921   NORMALIZED FREE ENERGY PREDICTED BY IDOCK:   -3.62 KCAL/MOL
REMARK 922        TOTAL FREE ENERGY PREDICTED BY IDOCK:   -4.99 KCAL/MOL
REMARK 923 INTER-LIGAND FREE ENERGY PREDICTED BY IDOCK:   -4.92 KCAL/MOL
REMARK 924 INTRA-LIGAND FREE ENERGY PREDICTED BY IDOCK:   -0.07 KCAL/MOL
REMARK 927      BINDING AFFINITY PREDICTED BY RF-SCORE:    0.00 PKD
ROOT
HETATM    1  C   UNL     1     -11.768  14.094  64.571  1.00  0.00    -0.413 C  
HETATM    2  O   UNL     1     -11.729  14.361  65.970  1.00  0.00    -0.364 OA 
ENDROOT
BRANCH   2   3
HETATM    3  C   UNL     1     -10.648  13.860  66.646  1.00  0.00    -0.274 A  
HETATM    4  C   UNL     1      -9.488  14.639  66.741  1.00  0.00    -0.260 A  
HETATM    5  C   UNL     1      -8.366  14.109  67.385  1.00  0.00    -0.210 A  
HETATM    6  C   UNL     1      -9.567  12.074  67.927  1.00  0.00    -0.196 A  
HETATM    7  C   UNL     1      -8.407  12.834  67.996  1.00  0.00    -0.173 A  
HETATM    8  C   UNL     1     -10.667  12.599  67.259  1.00  0.00    -0.259 A  
HETATM    9  C   UNL     1      -7.365  12.232  68.703  1.00  0.00    -0.106 A  
HETATM   10  N   UNL     1      -6.125  12.863  68.852  1.00  0.00    -0.078 NA 
HETATM   11  N   UNL     1      -7.468  11.023  69.271  1.00  0.00    -0.120 NA 
HETATM   12  H1  UNL     1      -5.364  12.423  69.369  1.00  0.00     0.000 HD 
HETATM   13  C   UNL     1      -8.630  10.366  69.156  1.00  0.00    -0.164 A  
HETATM   14  H2  UNL     1      -6.287  13.786  69.257  1.00  0.00     0.000 HD 
HETATM   15  N   UNL     1      -9.676  10.866  68.485  1.00  0.00    -0.176 NA 
BRANCH   4  16
HETATM   16  O   UNL     1      -9.275  15.883  66.210  1.00  0.00    -0.278 OA 
HETATM   17  C   UNL     1      -7.941  16.377  66.255  1.00  0.00    -0.229 C  
ENDBRANCH   4  16
BRANCH  13  18
HETATM   18  N   UNL     1      -8.811   9.178  69.838  1.00  0.00    -0.155 NA 
HETATM   19  C   UNL     1     -10.256   7.298  70.418  1.00  0.00    -0.194 C  
HETATM   20  C   UNL     1     -10.165   8.826  70.269  1.00  0.00    -0.196 C  
HETATM   21  N   UNL     1      -9.205   6.761  71.296  1.00  0.00    -0.154 N  
HETATM   22  C   UNL     1      -7.841   7.194  70.945  1.00  0.00    -0.095 C  
HETATM   23  C   UNL     1      -9.517   5.681  72.106  1.00  0.00    -0.149 C  
HETATM   24  O   UNL     1     -10.671   5.246  72.169  1.00  0.00    -0.219 OA 
HETATM   25  C   UNL     1      -7.741   8.722  70.733  1.00  0.00    -0.102 C  
BRANCH  23  26
HETATM   26  C   UNL     1      -8.414   5.104  73.026  1.00  0.00    -0.111 C  
HETATM   27  C   UNL     1      -7.431   4.239  72.245  1.00  0.00    -0.068 C  
HETATM   28  C   UNL     1      -6.232   4.217  73.150  1.00  0.00    -0.020 C  
HETATM   29  C   UNL     1      -6.247   5.614  73.728  1.00  0.00    -0.062 C  
HETATM   30  O   UNL     1      -7.610   6.067  73.721  1.00  0.00    -0.095 OA 
ENDBRANCH  23  26
ENDBRANCH  13  18
ENDBRANCH   2   3
TORSDOF 4
ENDMDL
MODEL      114
REMARK 921   NORMALIZED FREE ENERGY PREDICTED BY IDOCK:   -3.60 KCAL/MOL
REMARK 922        TOTAL FREE ENERGY PREDICTED BY IDOCK:   -4.96 KCAL/MOL
REMARK 923 INTER-LIGAND FREE ENERGY PREDICTED BY IDOCK:   -4.41 KCAL/MOL
REMARK 924 INTRA-LIGAND FREE ENERGY PREDICTED BY IDOCK:   -0.56 KCAL/MOL
REMARK 927      BINDING AFFINITY PREDICTED BY RF-SCORE:    0.00 PKD
ROOT
HETATM    1  C   UNL     1     -11.986  14.558  65.999  1.00  0.00    -0.311 C  
HETATM    2  O   UNL     1     -10.576  14.742  65.904  1.00  0.00    -0.289 OA 
ENDROOT
BRANCH   2   3
HETATM    3  C   UNL     1      -9.810  13.920  66.688  1.00  0.00    -0.284 A  
HETATM    4  C   UNL     1      -9.095  14.474  67.756  1.00  0.00    -0.190 A  
HETATM    5  C   UNL     1      -8.274  13.645  68.526  1.00  0.00    -0.112 A  
HETATM    6  C   UNL     1      -8.939  11.699  67.242  1.00  0.00    -0.169 A  
HETATM    7  C   UNL     1      -8.206  12.253  68.284  1.00  0.00    -0.167 A  
HETATM    8  C   UNL     1      -9.730  12.537  66.466  1.00  0.00    -0.249 A  
HETATM    9  C   UNL     1      -7.459  11.330  69.017  1.00  0.00    -0.116 A  
HETATM   10  N   UNL     1      -6.656  11.731  70.092  1.00  0.00    -0.451 NA 
HETATM   11  N   UNL     1      -7.445  10.018  68.746  1.00  0.00    -0.078 NA 
HETATM   12  H1  UNL     1      -6.111  11.057  70.628  1.00  0.00     0.000 HD 
HETATM   13  C   UNL     1      -8.189   9.575  67.724  1.00  0.00    -0.114 A  
HETATM   14  H2  UNL     1      -7.242  12.252  70.745  1.00  0.00     0.000 HD 
HETATM   15  N   UNL     1      -8.926  10.394  66.961  1.00  0.00    -0.139 NA 
BRANCH   4  16
HETATM   16  O   UNL     1      -9.042  15.790  68.129  1.00  0.00    -0.182 OA 
HETATM   17  C   UNL     1      -8.589  16.063  69.450  1.00  0.00    -0.150 C  
ENDBRANCH   4  16
BRANCH  13  18
HETATM   18  N   UNL     1      -8.297   8.216  67.500  1.00  0.00    -0.122 NA 
HETATM   19  C   UNL     1      -8.429   5.951  68.403  1.00  0.00    -0.111 C  
HETATM   20  C   UNL     1      -7.700   7.304  68.477  1.00  0.00    -0.120 C  
HETATM   21  N   UNL     1      -8.457   5.408  67.036  1.00  0.00    -0.107 N  
HETATM   22  C   UNL     1      -8.951   6.350  66.018  1.00  0.00    -0.130 C  
HETATM   23  C   UNL     1      -8.362   4.034  66.876  1.00  0.00    -0.100 C  
HETATM   24  O   UNL     1      -8.155   3.294  67.842  1.00  0.00    -0.077 OA 
HETATM   25  C   UNL     1      -8.272   7.736  66.114  1.00  0.00    -0.123 C  
BRANCH  23  26
HETATM   26  C   UNL     1      -8.399   3.454  65.441  1.00  0.00    -0.098 C  
HETATM   27  C   UNL     1      -7.583   2.171  65.337  1.00  0.00    -0.071 C  
HETATM   28  C   UNL     1      -8.144   1.532  64.097  1.00  0.00    -0.065 C  
HETATM   29  C   UNL     1      -9.608   1.899  64.190  1.00  0.00    -0.132 C  
HETATM   30  O   UNL     1      -9.698   3.126  64.931  1.00  0.00    -0.149 OA 
ENDBRANCH  23  26
ENDBRANCH  13  18
ENDBRANCH   2   3
TORSDOF 4
ENDMDL
MODEL      115
REMARK 921   NORMALIZED FREE ENERGY PREDICTED BY IDOCK:   -3.58 KCAL/MOL
REMARK 922        TOTAL FREE ENERGY PREDICTED BY IDOCK:   -4.93 KCAL/MOL
REMARK 923 INTER-LIGAND FREE ENERGY PREDICTED BY IDOCK:   -4.90 KCAL/MOL
REMARK 924 INTRA-LIGAND FREE ENERGY PREDICTED BY IDOCK:   -0.03 KCAL/MOL
REMARK 927      BINDING AFFINITY PREDICTED BY RF-SCORE:    0.00 PKD
ROOT
HETATM    1  C   UNL     1      -9.397   3.693  64.902  1.00  0.00    -0.154 C  
HETATM    2  O   UNL     1      -9.811   3.388  66.231  1.00  0.00    -0.041 OA 
ENDROOT
BRANCH   2   3
HETATM    3  C   UNL     1      -9.638   4.384  67.156  1.00  0.00    -0.195 A  
HETATM    4  C   UNL     1      -9.356   4.035  68.482  1.00  0.00    -0.160 A  
HETATM    5  C   UNL     1      -9.230   5.048  69.437  1.00  0.00    -0.156 A  
HETATM    6  C   UNL     1      -9.567   6.758  67.752  1.00  0.00    -0.124 A  
HETATM    7  C   UNL     1      -9.316   6.412  69.074  1.00  0.00    -0.127 A  
HETATM    8  C   UNL     1      -9.719   5.742  66.816  1.00  0.00    -0.172 A  
HETATM    9  C   UNL     1      -9.159   7.500  69.934  1.00  0.00    -0.144 A  
HETATM   10  N   UNL     1      -8.914   7.320  71.300  1.00  0.00    -0.139 NA 
HETATM   11  N   UNL     1      -9.241   8.774  69.527  1.00  0.00    -0.148 NA 
HETATM   12  H1  UNL     1      -8.798   8.114  71.928  1.00  0.00     0.000 HD 
HETATM   13  C   UNL     1      -9.481   9.009  68.230  1.00  0.00    -0.146 A  
HETATM   14  H2  UNL     1      -8.093   6.721  71.397  1.00  0.00     0.000 HD 
HETATM   15  N   UNL     1      -9.656   8.024  67.339  1.00  0.00    -0.146 NA 
BRANCH   4  16
HETATM   16  O   UNL     1      -9.242   2.775  69.006  1.00  0.00    -0.132 OA 
HETATM   17  C   UNL     1      -8.435   2.637  70.169  1.00  0.00    -0.046 C  
ENDBRANCH   4  16
BRANCH  13  18
HETATM   18  N   UNL     1      -9.442  10.307  67.756  1.00  0.00    -0.147 NA 
HETATM   19  C   UNL     1      -8.158  12.336  67.315  1.00  0.00    -0.182 C  
HETATM   20  C   UNL     1      -8.464  11.228  68.337  1.00  0.00    -0.153 C  
HETATM   21  N   UNL     1      -9.378  13.004  66.837  1.00  0.00    -0.235 N  
HETATM   22  C   UNL     1     -10.422  12.086  66.350  1.00  0.00    -0.233 C  
HETATM   23  C   UNL     1      -9.318  14.362  66.566  1.00  0.00    -0.278 C  
HETATM   24  O   UNL     1      -8.300  15.016  66.817  1.00  0.00    -0.225 OA 
HETATM   25  C   UNL     1     -10.703  10.931  67.337  1.00  0.00    -0.257 C  
BRANCH  23  26
HETATM   26  C   UNL     1     -10.595  15.071  66.054  1.00  0.00    -0.322 C  
HETATM   27  C   UNL     1     -10.857  14.757  64.586  1.00  0.00    -0.312 C  
HETATM   28  C   UNL     1     -12.317  15.083  64.442  1.00  0.00    -0.283 C  
HETATM   29  C   UNL     1     -12.871  14.637  65.777  1.00  0.00     0.112 C  
HETATM   30  O   UNL     1     -11.811  14.745  66.740  1.00  0.00    -0.353 OA 
ENDBRANCH  23  26
ENDBRANCH  13  18
ENDBRANCH   2   3
TORSDOF 4
ENDMDL
MODEL      116
REMARK 921   NORMALIZED FREE ENERGY PREDICTED BY IDOCK:   -3.57 KCAL/MOL
REMARK 922        TOTAL FREE ENERGY PREDICTED BY IDOCK:   -4.92 KCAL/MOL
REMARK 923 INTER-LIGAND FREE ENERGY PREDICTED BY IDOCK:   -4.32 KCAL/MOL
REMARK 924 INTRA-LIGAND FREE ENERGY PREDICTED BY IDOCK:   -0.60 KCAL/MOL
REMARK 927      BINDING AFFINITY PREDICTED BY RF-SCORE:    0.00 PKD
ROOT
HETATM    1  C   UNL     1     -11.026   6.145  67.060  1.00  0.00    -0.330 C  
HETATM    2  O   UNL     1      -9.681   6.391  66.658  1.00  0.00    -0.156 OA 
ENDROOT
BRANCH   2   3
HETATM    3  C   UNL     1      -8.962   7.239  67.460  1.00  0.00    -0.122 A  
HETATM    4  C   UNL     1      -8.132   6.696  68.448  1.00  0.00    -0.115 A  
HETATM    5  C   UNL     1      -7.437   7.560  69.299  1.00  0.00    -0.091 A  
HETATM    6  C   UNL     1      -8.310   9.500  68.137  1.00  0.00    -0.118 A  
HETATM    7  C   UNL     1      -7.509   8.963  69.136  1.00  0.00    -0.073 A  
HETATM    8  C   UNL     1      -9.018   8.633  67.314  1.00  0.00    -0.145 A  
HETATM    9  C   UNL     1      -6.823   9.912  69.896  1.00  0.00    -0.096 A  
HETATM   10  N   UNL     1      -5.984   9.533  70.951  1.00  0.00    -0.066 NA 
HETATM   11  N   UNL     1      -6.922  11.231  69.685  1.00  0.00    -0.099 NA 
HETATM   12  H1  UNL     1      -5.482  10.226  71.506  1.00  0.00     0.000 HD 
HETATM   13  C   UNL     1      -7.717  11.655  68.693  1.00  0.00    -0.134 A  
HETATM   14  H2  UNL     1      -5.301   8.868  70.587  1.00  0.00     0.000 HD 
HETATM   15  N   UNL     1      -8.420  10.814  67.923  1.00  0.00    -0.120 NA 
BRANCH   4  16
HETATM   16  O   UNL     1      -7.947   5.373  68.745  1.00  0.00    -0.086 OA 
HETATM   17  C   UNL     1      -6.817   4.738  68.158  1.00  0.00    -0.056 C  
ENDBRANCH   4  16
BRANCH  13  18
HETATM   18  N   UNL     1      -7.740  12.998  68.367  1.00  0.00    -0.135 NA 
HETATM   19  C   UNL     1      -8.672  14.807  67.018  1.00  0.00    -0.235 C  
HETATM   20  C   UNL     1      -8.116  13.373  67.003  1.00  0.00    -0.001 C  
HETATM   21  N   UNL     1      -7.744  15.757  67.651  1.00  0.00    -0.143 N  
HETATM   22  C   UNL     1      -7.265  15.343  68.982  1.00  0.00    -0.153 C  
HETATM   23  C   UNL     1      -7.675  17.044  67.142  1.00  0.00    -0.176 C  
HETATM   24  O   UNL     1      -8.297  17.357  66.121  1.00  0.00    -0.425 OA 
HETATM   25  C   UNL     1      -6.757  13.883  69.001  1.00  0.00    -0.110 C  
BRANCH  23  26
HETATM   26  C   UNL     1      -6.707  18.052  67.808  1.00  0.00    -0.199 C  
HETATM   27  C   UNL     1      -6.065  18.973  66.777  1.00  0.00    -0.180 C  
HETATM   28  C   UNL     1      -5.609  20.131  67.620  1.00  0.00    -0.203 C  
HETATM   29  C   UNL     1      -6.718  20.231  68.643  1.00  0.00    -0.259 C  
HETATM   30  O   UNL     1      -7.285  18.920  68.792  1.00  0.00    -0.297 OA 
ENDBRANCH  23  26
ENDBRANCH  13  18
ENDBRANCH   2   3
TORSDOF 4
ENDMDL
MODEL      117
REMARK 921   NORMALIZED FREE ENERGY PREDICTED BY IDOCK:   -3.53 KCAL/MOL
REMARK 922        TOTAL FREE ENERGY PREDICTED BY IDOCK:   -4.88 KCAL/MOL
REMARK 923 INTER-LIGAND FREE ENERGY PREDICTED BY IDOCK:   -4.33 KCAL/MOL
REMARK 924 INTRA-LIGAND FREE ENERGY PREDICTED BY IDOCK:   -0.55 KCAL/MOL
REMARK 927      BINDING AFFINITY PREDICTED BY RF-SCORE:    0.00 PKD
ROOT
HETATM    1  C   UNL     1     -11.176   5.894  70.723  1.00  0.00    -0.211 C  
HETATM    2  O   UNL     1     -10.537   5.122  69.710  1.00  0.00    -0.272 OA 
ENDROOT
BRANCH   2   3
HETATM    3  C   UNL     1      -9.569   5.767  68.987  1.00  0.00    -0.135 A  
HETATM    4  C   UNL     1      -8.640   5.006  68.266  1.00  0.00    -0.102 A  
HETATM    5  C   UNL     1      -7.621   5.661  67.569  1.00  0.00    -0.089 A  
HETATM    6  C   UNL     1      -8.492   7.828  68.218  1.00  0.00    -0.124 A  
HETATM    7  C   UNL     1      -7.554   7.073  67.527  1.00  0.00    -0.109 A  
HETATM    8  C   UNL     1      -9.484   7.166  68.931  1.00  0.00    -0.142 A  
HETATM    9  C   UNL     1      -6.612   7.827  66.826  1.00  0.00    -0.058 A  
HETATM   10  N   UNL     1      -5.590   7.215  66.089  1.00  0.00    -0.026 NA 
HETATM   11  N   UNL     1      -6.606   9.167  66.814  1.00  0.00    -0.067 NA 
HETATM   12  H1  UNL     1      -4.902   7.766  65.577  1.00  0.00     0.000 HD 
HETATM   13  C   UNL     1      -7.556   9.809  67.507  1.00  0.00    -0.091 A  
HETATM   14  H2  UNL     1      -6.022   6.563  65.434  1.00  0.00     0.000 HD 
HETATM   15  N   UNL     1      -8.491   9.164  68.217  1.00  0.00    -0.124 NA 
BRANCH   4  16
HETATM   16  O   UNL     1      -8.556   3.641  68.199  1.00  0.00    -0.090 OA 
HETATM   17  C   UNL     1      -7.495   3.104  67.419  1.00  0.00    -0.062 C  
ENDBRANCH   4  16
BRANCH  13  18
HETATM   18  N   UNL     1      -7.656  11.184  67.411  1.00  0.00    -0.108 NA 
HETATM   19  C   UNL     1      -6.556  13.364  67.370  1.00  0.00    -0.023 C  
HETATM   20  C   UNL     1      -6.640  12.000  68.078  1.00  0.00    -0.069 C  
HETATM   21  N   UNL     1      -7.868  14.023  67.277  1.00  0.00    -0.162 N  
HETATM   22  C   UNL     1      -8.933  13.179  66.710  1.00  0.00    -0.176 C  
HETATM   23  C   UNL     1      -7.916  15.404  67.387  1.00  0.00    -0.188 C  
HETATM   24  O   UNL     1      -6.902  16.055  67.660  1.00  0.00    -0.130 OA 
HETATM   25  C   UNL     1      -8.995  11.781  67.368  1.00  0.00    -0.173 C  
BRANCH  23  26
HETATM   26  C   UNL     1      -9.291  16.107  67.281  1.00  0.00    -0.213 C  
HETATM   27  C   UNL     1      -9.539  17.030  68.468  1.00  0.00    -0.273 C  
HETATM   28  C   UNL     1     -10.607  17.949  67.944  1.00  0.00    -0.387 C  
HETATM   29  C   UNL     1     -10.203  18.106  66.495  1.00  0.00    -0.391 C  
HETATM   30  O   UNL     1      -9.493  16.917  66.116  1.00  0.00    -0.336 OA 
ENDBRANCH  23  26
ENDBRANCH  13  18
ENDBRANCH   2   3
TORSDOF 4
ENDMDL
MODEL      118
REMARK 921   NORMALIZED FREE ENERGY PREDICTED BY IDOCK:   -3.48 KCAL/MOL
REMARK 922        TOTAL FREE ENERGY PREDICTED BY IDOCK:   -4.82 KCAL/MOL
REMARK 923 INTER-LIGAND FREE ENERGY PREDICTED BY IDOCK:   -4.79 KCAL/MOL
REMARK 924 INTRA-LIGAND FREE ENERGY PREDICTED BY IDOCK:   -0.03 KCAL/MOL
REMARK 927      BINDING AFFINITY PREDICTED BY RF-SCORE:    0.00 PKD
ROOT
HETATM    1  C   UNL     1      -6.151  14.238  67.791  1.00  0.00    -0.118 C  
HETATM    2  O   UNL     1      -7.505  14.649  67.962  1.00  0.00    -0.108 OA 
ENDROOT
BRANCH   2   3
HETATM    3  C   UNL     1      -8.419  13.643  68.135  1.00  0.00    -0.175 A  
HETATM    4  C   UNL     1      -9.740  13.975  68.460  1.00  0.00    -0.215 A  
HETATM    5  C   UNL     1     -10.661  12.948  68.686  1.00  0.00    -0.256 A  
HETATM    6  C   UNL     1      -8.995  11.263  68.176  1.00  0.00    -0.166 A  
HETATM    7  C   UNL     1     -10.298  11.590  68.528  1.00  0.00    -0.224 A  
HETATM    8  C   UNL     1      -8.080  12.290  67.981  1.00  0.00    -0.156 A  
HETATM    9  C   UNL     1     -11.146  10.493  68.681  1.00  0.00    -0.267 A  
HETATM   10  N   UNL     1     -12.488  10.654  69.047  1.00  0.00    -0.740 NA 
HETATM   11  N   UNL     1     -10.746   9.227  68.506  1.00  0.00    -0.183 NA 
HETATM   12  H1  UNL     1     -13.108   9.852  69.159  1.00  0.00     0.000 HD 
HETATM   13  C   UNL     1      -9.469   9.009  68.161  1.00  0.00    -0.142 A  
HETATM   14  H2  UNL     1     -12.921  11.295  68.382  1.00  0.00     0.000 HD 
HETATM   15  N   UNL     1      -8.585  10.003  68.005  1.00  0.00    -0.121 NA 
BRANCH   4  16
HETATM   16  O   UNL     1     -10.259  15.226  68.655  1.00  0.00    -0.213 OA 
HETATM   17  C   UNL     1     -11.149  15.711  67.656  1.00  0.00    -0.305 C  
ENDBRANCH   4  16
BRANCH  13  18
HETATM   18  N   UNL     1      -9.059   7.727  67.847  1.00  0.00    -0.132 NA 
HETATM   19  C   UNL     1      -8.038   6.191  66.247  1.00  0.00    -0.113 C  
HETATM   20  C   UNL     1      -9.058   7.326  66.439  1.00  0.00    -0.158 C  
HETATM   21  N   UNL     1      -8.270   5.072  67.174  1.00  0.00    -0.107 N  
HETATM   22  C   UNL     1      -8.386   5.469  68.588  1.00  0.00    -0.101 C  
HETATM   23  C   UNL     1      -8.023   3.785  66.722  1.00  0.00    -0.095 C  
HETATM   24  O   UNL     1      -7.716   3.573  65.545  1.00  0.00    -0.080 OA 
HETATM   25  C   UNL     1      -9.363   6.649  68.794  1.00  0.00    -0.131 C  
BRANCH  23  26
HETATM   26  C   UNL     1      -8.257   2.603  67.694  1.00  0.00    -0.076 C  
HETATM   27  C   UNL     1      -7.176   2.542  68.768  1.00  0.00    -0.044 C  
HETATM   28  C   UNL     1      -7.833   1.717  69.839  1.00  0.00    -0.048 C  
HETATM   29  C   UNL     1      -9.271   2.176  69.752  1.00  0.00    -0.112 C  
HETATM   30  O   UNL     1      -9.503   2.611  68.403  1.00  0.00    -0.201 OA 
ENDBRANCH  23  26
ENDBRANCH  13  18
ENDBRANCH   2   3
TORSDOF 4
ENDMDL
MODEL      119
REMARK 921   NORMALIZED FREE ENERGY PREDICTED BY IDOCK:   -3.44 KCAL/MOL
REMARK 922        TOTAL FREE ENERGY PREDICTED BY IDOCK:   -4.77 KCAL/MOL
REMARK 923 INTER-LIGAND FREE ENERGY PREDICTED BY IDOCK:   -4.19 KCAL/MOL
REMARK 924 INTRA-LIGAND FREE ENERGY PREDICTED BY IDOCK:   -0.58 KCAL/MOL
REMARK 927      BINDING AFFINITY PREDICTED BY RF-SCORE:    0.00 PKD
ROOT
HETATM    1  C   UNL     1     -11.871   8.778  72.105  1.00  0.00    -0.366 C  
HETATM    2  O   UNL     1     -10.995   7.827  71.507  1.00  0.00    -0.230 OA 
ENDROOT
BRANCH   2   3
HETATM    3  C   UNL     1     -10.215   8.293  70.481  1.00  0.00    -0.198 A  
HETATM    4  C   UNL     1      -9.910   7.434  69.418  1.00  0.00    -0.168 A  
HETATM    5  C   UNL     1      -9.074   7.891  68.395  1.00  0.00    -0.135 A  
HETATM    6  C   UNL     1      -8.916  10.080  69.426  1.00  0.00    -0.194 A  
HETATM    7  C   UNL     1      -8.588   9.220  68.386  1.00  0.00    -0.124 A  
HETATM    8  C   UNL     1      -9.724   9.606  70.451  1.00  0.00    -0.304 A  
HETATM    9  C   UNL     1      -7.790   9.792  67.395  1.00  0.00    -0.099 A  
HETATM   10  N   UNL     1      -7.363   9.053  66.285  1.00  0.00    -0.090 NA 
HETATM   11  N   UNL     1      -7.370  11.063  67.435  1.00  0.00    -0.100 NA 
HETATM   12  H1  UNL     1      -6.779   9.471  65.561  1.00  0.00     0.000 HD 
HETATM   13  C   UNL     1      -7.741  11.820  68.477  1.00  0.00    -0.137 A  
HETATM   14  H2  UNL     1      -8.188   8.656  65.834  1.00  0.00     0.000 HD 
HETATM   15  N   UNL     1      -8.497  11.347  69.477  1.00  0.00     0.485 NA 
BRANCH   4  16
HETATM   16  O   UNL     1     -10.289   6.127  69.268  1.00  0.00    -0.182 OA 
HETATM   17  C   UNL     1      -9.402   5.141  69.784  1.00  0.00    -0.129 C  
ENDBRANCH   4  16
BRANCH  13  18
HETATM   18  N   UNL     1      -7.434  13.167  68.484  1.00  0.00    -0.116 NA 
HETATM   19  C   UNL     1      -6.332  15.056  69.569  1.00  0.00    -0.131 C  
HETATM   20  C   UNL     1      -7.230  13.824  69.775  1.00  0.00     0.381 C  
HETATM   21  N   UNL     1      -6.854  15.957  68.530  1.00  0.00    -0.121 N  
HETATM   22  C   UNL     1      -7.172  15.294  67.254  1.00  0.00    -0.178 C  
HETATM   23  C   UNL     1      -6.683  17.322  68.701  1.00  0.00    -0.192 C  
HETATM   24  O   UNL     1      -6.198  17.776  69.742  1.00  0.00    -0.243 OA 
HETATM   25  C   UNL     1      -8.025  14.019  67.446  1.00  0.00    -0.175 C  
BRANCH  23  26
HETATM   26  C   UNL     1      -7.222  18.277  67.608  1.00  0.00    -0.210 C  
HETATM   27  C   UNL     1      -8.572  18.867  68.000  1.00  0.00    -0.330 C  
HETATM   28  C   UNL     1      -8.659  20.082  67.119  1.00  0.00    -0.400 C  
HETATM   29  C   UNL     1      -7.222  20.552  67.087  1.00  0.00    -0.315 C  
HETATM   30  O   UNL     1      -6.389  19.400  67.290  1.00  0.00    -0.190 OA 
ENDBRANCH  23  26
ENDBRANCH  13  18
ENDBRANCH   2   3
TORSDOF 4
ENDMDL
MODEL      120
REMARK 921   NORMALIZED FREE ENERGY PREDICTED BY IDOCK:   -3.42 KCAL/MOL
REMARK 922        TOTAL FREE ENERGY PREDICTED BY IDOCK:   -4.74 KCAL/MOL
REMARK 923 INTER-LIGAND FREE ENERGY PREDICTED BY IDOCK:   -4.98 KCAL/MOL
REMARK 924 INTRA-LIGAND FREE ENERGY PREDICTED BY IDOCK:    0.23 KCAL/MOL
REMARK 927      BINDING AFFINITY PREDICTED BY RF-SCORE:    0.00 PKD
ROOT
HETATM    1  C   UNL     1     -12.797  13.186  65.180  1.00  0.00    -0.300 C  
HETATM    2  O   UNL     1     -12.283  14.225  66.008  1.00  0.00    -0.421 OA 
ENDROOT
BRANCH   2   3
HETATM    3  C   UNL     1     -11.069  13.980  66.593  1.00  0.00    -0.309 A  
HETATM    4  C   UNL     1     -10.066  14.954  66.507  1.00  0.00    -0.271 A  
HETATM    5  C   UNL     1      -8.811  14.685  67.059  1.00  0.00    -0.262 A  
HETATM    6  C   UNL     1      -9.564  12.526  67.865  1.00  0.00    -0.206 A  
HETATM    7  C   UNL     1      -8.560  13.479  67.755  1.00  0.00    -0.183 A  
HETATM    8  C   UNL     1     -10.799  12.792  67.288  1.00  0.00    -0.277 A  
HETATM    9  C   UNL     1      -7.363  13.131  68.382  1.00  0.00    -0.116 A  
HETATM   10  N   UNL     1      -6.249  13.978  68.352  1.00  0.00    -0.092 NA 
HETATM   11  N   UNL     1      -7.189  11.975  69.038  1.00  0.00    -0.089 NA 
HETATM   12  H1  UNL     1      -5.375  13.723  68.810  1.00  0.00     0.000 HD 
HETATM   13  C   UNL     1      -8.218  11.119  69.096  1.00  0.00     0.000 A  
HETATM   14  H2  UNL     1      -6.537  14.889  68.709  1.00  0.00     0.000 HD 
HETATM   15  N   UNL     1      -9.397  11.370  68.512  1.00  0.00    -0.186 NA 
BRANCH   4  16
HETATM   16  O   UNL     1     -10.135  16.165  65.874  1.00  0.00    -0.313 OA 
HETATM   17  C   UNL     1      -9.206  17.159  66.292  1.00  0.00    -0.231 C  
ENDBRANCH   4  16
BRANCH  13  18
HETATM   18  N   UNL     1      -8.113   9.981  69.872  1.00  0.00    -0.179 NA 
HETATM   19  C   UNL     1      -6.790   8.594  71.385  1.00  0.00    -0.082 C  
HETATM   20  C   UNL     1      -6.785   9.400  70.075  1.00  0.00    -0.063 C  
HETATM   21  N   UNL     1      -7.874   7.601  71.423  1.00  0.00    -0.088 N  
HETATM   22  C   UNL     1      -9.207   8.145  71.112  1.00  0.00    -0.154 C  
HETATM   23  C   UNL     1      -7.631   6.391  72.053  1.00  0.00    -0.095 C  
HETATM   24  O   UNL     1      -6.507   6.111  72.480  1.00  0.00    -0.056 OA 
HETATM   25  C   UNL     1      -9.211   9.008  69.829  1.00  0.00    -0.167 C  
BRANCH  23  26
HETATM   26  C   UNL     1      -8.770   5.343  72.105  1.00  0.00    -0.130 C  
HETATM   27  C   UNL     1      -9.240   5.100  73.535  1.00  0.00    -0.130 C  
HETATM   28  C   UNL     1     -10.602   4.499  73.328  1.00  0.00    -0.284 C  
HETATM   29  C   UNL     1     -11.102   5.261  72.121  1.00  0.00    -0.119 C  
HETATM   30  O   UNL     1      -9.953   5.665  71.361  1.00  0.00    -0.175 OA 
ENDBRANCH  23  26
ENDBRANCH  13  18
ENDBRANCH   2   3
TORSDOF 4
ENDMDL
MODEL      121
REMARK 921   NORMALIZED FREE ENERGY PREDICTED BY IDOCK:   -3.41 KCAL/MOL
REMARK 922        TOTAL FREE ENERGY PREDICTED BY IDOCK:   -4.73 KCAL/MOL
REMARK 923 INTER-LIGAND FREE ENERGY PREDICTED BY IDOCK:   -4.72 KCAL/MOL
REMARK 924 INTRA-LIGAND FREE ENERGY PREDICTED BY IDOCK:   -0.00 KCAL/MOL
REMARK 927      BINDING AFFINITY PREDICTED BY RF-SCORE:    0.00 PKD
ROOT
HETATM    1  C   UNL     1     -12.355  15.351  69.679  1.00  0.00    -0.217 C  
HETATM    2  O   UNL     1     -11.607  15.551  68.483  1.00  0.00    -0.348 OA 
ENDROOT
BRANCH   2   3
HETATM    3  C   UNL     1     -10.566  14.685  68.276  1.00  0.00    -0.235 A  
HETATM    4  C   UNL     1      -9.385  15.170  67.701  1.00  0.00    -0.189 A  
HETATM    5  C   UNL     1      -8.340  14.278  67.442  1.00  0.00    -0.212 A  
HETATM    6  C   UNL     1      -9.593  12.441  68.408  1.00  0.00    -0.180 A  
HETATM    7  C   UNL     1      -8.432  12.916  67.811  1.00  0.00    -0.185 A  
HETATM    8  C   UNL     1     -10.636  13.331  68.635  1.00  0.00    -0.264 A  
HETATM    9  C   UNL     1      -7.436  11.954  67.644  1.00  0.00    -0.127 A  
HETATM   10  N   UNL     1      -6.210  12.269  67.045  1.00  0.00    -0.360 NA 
HETATM   11  N   UNL     1      -7.578  10.677  68.025  1.00  0.00    -0.090 NA 
HETATM   12  H1  UNL     1      -5.482  11.566  66.923  1.00  0.00     0.000 HD 
HETATM   13  C   UNL     1      -8.733  10.313  68.598  1.00  0.00    -0.133 A  
HETATM   14  H2  UNL     1      -5.805  13.056  67.552  1.00  0.00     0.000 HD 
HETATM   15  N   UNL     1      -9.746  11.170  68.786  1.00  0.00    -0.200 NA 
BRANCH   4  16
HETATM   16  O   UNL     1      -9.126  16.448  67.283  1.00  0.00    -0.197 OA 
HETATM   17  C   UNL     1      -8.084  16.609  66.328  1.00  0.00    -0.326 C  
ENDBRANCH   4  16
BRANCH  13  18
HETATM   18  N   UNL     1      -8.863   9.039  69.119  1.00  0.00    -0.140 NA 
HETATM   19  C   UNL     1     -10.234   7.048  69.459  1.00  0.00    -0.199 C  
HETATM   20  C   UNL     1     -10.197   8.585  69.513  1.00  0.00    -0.206 C  
HETATM   21  N   UNL     1      -9.151   6.438  70.247  1.00  0.00    -0.154 N  
HETATM   22  C   UNL     1      -7.809   6.963  69.944  1.00  0.00    -0.115 C  
HETATM   23  C   UNL     1      -9.414   5.250  70.911  1.00  0.00    -0.165 C  
HETATM   24  O   UNL     1     -10.551   4.769  70.927  1.00  0.00    -0.105 OA 
HETATM   25  C   UNL     1      -7.765   8.508  69.934  1.00  0.00    -0.091 C  
BRANCH  23  26
HETATM   26  C   UNL     1      -8.278   4.597  71.735  1.00  0.00    -0.105 C  
HETATM   27  C   UNL     1      -7.116   4.173  70.845  1.00  0.00    -0.033 C  
HETATM   28  C   UNL     1      -5.983   4.060  71.826  1.00  0.00    -0.013 C  
HETATM   29  C   UNL     1      -6.279   5.195  72.780  1.00  0.00    -0.038 C  
HETATM   30  O   UNL     1      -7.698   5.414  72.761  1.00  0.00    -0.096 OA 
ENDBRANCH  23  26
ENDBRANCH  13  18
ENDBRANCH   2   3
TORSDOF 4
ENDMDL
MODEL      122
REMARK 921   NORMALIZED FREE ENERGY PREDICTED BY IDOCK:   -3.30 KCAL/MOL
REMARK 922        TOTAL FREE ENERGY PREDICTED BY IDOCK:   -4.59 KCAL/MOL
REMARK 923 INTER-LIGAND FREE ENERGY PREDICTED BY IDOCK:   -4.70 KCAL/MOL
REMARK 924 INTRA-LIGAND FREE ENERGY PREDICTED BY IDOCK:    0.11 KCAL/MOL
REMARK 927      BINDING AFFINITY PREDICTED BY RF-SCORE:    0.00 PKD
ROOT
HETATM    1  C   UNL     1      -9.707   1.696  69.201  1.00  0.00     0.053 C  
HETATM    2  O   UNL     1      -9.108   2.717  69.994  1.00  0.00    -0.094 OA 
ENDROOT
BRANCH   2   3
HETATM    3  C   UNL     1      -8.479   3.719  69.304  1.00  0.00    -0.068 A  
HETATM    4  C   UNL     1      -7.233   3.460  68.718  1.00  0.00    -0.050 A  
HETATM    5  C   UNL     1      -6.566   4.496  68.058  1.00  0.00    -0.043 A  
HETATM    6  C   UNL     1      -8.404   6.021  68.472  1.00  0.00    -0.113 A  
HETATM    7  C   UNL     1      -7.155   5.774  67.916  1.00  0.00    -0.071 A  
HETATM    8  C   UNL     1      -9.045   4.993  69.151  1.00  0.00    -0.137 A  
HETATM    9  C   UNL     1      -6.601   6.860  67.238  1.00  0.00    -0.051 A  
HETATM   10  N   UNL     1      -5.341   6.776  66.633  1.00  0.00    -0.017 NA 
HETATM   11  N   UNL     1      -7.214   8.046  67.128  1.00  0.00    -0.085 NA 
HETATM   12  H1  UNL     1      -4.936   7.570  66.137  1.00  0.00     0.000 HD 
HETATM   13  C   UNL     1      -8.421   8.189  67.693  1.00  0.00    -0.131 A  
HETATM   14  H2  UNL     1      -5.351   5.979  65.995  1.00  0.00     0.000 HD 
HETATM   15  N   UNL     1      -9.020   7.202  68.372  1.00  0.00    -0.127 NA 
BRANCH   4  16
HETATM   16  O   UNL     1      -6.521   2.292  68.760  1.00  0.00    -0.029 OA 
HETATM   17  C   UNL     1      -5.459   2.223  69.704  1.00  0.00    -0.016 C  
ENDBRANCH   4  16
BRANCH  13  18
HETATM   18  N   UNL     1      -9.135   9.354  67.487  1.00  0.00    -0.124 NA 
HETATM   19  C   UNL     1     -10.142  11.380  68.405  1.00  0.00    -0.201 C  
HETATM   20  C   UNL     1      -9.960   9.863  68.583  1.00  0.00    -0.164 C  
HETATM   21  N   UNL     1     -10.662  11.725  67.072  1.00  0.00    -0.234 N  
HETATM   22  C   UNL     1      -9.909  11.130  65.954  1.00  0.00    -0.232 C  
HETATM   23  C   UNL     1     -11.537  12.795  66.967  1.00  0.00    -0.360 C  
HETATM   24  O   UNL     1     -11.952  13.377  67.974  1.00  0.00    -0.350 OA 
HETATM   25  C   UNL     1      -9.664   9.615  66.144  1.00  0.00    -0.252 C  
BRANCH  23  26
HETATM   26  C   UNL     1     -12.081  13.169  65.567  1.00  0.00    -0.442 C  
HETATM   27  C   UNL     1     -10.953  13.545  64.613  1.00  0.00    -0.395 C  
HETATM   28  C   UNL     1     -11.599  13.369  63.267  1.00  0.00     0.079 C  
HETATM   29  C   UNL     1     -12.488  12.168  63.499  1.00  0.00    -0.555 C  
HETATM   30  O   UNL     1     -12.832  12.151  64.893  1.00  0.00    -0.496 OA 
ENDBRANCH  23  26
ENDBRANCH  13  18
ENDBRANCH   2   3
TORSDOF 4
ENDMDL
MODEL      123
REMARK 921   NORMALIZED FREE ENERGY PREDICTED BY IDOCK:   -3.30 KCAL/MOL
REMARK 922        TOTAL FREE ENERGY PREDICTED BY IDOCK:   -4.59 KCAL/MOL
REMARK 923 INTER-LIGAND FREE ENERGY PREDICTED BY IDOCK:   -4.02 KCAL/MOL
REMARK 924 INTRA-LIGAND FREE ENERGY PREDICTED BY IDOCK:   -0.57 KCAL/MOL
REMARK 927      BINDING AFFINITY PREDICTED BY RF-SCORE:    0.00 PKD
ROOT
HETATM    1  C   UNL     1      -6.975  17.831  65.747  1.00  0.00    -0.164 C  
HETATM    2  O   UNL     1      -6.344  18.163  66.981  1.00  0.00    -0.167 OA 
ENDROOT
BRANCH   2   3
HETATM    3  C   UNL     1      -6.219  17.139  67.884  1.00  0.00    -0.141 A  
HETATM    4  C   UNL     1      -5.657  17.407  69.138  1.00  0.00    -0.180 A  
HETATM    5  C   UNL     1      -5.482  16.354  70.041  1.00  0.00    -0.185 A  
HETATM    6  C   UNL     1      -6.507  14.787  68.502  1.00  0.00    -0.092 A  
HETATM    7  C   UNL     1      -5.922  15.046  69.735  1.00  0.00    -0.127 A  
HETATM    8  C   UNL     1      -6.650  15.835  67.601  1.00  0.00    -0.196 A  
HETATM    9  C   UNL     1      -5.841  13.937  70.578  1.00  0.00    -0.178 A  
HETATM   10  N   UNL     1      -5.266  14.028  71.851  1.00  0.00    -0.177 NA 
HETATM   11  N   UNL     1      -6.288  12.721  70.234  1.00  0.00     0.028 NA 
HETATM   12  H1  UNL     1      -5.207  13.218  72.466  1.00  0.00     0.000 HD 
HETATM   13  C   UNL     1      -6.843  12.569  69.024  1.00  0.00    -0.089 A  
HETATM   14  H2  UNL     1      -5.742  14.774  72.358  1.00  0.00     0.000 HD 
HETATM   15  N   UNL     1      -6.950  13.578  68.149  1.00  0.00    -0.102 NA 
BRANCH   4  16
HETATM   16  O   UNL     1      -5.178  18.604  69.597  1.00  0.00    -0.179 OA 
HETATM   17  C   UNL     1      -6.048  19.365  70.426  1.00  0.00    -0.155 C  
ENDBRANCH   4  16
BRANCH  13  18
HETATM   18  N   UNL     1      -7.428  11.362  68.690  1.00  0.00    -0.112 NA 
HETATM   19  C   UNL     1      -9.103  10.134  67.408  1.00  0.00    -0.137 C  
HETATM   20  C   UNL     1      -8.837  11.363  68.293  1.00  0.00    -0.167 C  
HETATM   21  N   UNL     1      -8.677   8.881  68.052  1.00  0.00    -0.133 N  
HETATM   22  C   UNL     1      -7.294   8.899  68.559  1.00  0.00    -0.081 C  
HETATM   23  C   UNL     1      -9.433   7.741  67.829  1.00  0.00    -0.143 C  
HETATM   24  O   UNL     1     -10.491   7.794  67.194  1.00  0.00    -0.291 OA 
HETATM   25  C   UNL     1      -6.989  10.158  69.404  1.00  0.00    -0.076 C  
BRANCH  23  26
HETATM   26  C   UNL     1      -8.986   6.417  68.496  1.00  0.00    -0.125 C  
HETATM   27  C   UNL     1      -9.562   6.279  69.901  1.00  0.00    -0.174 C  
HETATM   28  C   UNL     1      -9.456   4.800  70.148  1.00  0.00    -0.246 C  
HETATM   29  C   UNL     1      -9.751   4.230  68.778  1.00  0.00    -0.114 C  
HETATM   30  O   UNL     1      -9.355   5.214  67.809  1.00  0.00    -0.115 OA 
ENDBRANCH  23  26
ENDBRANCH  13  18
ENDBRANCH   2   3
TORSDOF 4
ENDMDL
MODEL      124
REMARK 921   NORMALIZED FREE ENERGY PREDICTED BY IDOCK:   -3.22 KCAL/MOL
REMARK 922        TOTAL FREE ENERGY PREDICTED BY IDOCK:   -4.49 KCAL/MOL
REMARK 923 INTER-LIGAND FREE ENERGY PREDICTED BY IDOCK:   -5.40 KCAL/MOL
REMARK 924 INTRA-LIGAND FREE ENERGY PREDICTED BY IDOCK:    0.91 KCAL/MOL
REMARK 927      BINDING AFFINITY PREDICTED BY RF-SCORE:    0.00 PKD
ROOT
HETATM    1  C   UNL     1     -14.126  14.005  72.480  1.00  0.00    -0.372 C  
HETATM    2  O   UNL     1     -13.631  12.931  71.684  1.00  0.00    -0.264 OA 
ENDROOT
BRANCH   2   3
HETATM    3  C   UNL     1     -12.726  13.273  70.715  1.00  0.00    -0.209 A  
HETATM    4  C   UNL     1     -12.414  14.625  70.525  1.00  0.00    -0.347 A  
HETATM    5  C   UNL     1     -11.529  14.979  69.502  1.00  0.00    -0.317 A  
HETATM    6  C   UNL     1     -11.185  12.653  68.914  1.00  0.00    -0.280 A  
HETATM    7  C   UNL     1     -10.898  13.995  68.706  1.00  0.00    -0.279 A  
HETATM    8  C   UNL     1     -12.088  12.313  69.915  1.00  0.00    -0.319 A  
HETATM    9  C   UNL     1      -9.967  14.235  67.695  1.00  0.00    -0.225 A  
HETATM   10  N   UNL     1      -9.580  15.536  67.353  1.00  0.00    -0.212 NA 
HETATM   11  N   UNL     1      -9.393  13.257  66.980  1.00  0.00    -0.235 NA 
HETATM   12  H1  UNL     1      -8.899  15.711  66.614  1.00  0.00     0.000 HD 
HETATM   13  C   UNL     1      -9.729  11.990  67.258  1.00  0.00    -0.185 A  
HETATM   14  H2  UNL     1      -9.250  15.999  68.200  1.00  0.00     0.000 HD 
HETATM   15  N   UNL     1     -10.623  11.672  68.204  1.00  0.00    -0.193 NA 
BRANCH   4  16
HETATM   16  O   UNL     1     -12.929  15.700  71.197  1.00  0.00    -0.480 OA 
HETATM   17  C   UNL     1     -12.048  16.383  72.080  1.00  0.00    -0.343 C  
ENDBRANCH   4  16
BRANCH  13  18
HETATM   18  N   UNL     1      -9.061  10.956  66.630  1.00  0.00    -0.159 NA 
HETATM   19  C   UNL     1      -6.999  10.084  65.656  1.00  0.00    -0.115 C  
HETATM   20  C   UNL     1      -7.950  11.290  65.738  1.00  0.00     0.149 C  
HETATM   21  N   UNL     1      -7.700   8.847  65.278  1.00  0.00    -0.097 N  
HETATM   22  C   UNL     1      -8.890   8.550  66.095  1.00  0.00    -0.167 C  
HETATM   23  C   UNL     1      -7.033   7.935  64.475  1.00  0.00    -0.071 C  
HETATM   24  O   UNL     1      -5.922   8.197  64.004  1.00  0.00    -0.063 OA 
HETATM   25  C   UNL     1      -9.830   9.769  66.238  1.00  0.00    -0.250 C  
BRANCH  23  26
HETATM   26  C   UNL     1      -7.762   6.627  64.081  1.00  0.00    -0.109 C  
HETATM   27  C   UNL     1      -7.258   6.089  62.746  1.00  0.00    -0.053 C  
HETATM   28  C   UNL     1      -7.677   4.647  62.802  1.00  0.00    -0.062 C  
HETATM   29  C   UNL     1      -7.479   4.318  64.264  1.00  0.00    -0.071 C  
HETATM   30  O   UNL     1      -7.640   5.538  65.005  1.00  0.00    -0.075 OA 
ENDBRANCH  23  26
ENDBRANCH  13  18
ENDBRANCH   2   3
TORSDOF 4
ENDMDL
MODEL      125
REMARK 921   NORMALIZED FREE ENERGY PREDICTED BY IDOCK:   -3.13 KCAL/MOL
REMARK 922        TOTAL FREE ENERGY PREDICTED BY IDOCK:   -4.38 KCAL/MOL
REMARK 923 INTER-LIGAND FREE ENERGY PREDICTED BY IDOCK:   -4.00 KCAL/MOL
REMARK 924 INTRA-LIGAND FREE ENERGY PREDICTED BY IDOCK:   -0.38 KCAL/MOL
REMARK 927      BINDING AFFINITY PREDICTED BY RF-SCORE:    0.00 PKD
ROOT
HETATM    1  C   UNL     1      -7.071   2.806  63.935  1.00  0.00    -0.041 C  
HETATM    2  O   UNL     1      -7.748   3.979  63.492  1.00  0.00    -0.068 OA 
ENDROOT
BRANCH   2   3
HETATM    3  C   UNL     1      -8.399   4.697  64.461  1.00  0.00    -0.123 A  
HETATM    4  C   UNL     1      -9.589   4.189  64.996  1.00  0.00    -0.180 A  
HETATM    5  C   UNL     1     -10.281   4.943  65.947  1.00  0.00    -0.251 A  
HETATM    6  C   UNL     1      -8.571   6.661  65.913  1.00  0.00    -0.148 A  
HETATM    7  C   UNL     1      -9.767   6.172  66.422  1.00  0.00    -0.152 A  
HETATM    8  C   UNL     1      -7.906   5.917  64.947  1.00  0.00    -0.108 A  
HETATM    9  C   UNL     1     -10.349   6.979  67.401  1.00  0.00    -0.244 A  
HETATM   10  N   UNL     1     -11.563   6.633  68.005  1.00  0.00    -0.488 NA 
HETATM   11  N   UNL     1      -9.806   8.131  67.819  1.00  0.00    -0.158 NA 
HETATM   12  H1  UNL     1     -11.989   7.223  68.720  1.00  0.00     0.000 HD 
HETATM   13  C   UNL     1      -8.646   8.519  67.272  1.00  0.00    -0.123 A  
HETATM   14  H2  UNL     1     -11.467   5.693  68.389  1.00  0.00     0.000 HD 
HETATM   15  N   UNL     1      -8.026   7.810  66.320  1.00  0.00    -0.097 NA 
BRANCH   4  16
HETATM   16  O   UNL     1     -10.227   3.027  64.652  1.00  0.00    -0.023 OA 
HETATM   17  C   UNL     1     -10.870   3.002  63.383  1.00  0.00    -0.216 C  
ENDBRANCH   4  16
BRANCH  13  18
HETATM   18  N   UNL     1      -7.997   9.632  67.773  1.00  0.00    -0.105 NA 
HETATM   19  C   UNL     1      -6.555  10.623  69.475  1.00  0.00    -0.091 C  
HETATM   20  C   UNL     1      -7.762   9.706  69.215  1.00  0.00    -0.095 C  
HETATM   21  N   UNL     1      -6.710  11.941  68.839  1.00  0.00    -0.088 N  
HETATM   22  C   UNL     1      -7.057  11.887  67.409  1.00  0.00    -0.129 C  
HETATM   23  C   UNL     1      -6.203  13.049  69.498  1.00  0.00    -0.117 C  
HETATM   24  O   UNL     1      -5.728  12.951  70.634  1.00  0.00    -0.170 OA 
HETATM   25  C   UNL     1      -8.231  10.924  67.119  1.00  0.00    -0.126 C  
BRANCH  23  26
HETATM   26  C   UNL     1      -6.355  14.438  68.832  1.00  0.00    -0.091 C  
HETATM   27  C   UNL     1      -7.136  15.401  69.719  1.00  0.00    -0.139 C  
HETATM   28  C   UNL     1      -6.739  16.742  69.167  1.00  0.00    -0.223 C  
HETATM   29  C   UNL     1      -5.289  16.515  68.802  1.00  0.00    -0.121 C  
HETATM   30  O   UNL     1      -5.133  15.117  68.511  1.00  0.00    -0.090 OA 
ENDBRANCH  23  26
ENDBRANCH  13  18
ENDBRANCH   2   3
TORSDOF 4
ENDMDL
MODEL      126
REMARK 921   NORMALIZED FREE ENERGY PREDICTED BY IDOCK:   -3.13 KCAL/MOL
REMARK 922        TOTAL FREE ENERGY PREDICTED BY IDOCK:   -4.38 KCAL/MOL
REMARK 923 INTER-LIGAND FREE ENERGY PREDICTED BY IDOCK:   -4.96 KCAL/MOL
REMARK 924 INTRA-LIGAND FREE ENERGY PREDICTED BY IDOCK:    0.58 KCAL/MOL
REMARK 927      BINDING AFFINITY PREDICTED BY RF-SCORE:    0.00 PKD
ROOT
HETATM    1  C   UNL     1      -5.213   6.815  72.557  1.00  0.00    -0.036 C  
HETATM    2  O   UNL     1      -5.751   6.393  71.306  1.00  0.00    -0.026 OA 
ENDROOT
BRANCH   2   3
HETATM    3  C   UNL     1      -7.076   6.672  71.099  1.00  0.00    -0.076 A  
HETATM    4  C   UNL     1      -8.041   5.884  71.739  1.00  0.00    -0.118 A  
HETATM    5  C   UNL     1      -9.394   6.134  71.491  1.00  0.00    -0.158 A  
HETATM    6  C   UNL     1      -8.843   8.004  70.050  1.00  0.00    -0.143 A  
HETATM    7  C   UNL     1      -9.800   7.204  70.660  1.00  0.00    -0.184 A  
HETATM    8  C   UNL     1      -7.501   7.729  70.281  1.00  0.00    -0.079 A  
HETATM    9  C   UNL     1     -11.118   7.571  70.384  1.00  0.00    -0.261 A  
HETATM   10  N   UNL     1     -12.200   6.857  70.913  1.00  0.00    -0.459 NA 
HETATM   11  N   UNL     1     -11.441   8.605  69.596  1.00  0.00     0.204 NA 
HETATM   12  H1  UNL     1     -13.163   7.125  70.711  1.00  0.00     0.000 HD 
HETATM   13  C   UNL     1     -10.447   9.323  69.055  1.00  0.00    -0.216 A  
HETATM   14  H2  UNL     1     -12.090   6.824  71.926  1.00  0.00     0.000 HD 
HETATM   15  N   UNL     1      -9.156   9.033  69.259  1.00  0.00    -0.143 NA 
BRANCH   4  16
HETATM   16  O   UNL     1      -7.828   4.814  72.566  1.00  0.00    -0.089 OA 
HETATM   17  C   UNL     1      -8.687   3.693  72.395  1.00  0.00    -0.089 C  
ENDBRANCH   4  16
BRANCH  13  18
HETATM   18  N   UNL     1     -10.746  10.471  68.345  1.00  0.00    -0.207 NA 
HETATM   19  C   UNL     1     -11.658  11.509  66.333  1.00  0.00     0.051 C  
HETATM   20  C   UNL     1     -10.743  10.402  66.884  1.00  0.00    -0.207 C  
HETATM   21  N   UNL     1     -11.302  12.837  66.856  1.00  0.00    -0.303 N  
HETATM   22  C   UNL     1     -11.189  12.901  68.324  1.00  0.00    -0.270 C  
HETATM   23  C   UNL     1     -11.440  13.931  66.016  1.00  0.00    -0.340 C  
HETATM   24  O   UNL     1     -11.754  13.785  64.831  1.00  0.00    -0.335 OA 
HETATM   25  C   UNL     1     -10.321  11.760  68.902  1.00  0.00    -0.128 C  
BRANCH  23  26
HETATM   26  C   UNL     1     -11.075  15.333  66.562  1.00  0.00    -0.271 C  
HETATM   27  C   UNL     1     -10.065  15.242  67.700  1.00  0.00    -0.235 C  
HETATM   28  C   UNL     1      -9.485  16.629  67.726  1.00  0.00    -0.227 C  
HETATM   29  C   UNL     1      -9.457  16.986  66.257  1.00  0.00    -0.256 C  
HETATM   30  O   UNL     1     -10.507  16.246  65.614  1.00  0.00    -0.359 OA 
ENDBRANCH  23  26
ENDBRANCH  13  18
ENDBRANCH   2   3
TORSDOF 4
ENDMDL
MODEL      127
REMARK 921   NORMALIZED FREE ENERGY PREDICTED BY IDOCK:   -3.11 KCAL/MOL
REMARK 922        TOTAL FREE ENERGY PREDICTED BY IDOCK:   -4.36 KCAL/MOL
REMARK 923 INTER-LIGAND FREE ENERGY PREDICTED BY IDOCK:   -4.46 KCAL/MOL
REMARK 924 INTRA-LIGAND FREE ENERGY PREDICTED BY IDOCK:    0.10 KCAL/MOL
REMARK 927      BINDING AFFINITY PREDICTED BY RF-SCORE:    0.00 PKD
ROOT
HETATM    1  C   UNL     1      -6.893   3.594  67.568  1.00  0.00    -0.050 C  
HETATM    2  O   UNL     1      -7.997   4.452  67.842  1.00  0.00    -0.087 OA 
ENDROOT
BRANCH   2   3
HETATM    3  C   UNL     1      -8.108   5.560  67.043  1.00  0.00    -0.101 A  
HETATM    4  C   UNL     1      -8.436   5.390  65.692  1.00  0.00    -0.138 A  
HETATM    5  C   UNL     1      -8.499   6.515  64.864  1.00  0.00     0.017 A  
HETATM    6  C   UNL     1      -8.007   7.986  66.726  1.00  0.00    -0.103 A  
HETATM    7  C   UNL     1      -8.304   7.817  65.380  1.00  0.00    -0.141 A  
HETATM    8  C   UNL     1      -7.919   6.860  67.535  1.00  0.00    -0.112 A  
HETATM    9  C   UNL     1      -8.391   9.006  64.655  1.00  0.00    -0.172 A  
HETATM   10  N   UNL     1      -8.669   9.006  63.284  1.00  0.00    -0.401 NA 
HETATM   11  N   UNL     1      -8.206  10.214  65.205  1.00  0.00    -0.146 NA 
HETATM   12  H1  UNL     1      -8.733   9.875  62.754  1.00  0.00     0.000 HD 
HETATM   13  C   UNL     1      -7.929  10.278  66.514  1.00  0.00    -0.118 A  
HETATM   14  H2  UNL     1      -9.535   8.485  63.138  1.00  0.00     0.000 HD 
HETATM   15  N   UNL     1      -7.816   9.186  67.281  1.00  0.00    -0.099 NA 
BRANCH   4  16
HETATM   16  O   UNL     1      -8.653   4.213  65.030  1.00  0.00    -0.112 OA 
HETATM   17  C   UNL     1      -8.007   4.058  63.772  1.00  0.00    -0.088 C  
ENDBRANCH   4  16
BRANCH  13  18
HETATM   18  N   UNL     1      -7.862  11.511  67.136  1.00  0.00    -0.152 NA 
HETATM   19  C   UNL     1      -6.584  13.125  68.448  1.00  0.00    -0.092 C  
HETATM   20  C   UNL     1      -6.995  11.649  68.306  1.00  0.00    -0.074 C  
HETATM   21  N   UNL     1      -7.746  14.026  68.471  1.00  0.00    -0.134 N  
HETATM   22  C   UNL     1      -8.692  13.827  67.359  1.00  0.00    -0.207 C  
HETATM   23  C   UNL     1      -7.686  15.152  69.277  1.00  0.00    -0.204 C  
HETATM   24  O   UNL     1      -6.728  15.341  70.034  1.00  0.00    -0.167 OA 
HETATM   25  C   UNL     1      -9.071  12.341  67.163  1.00  0.00    -0.193 C  
BRANCH  23  26
HETATM   26  C   UNL     1      -8.902  16.110  69.301  1.00  0.00    -0.195 C  
HETATM   27  C   UNL     1      -8.919  17.019  68.077  1.00  0.00    -0.230 C  
HETATM   28  C   UNL     1     -10.354  17.464  68.027  1.00  0.00    -0.362 C  
HETATM   29  C   UNL     1     -11.085  16.222  68.485  1.00  0.00    -0.368 C  
HETATM   30  O   UNL     1     -10.191  15.486  69.335  1.00  0.00    -0.227 OA 
ENDBRANCH  23  26
ENDBRANCH  13  18
ENDBRANCH   2   3
TORSDOF 4
ENDMDL
MODEL      128
REMARK 921   NORMALIZED FREE ENERGY PREDICTED BY IDOCK:   -3.09 KCAL/MOL
REMARK 922        TOTAL FREE ENERGY PREDICTED BY IDOCK:   -4.34 KCAL/MOL
REMARK 923 INTER-LIGAND FREE ENERGY PREDICTED BY IDOCK:   -4.29 KCAL/MOL
REMARK 924 INTRA-LIGAND FREE ENERGY PREDICTED BY IDOCK:   -0.04 KCAL/MOL
REMARK 927      BINDING AFFINITY PREDICTED BY RF-SCORE:    0.00 PKD
ROOT
HETATM    1  C   UNL     1      -5.831  14.111  67.612  1.00  0.00    -0.001 C  
HETATM    2  O   UNL     1      -7.040  14.568  68.213  1.00  0.00    -0.096 OA 
ENDROOT
BRANCH   2   3
HETATM    3  C   UNL     1      -8.035  13.635  68.340  1.00  0.00    -0.147 A  
HETATM    4  C   UNL     1      -9.338  13.978  67.960  1.00  0.00    -0.205 A  
HETATM    5  C   UNL     1     -10.364  13.044  68.137  1.00  0.00    -0.244 A  
HETATM    6  C   UNL     1      -8.798  11.396  68.978  1.00  0.00     0.092 A  
HETATM    7  C   UNL     1     -10.096  11.746  68.629  1.00  0.00    -0.198 A  
HETATM    8  C   UNL     1      -7.791  12.341  68.825  1.00  0.00     0.006 A  
HETATM    9  C   UNL     1     -11.032  10.725  68.799  1.00  0.00    -0.247 A  
HETATM   10  N   UNL     1     -12.386  10.922  68.504  1.00  0.00    -0.744 NA 
HETATM   11  N   UNL     1     -10.714   9.508  69.260  1.00  0.00    -0.228 NA 
HETATM   12  H1  UNL     1     -13.071  10.176  68.628  1.00  0.00     0.000 HD 
HETATM   13  C   UNL     1      -9.433   9.262  69.566  1.00  0.00    -0.173 A  
HETATM   14  H2  UNL     1     -12.454  11.253  67.542  1.00  0.00     0.000 HD 
HETATM   15  N   UNL     1      -8.473  10.188  69.443  1.00  0.00    -0.162 NA 
BRANCH   4  16
HETATM   16  O   UNL     1      -9.774  15.180  67.472  1.00  0.00    -0.205 OA 
HETATM   17  C   UNL     1     -10.076  15.234  66.083  1.00  0.00    -0.296 C  
ENDBRANCH   4  16
BRANCH  13  18
HETATM   18  N   UNL     1      -9.052   7.982  69.919  1.00  0.00    -0.145 NA 
HETATM   19  C   UNL     1      -7.701   6.000  69.462  1.00  0.00    -0.098 C  
HETATM   20  C   UNL     1      -8.628   7.068  68.857  1.00  0.00    -0.128 C  
HETATM   21  N   UNL     1      -8.314   5.317  70.612  1.00  0.00    -0.111 N  
HETATM   22  C   UNL     1      -8.848   6.224  71.643  1.00  0.00    -0.138 C  
HETATM   23  C   UNL     1      -8.042   3.970  70.795  1.00  0.00    -0.062 C  
HETATM   24  O   UNL     1      -7.389   3.335  69.961  1.00  0.00    -0.041 OA 
HETATM   25  C   UNL     1      -9.736   7.340  71.047  1.00  0.00    -0.169 C  
BRANCH  23  26
HETATM   26  C   UNL     1      -8.677   3.246  72.007  1.00  0.00    -0.085 C  
HETATM   27  C   UNL     1      -7.941   3.576  73.301  1.00  0.00    -0.071 C  
HETATM   28  C   UNL     1      -8.961   3.227  74.349  1.00  0.00    -0.096 C  
HETATM   29  C   UNL     1     -10.253   3.644  73.681  1.00  0.00    -0.142 C  
HETATM   30  O   UNL     1     -10.056   3.542  72.262  1.00  0.00    -0.161 OA 
ENDBRANCH  23  26
ENDBRANCH  13  18
ENDBRANCH   2   3
TORSDOF 4
ENDMDL
MODEL      129
REMARK 921   NORMALIZED FREE ENERGY PREDICTED BY IDOCK:   -3.08 KCAL/MOL
REMARK 922        TOTAL FREE ENERGY PREDICTED BY IDOCK:   -4.32 KCAL/MOL
REMARK 923 INTER-LIGAND FREE ENERGY PREDICTED BY IDOCK:   -4.27 KCAL/MOL
REMARK 924 INTRA-LIGAND FREE ENERGY PREDICTED BY IDOCK:   -0.05 KCAL/MOL
REMARK 927      BINDING AFFINITY PREDICTED BY RF-SCORE:    0.00 PKD
ROOT
HETATM    1  C   UNL     1      -5.744  14.060  67.611  1.00  0.00     0.017 C  
HETATM    2  O   UNL     1      -6.873  14.370  68.423  1.00  0.00    -0.090 OA 
ENDROOT
BRANCH   2   3
HETATM    3  C   UNL     1      -7.866  13.425  68.454  1.00  0.00    -0.138 A  
HETATM    4  C   UNL     1      -9.201  13.843  68.387  1.00  0.00    -0.194 A  
HETATM    5  C   UNL     1     -10.216  12.886  68.469  1.00  0.00    -0.210 A  
HETATM    6  C   UNL     1      -8.592  11.090  68.588  1.00  0.00    -0.157 A  
HETATM    7  C   UNL     1      -9.916  11.506  68.552  1.00  0.00    -0.207 A  
HETATM    8  C   UNL     1      -7.591  12.052  68.535  1.00  0.00    -0.126 A  
HETATM    9  C   UNL     1     -10.847  10.467  68.590  1.00  0.00    -0.237 A  
HETATM   10  N   UNL     1     -12.224  10.721  68.574  1.00  0.00    -0.822 NA 
HETATM   11  N   UNL     1     -10.501   9.175  68.657  1.00  0.00    -0.216 NA 
HETATM   12  H1  UNL     1     -12.904   9.961  68.602  1.00  0.00     0.000 HD 
HETATM   13  C   UNL     1      -9.196   8.870  68.682  1.00  0.00    -0.137 A  
HETATM   14  H2  UNL     1     -12.429  11.296  67.756  1.00  0.00     0.000 HD 
HETATM   15  N   UNL     1      -8.237   9.805  68.660  1.00  0.00    -0.104 NA 
BRANCH   4  16
HETATM   16  O   UNL     1      -9.668  15.127  68.309  1.00  0.00    -0.211 OA 
HETATM   17  C   UNL     1     -10.173  15.549  67.047  1.00  0.00    -0.271 C  
ENDBRANCH   4  16
BRANCH  13  18
HETATM   18  N   UNL     1      -8.806   7.546  68.620  1.00  0.00    -0.128 NA 
HETATM   19  C   UNL     1      -7.740   5.626  69.688  1.00  0.00    -0.083 C  
HETATM   20  C   UNL     1      -7.634   7.132  69.393  1.00  0.00    -0.098 C  
HETATM   21  N   UNL     1      -7.944   4.833  68.466  1.00  0.00    -0.084 N  
HETATM   22  C   UNL     1      -9.051   5.302  67.615  1.00  0.00    -0.109 C  
HETATM   23  C   UNL     1      -7.353   3.581  68.391  1.00  0.00    -0.050 C  
HETATM   24  O   UNL     1      -6.593   3.184  69.279  1.00  0.00    -0.033 OA 
HETATM   25  C   UNL     1      -8.995   6.825  67.356  1.00  0.00    -0.115 C  
BRANCH  23  26
HETATM   26  C   UNL     1      -7.570   2.737  67.112  1.00  0.00    -0.070 C  
HETATM   27  C   UNL     1      -9.002   2.224  67.019  1.00  0.00    -0.155 C  
HETATM   28  C   UNL     1      -9.135   1.904  65.556  1.00  0.00    -0.079 C  
HETATM   29  C   UNL     1      -8.319   3.005  64.918  1.00  0.00    -0.095 C  
HETATM   30  O   UNL     1      -7.320   3.406  65.869  1.00  0.00    -0.070 OA 
ENDBRANCH  23  26
ENDBRANCH  13  18
ENDBRANCH   2   3
TORSDOF 4
ENDMDL
MODEL      130
REMARK 921   NORMALIZED FREE ENERGY PREDICTED BY IDOCK:   -3.06 KCAL/MOL
REMARK 922        TOTAL FREE ENERGY PREDICTED BY IDOCK:   -4.30 KCAL/MOL
REMARK 923 INTER-LIGAND FREE ENERGY PREDICTED BY IDOCK:   -3.73 KCAL/MOL
REMARK 924 INTRA-LIGAND FREE ENERGY PREDICTED BY IDOCK:   -0.57 KCAL/MOL
REMARK 927      BINDING AFFINITY PREDICTED BY RF-SCORE:    0.00 PKD
ROOT
HETATM    1  C   UNL     1     -12.026  14.352  66.897  1.00  0.00    -0.399 C  
HETATM    2  O   UNL     1     -10.863  15.170  67.000  1.00  0.00    -0.303 OA 
ENDROOT
BRANCH   2   3
HETATM    3  C   UNL     1      -9.775  14.592  67.599  1.00  0.00    -0.214 A  
HETATM    4  C   UNL     1      -8.821  15.415  68.210  1.00  0.00    -0.176 A  
HETATM    5  C   UNL     1      -7.685  14.831  68.777  1.00  0.00    -0.136 A  
HETATM    6  C   UNL     1      -8.480  12.609  68.221  1.00  0.00    -0.163 A  
HETATM    7  C   UNL     1      -7.519  13.426  68.802  1.00  0.00    -0.061 A  
HETATM    8  C   UNL     1      -9.591  13.202  67.635  1.00  0.00    -0.210 A  
HETATM    9  C   UNL     1      -6.452  12.739  69.381  1.00  0.00    -0.096 A  
HETATM   10  N   UNL     1      -5.394  13.418  69.996  1.00  0.00    -0.091 NA 
HETATM   11  N   UNL     1      -6.355  11.402  69.383  1.00  0.00    -0.088 NA 
HETATM   12  H1  UNL     1      -4.614  12.916  70.420  1.00  0.00     0.000 HD 
HETATM   13  C   UNL     1      -7.336  10.696  68.803  1.00  0.00    -0.100 A  
HETATM   14  H2  UNL     1      -5.787  14.041  70.702  1.00  0.00     0.000 HD 
HETATM   15  N   UNL     1      -8.389  11.277  68.213  1.00  0.00    -0.142 NA 
BRANCH   4  16
HETATM   16  O   UNL     1      -8.821  16.782  68.276  1.00  0.00    -0.213 OA 
HETATM   17  C   UNL     1      -7.629  17.442  67.868  1.00  0.00    -0.194 C  
ENDBRANCH   4  16
BRANCH  13  18
HETATM   18  N   UNL     1      -7.331   9.318  68.901  1.00  0.00    -0.073 NA 
HETATM   19  C   UNL     1      -6.127   7.263  69.437  1.00  0.00    -0.030 C  
HETATM   20  C   UNL     1      -6.063   8.614  68.705  1.00  0.00    -0.045 C  
HETATM   21  N   UNL     1      -7.303   6.471  69.042  1.00  0.00    -0.091 N  
HETATM   22  C   UNL     1      -8.581   7.199  69.126  1.00  0.00    -0.133 C  
HETATM   23  C   UNL     1      -7.170   5.093  68.969  1.00  0.00    -0.057 C  
HETATM   24  O   UNL     1      -6.073   4.552  69.129  1.00  0.00    -0.024 OA 
HETATM   25  C   UNL     1      -8.519   8.586  68.446  1.00  0.00    -0.138 C  
BRANCH  23  26
HETATM   26  C   UNL     1      -8.405   4.253  68.563  1.00  0.00    -0.084 C  
HETATM   27  C   UNL     1      -8.119   3.401  67.331  1.00  0.00    -0.082 C  
HETATM   28  C   UNL     1      -9.185   2.345  67.416  1.00  0.00    -0.174 C  
HETATM   29  C   UNL     1      -9.287   2.120  68.908  1.00  0.00    -0.145 C  
HETATM   30  O   UNL     1      -8.897   3.342  69.554  1.00  0.00    -0.071 OA 
ENDBRANCH  23  26
ENDBRANCH  13  18
ENDBRANCH   2   3
TORSDOF 4
ENDMDL
MODEL      131
REMARK 921   NORMALIZED FREE ENERGY PREDICTED BY IDOCK:   -2.82 KCAL/MOL
REMARK 922        TOTAL FREE ENERGY PREDICTED BY IDOCK:   -4.00 KCAL/MOL
REMARK 923 INTER-LIGAND FREE ENERGY PREDICTED BY IDOCK:   -3.43 KCAL/MOL
REMARK 924 INTRA-LIGAND FREE ENERGY PREDICTED BY IDOCK:   -0.57 KCAL/MOL
REMARK 927      BINDING AFFINITY PREDICTED BY RF-SCORE:    0.00 PKD
ROOT
HETATM    1  C   UNL     1      -6.060   3.380  67.878  1.00  0.00    -0.028 C  
HETATM    2  O   UNL     1      -7.366   3.416  67.308  1.00  0.00    -0.058 OA 
ENDROOT
BRANCH   2   3
HETATM    3  C   UNL     1      -7.603   4.433  66.421  1.00  0.00    -0.086 A  
HETATM    4  C   UNL     1      -7.906   4.116  65.091  1.00  0.00    -0.089 A  
HETATM    5  C   UNL     1      -8.099   5.153  64.174  1.00  0.00    -0.119 A  
HETATM    6  C   UNL     1      -7.788   6.821  65.906  1.00  0.00    -0.103 A  
HETATM    7  C   UNL     1      -8.058   6.507  64.580  1.00  0.00    -0.092 A  
HETATM    8  C   UNL     1      -7.570   5.783  66.803  1.00  0.00    -0.096 A  
HETATM    9  C   UNL     1      -8.283   7.614  63.761  1.00  0.00     0.042 A  
HETATM   10  N   UNL     1      -8.556   7.469  62.396  1.00  0.00    -0.388 NA 
HETATM   11  N   UNL     1      -8.242   8.877  64.208  1.00  0.00    -0.162 NA 
HETATM   12  H1  UNL     1      -8.720   8.278  61.797  1.00  0.00     0.000 HD 
HETATM   13  C   UNL     1      -7.978   9.081  65.506  1.00  0.00    -0.106 A  
HETATM   14  H2  UNL     1      -9.354   6.840  62.300  1.00  0.00     0.000 HD 
HETATM   15  N   UNL     1      -7.740   8.076  66.359  1.00  0.00    -0.091 NA 
BRANCH   4  16
HETATM   16  O   UNL     1      -7.982   2.870  64.529  1.00  0.00    -0.080 OA 
HETATM   17  C   UNL     1      -6.752   2.265  64.148  1.00  0.00    -0.031 C  
ENDBRANCH   4  16
BRANCH  13  18
HETATM   18  N   UNL     1      -8.058  10.360  66.024  1.00  0.00    -0.137 NA 
HETATM   19  C   UNL     1      -9.348  12.405  66.357  1.00  0.00    -0.219 C  
HETATM   20  C   UNL     1      -8.919  11.329  65.345  1.00  0.00    -0.096 C  
HETATM   21  N   UNL     1      -8.197  13.020  67.036  1.00  0.00    -0.117 N  
HETATM   22  C   UNL     1      -7.256  12.055  67.632  1.00  0.00    -0.117 C  
HETATM   23  C   UNL     1      -8.266  14.368  67.352  1.00  0.00    -0.199 C  
HETATM   24  O   UNL     1      -9.221  15.059  66.983  1.00  0.00    -0.208 OA 
HETATM   25  C   UNL     1      -6.859  10.931  66.648  1.00  0.00    -0.127 C  
BRANCH  23  26
HETATM   26  C   UNL     1      -7.063  15.021  68.075  1.00  0.00    -0.132 C  
HETATM   27  C   UNL     1      -6.710  16.371  67.463  1.00  0.00    -0.181 C  
HETATM   28  C   UNL     1      -5.924  17.028  68.563  1.00  0.00    -0.145 C  
HETATM   29  C   UNL     1      -6.641  16.535  69.800  1.00  0.00    -0.089 C  
HETATM   30  O   UNL     1      -7.232  15.266  69.477  1.00  0.00    -0.180 OA 
ENDBRANCH  23  26
ENDBRANCH  13  18
ENDBRANCH   2   3
TORSDOF 4
ENDMDL
MODEL      132
REMARK 921   NORMALIZED FREE ENERGY PREDICTED BY IDOCK:   -2.77 KCAL/MOL
REMARK 922        TOTAL FREE ENERGY PREDICTED BY IDOCK:   -3.93 KCAL/MOL
REMARK 923 INTER-LIGAND FREE ENERGY PREDICTED BY IDOCK:   -3.79 KCAL/MOL
REMARK 924 INTRA-LIGAND FREE ENERGY PREDICTED BY IDOCK:   -0.15 KCAL/MOL
REMARK 927      BINDING AFFINITY PREDICTED BY RF-SCORE:    0.00 PKD
ROOT
HETATM    1  C   UNL     1     -11.168  13.176  70.435  1.00  0.00     0.765 C  
HETATM    2  O   UNL     1     -12.073  12.960  69.355  1.00  0.00    -0.275 OA 
ENDROOT
BRANCH   2   3
HETATM    3  C   UNL     1     -11.502  12.660  68.146  1.00  0.00    -0.313 A  
HETATM    4  C   UNL     1     -11.538  13.617  67.124  1.00  0.00    -0.361 A  
HETATM    5  C   UNL     1     -11.001  13.294  65.874  1.00  0.00    -0.288 A  
HETATM    6  C   UNL     1     -10.306  11.113  66.672  1.00  0.00    -0.241 A  
HETATM    7  C   UNL     1     -10.367  12.050  65.648  1.00  0.00    -0.288 A  
HETATM    8  C   UNL     1     -10.868  11.433  67.901  1.00  0.00    -0.274 A  
HETATM    9  C   UNL     1      -9.759  11.646  64.460  1.00  0.00    -0.178 A  
HETATM   10  N   UNL     1      -9.747  12.471  63.329  1.00  0.00    -0.545 NA 
HETATM   11  N   UNL     1      -9.163  10.455  64.309  1.00  0.00    -0.232 NA 
HETATM   12  H1  UNL     1      -9.302  12.176  62.460  1.00  0.00     0.000 HD 
HETATM   13  C   UNL     1      -9.148   9.618  65.356  1.00  0.00    -0.215 A  
HETATM   14  H2  UNL     1      -9.344  13.369  63.599  1.00  0.00     0.000 HD 
HETATM   15  N   UNL     1      -9.719   9.923  66.529  1.00  0.00    -0.192 NA 
BRANCH   4  16
HETATM   16  O   UNL     1     -12.109  14.860  67.167  1.00  0.00    -0.237 OA 
HETATM   17  C   UNL     1     -11.546  15.790  68.085  1.00  0.00    -0.255 C  
ENDBRANCH   4  16
BRANCH  13  18
HETATM   18  N   UNL     1      -8.431   8.440  65.275  1.00  0.00    -0.173 NA 
HETATM   19  C   UNL     1      -7.089   6.895  63.943  1.00  0.00    -0.060 C  
HETATM   20  C   UNL     1      -8.360   7.760  63.981  1.00  0.00     0.098 C  
HETATM   21  N   UNL     1      -7.005   5.979  65.091  1.00  0.00    -0.058 N  
HETATM   22  C   UNL     1      -7.185   6.628  66.401  1.00  0.00    -0.072 C  
HETATM   23  C   UNL     1      -6.447   4.726  64.889  1.00  0.00    -0.036 C  
HETATM   24  O   UNL     1      -6.124   4.349  63.759  1.00  0.00    -0.017 OA 
HETATM   25  C   UNL     1      -8.426   7.549  66.441  1.00  0.00    -0.131 C  
BRANCH  23  26
HETATM   26  C   UNL     1      -6.347   3.759  66.094  1.00  0.00    -0.033 C  
HETATM   27  C   UNL     1      -7.726   3.393  66.631  1.00  0.00    -0.080 C  
HETATM   28  C   UNL     1      -7.448   2.127  67.393  1.00  0.00    -0.060 C  
HETATM   29  C   UNL     1      -6.392   1.468  66.535  1.00  0.00    -0.020 C  
HETATM   30  O   UNL     1      -5.688   2.511  65.843  1.00  0.00    -0.016 OA 
ENDBRANCH  23  26
ENDBRANCH  13  18
ENDBRANCH   2   3
TORSDOF 4
ENDMDL
MODEL      133
REMARK 921   NORMALIZED FREE ENERGY PREDICTED BY IDOCK:   -2.57 KCAL/MOL
REMARK 922        TOTAL FREE ENERGY PREDICTED BY IDOCK:   -3.70 KCAL/MOL
REMARK 923 INTER-LIGAND FREE ENERGY PREDICTED BY IDOCK:   -3.43 KCAL/MOL
REMARK 924 INTRA-LIGAND FREE ENERGY PREDICTED BY IDOCK:   -0.27 KCAL/MOL
REMARK 927      BINDING AFFINITY PREDICTED BY RF-SCORE:    0.00 PKD
ROOT
HETATM    1  C   UNL     1      -7.868   2.887  64.778  1.00  0.00    -0.078 C  
HETATM    2  O   UNL     1      -7.171   3.020  66.014  1.00  0.00    -0.067 OA 
ENDROOT
BRANCH   2   3
HETATM    3  C   UNL     1      -7.767   3.820  66.954  1.00  0.00    -0.081 A  
HETATM    4  C   UNL     1      -8.437   3.220  68.028  1.00  0.00    -0.086 A  
HETATM    5  C   UNL     1      -9.088   4.034  68.960  1.00  0.00    -0.193 A  
HETATM    6  C   UNL     1      -8.337   6.038  67.821  1.00  0.00    -0.112 A  
HETATM    7  C   UNL     1      -9.026   5.444  68.871  1.00  0.00    -0.130 A  
HETATM    8  C   UNL     1      -7.717   5.220  66.885  1.00  0.00    -0.096 A  
HETATM    9  C   UNL     1      -9.597   6.346  69.769  1.00  0.00    -0.151 A  
HETATM   10  N   UNL     1     -10.336   5.907  70.874  1.00  0.00    -0.218 NA 
HETATM   11  N   UNL     1      -9.493   7.676  69.638  1.00  0.00    -0.157 NA 
HETATM   12  H1  UNL     1     -10.753   6.567  71.530  1.00  0.00     0.000 HD 
HETATM   13  C   UNL     1      -8.803   8.157  68.595  1.00  0.00    -0.134 A  
HETATM   14  H2  UNL     1      -9.752   5.261  71.406  1.00  0.00     0.000 HD 
HETATM   15  N   UNL     1      -8.233   7.362  67.679  1.00  0.00    -0.117 NA 
BRANCH   4  16
HETATM   16  O   UNL     1      -8.598   1.882  68.266  1.00  0.00    -0.062 OA 
HETATM   17  C   UNL     1      -8.981   1.509  69.585  1.00  0.00    -0.079 C  
ENDBRANCH   4  16
BRANCH  13  18
HETATM   18  N   UNL     1      -8.568   9.516  68.502  1.00  0.00    -0.119 NA 
HETATM   19  C   UNL     1      -7.203  11.448  69.103  1.00  0.00    -0.102 C  
HETATM   20  C   UNL     1      -7.902  10.181  69.623  1.00  0.00    -0.175 C  
HETATM   21  N   UNL     1      -8.122  12.328  68.364  1.00  0.00    -0.161 N  
HETATM   22  C   UNL     1      -8.887  11.651  67.302  1.00  0.00    -0.164 C  
HETATM   23  C   UNL     1      -7.949  13.698  68.476  1.00  0.00    -0.127 C  
HETATM   24  O   UNL     1      -7.115  14.172  69.253  1.00  0.00    -0.119 OA 
HETATM   25  C   UNL     1      -9.549  10.342  67.790  1.00  0.00    -0.152 C  
BRANCH  23  26
HETATM   26  C   UNL     1      -8.907  14.630  67.694  1.00  0.00    -0.182 C  
HETATM   27  C   UNL     1      -8.632  16.097  68.003  1.00  0.00    -0.171 C  
HETATM   28  C   UNL     1      -9.261  16.796  66.829  1.00  0.00    -0.263 C  
HETATM   29  C   UNL     1      -8.967  15.837  65.698  1.00  0.00     0.195 C  
HETATM   30  O   UNL     1      -8.860  14.522  66.265  1.00  0.00    -0.129 OA 
ENDBRANCH  23  26
ENDBRANCH  13  18
ENDBRANCH   2   3
TORSDOF 4
ENDMDL
MODEL      134
REMARK 921   NORMALIZED FREE ENERGY PREDICTED BY IDOCK:   -1.03 KCAL/MOL
REMARK 922        TOTAL FREE ENERGY PREDICTED BY IDOCK:   -1.80 KCAL/MOL
REMARK 923 INTER-LIGAND FREE ENERGY PREDICTED BY IDOCK:   -2.28 KCAL/MOL
REMARK 924 INTRA-LIGAND FREE ENERGY PREDICTED BY IDOCK:    0.48 KCAL/MOL
REMARK 927      BINDING AFFINITY PREDICTED BY RF-SCORE:    0.00 PKD
ROOT
HETATM    1  C   UNL     1     -11.597  17.247  67.894  1.00  0.00     0.758 C  
HETATM    2  O   UNL     1     -10.249  17.680  67.732  1.00  0.00    -0.320 OA 
ENDROOT
BRANCH   2   3
HETATM    3  C   UNL     1      -9.285  16.819  68.187  1.00  0.00    -0.224 A  
HETATM    4  C   UNL     1      -8.355  17.279  69.128  1.00  0.00     0.017 A  
HETATM    5  C   UNL     1      -7.341  16.418  69.556  1.00  0.00    -0.044 A  
HETATM    6  C   UNL     1      -8.219  14.614  68.195  1.00  0.00    -0.142 A  
HETATM    7  C   UNL     1      -7.279  15.079  69.106  1.00  0.00    -0.159 A  
HETATM    8  C   UNL     1      -9.207  15.487  67.755  1.00  0.00    -0.179 A  
HETATM    9  C   UNL     1      -6.341  14.125  69.503  1.00  0.00    -0.120 A  
HETATM   10  N   UNL     1      -5.319  14.438  70.407  1.00  0.00    -0.102 NA 
HETATM   11  N   UNL     1      -6.341  12.864  69.049  1.00  0.00    -0.093 NA 
HETATM   12  H1  UNL     1      -4.634  13.741  70.697  1.00  0.00     0.000 HD 
HETATM   13  C   UNL     1      -7.293  12.506  68.176  1.00  0.00    -0.110 A  
HETATM   14  H2  UNL     1      -5.749  14.825  71.247  1.00  0.00     0.000 HD 
HETATM   15  N   UNL     1      -8.223  13.361  67.734  1.00  0.00    -0.157 NA 
BRANCH   4  16
HETATM   16  O   UNL     1      -8.266  18.536  69.664  1.00  0.00     0.433 OA 
HETATM   17  C   UNL     1      -7.316  19.416  69.075  1.00  0.00    -0.360 C  
ENDBRANCH   4  16
BRANCH  13  18
HETATM   18  N   UNL     1      -7.398  11.183  67.790  1.00  0.00    -0.090 NA 
HETATM   19  C   UNL     1      -7.155   9.485  66.053  1.00  0.00    -0.092 C  
HETATM   20  C   UNL     1      -7.680  10.893  66.384  1.00  0.00    -0.154 C  
HETATM   21  N   UNL     1      -7.677   8.465  66.976  1.00  0.00    -0.092 N  
HETATM   22  C   UNL     1      -7.503   8.792  68.402  1.00  0.00    -0.091 C  
HETATM   23  C   UNL     1      -7.950   7.204  66.472  1.00  0.00    -0.112 C  
HETATM   24  O   UNL     1      -7.857   6.969  65.263  1.00  0.00    -0.106 OA 
HETATM   25  C   UNL     1      -7.970  10.225  68.743  1.00  0.00    -0.113 C  
BRANCH  23  26
HETATM   26  C   UNL     1      -8.492   6.123  67.439  1.00  0.00    -0.107 C  
HETATM   27  C   UNL     1      -7.840   6.227  68.813  1.00  0.00    -0.101 C  
HETATM   28  C   UNL     1      -8.816   5.492  69.688  1.00  0.00    -0.120 C  
HETATM   29  C   UNL     1     -10.142   5.871  69.069  1.00  0.00    -0.185 C  
HETATM   30  O   UNL     1      -9.904   6.148  67.680  1.00  0.00    -0.113 OA 
ENDBRANCH  23  26
ENDBRANCH  13  18
ENDBRANCH   2   3
TORSDOF 4
ENDMDL
MODEL      135
REMARK 921   NORMALIZED FREE ENERGY PREDICTED BY IDOCK:    0.99 KCAL/MOL
REMARK 922        TOTAL FREE ENERGY PREDICTED BY IDOCK:    0.70 KCAL/MOL
REMARK 923 INTER-LIGAND FREE ENERGY PREDICTED BY IDOCK:    0.13 KCAL/MOL
REMARK 924 INTRA-LIGAND FREE ENERGY PREDICTED BY IDOCK:    0.57 KCAL/MOL
REMARK 927      BINDING AFFINITY PREDICTED BY RF-SCORE:    0.00 PKD
ROOT
HETATM    1  C   UNL     1     -11.197  17.216  71.800  1.00  0.00     1.196 C  
HETATM    2  O   UNL     1     -10.862  18.001  70.659  1.00  0.00     1.309 OA 
ENDROOT
BRANCH   2   3
HETATM    3  C   UNL     1     -10.054  17.397  69.732  1.00  0.00     0.312 A  
HETATM    4  C   UNL     1      -9.271  18.197  68.891  1.00  0.00    -0.157 A  
HETATM    5  C   UNL     1      -8.485  17.583  67.911  1.00  0.00    -0.230 A  
HETATM    6  C   UNL     1      -9.174  15.381  68.654  1.00  0.00    -0.199 A  
HETATM    7  C   UNL     1      -8.419  16.175  67.800  1.00  0.00    -0.165 A  
HETATM    8  C   UNL     1      -9.973  16.002  69.606  1.00  0.00    -0.226 A  
HETATM    9  C   UNL     1      -7.634  15.461  66.894  1.00  0.00    -0.076 A  
HETATM   10  N   UNL     1      -6.826  16.115  65.957  1.00  0.00     0.599 NA 
HETATM   11  N   UNL     1      -7.606  14.123  66.845  1.00  0.00     0.218 NA 
HETATM   12  H1  UNL     1      -6.252  15.593  65.294  1.00  0.00     0.000 HD 
HETATM   13  C   UNL     1      -8.365  13.441  67.713  1.00  0.00    -0.178 A  
HETATM   14  H2  UNL     1      -6.216  16.758  66.461  1.00  0.00     0.000 HD 
HETATM   15  N   UNL     1      -9.156  14.047  68.609  1.00  0.00    -0.152 NA 
BRANCH   4  16
HETATM   16  O   UNL     1      -9.214  19.564  68.859  1.00  0.00    -0.377 OA 
HETATM   17  C   UNL     1     -10.377  20.241  68.395  1.00  0.00    -0.165 C  
ENDBRANCH   4  16
BRANCH  13  18
HETATM   18  N   UNL     1      -8.259  12.064  67.775  1.00  0.00    -0.141 NA 
HETATM   19  C   UNL     1      -7.918   9.939  66.623  1.00  0.00    -0.113 C  
HETATM   20  C   UNL     1      -8.660  11.286  66.602  1.00  0.00    -0.167 C  
HETATM   21  N   UNL     1      -8.105   9.221  67.894  1.00  0.00    -0.104 N  
HETATM   22  C   UNL     1      -7.813  10.024  69.094  1.00  0.00    -0.112 C  
HETATM   23  C   UNL     1      -8.189   7.838  67.858  1.00  0.00    -0.123 C  
HETATM   24  O   UNL     1      -8.211   7.230  66.783  1.00  0.00    -0.116 OA 
HETATM   25  C   UNL     1      -8.503  11.407  69.064  1.00  0.00     0.060 C  
BRANCH  23  26
HETATM   26  C   UNL     1      -8.378   7.074  69.191  1.00  0.00    -0.125 C  
HETATM   27  C   UNL     1      -9.086   7.934  70.231  1.00  0.00    -0.152 C  
HETATM   28  C   UNL     1      -9.608   6.907  71.197  1.00  0.00    -0.167 C  
HETATM   29  C   UNL     1      -9.980   5.768  70.274  1.00  0.00    -0.198 C  
HETATM   30  O   UNL     1      -9.135   5.859  69.116  1.00  0.00    -0.121 OA 
ENDBRANCH  23  26
ENDBRANCH  13  18
ENDBRANCH   2   3
TORSDOF 4
ENDMDL
MODEL      136
REMARK 921   NORMALIZED FREE ENERGY PREDICTED BY IDOCK:    1.26 KCAL/MOL
REMARK 922        TOTAL FREE ENERGY PREDICTED BY IDOCK:    1.03 KCAL/MOL
REMARK 923 INTER-LIGAND FREE ENERGY PREDICTED BY IDOCK:   -1.85 KCAL/MOL
REMARK 924 INTRA-LIGAND FREE ENERGY PREDICTED BY IDOCK:    2.88 KCAL/MOL
REMARK 927      BINDING AFFINITY PREDICTED BY RF-SCORE:    0.00 PKD
ROOT
HETATM    1  C   UNL     1     -10.051  18.790  70.879  1.00  0.00     2.605 C  
HETATM    2  O   UNL     1     -11.156  18.002  70.444  1.00  0.00     1.586 OA 
ENDROOT
BRANCH   2   3
HETATM    3  C   UNL     1     -10.845  16.892  69.703  1.00  0.00    -0.098 A  
HETATM    4  C   UNL     1     -10.127  17.053  68.511  1.00  0.00    -0.303 A  
HETATM    5  C   UNL     1      -9.853  15.929  67.728  1.00  0.00    -0.222 A  
HETATM    6  C   UNL     1     -10.917  14.470  69.346  1.00  0.00    -0.249 A  
HETATM    7  C   UNL     1     -10.230  14.632  68.149  1.00  0.00    -0.231 A  
HETATM    8  C   UNL     1     -11.209  15.598  70.103  1.00  0.00    -0.346 A  
HETATM    9  C   UNL     1      -9.966  13.442  67.471  1.00  0.00    -0.230 A  
HETATM   10  N   UNL     1      -9.293  13.436  66.244  1.00  0.00    -0.450 NA 
HETATM   11  N   UNL     1     -10.340  12.239  67.928  1.00  0.00    -0.203 NA 
HETATM   12  H1  UNL     1      -9.100  12.566  65.748  1.00  0.00     0.000 HD 
HETATM   13  C   UNL     1     -10.995  12.182  69.096  1.00  0.00    -0.161 A  
HETATM   14  H2  UNL     1      -8.409  13.930  66.367  1.00  0.00     0.000 HD 
HETATM   15  N   UNL     1     -11.299  13.277  69.806  1.00  0.00    -0.130 NA 
BRANCH   4  16
HETATM   16  O   UNL     1      -9.689  18.225  67.956  1.00  0.00    -0.288 OA 
HETATM   17  C   UNL     1     -10.398  19.406  68.312  1.00  0.00    -0.394 C  
ENDBRANCH   4  16
BRANCH  13  18
HETATM   18  N   UNL     1     -11.279  10.951  69.657  1.00  0.00    -0.262 NA 
HETATM   19  C   UNL     1     -12.806   9.536  70.931  1.00  0.00    -0.141 C  
HETATM   20  C   UNL     1     -12.127  10.913  70.849  1.00  0.00    -0.349 C  
HETATM   21  N   UNL     1     -11.836   8.432  70.868  1.00  0.00    -0.259 N  
HETATM   22  C   UNL     1     -10.898   8.512  69.735  1.00  0.00    -0.175 C  
HETATM   23  C   UNL     1     -12.088   7.294  71.618  1.00  0.00    -0.325 C  
HETATM   24  O   UNL     1     -13.045   7.246  72.397  1.00  0.00     0.060 OA 
HETATM   25  C   UNL     1     -10.249   9.908  69.600  1.00  0.00    -0.237 C  
BRANCH  23  26
HETATM   26  C   UNL     1     -11.076   6.125  71.551  1.00  0.00    -0.286 C  
HETATM   27  C   UNL     1     -10.317   6.120  70.229  1.00  0.00    -0.270 C  
HETATM   28  C   UNL     1      -9.103   5.296  70.558  1.00  0.00    -0.174 C  
HETATM   29  C   UNL     1      -8.822   5.706  71.986  1.00  0.00    -0.138 C  
HETATM   30  O   UNL     1     -10.070   6.107  72.572  1.00  0.00    -0.176 OA 
ENDBRANCH  23  26
ENDBRANCH  13  18
ENDBRANCH   2   3
TORSDOF 4
ENDMDL
MODEL      137
REMARK 921   NORMALIZED FREE ENERGY PREDICTED BY IDOCK:    4.60 KCAL/MOL
REMARK 922        TOTAL FREE ENERGY PREDICTED BY IDOCK:    5.16 KCAL/MOL
REMARK 923 INTER-LIGAND FREE ENERGY PREDICTED BY IDOCK:    5.31 KCAL/MOL
REMARK 924 INTRA-LIGAND FREE ENERGY PREDICTED BY IDOCK:   -0.15 KCAL/MOL
REMARK 927      BINDING AFFINITY PREDICTED BY RF-SCORE:    0.00 PKD
ROOT
HETATM    1  C   UNL     1      -9.549  15.816  72.280  1.00  0.00     6.140 C  
HETATM    2  O   UNL     1     -10.554  14.875  71.913  1.00  0.00     0.575 OA 
ENDROOT
BRANCH   2   3
HETATM    3  C   UNL     1     -10.630  14.569  70.580  1.00  0.00     0.521 A  
HETATM    4  C   UNL     1     -10.891  15.595  69.663  1.00  0.00    -0.287 A  
HETATM    5  C   UNL     1     -11.019  15.277  68.308  1.00  0.00    -0.276 A  
HETATM    6  C   UNL     1     -10.535  12.943  68.751  1.00  0.00    -0.161 A  
HETATM    7  C   UNL     1     -10.824  13.955  67.844  1.00  0.00    -0.256 A  
HETATM    8  C   UNL     1     -10.439  13.266  70.099  1.00  0.00     1.665 A  
HETATM    9  C   UNL     1     -10.880  13.538  66.514  1.00  0.00    -0.282 A  
HETATM   10  N   UNL     1     -11.173  14.435  65.480  1.00  0.00    -0.320 NA 
HETATM   11  N   UNL     1     -10.674  12.270  66.134  1.00  0.00    -0.253 NA 
HETATM   12  H1  UNL     1     -11.214  14.130  64.508  1.00  0.00     0.000 HD 
HETATM   13  C   UNL     1     -10.396  11.363  67.081  1.00  0.00    -0.212 A  
HETATM   14  H2  UNL     1     -10.512  15.210  65.538  1.00  0.00     0.000 HD 
HETATM   15  N   UNL     1     -10.335  11.676  68.382  1.00  0.00    -0.198 NA 
BRANCH   4  16
HETATM   16  O   UNL     1     -11.108  16.919  69.935  1.00  0.00    -0.146 OA 
HETATM   17  C   UNL     1     -10.466  17.860  69.084  1.00  0.00     0.001 C  
ENDBRANCH   4  16
BRANCH  13  18
HETATM   18  N   UNL     1     -10.052  10.077  66.711  1.00  0.00    -0.215 NA 
HETATM   19  C   UNL     1     -10.217   7.672  67.101  1.00  0.00    -0.290 C  
HETATM   20  C   UNL     1      -9.995   9.049  67.751  1.00  0.00    -0.187 C  
HETATM   21  N   UNL     1      -9.290   7.428  65.986  1.00  0.00    -0.055 N  
HETATM   22  C   UNL     1      -9.250   8.505  64.982  1.00  0.00     0.290 C  
HETATM   23  C   UNL     1      -8.826   6.136  65.792  1.00  0.00    -0.124 C  
HETATM   24  O   UNL     1      -9.098   5.236  66.592  1.00  0.00    -0.118 OA 
HETATM   25  C   UNL     1      -9.086   9.904  65.620  1.00  0.00    -0.178 C  
BRANCH  23  26
HETATM   26  C   UNL     1      -7.856   5.869  64.615  1.00  0.00    -0.114 C  
HETATM   27  C   UNL     1      -7.203   4.497  64.732  1.00  0.00    -0.063 C  
HETATM   28  C   UNL     1      -6.746   4.237  63.323  1.00  0.00    -0.035 C  
HETATM   29  C   UNL     1      -7.861   4.857  62.512  1.00  0.00    -0.065 C  
HETATM   30  O   UNL     1      -8.436   5.908  63.304  1.00  0.00    -0.047 OA 
ENDBRANCH  23  26
ENDBRANCH  13  18
ENDBRANCH   2   3
TORSDOF 4
ENDMDL
MODEL      138
REMARK 921   NORMALIZED FREE ENERGY PREDICTED BY IDOCK:    5.92 KCAL/MOL
REMARK 922        TOTAL FREE ENERGY PREDICTED BY IDOCK:    6.78 KCAL/MOL
REMARK 923 INTER-LIGAND FREE ENERGY PREDICTED BY IDOCK:    2.41 KCAL/MOL
REMARK 924 INTRA-LIGAND FREE ENERGY PREDICTED BY IDOCK:    4.38 KCAL/MOL
REMARK 927      BINDING AFFINITY PREDICTED BY RF-SCORE:    0.00 PKD
ROOT
HETATM    1  C   UNL     1      -9.754   7.564  68.390  1.00  0.00    -0.156 C  
HETATM    2  O   UNL     1      -9.044   8.379  67.461  1.00  0.00    -0.133 OA 
ENDROOT
BRANCH   2   3
HETATM    3  C   UNL     1      -8.309   9.401  68.001  1.00  0.00    -0.119 A  
HETATM    4  C   UNL     1      -7.520   9.146  69.129  1.00  0.00    -0.072 A  
HETATM    5  C   UNL     1      -6.809  10.199  69.711  1.00  0.00    -0.105 A  
HETATM    6  C   UNL     1      -7.583  11.740  68.007  1.00  0.00    -0.116 A  
HETATM    7  C   UNL     1      -6.823  11.495  69.144  1.00  0.00    -0.112 A  
HETATM    8  C   UNL     1      -8.308  10.692  67.453  1.00  0.00    -0.119 A  
HETATM    9  C   UNL     1      -6.116  12.601  69.614  1.00  0.00    -0.128 A  
HETATM   10  N   UNL     1      -5.313  12.522  70.758  1.00  0.00    -0.154 NA 
HETATM   11  N   UNL     1      -6.160  13.804  69.024  1.00  0.00    -0.086 NA 
HETATM   12  H1  UNL     1      -4.796  13.331  71.101  1.00  0.00     0.000 HD 
HETATM   13  C   UNL     1      -6.918  13.944  67.927  1.00  0.00    -0.160 A  
HETATM   14  H2  UNL     1      -4.650  11.759  70.625  1.00  0.00     0.000 HD 
HETATM   15  N   UNL     1      -7.638  12.936  67.416  1.00  0.00    -0.162 NA 
BRANCH   4  16
HETATM   16  O   UNL     1      -7.393   7.963  69.805  1.00  0.00    -0.074 OA 
HETATM   17  C   UNL     1      -8.515   7.088  69.780  1.00  0.00    -0.137 C  
ENDBRANCH   4  16
BRANCH  13  18
HETATM   18  N   UNL     1      -6.883  15.132  67.223  1.00  0.00    -0.268 NA 
HETATM   19  C   UNL     1      -5.716  16.609  65.669  1.00  0.00     2.305 C  
HETATM   20  C   UNL     1      -5.577  15.715  66.913  1.00  0.00     0.802 C  
HETATM   21  N   UNL     1      -6.782  17.612  65.821  1.00  0.00    -0.204 N  
HETATM   22  C   UNL     1      -8.080  17.058  66.243  1.00  0.00    -0.297 C  
HETATM   23  C   UNL     1      -6.592  18.861  65.251  1.00  0.00    -0.221 C  
HETATM   24  O   UNL     1      -5.519  19.161  64.720  1.00  0.00    -0.175 OA 
HETATM   25  C   UNL     1      -7.953  16.108  67.456  1.00  0.00    -0.150 C  
BRANCH  23  26
HETATM   26  C   UNL     1      -7.713  19.918  65.399  1.00  0.00     0.103 C  
HETATM   27  C   UNL     1      -9.051  19.387  64.897  1.00  0.00     2.951 C  
HETATM   28  C   UNL     1     -10.034  20.302  65.572  1.00  0.00    -0.015 C  
HETATM   29  C   UNL     1      -9.378  20.534  66.914  1.00  0.00    -0.298 C  
HETATM   30  O   UNL     1      -7.961  20.387  66.731  1.00  0.00    -0.295 OA 
ENDBRANCH  23  26
ENDBRANCH  13  18
ENDBRANCH   2   3
TORSDOF 4
ENDMDL
MODEL      139
REMARK 921   NORMALIZED FREE ENERGY PREDICTED BY IDOCK:    7.12 KCAL/MOL
REMARK 922        TOTAL FREE ENERGY PREDICTED BY IDOCK:    8.27 KCAL/MOL
REMARK 923 INTER-LIGAND FREE ENERGY PREDICTED BY IDOCK:    8.16 KCAL/MOL
REMARK 924 INTRA-LIGAND FREE ENERGY PREDICTED BY IDOCK:    0.10 KCAL/MOL
REMARK 927      BINDING AFFINITY PREDICTED BY RF-SCORE:    0.00 PKD
ROOT
HETATM    1  C   UNL     1     -12.489   7.082  68.402  1.00  0.00     4.660 C  
HETATM    2  O   UNL     1     -11.414   6.836  69.304  1.00  0.00    -0.203 OA 
ENDROOT
BRANCH   2   3
HETATM    3  C   UNL     1     -10.188   7.313  68.919  1.00  0.00    -0.193 A  
HETATM    4  C   UNL     1      -9.280   6.436  68.312  1.00  0.00    -0.112 A  
HETATM    5  C   UNL     1      -8.011   6.908  67.965  1.00  0.00    -0.115 A  
HETATM    6  C   UNL     1      -8.569   9.140  68.731  1.00  0.00    -0.131 A  
HETATM    7  C   UNL     1      -7.656   8.264  68.156  1.00  0.00    -0.098 A  
HETATM    8  C   UNL     1      -9.817   8.653  69.098  1.00  0.00    -0.185 A  
HETATM    9  C   UNL     1      -6.440   8.849  67.803  1.00  0.00    -0.060 A  
HETATM   10  N   UNL     1      -5.410   8.098  67.225  1.00  0.00    -0.036 NA 
HETATM   11  N   UNL     1      -6.166  10.146  67.999  1.00  0.00    -0.056 NA 
HETATM   12  H1  UNL     1      -4.521   8.526  66.967  1.00  0.00     0.000 HD 
HETATM   13  C   UNL     1      -7.112  10.915  68.556  1.00  0.00    -0.076 A  
HETATM   14  H2  UNL     1      -5.786   7.632  66.399  1.00  0.00     0.000 HD 
HETATM   15  N   UNL     1      -8.302  10.432  68.935  1.00  0.00    -0.129 NA 
BRANCH   4  16
HETATM   16  O   UNL     1      -9.454   5.103  68.057  1.00  0.00    -0.117 OA 
HETATM   17  C   UNL     1     -10.267   4.377  68.972  1.00  0.00     0.238 C  
ENDBRANCH   4  16
BRANCH  13  18
HETATM   18  N   UNL     1      -6.910  12.279  68.652  1.00  0.00    -0.081 NA 
HETATM   19  C   UNL     1      -5.850  14.303  67.791  1.00  0.00    -0.077 C  
HETATM   20  C   UNL     1      -5.641  12.827  68.171  1.00  0.00    -0.080 C  
HETATM   21  N   UNL     1      -6.444  15.081  68.890  1.00  0.00    -0.089 N  
HETATM   22  C   UNL     1      -7.663  14.487  69.464  1.00  0.00     0.065 C  
HETATM   23  C   UNL     1      -6.044  16.398  69.049  1.00  0.00    -0.152 C  
HETATM   24  O   UNL     1      -5.140  16.876  68.357  1.00  0.00    -0.114 OA 
HETATM   25  C   UNL     1      -7.492  12.987  69.798  1.00  0.00     0.993 C  
BRANCH  23  26
HETATM   26  C   UNL     1      -6.670  17.227  70.198  1.00  0.00     0.697 C  
HETATM   27  C   UNL     1      -5.678  18.237  70.762  1.00  0.00     0.008 C  
HETATM   28  C   UNL     1      -6.580  19.226  71.447  1.00  0.00     1.132 C  
HETATM   29  C   UNL     1      -7.774  19.258  70.518  1.00  0.00     1.653 C  
HETATM   30  O   UNL     1      -7.839  17.984  69.859  1.00  0.00     0.822 OA 
ENDBRANCH  23  26
ENDBRANCH  13  18
ENDBRANCH   2   3
TORSDOF 4
ENDMDL
MODEL      140
REMARK 921   NORMALIZED FREE ENERGY PREDICTED BY IDOCK:    7.96 KCAL/MOL
REMARK 922        TOTAL FREE ENERGY PREDICTED BY IDOCK:    9.30 KCAL/MOL
REMARK 923 INTER-LIGAND FREE ENERGY PREDICTED BY IDOCK:    5.59 KCAL/MOL
REMARK 924 INTRA-LIGAND FREE ENERGY PREDICTED BY IDOCK:    3.71 KCAL/MOL
REMARK 927      BINDING AFFINITY PREDICTED BY RF-SCORE:    0.00 PKD
ROOT
HETATM    1  C   UNL     1     -10.445  18.384  71.181  1.00  0.00     2.898 C  
HETATM    2  O   UNL     1     -11.273  17.524  70.403  1.00  0.00     0.943 OA 
ENDROOT
BRANCH   2   3
HETATM    3  C   UNL     1     -10.635  16.792  69.437  1.00  0.00    -0.318 A  
HETATM    4  C   UNL     1      -9.682  17.422  68.628  1.00  0.00    -0.308 A  
HETATM    5  C   UNL     1      -9.066  16.689  67.609  1.00  0.00    -0.207 A  
HETATM    6  C   UNL     1     -10.267  14.682  68.248  1.00  0.00    -0.227 A  
HETATM    7  C   UNL     1      -9.343  15.314  67.426  1.00  0.00    -0.202 A  
HETATM    8  C   UNL     1     -10.894  15.427  69.239  1.00  0.00    -0.253 A  
HETATM    9  C   UNL     1      -8.753  14.480  66.475  1.00  0.00    -0.044 A  
HETATM   10  N   UNL     1      -7.810  14.967  65.562  1.00  0.00     2.973 NA 
HETATM   11  N   UNL     1      -9.048  13.179  66.358  1.00  0.00    -0.125 NA 
HETATM   12  H1  UNL     1      -7.379  14.358  64.867  1.00  0.00     0.000 HD 
HETATM   13  C   UNL     1      -9.950  12.656  67.200  1.00  0.00    -0.217 A  
HETATM   14  H2  UNL     1      -7.063  15.418  66.091  1.00  0.00     0.000 HD 
HETATM   15  N   UNL     1     -10.571  13.387  68.134  1.00  0.00    -0.238 NA 
BRANCH   4  16
HETATM   16  O   UNL     1      -9.297  18.735  68.663  1.00  0.00    -0.337 OA 
HETATM   17  C   UNL     1     -10.107  19.618  69.431  1.00  0.00    -0.132 C  
ENDBRANCH   4  16
BRANCH  13  18
HETATM   18  N   UNL     1     -10.179  11.293  67.191  1.00  0.00    -0.196 NA 
HETATM   19  C   UNL     1     -11.752   9.435  67.383  1.00  0.00     2.451 C  
HETATM   20  C   UNL     1     -11.292  10.773  67.987  1.00  0.00    -0.307 C  
HETATM   21  N   UNL     1     -10.642   8.481  67.235  1.00  0.00    -0.288 N  
HETATM   22  C   UNL     1      -9.466   9.022  66.532  1.00  0.00    -0.206 C  
HETATM   23  C   UNL     1     -10.905   7.135  67.436  1.00  0.00    -0.276 C  
HETATM   24  O   UNL     1     -12.012   6.756  67.829  1.00  0.00     1.048 OA 
HETATM   25  C   UNL     1      -9.024  10.395  67.087  1.00  0.00    -0.139 C  
BRANCH  23  26
HETATM   26  C   UNL     1      -9.744   6.123  67.274  1.00  0.00    -0.128 C  
HETATM   27  C   UNL     1     -10.264   4.699  67.115  1.00  0.00    -0.147 C  
HETATM   28  C   UNL     1      -9.094   3.998  66.484  1.00  0.00    -0.144 C  
HETATM   29  C   UNL     1      -8.535   5.072  65.577  1.00  0.00    -0.134 C  
HETATM   30  O   UNL     1      -8.874   6.342  66.156  1.00  0.00    -0.147 OA 
ENDBRANCH  23  26
ENDBRANCH  13  18
ENDBRANCH   2   3
TORSDOF 4
ENDMDL
MODEL      141
REMARK 921   NORMALIZED FREE ENERGY PREDICTED BY IDOCK:    8.30 KCAL/MOL
REMARK 922        TOTAL FREE ENERGY PREDICTED BY IDOCK:    9.72 KCAL/MOL
REMARK 923 INTER-LIGAND FREE ENERGY PREDICTED BY IDOCK:    6.56 KCAL/MOL
REMARK 924 INTRA-LIGAND FREE ENERGY PREDICTED BY IDOCK:    3.16 KCAL/MOL
REMARK 927      BINDING AFFINITY PREDICTED BY RF-SCORE:    0.00 PKD
ROOT
HETATM    1  C   UNL     1      -6.307   7.360  70.379  1.00  0.00    -0.038 C  
HETATM    2  O   UNL     1      -6.118   8.556  69.628  1.00  0.00    -0.032 OA 
ENDROOT
BRANCH   2   3
HETATM    3  C   UNL     1      -7.119   9.486  69.721  1.00  0.00    -0.075 A  
HETATM    4  C   UNL     1      -8.291   9.153  70.412  1.00  0.00    -0.185 A  
HETATM    5  C   UNL     1      -9.334  10.082  70.464  1.00  0.00     0.217 A  
HETATM    6  C   UNL     1      -8.025  11.709  69.232  1.00  0.00     0.275 A  
HETATM    7  C   UNL     1      -9.199  11.369  69.892  1.00  0.00     1.613 A  
HETATM    8  C   UNL     1      -7.005  10.767  69.161  1.00  0.00    -0.091 A  
HETATM    9  C   UNL     1     -10.155  12.385  69.928  1.00  0.00     1.895 A  
HETATM   10  N   UNL     1     -11.397  12.196  70.544  1.00  0.00    -0.078 NA 
HETATM   11  N   UNL     1      -9.963  13.590  69.375  1.00  0.00     0.448 NA 
HETATM   12  H1  UNL     1     -12.096  12.939  70.570  1.00  0.00     0.000 HD 
HETATM   13  C   UNL     1      -8.795  13.829  68.765  1.00  0.00     0.044 A  
HETATM   14  H2  UNL     1     -11.230  11.888  71.502  1.00  0.00     0.000 HD 
HETATM   15  N   UNL     1      -7.828  12.905  68.674  1.00  0.00    -0.090 NA 
BRANCH   4  16
HETATM   16  O   UNL     1      -8.590   7.963  71.018  1.00  0.00    -0.126 OA 
HETATM   17  C   UNL     1      -8.422   6.787  70.235  1.00  0.00    -0.135 C  
ENDBRANCH   4  16
BRANCH  13  18
HETATM   18  N   UNL     1      -8.516  15.100  68.300  1.00  0.00    -0.148 NA 
HETATM   19  C   UNL     1      -7.769  17.378  68.760  1.00  0.00    -0.258 C  
HETATM   20  C   UNL     1      -8.675  16.224  69.223  1.00  0.00    -0.151 C  
HETATM   21  N   UNL     1      -8.004  17.739  67.353  1.00  0.00    -0.209 N  
HETATM   22  C   UNL     1      -7.959  16.601  66.419  1.00  0.00    -0.325 C  
HETATM   23  C   UNL     1      -7.900  19.074  66.993  1.00  0.00    -0.242 C  
HETATM   24  O   UNL     1      -7.719  19.949  67.845  1.00  0.00    -0.287 OA 
HETATM   25  C   UNL     1      -8.817  15.407  66.897  1.00  0.00    -0.253 C  
BRANCH  23  26
HETATM   26  C   UNL     1      -8.137  19.460  65.513  1.00  0.00     0.408 C  
HETATM   27  C   UNL     1      -8.570  20.916  65.379  1.00  0.00     1.409 C  
HETATM   28  C   UNL     1      -8.253  21.215  63.940  1.00  0.00     2.407 C  
HETATM   29  C   UNL     1      -6.983  20.421  63.727  1.00  0.00     0.789 C  
HETATM   30  O   UNL     1      -7.011  19.312  64.638  1.00  0.00    -0.220 OA 
ENDBRANCH  23  26
ENDBRANCH  13  18
ENDBRANCH   2   3
TORSDOF 4
ENDMDL
MODEL      142
REMARK 921   NORMALIZED FREE ENERGY PREDICTED BY IDOCK:   10.42 KCAL/MOL
REMARK 922        TOTAL FREE ENERGY PREDICTED BY IDOCK:   12.33 KCAL/MOL
REMARK 923 INTER-LIGAND FREE ENERGY PREDICTED BY IDOCK:   12.90 KCAL/MOL
REMARK 924 INTRA-LIGAND FREE ENERGY PREDICTED BY IDOCK:   -0.57 KCAL/MOL
REMARK 927      BINDING AFFINITY PREDICTED BY RF-SCORE:    0.00 PKD
ROOT
HETATM    1  C   UNL     1      -8.100  14.384  72.748  1.00  0.00     7.860 C  
HETATM    2  O   UNL     1      -8.663  15.300  71.813  1.00  0.00     3.741 OA 
ENDROOT
BRANCH   2   3
HETATM    3  C   UNL     1      -9.365  14.742  70.777  1.00  0.00     2.080 A  
HETATM    4  C   UNL     1     -10.592  15.307  70.407  1.00  0.00    -0.197 A  
HETATM    5  C   UNL     1     -11.333  14.709  69.384  1.00  0.00    -0.314 A  
HETATM    6  C   UNL     1      -9.605  13.048  69.025  1.00  0.00     0.390 A  
HETATM    7  C   UNL     1     -10.835  13.589  68.677  1.00  0.00    -0.281 A  
HETATM    8  C   UNL     1      -8.889  13.633  70.062  1.00  0.00     2.580 A  
HETATM    9  C   UNL     1     -11.468  12.947  67.613  1.00  0.00    -0.334 A  
HETATM   10  N   UNL     1     -12.721  13.364  67.149  1.00  0.00    -0.005 NA 
HETATM   11  N   UNL     1     -10.939  11.894  66.973  1.00  0.00    -0.262 NA 
HETATM   12  H1  UNL     1     -13.183  12.894  66.371  1.00  0.00     0.000 HD 
HETATM   13  C   UNL     1      -9.743  11.445  67.376  1.00  0.00    -0.181 A  
HETATM   14  H2  UNL     1     -12.659  14.357  66.925  1.00  0.00     0.000 HD 
HETATM   15  N   UNL     1      -9.073  11.996  68.397  1.00  0.00    -0.182 NA 
BRANCH   4  16
HETATM   16  O   UNL     1     -11.220  16.380  70.980  1.00  0.00    -0.310 OA 
HETATM   17  C   UNL     1     -12.382  16.102  71.753  1.00  0.00    -0.341 C  
ENDBRANCH   4  16
BRANCH  13  18
HETATM   18  N   UNL     1      -9.113  10.447  66.657  1.00  0.00    -0.150 NA 
HETATM   19  C   UNL     1      -8.236   9.640  64.526  1.00  0.00    -0.151 C  
HETATM   20  C   UNL     1      -9.421  10.322  65.231  1.00  0.00    -0.240 C  
HETATM   21  N   UNL     1      -7.872   8.363  65.160  1.00  0.00    -0.110 N  
HETATM   22  C   UNL     1      -7.667   8.445  66.616  1.00  0.00    -0.090 C  
HETATM   23  C   UNL     1      -7.432   7.330  64.347  1.00  0.00    -0.097 C  
HETATM   24  O   UNL     1      -7.442   7.442  63.117  1.00  0.00    -0.086 OA 
HETATM   25  C   UNL     1      -8.820   9.181  67.337  1.00  0.00    -0.118 C  
BRANCH  23  26
HETATM   26  C   UNL     1      -7.038   5.986  65.007  1.00  0.00    -0.061 C  
HETATM   27  C   UNL     1      -8.161   4.961  64.896  1.00  0.00    -0.124 C  
HETATM   28  C   UNL     1      -7.433   3.663  65.106  1.00  0.00    -0.073 C  
HETATM   29  C   UNL     1      -6.113   3.927  64.417  1.00  0.00    -0.022 C  
HETATM   30  O   UNL     1      -5.875   5.342  64.472  1.00  0.00    -0.020 OA 
ENDBRANCH  23  26
ENDBRANCH  13  18
ENDBRANCH   2   3
TORSDOF 4
ENDMDL
MODEL      143
REMARK 921   NORMALIZED FREE ENERGY PREDICTED BY IDOCK:   15.65 KCAL/MOL
REMARK 922        TOTAL FREE ENERGY PREDICTED BY IDOCK:   18.79 KCAL/MOL
REMARK 923 INTER-LIGAND FREE ENERGY PREDICTED BY IDOCK:   14.38 KCAL/MOL
REMARK 924 INTRA-LIGAND FREE ENERGY PREDICTED BY IDOCK:    4.41 KCAL/MOL
REMARK 927      BINDING AFFINITY PREDICTED BY RF-SCORE:    0.00 PKD
ROOT
HETATM    1  C   UNL     1     -11.820   3.828  65.344  1.00  0.00     4.293 C  
HETATM    2  O   UNL     1     -11.150   4.576  66.355  1.00  0.00     0.496 OA 
ENDROOT
BRANCH   2   3
HETATM    3  C   UNL     1     -10.414   5.647  65.919  1.00  0.00     0.206 A  
HETATM    4  C   UNL     1      -9.834   5.596  64.645  1.00  0.00     1.259 A  
HETATM    5  C   UNL     1      -9.041   6.665  64.219  1.00  0.00     1.191 A  
HETATM    6  C   UNL     1      -9.472   7.880  66.272  1.00  0.00    -0.151 A  
HETATM    7  C   UNL     1      -8.872   7.818  65.021  1.00  0.00     0.205 A  
HETATM    8  C   UNL     1     -10.235   6.799  66.698  1.00  0.00    -0.211 A  
HETATM    9  C   UNL     1      -8.145   8.957  64.674  1.00  0.00    -0.151 A  
HETATM   10  N   UNL     1      -7.469   9.047  63.452  1.00  0.00    -0.098 NA 
HETATM   11  N   UNL     1      -8.030  10.025  65.475  1.00  0.00    -0.133 NA 
HETATM   12  H1  UNL     1      -6.938   9.879  63.198  1.00  0.00     0.000 HD 
HETATM   13  C   UNL     1      -8.650   9.996  66.662  1.00  0.00    -0.125 A  
HETATM   14  H2  UNL     1      -8.141   8.864  62.706  1.00  0.00     0.000 HD 
HETATM   15  N   UNL     1      -9.359   8.938  67.078  1.00  0.00    -0.146 NA 
BRANCH   4  16
HETATM   16  O   UNL     1      -9.891   4.567  63.745  1.00  0.00    -0.013 OA 
HETATM   17  C   UNL     1     -11.100   3.818  63.707  1.00  0.00     0.095 C  
ENDBRANCH   4  16
BRANCH  13  18
HETATM   18  N   UNL     1      -8.660  11.129  67.453  1.00  0.00    -0.135 NA 
HETATM   19  C   UNL     1      -7.971  12.250  69.510  1.00  0.00     1.020 C  
HETATM   20  C   UNL     1      -8.553  10.962  68.903  1.00  0.00    -0.140 C  
HETATM   21  N   UNL     1      -8.733  13.445  69.113  1.00  0.00     0.448 N  
HETATM   22  C   UNL     1      -8.949  13.573  67.662  1.00  0.00    -0.200 C  
HETATM   23  C   UNL     1      -8.871  14.470  70.036  1.00  0.00     0.996 C  
HETATM   24  O   UNL     1      -8.457  14.343  71.193  1.00  0.00     3.070 OA 
HETATM   25  C   UNL     1      -9.478  12.268  67.023  1.00  0.00    -0.204 C  
BRANCH  23  26
HETATM   26  C   UNL     1      -9.664  15.734  69.624  1.00  0.00    -0.248 C  
HETATM   27  C   UNL     1     -10.076  16.555  70.840  1.00  0.00     1.936 C  
HETATM   28  C   UNL     1     -10.346  17.906  70.239  1.00  0.00     1.320 C  
HETATM   29  C   UNL     1      -9.286  17.990  69.164  1.00  0.00     0.040 C  
HETATM   30  O   UNL     1      -8.980  16.647  68.756  1.00  0.00    -0.239 OA 
ENDBRANCH  23  26
ENDBRANCH  13  18
ENDBRANCH   2   3
TORSDOF 4
ENDMDL
MODEL      144
REMARK 921   NORMALIZED FREE ENERGY PREDICTED BY IDOCK:   24.19 KCAL/MOL
REMARK 922        TOTAL FREE ENERGY PREDICTED BY IDOCK:   29.32 KCAL/MOL
REMARK 923 INTER-LIGAND FREE ENERGY PREDICTED BY IDOCK:   28.96 KCAL/MOL
REMARK 924 INTRA-LIGAND FREE ENERGY PREDICTED BY IDOCK:    0.36 KCAL/MOL
REMARK 927      BINDING AFFINITY PREDICTED BY RF-SCORE:    0.00 PKD
ROOT
HETATM    1  C   UNL     1     -12.815  18.956  68.348  1.00  0.00     8.650 C  
HETATM    2  O   UNL     1     -13.078  18.050  67.279  1.00  0.00     5.983 OA 
ENDROOT
BRANCH   2   3
HETATM    3  C   UNL     1     -12.046  17.218  66.932  1.00  0.00     3.081 A  
HETATM    4  C   UNL     1     -11.129  17.643  65.963  1.00  0.00     0.502 A  
HETATM    5  C   UNL     1     -10.106  16.776  65.571  1.00  0.00    -0.123 A  
HETATM    6  C   UNL     1     -10.836  15.101  67.164  1.00  0.00    -0.320 A  
HETATM    7  C   UNL     1      -9.944  15.510  66.182  1.00  0.00    -0.332 A  
HETATM    8  C   UNL     1     -11.867  15.960  67.526  1.00  0.00     0.390 A  
HETATM    9  C   UNL     1      -8.933  14.590  65.902  1.00  0.00     0.382 A  
HETATM   10  N   UNL     1      -7.962  14.846  64.927  1.00  0.00     6.077 NA 
HETATM   11  N   UNL     1      -8.825  13.408  66.524  1.00  0.00    -0.059 NA 
HETATM   12  H1  UNL     1      -7.224  14.174  64.722  1.00  0.00     0.000 HD 
HETATM   13  C   UNL     1      -9.731  13.102  67.463  1.00  0.00    -0.213 A  
HETATM   14  H2  UNL     1      -7.521  15.739  65.149  1.00  0.00     0.000 HD 
HETATM   15  N   UNL     1     -10.740  13.923  67.786  1.00  0.00    -0.244 NA 
BRANCH   4  16
HETATM   16  O   UNL     1     -11.137  18.825  65.272  1.00  0.00    -0.399 OA 
HETATM   17  C   UNL     1     -12.401  19.452  65.092  1.00  0.00     7.337 C  
ENDBRANCH   4  16
BRANCH  13  18
HETATM   18  N   UNL     1      -9.573  11.952  68.212  1.00  0.00    -0.198 NA 
HETATM   19  C   UNL     1     -10.574  10.009  69.300  1.00  0.00    -0.227 C  
HETATM   20  C   UNL     1     -10.679  11.526  69.070  1.00  0.00    -0.193 C  
HETATM   21  N   UNL     1      -9.253   9.614  69.811  1.00  0.00    -0.204 N  
HETATM   22  C   UNL     1      -8.118  10.127  69.023  1.00  0.00    -0.125 C  
HETATM   23  C   UNL     1      -9.188   8.570  70.720  1.00  0.00    -0.172 C  
HETATM   24  O   UNL     1     -10.216   8.053  71.168  1.00  0.00    -0.191 OA 
HETATM   25  C   UNL     1      -8.236  11.640  68.731  1.00  0.00    -0.055 C  
BRANCH  23  26
HETATM   26  C   UNL     1      -7.800   8.142  71.256  1.00  0.00    -0.097 C  
HETATM   27  C   UNL     1      -7.905   7.525  72.646  1.00  0.00    -0.113 C  
HETATM   28  C   UNL     1      -6.621   6.750  72.752  1.00  0.00    -0.066 C  
HETATM   29  C   UNL     1      -6.439   6.248  71.338  1.00  0.00    -0.050 C  
HETATM   30  O   UNL     1      -7.089   7.183  70.463  1.00  0.00    -0.060 OA 
ENDBRANCH  23  26
ENDBRANCH  13  18
ENDBRANCH   2   3
TORSDOF 4
ENDMDL
MODEL      145
REMARK 921   NORMALIZED FREE ENERGY PREDICTED BY IDOCK:   24.48 KCAL/MOL
REMARK 922        TOTAL FREE ENERGY PREDICTED BY IDOCK:   29.68 KCAL/MOL
REMARK 923 INTER-LIGAND FREE ENERGY PREDICTED BY IDOCK:   22.12 KCAL/MOL
REMARK 924 INTRA-LIGAND FREE ENERGY PREDICTED BY IDOCK:    7.56 KCAL/MOL
REMARK 927      BINDING AFFINITY PREDICTED BY RF-SCORE:    0.00 PKD
ROOT
HETATM    1  C   UNL     1     -11.222  18.824  71.538  1.00  0.00     4.837 C  
HETATM    2  O   UNL     1     -11.431  17.646  70.764  1.00  0.00     1.759 OA 
ENDROOT
BRANCH   2   3
HETATM    3  C   UNL     1     -10.303  16.946  70.424  1.00  0.00     0.786 A  
HETATM    4  C   UNL     1      -9.050  17.488  70.732  1.00  0.00     5.140 A  
HETATM    5  C   UNL     1      -7.898  16.799  70.341  1.00  0.00     2.732 A  
HETATM    6  C   UNL     1      -9.223  14.989  69.422  1.00  0.00    -0.111 A  
HETATM    7  C   UNL     1      -7.979  15.540  69.701  1.00  0.00    -0.123 A  
HETATM    8  C   UNL     1     -10.362  15.696  69.790  1.00  0.00    -0.309 A  
HETATM    9  C   UNL     1      -6.898  14.748  69.313  1.00  0.00    -0.144 A  
HETATM   10  N   UNL     1      -5.578  15.168  69.512  1.00  0.00    -0.094 NA 
HETATM   11  N   UNL     1      -7.039  13.555  68.719  1.00  0.00    -0.102 NA 
HETATM   12  H1  UNL     1      -4.788  14.589  69.228  1.00  0.00     0.000 HD 
HETATM   13  C   UNL     1      -8.281  13.103  68.496  1.00  0.00    -0.076 A  
HETATM   14  H2  UNL     1      -5.464  15.391  70.501  1.00  0.00     0.000 HD 
HETATM   15  N   UNL     1      -9.373  13.804  68.826  1.00  0.00    -0.071 NA 
BRANCH   4  16
HETATM   16  O   UNL     1      -8.788  18.686  71.340  1.00  0.00     6.179 OA 
HETATM   17  C   UNL     1      -9.913  19.468  71.723  1.00  0.00     3.255 C  
ENDBRANCH   4  16
BRANCH  13  18
HETATM   18  N   UNL     1      -8.460  11.823  68.005  1.00  0.00    -0.149 NA 
HETATM   19  C   UNL     1      -9.924  10.165  66.972  1.00  0.00    -0.199 C  
HETATM   20  C   UNL     1      -9.802  11.241  68.065  1.00  0.00    -0.178 C  
HETATM   21  N   UNL     1      -8.849   9.165  67.053  1.00  0.00    -0.122 N  
HETATM   22  C   UNL     1      -7.492   9.736  67.107  1.00  0.00    -0.088 C  
HETATM   23  C   UNL     1      -9.151   7.850  66.734  1.00  0.00    -0.156 C  
HETATM   24  O   UNL     1     -10.312   7.507  66.489  1.00  0.00    -0.204 OA 
HETATM   25  C   UNL     1      -7.363  10.861  68.160  1.00  0.00    -0.089 C  
BRANCH  23  26
HETATM   26  C   UNL     1      -8.023   6.793  66.808  1.00  0.00    -0.108 C  
HETATM   27  C   UNL     1      -6.672   7.439  67.094  1.00  0.00    -0.069 C  
HETATM   28  C   UNL     1      -5.866   6.283  67.617  1.00  0.00    -0.016 C  
HETATM   29  C   UNL     1      -6.902   5.508  68.401  1.00  0.00    -0.059 C  
HETATM   30  O   UNL     1      -8.181   5.776  67.806  1.00  0.00    -0.102 OA 
ENDBRANCH  23  26
ENDBRANCH  13  18
ENDBRANCH   2   3
TORSDOF 4
ENDMDL
MODEL      146
REMARK 921   NORMALIZED FREE ENERGY PREDICTED BY IDOCK:   30.48 KCAL/MOL
REMARK 922        TOTAL FREE ENERGY PREDICTED BY IDOCK:   37.09 KCAL/MOL
REMARK 923 INTER-LIGAND FREE ENERGY PREDICTED BY IDOCK:   35.99 KCAL/MOL
REMARK 924 INTRA-LIGAND FREE ENERGY PREDICTED BY IDOCK:    1.10 KCAL/MOL
REMARK 927      BINDING AFFINITY PREDICTED BY RF-SCORE:    0.00 PKD
ROOT
HETATM    1  C   UNL     1     -12.819  20.902  64.496  1.00  0.00     9.441 C  
HETATM    2  O   UNL     1     -13.026  19.521  64.780  1.00  0.00    10.536 OA 
ENDROOT
BRANCH   2   3
HETATM    3  C   UNL     1     -11.916  18.817  65.169  1.00  0.00     5.092 A  
HETATM    4  C   UNL     1     -10.650  19.372  64.945  1.00  0.00     1.590 A  
HETATM    5  C   UNL     1      -9.515  18.634  65.295  1.00  0.00     1.716 A  
HETATM    6  C   UNL     1     -10.884  16.838  66.176  1.00  0.00    -0.006 A  
HETATM    7  C   UNL     1      -9.627  17.374  65.927  1.00  0.00    -0.052 A  
HETATM    8  C   UNL     1     -12.005  17.567  65.798  1.00  0.00     3.673 A  
HETATM    9  C   UNL     1      -8.566  16.578  66.360  1.00  0.00    -0.312 A  
HETATM   10  N   UNL     1      -7.236  16.971  66.171  1.00  0.00    -0.230 NA 
HETATM   11  N   UNL     1      -8.736  15.395  66.965  1.00  0.00    -0.211 NA 
HETATM   12  H1  UNL     1      -6.460  16.389  66.488  1.00  0.00     0.000 HD 
HETATM   13  C   UNL     1      -9.988  14.962  67.167  1.00  0.00    -0.231 A  
HETATM   14  H2  UNL     1      -7.120  17.898  66.581  1.00  0.00     0.000 HD 
HETATM   15  N   UNL     1     -11.063  15.657  66.773  1.00  0.00    -0.235 NA 
BRANCH   4  16
HETATM   16  O   UNL     1     -10.358  20.568  64.347  1.00  0.00     1.347 OA 
HETATM   17  C   UNL     1      -9.030  21.053  64.501  1.00  0.00     2.718 C  
ENDBRANCH   4  16
BRANCH  13  18
HETATM   18  N   UNL     1     -10.200  13.811  67.902  1.00  0.00    -0.240 NA 
HETATM   19  C   UNL     1     -11.761  12.273  68.978  1.00  0.00    -0.324 C  
HETATM   20  C   UNL     1     -11.380  13.748  68.765  1.00  0.00    -0.283 C  
HETATM   21  N   UNL     1     -10.631  11.472  69.473  1.00  0.00    -0.020 N  
HETATM   22  C   UNL     1      -9.397  11.608  68.681  1.00  0.00    -0.114 C  
HETATM   23  C   UNL     1     -10.897  10.449  70.370  1.00  0.00    -0.189 C  
HETATM   24  O   UNL     1     -12.034  10.279  70.822  1.00  0.00    -0.303 OA 
HETATM   25  C   UNL     1      -9.029  13.084  68.406  1.00  0.00    -0.126 C  
BRANCH  23  26
HETATM   26  C   UNL     1      -9.714   9.596  70.889  1.00  0.00    -0.055 C  
HETATM   27  C   UNL     1      -8.943   8.954  69.742  1.00  0.00    -0.149 C  
HETATM   28  C   UNL     1      -7.621   8.633  70.382  1.00  0.00    -0.075 C  
HETATM   29  C   UNL     1      -7.429   9.808  71.314  1.00  0.00     0.663 C  
HETATM   30  O   UNL     1      -8.734  10.293  71.669  1.00  0.00     2.372 OA 
ENDBRANCH  23  26
ENDBRANCH  13  18
ENDBRANCH   2   3
TORSDOF 4
ENDMDL
MODEL      147
REMARK 921   NORMALIZED FREE ENERGY PREDICTED BY IDOCK:   40.30 KCAL/MOL
REMARK 922        TOTAL FREE ENERGY PREDICTED BY IDOCK:   49.20 KCAL/MOL
REMARK 923 INTER-LIGAND FREE ENERGY PREDICTED BY IDOCK:   47.73 KCAL/MOL
REMARK 924 INTRA-LIGAND FREE ENERGY PREDICTED BY IDOCK:    1.47 KCAL/MOL
REMARK 927      BINDING AFFINITY PREDICTED BY RF-SCORE:    0.00 PKD
ROOT
HETATM    1  C   UNL     1     -12.851  20.896  64.467  1.00  0.00     9.441 C  
HETATM    2  O   UNL     1     -13.195  19.524  64.641  1.00  0.00    13.215 OA 
ENDROOT
BRANCH   2   3
HETATM    3  C   UNL     1     -12.156  18.679  64.933  1.00  0.00     6.481 A  
HETATM    4  C   UNL     1     -10.844  19.116  64.711  1.00  0.00     2.227 A  
HETATM    5  C   UNL     1      -9.786  18.238  64.960  1.00  0.00     2.533 A  
HETATM    6  C   UNL     1     -11.314  16.526  65.740  1.00  0.00     0.493 A  
HETATM    7  C   UNL     1     -10.014  16.948  65.492  1.00  0.00    -0.011 A  
HETATM    8  C   UNL     1     -12.361  17.397  65.462  1.00  0.00     5.576 A  
HETATM    9  C   UNL     1      -9.033  16.013  65.822  1.00  0.00    -0.062 A  
HETATM   10  N   UNL     1      -7.674  16.280  65.619  1.00  0.00     0.729 NA 
HETATM   11  N   UNL     1      -9.312  14.807  66.335  1.00  0.00    -0.289 NA 
HETATM   12  H1  UNL     1      -6.956  15.597  65.860  1.00  0.00     0.000 HD 
HETATM   13  C   UNL     1     -10.597  14.491  66.545  1.00  0.00    -0.297 A  
HETATM   14  H2  UNL     1      -7.450  17.153  66.098  1.00  0.00     0.000 HD 
HETATM   15  N   UNL     1     -11.602  15.324  66.246  1.00  0.00    -0.089 NA 
BRANCH   4  16
HETATM   16  O   UNL     1     -10.444  20.322  64.201  1.00  0.00     2.186 OA 
HETATM   17  C   UNL     1     -10.234  21.373  65.137  1.00  0.00     4.094 C  
ENDBRANCH   4  16
BRANCH  13  18
HETATM   18  N   UNL     1     -10.910  13.310  67.192  1.00  0.00    -0.256 NA 
HETATM   19  C   UNL     1     -10.807  10.872  67.261  1.00  0.00    -0.287 C  
HETATM   20  C   UNL     1     -11.087  12.104  66.383  1.00  0.00    -0.314 C  
HETATM   21  N   UNL     1     -11.611  10.873  68.494  1.00  0.00    -0.306 N  
HETATM   22  C   UNL     1     -11.534  12.124  69.267  1.00  0.00    -0.302 C  
HETATM   23  C   UNL     1     -12.063   9.657  68.982  1.00  0.00     1.179 C  
HETATM   24  O   UNL     1     -11.886   8.613  68.348  1.00  0.00     1.578 OA 
HETATM   25  C   UNL     1     -11.754  13.378  68.390  1.00  0.00    -0.355 C  
BRANCH  23  26
HETATM   26  C   UNL     1     -12.902   9.650  70.283  1.00  0.00     0.383 C  
HETATM   27  C   UNL     1     -13.839   8.449  70.335  1.00  0.00     1.412 C  
HETATM   28  C   UNL     1     -14.150   8.346  71.802  1.00  0.00    -0.509 C  
HETATM   29  C   UNL     1     -12.832   8.738  72.430  1.00  0.00    -0.371 C  
HETATM   30  O   UNL     1     -12.158   9.610  71.508  1.00  0.00    -0.351 OA 
ENDBRANCH  23  26
ENDBRANCH  13  18
ENDBRANCH   2   3
TORSDOF 4
ENDMDL
MODEL      148
REMARK 921   NORMALIZED FREE ENERGY PREDICTED BY IDOCK:   45.56 KCAL/MOL
REMARK 922        TOTAL FREE ENERGY PREDICTED BY IDOCK:   55.69 KCAL/MOL
REMARK 923 INTER-LIGAND FREE ENERGY PREDICTED BY IDOCK:   54.84 KCAL/MOL
REMARK 924 INTRA-LIGAND FREE ENERGY PREDICTED BY IDOCK:    0.85 KCAL/MOL
REMARK 927      BINDING AFFINITY PREDICTED BY RF-SCORE:    0.00 PKD
ROOT
HETATM    1  C   UNL     1      -7.539  11.781  71.855  1.00  0.00    10.659 C  
HETATM    2  O   UNL     1      -8.887  12.241  71.913  1.00  0.00    15.824 OA 
ENDROOT
BRANCH   2   3
HETATM    3  C   UNL     1      -9.725  11.761  70.942  1.00  0.00     6.989 A  
HETATM    4  C   UNL     1     -10.756  12.583  70.470  1.00  0.00     2.641 A  
HETATM    5  C   UNL     1     -11.644  12.077  69.516  1.00  0.00    -0.389 A  
HETATM    6  C   UNL     1     -10.437   9.977  69.423  1.00  0.00    -0.232 A  
HETATM    7  C   UNL     1     -11.478  10.780  68.976  1.00  0.00    -0.368 A  
HETATM    8  C   UNL     1      -9.578  10.479  70.392  1.00  0.00     0.857 A  
HETATM    9  C   UNL     1     -12.273  10.197  67.989  1.00  0.00     2.455 A  
HETATM   10  N   UNL     1     -13.371  10.872  67.443  1.00  0.00     7.618 NA 
HETATM   11  N   UNL     1     -12.058   8.965  67.508  1.00  0.00     3.895 NA 
HETATM   12  H1  UNL     1     -13.952  10.445  66.722  1.00  0.00     0.000 HD 
HETATM   13  C   UNL     1     -11.025   8.266  67.997  1.00  0.00     0.196 A  
HETATM   14  H2  UNL     1     -13.044  11.772  67.091  1.00  0.00     0.000 HD 
HETATM   15  N   UNL     1     -10.219   8.746  68.954  1.00  0.00    -0.203 NA 
BRANCH   4  16
HETATM   16  O   UNL     1     -11.063  13.852  70.880  1.00  0.00     0.542 OA 
HETATM   17  C   UNL     1     -10.577  14.246  72.158  1.00  0.00     3.735 C  
ENDBRANCH   4  16
BRANCH  13  18
HETATM   18  N   UNL     1     -10.699   7.048  67.432  1.00  0.00    -0.294 NA 
HETATM   19  C   UNL     1     -10.888   4.614  67.454  1.00  0.00     0.942 C  
HETATM   20  C   UNL     1     -10.643   5.873  68.303  1.00  0.00    -0.244 C  
HETATM   21  N   UNL     1      -9.974   4.532  66.304  1.00  0.00    -0.228 N  
HETATM   22  C   UNL     1      -9.932   5.750  65.475  1.00  0.00     0.505 C  
HETATM   23  C   UNL     1      -9.526   3.281  65.910  1.00  0.00    -0.081 C  
HETATM   24  O   UNL     1      -9.801   2.272  66.568  1.00  0.00     0.418 OA 
HETATM   25  C   UNL     1      -9.746   7.033  66.317  1.00  0.00     0.013 C  
BRANCH  23  26
HETATM   26  C   UNL     1      -8.572   3.186  64.695  1.00  0.00    -0.099 C  
HETATM   27  C   UNL     1      -9.329   2.848  63.416  1.00  0.00    -0.095 C  
HETATM   28  C   UNL     1      -8.372   3.296  62.347  1.00  0.00    -0.073 C  
HETATM   29  C   UNL     1      -7.763   4.533  62.969  1.00  0.00    -0.066 C  
HETATM   30  O   UNL     1      -7.820   4.369  64.395  1.00  0.00    -0.082 OA 
ENDBRANCH  23  26
ENDBRANCH  13  18
ENDBRANCH   2   3
TORSDOF 4
ENDMDL
