MODEL        1
REMARK 921   NORMALIZED FREE ENERGY PREDICTED BY IDOCK:   -6.52 KCAL/MOL
REMARK 922        TOTAL FREE ENERGY PREDICTED BY IDOCK:   -7.96 KCAL/MOL
REMARK 923 INTER-LIGAND FREE ENERGY PREDICTED BY IDOCK:   -7.67 KCAL/MOL
REMARK 924 INTRA-LIGAND FREE ENERGY PREDICTED BY IDOCK:   -0.29 KCAL/MOL
REMARK 927      BINDING AFFINITY PREDICTED BY RF-SCORE:    0.00 PKD
ROOT
HETATM    1  C   UNL     1     -11.861  15.093  71.990  1.00  0.00    -0.495 C  
HETATM    2  C   UNL     1     -13.057  14.485  71.239  1.00  0.00    -0.350 C  
HETATM    3  N   UNL     1     -12.876  14.504  69.773  1.00  0.00    -0.513 NA 
HETATM    4  C   UNL     1     -13.321  13.055  71.741  1.00  0.00    -0.468 C  
HETATM    5  C   UNL     1     -14.301  15.339  71.554  1.00  0.00    -0.633 C  
HETATM    6  H   UNL     1     -12.862  15.465  69.431  1.00  0.00     0.000 HD 
ENDROOT
BRANCH   3   7
HETATM    7  C   UNL     1     -11.693  13.774  69.286  1.00  0.00    -0.327 C  
BRANCH   7   8
HETATM    8  C   UNL     1     -10.799  14.624  68.344  1.00  0.00    -0.245 C  
HETATM    9  H   UNL     1      -8.889  14.721  67.894  1.00  0.00     0.000 HD 
HETATM   10  O   UNL     1      -9.436  14.201  68.471  1.00  0.00    -0.210 OA 
BRANCH   8  11
HETATM   11  C   UNL     1     -11.274  14.492  66.906  1.00  0.00    -0.340 A  
HETATM   12  C   UNL     1     -11.080  15.550  66.000  1.00  0.00    -0.185 A  
HETATM   13  C   UNL     1     -11.583  15.459  64.700  1.00  0.00    -0.311 A  
HETATM   14  C   UNL     1     -12.279  14.334  64.273  1.00  0.00    -0.451 A  
HETATM   15  O   UNL     1     -11.425  16.476  63.805  1.00  0.00    -1.615 OA 
HETATM   16  H   UNL     1     -11.767  16.414  62.921  1.00  0.00     0.000 HD 
HETATM   17  C   UNL     1     -12.460  13.284  65.164  1.00  0.00    -0.470 A  
HETATM   18  O   UNL     1     -13.136  12.156  64.804  1.00  0.00    -0.602 OA 
HETATM   19  C   UNL     1     -11.964  13.349  66.463  1.00  0.00    -0.452 A  
HETATM   20  H   UNL     1     -13.261  11.438  65.413  1.00  0.00     0.000 HD 
ENDBRANCH   8  11
ENDBRANCH   7   8
ENDBRANCH   3   7
TORSDOF 3
ENDMDL
MODEL        2
REMARK 921   NORMALIZED FREE ENERGY PREDICTED BY IDOCK:   -6.51 KCAL/MOL
REMARK 922        TOTAL FREE ENERGY PREDICTED BY IDOCK:   -7.94 KCAL/MOL
REMARK 923 INTER-LIGAND FREE ENERGY PREDICTED BY IDOCK:   -7.68 KCAL/MOL
REMARK 924 INTRA-LIGAND FREE ENERGY PREDICTED BY IDOCK:   -0.26 KCAL/MOL
REMARK 927      BINDING AFFINITY PREDICTED BY RF-SCORE:    0.00 PKD
ROOT
HETATM    1  C   UNL     1     -11.747  15.080  71.960  1.00  0.00    -0.447 C  
HETATM    2  C   UNL     1     -12.929  14.449  71.205  1.00  0.00    -0.344 C  
HETATM    3  N   UNL     1     -12.716  14.416  69.744  1.00  0.00    -0.510 NA 
HETATM    4  C   UNL     1     -13.207  13.038  71.751  1.00  0.00    -0.486 C  
HETATM    5  C   UNL     1     -14.177  15.316  71.464  1.00  0.00    -0.629 C  
HETATM    6  H   UNL     1     -12.693  15.364  69.369  1.00  0.00     0.000 HD 
ENDROOT
BRANCH   3   7
HETATM    7  C   UNL     1     -11.525  13.666  69.308  1.00  0.00    -0.291 C  
BRANCH   7   8
HETATM    8  C   UNL     1     -10.617  14.475  68.345  1.00  0.00    -0.244 C  
HETATM    9  H   UNL     1      -8.753  14.385  67.728  1.00  0.00     0.000 HD 
HETATM   10  O   UNL     1      -9.310  13.890  68.318  1.00  0.00    -0.201 OA 
BRANCH   8  11
HETATM   11  C   UNL     1     -11.223  14.507  66.951  1.00  0.00    -0.340 A  
HETATM   12  C   UNL     1     -11.977  13.414  66.485  1.00  0.00    -0.452 A  
HETATM   13  C   UNL     1     -12.471  13.411  65.179  1.00  0.00    -0.459 A  
HETATM   14  C   UNL     1     -12.235  14.476  64.316  1.00  0.00    -0.441 A  
HETATM   15  O   UNL     1     -13.190  12.359  64.694  1.00  0.00    -0.822 OA 
HETATM   16  H   UNL     1     -13.526  12.357  63.806  1.00  0.00     0.000 HD 
HETATM   17  C   UNL     1     -11.501  15.561  64.780  1.00  0.00    -0.313 A  
HETATM   18  O   UNL     1     -11.235  16.632  63.979  1.00  0.00    -1.449 OA 
HETATM   19  C   UNL     1     -11.003  15.589  66.079  1.00  0.00    -0.251 A  
HETATM   20  H   UNL     1     -10.733  17.374  64.296  1.00  0.00     0.000 HD 
ENDBRANCH   8  11
ENDBRANCH   7   8
ENDBRANCH   3   7
TORSDOF 3
ENDMDL
MODEL        3
REMARK 921   NORMALIZED FREE ENERGY PREDICTED BY IDOCK:   -6.27 KCAL/MOL
REMARK 922        TOTAL FREE ENERGY PREDICTED BY IDOCK:   -7.67 KCAL/MOL
REMARK 923 INTER-LIGAND FREE ENERGY PREDICTED BY IDOCK:   -7.42 KCAL/MOL
REMARK 924 INTRA-LIGAND FREE ENERGY PREDICTED BY IDOCK:   -0.24 KCAL/MOL
REMARK 927      BINDING AFFINITY PREDICTED BY RF-SCORE:    0.00 PKD
ROOT
HETATM    1  C   UNL     1      -8.197  18.054  66.871  1.00  0.00    -0.259 C  
HETATM    2  C   UNL     1      -9.668  18.483  66.740  1.00  0.00    -0.333 C  
HETATM    3  N   UNL     1     -10.360  17.802  65.627  1.00  0.00    -0.635 NA 
HETATM    4  C   UNL     1     -10.404  18.245  68.070  1.00  0.00    -0.410 C  
HETATM    5  C   UNL     1      -9.699  19.994  66.440  1.00  0.00    -0.557 C  
HETATM    6  H   UNL     1      -9.962  18.094  64.734  1.00  0.00     0.000 HD 
ENDROOT
BRANCH   3   7
HETATM    7  C   UNL     1     -10.384  16.332  65.717  1.00  0.00    -0.374 C  
BRANCH   7   8
HETATM    8  C   UNL     1     -11.569  15.695  64.944  1.00  0.00    -0.156 C  
HETATM    9  H   UNL     1     -12.510  16.024  63.251  1.00  0.00     0.000 HD 
HETATM   10  O   UNL     1     -11.785  16.414  63.725  1.00  0.00    -1.049 OA 
BRANCH   8  11
HETATM   11  C   UNL     1     -11.287  14.228  64.664  1.00  0.00    -0.375 A  
HETATM   12  C   UNL     1     -12.142  13.493  63.822  1.00  0.00    -0.482 A  
HETATM   13  C   UNL     1     -11.925  12.128  63.624  1.00  0.00    -0.534 A  
HETATM   14  C   UNL     1     -10.870  11.467  64.244  1.00  0.00    -0.421 A  
HETATM   15  O   UNL     1     -12.747  11.386  62.828  1.00  0.00    -0.927 OA 
HETATM   16  H   UNL     1     -12.600  10.458  62.694  1.00  0.00     0.000 HD 
HETATM   17  C   UNL     1     -10.018  12.195  65.066  1.00  0.00    -0.220 A  
HETATM   18  O   UNL     1      -8.969  11.602  65.703  1.00  0.00    -0.367 OA 
HETATM   19  C   UNL     1     -10.211  13.557  65.275  1.00  0.00    -0.323 A  
HETATM   20  H   UNL     1      -8.386  12.099  66.265  1.00  0.00     0.000 HD 
ENDBRANCH   8  11
ENDBRANCH   7   8
ENDBRANCH   3   7
TORSDOF 3
ENDMDL
MODEL        4
REMARK 921   NORMALIZED FREE ENERGY PREDICTED BY IDOCK:   -6.14 KCAL/MOL
REMARK 922        TOTAL FREE ENERGY PREDICTED BY IDOCK:   -7.51 KCAL/MOL
REMARK 923 INTER-LIGAND FREE ENERGY PREDICTED BY IDOCK:   -7.14 KCAL/MOL
REMARK 924 INTRA-LIGAND FREE ENERGY PREDICTED BY IDOCK:   -0.38 KCAL/MOL
REMARK 927      BINDING AFFINITY PREDICTED BY RF-SCORE:    0.00 PKD
ROOT
HETATM    1  C   UNL     1     -12.290  12.025  63.568  1.00  0.00    -0.661 C  
HETATM    2  C   UNL     1     -10.905  12.230  64.205  1.00  0.00    -0.365 C  
HETATM    3  N   UNL     1     -10.433  13.625  64.100  1.00  0.00    -0.619 NA 
HETATM    4  C   UNL     1     -10.928  11.767  65.672  1.00  0.00    -0.348 C  
HETATM    5  C   UNL     1      -9.895  11.350  63.443  1.00  0.00    -0.422 C  
HETATM    6  H   UNL     1     -10.268  13.870  63.124  1.00  0.00     0.000 HD 
ENDROOT
BRANCH   3   7
HETATM    7  C   UNL     1     -11.310  14.625  64.734  1.00  0.00    -0.396 C  
BRANCH   7   8
HETATM    8  C   UNL     1     -10.573  15.944  65.086  1.00  0.00    -0.397 C  
HETATM    9  H   UNL     1     -10.784  17.852  64.669  1.00  0.00     0.000 HD 
HETATM   10  O   UNL     1     -11.236  17.045  64.453  1.00  0.00    -1.167 OA 
BRANCH   8  11
HETATM   11  C   UNL     1     -10.527  16.136  66.593  1.00  0.00    -0.300 A  
HETATM   12  C   UNL     1     -10.668  15.028  67.449  1.00  0.00    -0.289 A  
HETATM   13  C   UNL     1     -10.701  15.213  68.833  1.00  0.00    -0.240 A  
HETATM   14  C   UNL     1     -10.595  16.481  69.395  1.00  0.00    -0.329 A  
HETATM   15  O   UNL     1     -10.854  14.160  69.687  1.00  0.00    -0.427 OA 
HETATM   16  H   UNL     1     -10.877  14.286  70.628  1.00  0.00     0.000 HD 
HETATM   17  C   UNL     1     -10.444  17.573  68.550  1.00  0.00    -0.361 A  
HETATM   18  O   UNL     1     -10.337  18.841  69.042  1.00  0.00    -0.489 OA 
HETATM   19  C   UNL     1     -10.403  17.414  67.168  1.00  0.00    -0.325 A  
HETATM   20  H   UNL     1     -10.234  19.588  68.464  1.00  0.00     0.000 HD 
ENDBRANCH   8  11
ENDBRANCH   7   8
ENDBRANCH   3   7
TORSDOF 3
ENDMDL
MODEL        5
REMARK 921   NORMALIZED FREE ENERGY PREDICTED BY IDOCK:   -6.12 KCAL/MOL
REMARK 922        TOTAL FREE ENERGY PREDICTED BY IDOCK:   -7.49 KCAL/MOL
REMARK 923 INTER-LIGAND FREE ENERGY PREDICTED BY IDOCK:   -7.23 KCAL/MOL
REMARK 924 INTRA-LIGAND FREE ENERGY PREDICTED BY IDOCK:   -0.26 KCAL/MOL
REMARK 927      BINDING AFFINITY PREDICTED BY RF-SCORE:    0.00 PKD
ROOT
HETATM    1  C   UNL     1      -8.274  18.065  66.646  1.00  0.00    -0.285 C  
HETATM    2  C   UNL     1      -9.778  18.373  66.555  1.00  0.00    -0.348 C  
HETATM    3  N   UNL     1     -10.431  17.680  65.426  1.00  0.00    -0.621 NA 
HETATM    4  C   UNL     1     -10.467  18.023  67.885  1.00  0.00    -0.408 C  
HETATM    5  C   UNL     1      -9.941  19.886  66.316  1.00  0.00    -0.596 C  
HETATM    6  H   UNL     1     -10.076  18.038  64.539  1.00  0.00     0.000 HD 
ENDROOT
BRANCH   3   7
HETATM    7  C   UNL     1     -10.331  16.211  65.458  1.00  0.00    -0.367 C  
BRANCH   7   8
HETATM    8  C   UNL     1     -11.632  15.503  64.993  1.00  0.00    -0.133 C  
HETATM    9  H   UNL     1     -12.927  15.714  63.532  1.00  0.00     0.000 HD 
HETATM   10  O   UNL     1     -12.131  16.148  63.816  1.00  0.00    -0.946 OA 
BRANCH   8  11
HETATM   11  C   UNL     1     -11.364  14.030  64.730  1.00  0.00    -0.366 A  
HETATM   12  C   UNL     1     -10.249  13.400  65.314  1.00  0.00    -0.312 A  
HETATM   13  C   UNL     1      -9.961  12.067  65.012  1.00  0.00    -0.233 A  
HETATM   14  C   UNL     1     -10.758  11.336  64.139  1.00  0.00    -0.436 A  
HETATM   15  O   UNL     1      -8.878  11.436  65.550  1.00  0.00    -0.349 OA 
HETATM   16  H   UNL     1      -8.681  10.530  65.345  1.00  0.00     0.000 HD 
HETATM   17  C   UNL     1     -11.865  11.954  63.571  1.00  0.00    -0.460 A  
HETATM   18  O   UNL     1     -12.683  11.289  62.706  1.00  0.00    -0.876 OA 
HETATM   19  C   UNL     1     -12.176  13.279  63.860  1.00  0.00    -0.491 A  
HETATM   20  H   UNL     1     -13.440  11.711  62.317  1.00  0.00     0.000 HD 
ENDBRANCH   8  11
ENDBRANCH   7   8
ENDBRANCH   3   7
TORSDOF 3
ENDMDL
MODEL        6
REMARK 921   NORMALIZED FREE ENERGY PREDICTED BY IDOCK:   -6.10 KCAL/MOL
REMARK 922        TOTAL FREE ENERGY PREDICTED BY IDOCK:   -7.46 KCAL/MOL
REMARK 923 INTER-LIGAND FREE ENERGY PREDICTED BY IDOCK:   -7.10 KCAL/MOL
REMARK 924 INTRA-LIGAND FREE ENERGY PREDICTED BY IDOCK:   -0.37 KCAL/MOL
REMARK 927      BINDING AFFINITY PREDICTED BY RF-SCORE:    0.00 PKD
ROOT
HETATM    1  C   UNL     1     -12.261  11.988  63.414  1.00  0.00    -0.627 C  
HETATM    2  C   UNL     1     -10.891  12.145  64.097  1.00  0.00    -0.360 C  
HETATM    3  N   UNL     1     -10.399  13.537  64.067  1.00  0.00    -0.691 NA 
HETATM    4  C   UNL     1     -10.962  11.619  65.541  1.00  0.00    -0.327 C  
HETATM    5  C   UNL     1      -9.873  11.284  63.324  1.00  0.00    -0.418 C  
HETATM    6  H   UNL     1     -10.203  13.821  63.107  1.00  0.00     0.000 HD 
ENDROOT
BRANCH   3   7
HETATM    7  C   UNL     1     -11.279  14.521  64.720  1.00  0.00    -0.390 C  
BRANCH   7   8
HETATM    8  C   UNL     1     -10.548  15.837  65.095  1.00  0.00    -0.411 C  
HETATM    9  H   UNL     1     -10.720  17.742  64.648  1.00  0.00     0.000 HD 
HETATM   10  O   UNL     1     -11.168  16.936  64.418  1.00  0.00    -1.159 OA 
BRANCH   8  11
HETATM   11  C   UNL     1     -10.576  16.044  66.601  1.00  0.00    -0.297 A  
HETATM   12  C   UNL     1     -10.373  17.327  67.140  1.00  0.00    -0.321 A  
HETATM   13  C   UNL     1     -10.323  17.505  68.525  1.00  0.00    -0.380 A  
HETATM   14  C   UNL     1     -10.474  16.431  69.395  1.00  0.00    -0.309 A  
HETATM   15  O   UNL     1     -10.111  18.734  69.076  1.00  0.00    -0.451 OA 
HETATM   16  H   UNL     1     -10.078  18.855  70.017  1.00  0.00     0.000 HD 
HETATM   17  C   UNL     1     -10.686  15.166  68.863  1.00  0.00    -0.240 A  
HETATM   18  O   UNL     1     -10.838  14.074  69.667  1.00  0.00    -0.439 OA 
HETATM   19  C   UNL     1     -10.744  14.965  67.487  1.00  0.00    -0.276 A  
HETATM   20  H   UNL     1     -10.983  13.209  69.303  1.00  0.00     0.000 HD 
ENDBRANCH   8  11
ENDBRANCH   7   8
ENDBRANCH   3   7
TORSDOF 3
ENDMDL
MODEL        7
REMARK 921   NORMALIZED FREE ENERGY PREDICTED BY IDOCK:   -6.08 KCAL/MOL
REMARK 922        TOTAL FREE ENERGY PREDICTED BY IDOCK:   -7.43 KCAL/MOL
REMARK 923 INTER-LIGAND FREE ENERGY PREDICTED BY IDOCK:   -7.13 KCAL/MOL
REMARK 924 INTRA-LIGAND FREE ENERGY PREDICTED BY IDOCK:   -0.31 KCAL/MOL
REMARK 927      BINDING AFFINITY PREDICTED BY RF-SCORE:    0.00 PKD
ROOT
HETATM    1  C   UNL     1     -11.644  12.205  65.834  1.00  0.00    -0.425 C  
HETATM    2  C   UNL     1     -11.551  13.739  65.895  1.00  0.00    -0.333 C  
HETATM    3  N   UNL     1     -12.296  14.308  67.037  1.00  0.00    -0.580 NA 
HETATM    4  C   UNL     1     -10.076  14.174  65.931  1.00  0.00    -0.337 C  
HETATM    5  C   UNL     1     -12.185  14.306  64.610  1.00  0.00    -0.470 C  
HETATM    6  H   UNL     1     -13.296  14.150  66.919  1.00  0.00     0.000 HD 
ENDROOT
BRANCH   3   7
HETATM    7  C   UNL     1     -11.858  13.834  68.361  1.00  0.00    -0.376 C  
BRANCH   7   8
HETATM    8  C   UNL     1     -11.280  14.966  69.251  1.00  0.00    -0.284 C  
HETATM    9  H   UNL     1     -11.092  16.918  69.134  1.00  0.00     0.000 HD 
HETATM   10  O   UNL     1     -11.446  16.225  68.589  1.00  0.00    -0.367 OA 
BRANCH   8  11
HETATM   11  C   UNL     1     -11.968  14.973  70.606  1.00  0.00    -0.370 A  
HETATM   12  C   UNL     1     -11.701  16.002  71.528  1.00  0.00    -0.554 A  
HETATM   13  C   UNL     1     -12.275  15.968  72.800  1.00  0.00    -0.516 A  
HETATM   14  C   UNL     1     -13.116  14.930  73.185  1.00  0.00    -0.615 A  
HETATM   15  O   UNL     1     -12.021  16.943  73.720  1.00  0.00    -0.327 OA 
HETATM   16  H   UNL     1     -12.411  16.920  74.585  1.00  0.00     0.000 HD 
HETATM   17  C   UNL     1     -13.389  13.920  72.272  1.00  0.00    -0.503 A  
HETATM   18  O   UNL     1     -14.204  12.875  72.592  1.00  0.00    -0.676 OA 
HETATM   19  C   UNL     1     -12.833  13.934  70.996  1.00  0.00    -0.394 A  
HETATM   20  H   UNL     1     -14.391  12.183  71.968  1.00  0.00     0.000 HD 
ENDBRANCH   8  11
ENDBRANCH   7   8
ENDBRANCH   3   7
TORSDOF 3
ENDMDL
MODEL        8
REMARK 921   NORMALIZED FREE ENERGY PREDICTED BY IDOCK:   -6.02 KCAL/MOL
REMARK 922        TOTAL FREE ENERGY PREDICTED BY IDOCK:   -7.37 KCAL/MOL
REMARK 923 INTER-LIGAND FREE ENERGY PREDICTED BY IDOCK:   -7.10 KCAL/MOL
REMARK 924 INTRA-LIGAND FREE ENERGY PREDICTED BY IDOCK:   -0.27 KCAL/MOL
REMARK 927      BINDING AFFINITY PREDICTED BY RF-SCORE:    0.00 PKD
ROOT
HETATM    1  C   UNL     1     -12.138  12.474  63.448  1.00  0.00    -0.621 C  
HETATM    2  C   UNL     1     -10.759  12.368  64.120  1.00  0.00    -0.379 C  
HETATM    3  N   UNL     1     -10.125  13.687  64.325  1.00  0.00    -0.763 NA 
HETATM    4  C   UNL     1     -10.881  11.606  65.451  1.00  0.00    -0.336 C  
HETATM    5  C   UNL     1      -9.836  11.559  63.189  1.00  0.00    -0.413 C  
HETATM    6  H   UNL     1      -9.903  14.115  63.427  1.00  0.00     0.000 HD 
ENDROOT
BRANCH   3   7
HETATM    7  C   UNL     1     -10.898  14.624  65.158  1.00  0.00    -0.401 C  
BRANCH   7   8
HETATM    8  C   UNL     1     -10.606  16.112  64.830  1.00  0.00    -0.176 C  
HETATM    9  H   UNL     1     -11.495  17.555  63.836  1.00  0.00     0.000 HD 
HETATM   10  O   UNL     1     -11.673  16.643  64.036  1.00  0.00    -1.143 OA 
BRANCH   8  11
HETATM   11  C   UNL     1     -10.438  16.910  66.113  1.00  0.00    -0.276 A  
HETATM   12  C   UNL     1     -10.472  16.258  67.359  1.00  0.00    -0.304 A  
HETATM   13  C   UNL     1     -10.392  17.000  68.540  1.00  0.00    -0.359 A  
HETATM   14  C   UNL     1     -10.277  18.386  68.515  1.00  0.00    -0.394 A  
HETATM   15  O   UNL     1     -10.439  16.397  69.762  1.00  0.00    -0.290 OA 
HETATM   16  H   UNL     1     -10.385  16.901  70.565  1.00  0.00     0.000 HD 
HETATM   17  C   UNL     1     -10.231  19.029  67.284  1.00  0.00    -0.399 A  
HETATM   18  O   UNL     1     -10.122  20.385  67.196  1.00  0.00    -0.432 OA 
HETATM   19  C   UNL     1     -10.304  18.311  66.094  1.00  0.00    -0.414 A  
HETATM   20  H   UNL     1     -10.091  20.825  66.355  1.00  0.00     0.000 HD 
ENDBRANCH   8  11
ENDBRANCH   7   8
ENDBRANCH   3   7
TORSDOF 3
ENDMDL
MODEL        9
REMARK 921   NORMALIZED FREE ENERGY PREDICTED BY IDOCK:   -5.93 KCAL/MOL
REMARK 922        TOTAL FREE ENERGY PREDICTED BY IDOCK:   -7.27 KCAL/MOL
REMARK 923 INTER-LIGAND FREE ENERGY PREDICTED BY IDOCK:   -6.94 KCAL/MOL
REMARK 924 INTRA-LIGAND FREE ENERGY PREDICTED BY IDOCK:   -0.32 KCAL/MOL
REMARK 927      BINDING AFFINITY PREDICTED BY RF-SCORE:    0.00 PKD
ROOT
HETATM    1  C   UNL     1     -11.325  12.506  65.264  1.00  0.00    -0.363 C  
HETATM    2  C   UNL     1     -11.440  14.009  65.566  1.00  0.00    -0.318 C  
HETATM    3  N   UNL     1     -12.199  14.284  66.802  1.00  0.00    -0.529 NA 
HETATM    4  C   UNL     1     -10.038  14.640  65.631  1.00  0.00    -0.389 C  
HETATM    5  C   UNL     1     -12.207  14.671  64.404  1.00  0.00    -0.473 C  
HETATM    6  H   UNL     1     -13.173  14.004  66.687  1.00  0.00     0.000 HD 
ENDROOT
BRANCH   3   7
HETATM    7  C   UNL     1     -11.637  13.680  68.022  1.00  0.00    -0.333 C  
BRANCH   7   8
HETATM    8  C   UNL     1     -11.363  14.717  69.144  1.00  0.00    -0.282 C  
HETATM    9  H   UNL     1     -11.552  16.660  69.368  1.00  0.00     0.000 HD 
HETATM   10  O   UNL     1     -11.720  16.025  68.681  1.00  0.00    -0.382 OA 
BRANCH   8  11
HETATM   11  C   UNL     1     -12.144  14.356  70.397  1.00  0.00    -0.399 A  
HETATM   12  C   UNL     1     -12.388  13.006  70.711  1.00  0.00    -0.394 A  
HETATM   13  C   UNL     1     -13.169  12.676  71.821  1.00  0.00    -0.359 A  
HETATM   14  C   UNL     1     -13.718  13.660  72.635  1.00  0.00    -0.551 A  
HETATM   15  O   UNL     1     -13.436  11.377  72.141  1.00  0.00    -0.548 OA 
HETATM   16  H   UNL     1     -13.967  11.153  72.895  1.00  0.00     0.000 HD 
HETATM   17  C   UNL     1     -13.468  14.993  72.332  1.00  0.00    -0.430 A  
HETATM   18  O   UNL     1     -13.982  16.002  73.091  1.00  0.00    -0.693 OA 
HETATM   19  C   UNL     1     -12.689  15.346  71.234  1.00  0.00    -0.501 A  
HETATM   20  H   UNL     1     -13.811  16.914  72.884  1.00  0.00     0.000 HD 
ENDBRANCH   8  11
ENDBRANCH   7   8
ENDBRANCH   3   7
TORSDOF 3
ENDMDL
MODEL       10
REMARK 921   NORMALIZED FREE ENERGY PREDICTED BY IDOCK:   -5.93 KCAL/MOL
REMARK 922        TOTAL FREE ENERGY PREDICTED BY IDOCK:   -7.26 KCAL/MOL
REMARK 923 INTER-LIGAND FREE ENERGY PREDICTED BY IDOCK:   -7.01 KCAL/MOL
REMARK 924 INTRA-LIGAND FREE ENERGY PREDICTED BY IDOCK:   -0.26 KCAL/MOL
REMARK 927      BINDING AFFINITY PREDICTED BY RF-SCORE:    0.00 PKD
ROOT
HETATM    1  C   UNL     1     -12.041  12.455  63.636  1.00  0.00    -0.648 C  
HETATM    2  C   UNL     1     -10.666  12.396  64.321  1.00  0.00    -0.357 C  
HETATM    3  N   UNL     1     -10.059  13.731  64.491  1.00  0.00    -0.699 NA 
HETATM    4  C   UNL     1     -10.784  11.670  65.672  1.00  0.00    -0.330 C  
HETATM    5  C   UNL     1      -9.720  11.577  63.421  1.00  0.00    -0.379 C  
HETATM    6  H   UNL     1      -9.837  14.137  63.582  1.00  0.00     0.000 HD 
ENDROOT
BRANCH   3   7
HETATM    7  C   UNL     1     -10.856  14.678  65.290  1.00  0.00    -0.377 C  
BRANCH   7   8
HETATM    8  C   UNL     1     -10.573  16.162  64.936  1.00  0.00    -0.176 C  
HETATM    9  H   UNL     1     -11.421  17.553  63.839  1.00  0.00     0.000 HD 
HETATM   10  O   UNL     1     -11.594  16.645  64.056  1.00  0.00    -1.197 OA 
BRANCH   8  11
HETATM   11  C   UNL     1     -10.508  17.002  66.201  1.00  0.00    -0.274 A  
HETATM   12  C   UNL     1     -10.210  18.374  66.122  1.00  0.00    -0.408 A  
HETATM   13  C   UNL     1     -10.077  19.130  67.289  1.00  0.00    -0.376 A  
HETATM   14  C   UNL     1     -10.236  18.553  68.544  1.00  0.00    -0.389 A  
HETATM   15  O   UNL     1      -9.772  20.459  67.243  1.00  0.00    -0.419 OA 
HETATM   16  H   UNL     1      -9.681  20.972  68.037  1.00  0.00     0.000 HD 
HETATM   17  C   UNL     1     -10.542  17.201  68.622  1.00  0.00    -0.352 A  
HETATM   18  O   UNL     1     -10.706  16.579  69.825  1.00  0.00    -0.328 OA 
HETATM   19  C   UNL     1     -10.685  16.428  67.474  1.00  0.00    -0.298 A  
HETATM   20  H   UNL     1     -10.916  15.653  69.879  1.00  0.00     0.000 HD 
ENDBRANCH   8  11
ENDBRANCH   7   8
ENDBRANCH   3   7
TORSDOF 3
ENDMDL
MODEL       11
REMARK 921   NORMALIZED FREE ENERGY PREDICTED BY IDOCK:   -5.90 KCAL/MOL
REMARK 922        TOTAL FREE ENERGY PREDICTED BY IDOCK:   -7.23 KCAL/MOL
REMARK 923 INTER-LIGAND FREE ENERGY PREDICTED BY IDOCK:   -6.93 KCAL/MOL
REMARK 924 INTRA-LIGAND FREE ENERGY PREDICTED BY IDOCK:   -0.30 KCAL/MOL
REMARK 927      BINDING AFFINITY PREDICTED BY RF-SCORE:    0.00 PKD
ROOT
HETATM    1  C   UNL     1     -12.529  11.828  71.294  1.00  0.00    -0.351 C  
HETATM    2  C   UNL     1     -12.395  10.479  70.567  1.00  0.00    -0.343 C  
HETATM    3  N   UNL     1     -12.413  10.622  69.097  1.00  0.00    -0.737 NA 
HETATM    4  C   UNL     1     -11.118   9.757  71.033  1.00  0.00    -0.431 C  
HETATM    5  C   UNL     1     -13.605   9.607  70.955  1.00  0.00    -0.161 C  
HETATM    6  H   UNL     1     -13.326  10.953  68.787  1.00  0.00     0.000 HD 
ENDROOT
BRANCH   3   7
HETATM    7  C   UNL     1     -11.347  11.475  68.544  1.00  0.00    -0.277 C  
BRANCH   7   8
HETATM    8  C   UNL     1     -11.893  12.691  67.750  1.00  0.00    -0.323 C  
HETATM    9  H   UNL     1     -11.533  14.621  67.673  1.00  0.00     0.000 HD 
HETATM   10  O   UNL     1     -11.199  13.876  68.158  1.00  0.00    -0.247 OA 
BRANCH   8  11
HETATM   11  C   UNL     1     -11.733  12.459  66.256  1.00  0.00    -0.457 A  
HETATM   12  C   UNL     1     -10.965  11.377  65.789  1.00  0.00    -0.256 A  
HETATM   13  C   UNL     1     -10.757  11.208  64.418  1.00  0.00    -0.318 A  
HETATM   14  C   UNL     1     -11.297  12.092  63.491  1.00  0.00    -0.535 A  
HETATM   15  O   UNL     1     -10.003  10.178  63.937  1.00  0.00    -0.438 OA 
HETATM   16  H   UNL     1      -9.861  10.063  63.005  1.00  0.00     0.000 HD 
HETATM   17  C   UNL     1     -12.065  13.154  63.952  1.00  0.00    -0.470 A  
HETATM   18  O   UNL     1     -12.619  14.055  63.091  1.00  0.00    -1.062 OA 
HETATM   19  C   UNL     1     -12.291  13.341  65.313  1.00  0.00    -0.525 A  
HETATM   20  H   UNL     1     -13.144  14.782  63.406  1.00  0.00     0.000 HD 
ENDBRANCH   8  11
ENDBRANCH   7   8
ENDBRANCH   3   7
TORSDOF 3
ENDMDL
MODEL       12
REMARK 921   NORMALIZED FREE ENERGY PREDICTED BY IDOCK:   -5.89 KCAL/MOL
REMARK 922        TOTAL FREE ENERGY PREDICTED BY IDOCK:   -7.22 KCAL/MOL
REMARK 923 INTER-LIGAND FREE ENERGY PREDICTED BY IDOCK:   -6.96 KCAL/MOL
REMARK 924 INTRA-LIGAND FREE ENERGY PREDICTED BY IDOCK:   -0.25 KCAL/MOL
REMARK 927      BINDING AFFINITY PREDICTED BY RF-SCORE:    0.00 PKD
ROOT
HETATM    1  C   UNL     1     -12.426  11.981  71.090  1.00  0.00    -0.353 C  
HETATM    2  C   UNL     1     -12.348  10.541  70.555  1.00  0.00    -0.343 C  
HETATM    3  N   UNL     1     -12.421  10.479  69.081  1.00  0.00    -0.712 NA 
HETATM    4  C   UNL     1     -11.069   9.859  71.070  1.00  0.00    -0.401 C  
HETATM    5  C   UNL     1     -13.559   9.763  71.105  1.00  0.00    -0.233 C  
HETATM    6  H   UNL     1     -13.339  10.787  68.760  1.00  0.00     0.000 HD 
ENDROOT
BRANCH   3   7
HETATM    7  C   UNL     1     -11.361  11.219  68.376  1.00  0.00    -0.281 C  
BRANCH   7   8
HETATM    8  C   UNL     1     -11.887  12.475  67.632  1.00  0.00    -0.317 C  
HETATM    9  H   UNL     1     -11.582  14.414  67.713  1.00  0.00     0.000 HD 
HETATM   10  O   UNL     1     -11.260  13.645  68.169  1.00  0.00    -0.252 OA 
BRANCH   8  11
HETATM   11  C   UNL     1     -11.619  12.354  66.140  1.00  0.00    -0.452 A  
HETATM   12  C   UNL     1     -12.174  13.287  65.246  1.00  0.00    -0.492 A  
HETATM   13  C   UNL     1     -11.990  13.133  63.870  1.00  0.00    -0.488 A  
HETATM   14  C   UNL     1     -11.260  12.068  63.355  1.00  0.00    -0.481 A  
HETATM   15  O   UNL     1     -12.530  14.012  62.978  1.00  0.00    -1.101 OA 
HETATM   16  H   UNL     1     -12.405  13.908  62.043  1.00  0.00     0.000 HD 
HETATM   17  C   UNL     1     -10.701  11.153  64.238  1.00  0.00    -0.333 A  
HETATM   18  O   UNL     1      -9.978  10.086  63.792  1.00  0.00    -0.482 OA 
HETATM   19  C   UNL     1     -10.867  11.288  65.613  1.00  0.00    -0.242 A  
HETATM   20  H   UNL     1      -9.596   9.460  64.396  1.00  0.00     0.000 HD 
ENDBRANCH   8  11
ENDBRANCH   7   8
ENDBRANCH   3   7
TORSDOF 3
ENDMDL
MODEL       13
REMARK 921   NORMALIZED FREE ENERGY PREDICTED BY IDOCK:   -5.88 KCAL/MOL
REMARK 922        TOTAL FREE ENERGY PREDICTED BY IDOCK:   -7.21 KCAL/MOL
REMARK 923 INTER-LIGAND FREE ENERGY PREDICTED BY IDOCK:   -6.98 KCAL/MOL
REMARK 924 INTRA-LIGAND FREE ENERGY PREDICTED BY IDOCK:   -0.22 KCAL/MOL
REMARK 927      BINDING AFFINITY PREDICTED BY RF-SCORE:    0.00 PKD
ROOT
HETATM    1  C   UNL     1      -9.420  19.427  68.137  1.00  0.00    -0.418 C  
HETATM    2  C   UNL     1      -9.056  19.400  66.643  1.00  0.00    -0.346 C  
HETATM    3  N   UNL     1      -9.086  18.037  66.076  1.00  0.00    -0.521 NA 
HETATM    4  C   UNL     1      -9.987  20.341  65.859  1.00  0.00    -0.327 C  
HETATM    5  C   UNL     1      -7.614  19.923  66.495  1.00  0.00    -0.303 C  
HETATM    6  H   UNL     1      -8.353  17.464  66.494  1.00  0.00     0.000 HD 
ENDROOT
BRANCH   3   7
HETATM    7  C   UNL     1     -10.387  17.352  66.176  1.00  0.00    -0.327 C  
BRANCH   7   8
HETATM    8  C   UNL     1     -10.366  16.148  67.155  1.00  0.00    -0.291 C  
HETATM    9  H   UNL     1     -11.054  15.758  68.953  1.00  0.00     0.000 HD 
HETATM   10  O   UNL     1     -11.067  16.496  68.354  1.00  0.00    -0.352 OA 
BRANCH   8  11
HETATM   11  C   UNL     1     -10.990  14.926  66.499  1.00  0.00    -0.327 A  
HETATM   12  C   UNL     1     -11.377  14.972  65.147  1.00  0.00    -0.372 A  
HETATM   13  C   UNL     1     -12.019  13.876  64.566  1.00  0.00    -0.437 A  
HETATM   14  C   UNL     1     -12.286  12.724  65.298  1.00  0.00    -0.546 A  
HETATM   15  O   UNL     1     -12.421  13.898  63.263  1.00  0.00    -1.113 OA 
HETATM   16  H   UNL     1     -12.857  13.153  62.868  1.00  0.00     0.000 HD 
HETATM   17  C   UNL     1     -11.893  12.675  66.630  1.00  0.00    -0.380 A  
HETATM   18  O   UNL     1     -12.131  11.574  67.399  1.00  0.00    -0.593 OA 
HETATM   19  C   UNL     1     -11.248  13.752  67.230  1.00  0.00    -0.329 A  
HETATM   20  H   UNL     1     -11.862  11.540  68.310  1.00  0.00     0.000 HD 
ENDBRANCH   8  11
ENDBRANCH   7   8
ENDBRANCH   3   7
TORSDOF 3
ENDMDL
MODEL       14
REMARK 921   NORMALIZED FREE ENERGY PREDICTED BY IDOCK:   -5.87 KCAL/MOL
REMARK 922        TOTAL FREE ENERGY PREDICTED BY IDOCK:   -7.20 KCAL/MOL
REMARK 923 INTER-LIGAND FREE ENERGY PREDICTED BY IDOCK:   -6.89 KCAL/MOL
REMARK 924 INTRA-LIGAND FREE ENERGY PREDICTED BY IDOCK:   -0.31 KCAL/MOL
REMARK 927      BINDING AFFINITY PREDICTED BY RF-SCORE:    0.00 PKD
ROOT
HETATM    1  C   UNL     1      -9.969  20.210  66.575  1.00  0.00    -0.586 C  
HETATM    2  C   UNL     1      -9.728  19.244  67.747  1.00  0.00    -0.326 C  
HETATM    3  N   UNL     1     -10.481  17.981  67.605  1.00  0.00    -0.396 NA 
HETATM    4  C   UNL     1      -8.222  18.970  67.900  1.00  0.00    -0.311 C  
HETATM    5  C   UNL     1     -10.223  19.926  69.037  1.00  0.00    -0.344 C  
HETATM    6  H   UNL     1     -11.483  18.159  67.665  1.00  0.00     0.000 HD 
ENDROOT
BRANCH   3   7
HETATM    7  C   UNL     1     -10.173  17.209  66.388  1.00  0.00    -0.328 C  
BRANCH   7   8
HETATM    8  C   UNL     1      -9.581  15.807  66.691  1.00  0.00    -0.247 C  
HETATM    9  H   UNL     1      -9.041  14.802  68.291  1.00  0.00     0.000 HD 
HETATM   10  O   UNL     1      -9.404  15.660  68.105  1.00  0.00    -0.191 OA 
BRANCH   8  11
HETATM   11  C   UNL     1     -10.493  14.721  66.145  1.00  0.00    -0.311 A  
HETATM   12  C   UNL     1     -11.034  14.839  64.851  1.00  0.00    -0.425 A  
HETATM   13  C   UNL     1     -11.931  13.878  64.378  1.00  0.00    -0.450 A  
HETATM   14  C   UNL     1     -12.307  12.794  65.162  1.00  0.00    -0.555 A  
HETATM   15  O   UNL     1     -12.483  13.975  63.135  1.00  0.00    -1.137 OA 
HETATM   16  H   UNL     1     -13.094  13.323  62.813  1.00  0.00     0.000 HD 
HETATM   17  C   UNL     1     -11.765  12.671  66.435  1.00  0.00    -0.405 A  
HETATM   18  O   UNL     1     -12.098  11.631  67.251  1.00  0.00    -0.595 OA 
HETATM   19  C   UNL     1     -10.865  13.612  66.927  1.00  0.00    -0.286 A  
HETATM   20  H   UNL     1     -11.727  11.547  68.122  1.00  0.00     0.000 HD 
ENDBRANCH   8  11
ENDBRANCH   7   8
ENDBRANCH   3   7
TORSDOF 3
ENDMDL
MODEL       15
REMARK 921   NORMALIZED FREE ENERGY PREDICTED BY IDOCK:   -5.86 KCAL/MOL
REMARK 922        TOTAL FREE ENERGY PREDICTED BY IDOCK:   -7.18 KCAL/MOL
REMARK 923 INTER-LIGAND FREE ENERGY PREDICTED BY IDOCK:   -6.93 KCAL/MOL
REMARK 924 INTRA-LIGAND FREE ENERGY PREDICTED BY IDOCK:   -0.26 KCAL/MOL
REMARK 927      BINDING AFFINITY PREDICTED BY RF-SCORE:    0.00 PKD
ROOT
HETATM    1  C   UNL     1      -8.477  18.205  67.952  1.00  0.00    -0.259 C  
HETATM    2  C   UNL     1      -9.944  18.666  67.931  1.00  0.00    -0.350 C  
HETATM    3  N   UNL     1     -10.892  17.553  68.142  1.00  0.00    -0.321 NA 
HETATM    4  C   UNL     1     -10.161  19.775  68.975  1.00  0.00    -0.427 C  
HETATM    5  C   UNL     1     -10.238  19.257  66.539  1.00  0.00    -0.522 C  
HETATM    6  H   UNL     1     -10.851  16.902  67.357  1.00  0.00     0.000 HD 
ENDROOT
BRANCH   3   7
HETATM    7  C   UNL     1     -10.725  16.829  69.413  1.00  0.00    -0.300 C  
BRANCH   7   8
HETATM    8  C   UNL     1     -11.499  15.484  69.453  1.00  0.00    -0.337 C  
HETATM    9  H   UNL     1     -11.081  13.588  69.158  1.00  0.00     0.000 HD 
HETATM   10  O   UNL     1     -10.607  14.411  69.134  1.00  0.00    -0.246 OA 
BRANCH   8  11
HETATM   11  C   UNL     1     -12.125  15.278  70.823  1.00  0.00    -0.399 A  
HETATM   12  C   UNL     1     -11.897  16.212  71.850  1.00  0.00    -0.605 A  
HETATM   13  C   UNL     1     -12.410  15.984  73.130  1.00  0.00    -0.531 A  
HETATM   14  C   UNL     1     -13.151  14.843  73.417  1.00  0.00    -0.506 A  
HETATM   15  O   UNL     1     -12.191  16.862  74.149  1.00  0.00    -0.487 OA 
HETATM   16  H   UNL     1     -12.539  16.707  75.019  1.00  0.00     0.000 HD 
HETATM   17  C   UNL     1     -13.386  13.926  72.400  1.00  0.00    -0.529 A  
HETATM   18  O   UNL     1     -14.103  12.788  72.622  1.00  0.00    -0.679 OA 
HETATM   19  C   UNL     1     -12.890  14.134  71.116  1.00  0.00    -0.431 A  
HETATM   20  H   UNL     1     -14.264  12.161  71.926  1.00  0.00     0.000 HD 
ENDBRANCH   8  11
ENDBRANCH   7   8
ENDBRANCH   3   7
TORSDOF 3
ENDMDL
MODEL       16
REMARK 921   NORMALIZED FREE ENERGY PREDICTED BY IDOCK:   -5.85 KCAL/MOL
REMARK 922        TOTAL FREE ENERGY PREDICTED BY IDOCK:   -7.17 KCAL/MOL
REMARK 923 INTER-LIGAND FREE ENERGY PREDICTED BY IDOCK:   -6.82 KCAL/MOL
REMARK 924 INTRA-LIGAND FREE ENERGY PREDICTED BY IDOCK:   -0.35 KCAL/MOL
REMARK 927      BINDING AFFINITY PREDICTED BY RF-SCORE:    0.00 PKD
ROOT
HETATM    1  C   UNL     1     -10.383  11.069  64.579  1.00  0.00    -0.420 C  
HETATM    2  C   UNL     1     -11.309  12.250  64.916  1.00  0.00    -0.325 C  
HETATM    3  N   UNL     1     -11.866  12.163  66.281  1.00  0.00    -0.594 NA 
HETATM    4  C   UNL     1     -10.559  13.578  64.714  1.00  0.00    -0.429 C  
HETATM    5  C   UNL     1     -12.497  12.219  63.936  1.00  0.00    -0.586 C  
HETATM    6  H   UNL     1     -12.492  11.361  66.356  1.00  0.00     0.000 HD 
ENDROOT
BRANCH   3   7
HETATM    7  C   UNL     1     -10.863  12.128  67.359  1.00  0.00    -0.245 C  
BRANCH   7   8
HETATM    8  C   UNL     1     -11.131  13.175  68.473  1.00  0.00    -0.266 C  
HETATM    9  H   UNL     1     -12.119  14.865  68.635  1.00  0.00     0.000 HD 
HETATM   10  O   UNL     1     -11.955  14.225  67.953  1.00  0.00    -0.356 OA 
BRANCH   8  11
HETATM   11  C   UNL     1     -11.793  12.511  69.670  1.00  0.00    -0.382 A  
HETATM   12  C   UNL     1     -11.860  11.108  69.751  1.00  0.00    -0.422 A  
HETATM   13  C   UNL     1     -12.534  10.500  70.813  1.00  0.00    -0.378 A  
HETATM   14  C   UNL     1     -13.147  11.255  71.806  1.00  0.00    -0.527 A  
HETATM   15  O   UNL     1     -12.629   9.143  70.909  1.00  0.00    -0.480 OA 
HETATM   16  H   UNL     1     -13.088   8.729  71.630  1.00  0.00     0.000 HD 
HETATM   17  C   UNL     1     -13.072  12.641  71.732  1.00  0.00    -0.360 A  
HETATM   18  O   UNL     1     -13.656  13.434  72.674  1.00  0.00    -0.635 OA 
HETATM   19  C   UNL     1     -12.402  13.270  70.687  1.00  0.00    -0.416 A  
HETATM   20  H   UNL     1     -13.604  14.382  72.624  1.00  0.00     0.000 HD 
ENDBRANCH   8  11
ENDBRANCH   7   8
ENDBRANCH   3   7
TORSDOF 3
ENDMDL
MODEL       17
REMARK 921   NORMALIZED FREE ENERGY PREDICTED BY IDOCK:   -5.85 KCAL/MOL
REMARK 922        TOTAL FREE ENERGY PREDICTED BY IDOCK:   -7.17 KCAL/MOL
REMARK 923 INTER-LIGAND FREE ENERGY PREDICTED BY IDOCK:   -6.86 KCAL/MOL
REMARK 924 INTRA-LIGAND FREE ENERGY PREDICTED BY IDOCK:   -0.30 KCAL/MOL
REMARK 927      BINDING AFFINITY PREDICTED BY RF-SCORE:    0.00 PKD
ROOT
HETATM    1  C   UNL     1      -9.622  19.093  68.337  1.00  0.00    -0.437 C  
HETATM    2  C   UNL     1      -9.184  19.310  66.878  1.00  0.00    -0.311 C  
HETATM    3  N   UNL     1      -8.846  18.046  66.194  1.00  0.00    -0.493 NA 
HETATM    4  C   UNL     1     -10.277  20.074  66.111  1.00  0.00    -0.589 C  
HETATM    5  C   UNL     1      -7.911  20.178  66.887  1.00  0.00    -0.356 C  
HETATM    6  H   UNL     1      -8.017  17.627  66.616  1.00  0.00     0.000 HD 
ENDROOT
BRANCH   3   7
HETATM    7  C   UNL     1      -9.939  17.061  66.134  1.00  0.00    -0.298 C  
BRANCH   7   8
HETATM    8  C   UNL     1      -9.485  15.625  66.509  1.00  0.00    -0.274 C  
HETATM    9  H   UNL     1      -8.984  14.671  68.152  1.00  0.00     0.000 HD 
HETATM   10  O   UNL     1      -9.262  15.550  67.922  1.00  0.00    -0.186 OA 
BRANCH   8  11
HETATM   11  C   UNL     1     -10.530  14.611  66.073  1.00  0.00    -0.313 A  
HETATM   12  C   UNL     1     -10.867  13.538  66.917  1.00  0.00    -0.286 A  
HETATM   13  C   UNL     1     -11.772  12.565  66.485  1.00  0.00    -0.391 A  
HETATM   14  C   UNL     1     -12.358  12.633  65.225  1.00  0.00    -0.528 A  
HETATM   15  O   UNL     1     -12.105  11.504  67.275  1.00  0.00    -0.548 OA 
HETATM   16  H   UNL     1     -12.720  10.843  66.981  1.00  0.00     0.000 HD 
HETATM   17  C   UNL     1     -12.034  13.699  64.396  1.00  0.00    -0.437 A  
HETATM   18  O   UNL     1     -12.573  13.818  63.149  1.00  0.00    -1.024 OA 
HETATM   19  C   UNL     1     -11.139  14.683  64.806  1.00  0.00    -0.394 A  
HETATM   20  H   UNL     1     -12.352  14.547  62.582  1.00  0.00     0.000 HD 
ENDBRANCH   8  11
ENDBRANCH   7   8
ENDBRANCH   3   7
TORSDOF 3
ENDMDL
MODEL       18
REMARK 921   NORMALIZED FREE ENERGY PREDICTED BY IDOCK:   -5.84 KCAL/MOL
REMARK 922        TOTAL FREE ENERGY PREDICTED BY IDOCK:   -7.16 KCAL/MOL
REMARK 923 INTER-LIGAND FREE ENERGY PREDICTED BY IDOCK:   -6.78 KCAL/MOL
REMARK 924 INTRA-LIGAND FREE ENERGY PREDICTED BY IDOCK:   -0.39 KCAL/MOL
REMARK 927      BINDING AFFINITY PREDICTED BY RF-SCORE:    0.00 PKD
ROOT
HETATM    1  C   UNL     1     -12.708  13.863  65.373  1.00  0.00    -0.525 C  
HETATM    2  C   UNL     1     -11.435  13.464  66.139  1.00  0.00    -0.327 C  
HETATM    3  N   UNL     1     -10.874  14.580  66.927  1.00  0.00    -0.299 NA 
HETATM    4  C   UNL     1     -11.723  12.249  67.037  1.00  0.00    -0.399 C  
HETATM    5  C   UNL     1     -10.368  13.052  65.107  1.00  0.00    -0.321 C  
HETATM    6  H   UNL     1     -10.539  15.316  66.306  1.00  0.00     0.000 HD 
ENDROOT
BRANCH   3   7
HETATM    7  C   UNL     1     -11.782  15.143  67.940  1.00  0.00    -0.256 C  
BRANCH   7   8
HETATM    8  C   UNL     1     -11.109  15.327  69.326  1.00  0.00    -0.274 C  
HETATM    9  H   UNL     1     -10.381  16.824  70.370  1.00  0.00     0.000 HD 
HETATM   10  O   UNL     1     -10.794  16.711  69.522  1.00  0.00    -0.321 OA 
BRANCH   8  11
HETATM   11  C   UNL     1     -12.024  14.820  70.428  1.00  0.00    -0.368 A  
HETATM   12  C   UNL     1     -12.582  15.722  71.353  1.00  0.00    -0.516 A  
HETATM   13  C   UNL     1     -13.362  15.248  72.409  1.00  0.00    -0.435 A  
HETATM   14  C   UNL     1     -13.607  13.888  72.572  1.00  0.00    -0.680 A  
HETATM   15  O   UNL     1     -13.902  16.096  73.331  1.00  0.00    -0.832 OA 
HETATM   16  H   UNL     1     -14.432  15.774  74.049  1.00  0.00     0.000 HD 
HETATM   17  C   UNL     1     -13.066  12.998  71.653  1.00  0.00    -0.347 A  
HETATM   18  O   UNL     1     -13.269  11.655  71.762  1.00  0.00    -0.453 OA 
HETATM   19  C   UNL     1     -12.290  13.448  70.588  1.00  0.00    -0.423 A  
HETATM   20  H   UNL     1     -12.900  11.046  71.133  1.00  0.00     0.000 HD 
ENDBRANCH   8  11
ENDBRANCH   7   8
ENDBRANCH   3   7
TORSDOF 3
ENDMDL
MODEL       19
REMARK 921   NORMALIZED FREE ENERGY PREDICTED BY IDOCK:   -5.83 KCAL/MOL
REMARK 922        TOTAL FREE ENERGY PREDICTED BY IDOCK:   -7.14 KCAL/MOL
REMARK 923 INTER-LIGAND FREE ENERGY PREDICTED BY IDOCK:   -6.89 KCAL/MOL
REMARK 924 INTRA-LIGAND FREE ENERGY PREDICTED BY IDOCK:   -0.26 KCAL/MOL
REMARK 927      BINDING AFFINITY PREDICTED BY RF-SCORE:    0.00 PKD
ROOT
HETATM    1  C   UNL     1      -8.588  18.060  67.522  1.00  0.00    -0.244 C  
HETATM    2  C   UNL     1     -10.030  18.570  67.690  1.00  0.00    -0.338 C  
HETATM    3  N   UNL     1     -10.989  17.481  67.962  1.00  0.00    -0.248 NA 
HETATM    4  C   UNL     1     -10.083  19.637  68.797  1.00  0.00    -0.532 C  
HETATM    5  C   UNL     1     -10.458  19.233  66.366  1.00  0.00    -0.563 C  
HETATM    6  H   UNL     1     -11.063  16.865  67.152  1.00  0.00     0.000 HD 
ENDROOT
BRANCH   3   7
HETATM    7  C   UNL     1     -10.706  16.694  69.175  1.00  0.00    -0.342 C  
BRANCH   7   8
HETATM    8  C   UNL     1     -11.540  15.388  69.261  1.00  0.00    -0.339 C  
HETATM    9  H   UNL     1     -11.263  13.488  68.845  1.00  0.00     0.000 HD 
HETATM   10  O   UNL     1     -10.752  14.288  68.792  1.00  0.00    -0.242 OA 
BRANCH   8  11
HETATM   11  C   UNL     1     -12.001  15.152  70.690  1.00  0.00    -0.371 A  
HETATM   12  C   UNL     1     -12.757  14.008  71.007  1.00  0.00    -0.431 A  
HETATM   13  C   UNL     1     -13.244  13.829  72.304  1.00  0.00    -0.467 A  
HETATM   14  C   UNL     1     -12.997  14.764  73.303  1.00  0.00    -0.608 A  
HETATM   15  O   UNL     1     -13.993  12.739  72.636  1.00  0.00    -0.702 OA 
HETATM   16  H   UNL     1     -14.325  12.617  73.518  1.00  0.00     0.000 HD 
HETATM   17  C   UNL     1     -12.242  15.888  72.993  1.00  0.00    -0.504 A  
HETATM   18  O   UNL     1     -11.970  16.840  73.930  1.00  0.00    -0.360 OA 
HETATM   19  C   UNL     1     -11.741  16.086  71.710  1.00  0.00    -0.593 A  
HETATM   20  H   UNL     1     -11.453  17.609  73.718  1.00  0.00     0.000 HD 
ENDBRANCH   8  11
ENDBRANCH   7   8
ENDBRANCH   3   7
TORSDOF 3
ENDMDL
MODEL       20
REMARK 921   NORMALIZED FREE ENERGY PREDICTED BY IDOCK:   -5.82 KCAL/MOL
REMARK 922        TOTAL FREE ENERGY PREDICTED BY IDOCK:   -7.13 KCAL/MOL
REMARK 923 INTER-LIGAND FREE ENERGY PREDICTED BY IDOCK:   -6.79 KCAL/MOL
REMARK 924 INTRA-LIGAND FREE ENERGY PREDICTED BY IDOCK:   -0.34 KCAL/MOL
REMARK 927      BINDING AFFINITY PREDICTED BY RF-SCORE:    0.00 PKD
ROOT
HETATM    1  C   UNL     1     -10.517  10.972  64.495  1.00  0.00    -0.411 C  
HETATM    2  C   UNL     1     -11.334  12.241  64.790  1.00  0.00    -0.323 C  
HETATM    3  N   UNL     1     -11.995  12.196  66.110  1.00  0.00    -0.600 NA 
HETATM    4  C   UNL     1     -10.436  13.484  64.668  1.00  0.00    -0.439 C  
HETATM    5  C   UNL     1     -12.446  12.349  63.728  1.00  0.00    -0.593 C  
HETATM    6  H   UNL     1     -12.705  11.465  66.125  1.00  0.00     0.000 HD 
ENDROOT
BRANCH   3   7
HETATM    7  C   UNL     1     -11.081  12.041  67.256  1.00  0.00    -0.285 C  
BRANCH   7   8
HETATM    8  C   UNL     1     -11.311  13.102  68.364  1.00  0.00    -0.289 C  
HETATM    9  H   UNL     1     -12.219  14.838  68.511  1.00  0.00     0.000 HD 
HETATM   10  O   UNL     1     -12.078  14.189  67.833  1.00  0.00    -0.358 OA 
BRANCH   8  11
HETATM   11  C   UNL     1     -12.015  12.475  69.556  1.00  0.00    -0.329 A  
HETATM   12  C   UNL     1     -12.532  13.291  70.580  1.00  0.00    -0.332 A  
HETATM   13  C   UNL     1     -13.113  12.711  71.710  1.00  0.00    -0.360 A  
HETATM   14  C   UNL     1     -13.196  11.330  71.851  1.00  0.00    -0.491 A  
HETATM   15  O   UNL     1     -13.606  13.476  72.726  1.00  0.00    -0.672 OA 
HETATM   16  H   UNL     1     -14.001  13.082  73.494  1.00  0.00     0.000 HD 
HETATM   17  C   UNL     1     -12.697  10.525  70.835  1.00  0.00    -0.402 A  
HETATM   18  O   UNL     1     -12.748   9.165  70.918  1.00  0.00    -0.496 OA 
HETATM   19  C   UNL     1     -12.119  11.079  69.697  1.00  0.00    -0.411 A  
HETATM   20  H   UNL     1     -12.407   8.614  70.223  1.00  0.00     0.000 HD 
ENDBRANCH   8  11
ENDBRANCH   7   8
ENDBRANCH   3   7
TORSDOF 3
ENDMDL
MODEL       21
REMARK 921   NORMALIZED FREE ENERGY PREDICTED BY IDOCK:   -5.81 KCAL/MOL
REMARK 922        TOTAL FREE ENERGY PREDICTED BY IDOCK:   -7.13 KCAL/MOL
REMARK 923 INTER-LIGAND FREE ENERGY PREDICTED BY IDOCK:   -6.84 KCAL/MOL
REMARK 924 INTRA-LIGAND FREE ENERGY PREDICTED BY IDOCK:   -0.29 KCAL/MOL
REMARK 927      BINDING AFFINITY PREDICTED BY RF-SCORE:    0.00 PKD
ROOT
HETATM    1  C   UNL     1     -10.277  12.999  64.703  1.00  0.00    -0.324 C  
HETATM    2  C   UNL     1     -11.810  13.115  64.727  1.00  0.00    -0.369 C  
HETATM    3  N   UNL     1     -12.389  12.716  66.026  1.00  0.00    -0.569 NA 
HETATM    4  C   UNL     1     -12.234  14.547  64.355  1.00  0.00    -0.480 C  
HETATM    5  C   UNL     1     -12.377  12.157  63.662  1.00  0.00    -0.673 C  
HETATM    6  H   UNL     1     -12.238  11.720  66.188  1.00  0.00     0.000 HD 
ENDROOT
BRANCH   3   7
HETATM    7  C   UNL     1     -11.916  13.497  67.182  1.00  0.00    -0.381 C  
BRANCH   7   8
HETATM    8  C   UNL     1     -11.248  12.622  68.276  1.00  0.00    -0.272 C  
HETATM    9  H   UNL     1      -9.453  12.430  69.050  1.00  0.00     0.000 HD 
HETATM   10  O   UNL     1      -9.862  12.966  68.381  1.00  0.00    -0.224 OA 
BRANCH   8  11
HETATM   11  C   UNL     1     -11.955  12.814  69.608  1.00  0.00    -0.354 A  
HETATM   12  C   UNL     1     -12.269  11.699  70.407  1.00  0.00    -0.434 A  
HETATM   13  C   UNL     1     -12.985  11.869  71.594  1.00  0.00    -0.342 A  
HETATM   14  C   UNL     1     -13.399  13.128  72.014  1.00  0.00    -0.587 A  
HETATM   15  O   UNL     1     -13.318  10.806  72.380  1.00  0.00    -0.606 OA 
HETATM   16  H   UNL     1     -13.805  10.921  73.187  1.00  0.00     0.000 HD 
HETATM   17  C   UNL     1     -13.078  14.231  71.231  1.00  0.00    -0.355 A  
HETATM   18  O   UNL     1     -13.459  15.490  71.589  1.00  0.00    -0.467 OA 
HETATM   19  C   UNL     1     -12.362  14.088  70.047  1.00  0.00    -0.397 A  
HETATM   20  H   UNL     1     -13.240  16.244  71.054  1.00  0.00     0.000 HD 
ENDBRANCH   8  11
ENDBRANCH   7   8
ENDBRANCH   3   7
TORSDOF 3
ENDMDL
MODEL       22
REMARK 921   NORMALIZED FREE ENERGY PREDICTED BY IDOCK:   -5.80 KCAL/MOL
REMARK 922        TOTAL FREE ENERGY PREDICTED BY IDOCK:   -7.11 KCAL/MOL
REMARK 923 INTER-LIGAND FREE ENERGY PREDICTED BY IDOCK:   -6.77 KCAL/MOL
REMARK 924 INTRA-LIGAND FREE ENERGY PREDICTED BY IDOCK:   -0.34 KCAL/MOL
REMARK 927      BINDING AFFINITY PREDICTED BY RF-SCORE:    0.00 PKD
ROOT
HETATM    1  C   UNL     1      -8.626  10.138  69.352  1.00  0.00    -0.183 C  
HETATM    2  C   UNL     1     -10.136  10.423  69.304  1.00  0.00    -0.230 C  
HETATM    3  N   UNL     1     -10.441  11.868  69.288  1.00  0.00    -0.435 NA 
HETATM    4  C   UNL     1     -10.765   9.717  68.091  1.00  0.00    -0.266 C  
HETATM    5  C   UNL     1     -10.772   9.838  70.580  1.00  0.00    -0.381 C  
HETATM    6  H   UNL     1     -10.161  12.298  70.170  1.00  0.00     0.000 HD 
ENDROOT
BRANCH   3   7
HETATM    7  C   UNL     1      -9.864  12.611  68.155  1.00  0.00    -0.226 C  
BRANCH   7   8
HETATM    8  C   UNL     1     -10.464  14.032  67.990  1.00  0.00    -0.241 C  
HETATM    9  H   UNL     1      -9.789  15.877  68.006  1.00  0.00     0.000 HD 
HETATM   10  O   UNL     1      -9.421  15.007  68.107  1.00  0.00    -0.190 OA 
BRANCH   8  11
HETATM   11  C   UNL     1     -11.169  14.154  66.649  1.00  0.00    -0.330 A  
HETATM   12  C   UNL     1     -11.939  13.083  66.157  1.00  0.00    -0.488 A  
HETATM   13  C   UNL     1     -12.525  13.166  64.892  1.00  0.00    -0.433 A  
HETATM   14  C   UNL     1     -12.366  14.295  64.095  1.00  0.00    -0.361 A  
HETATM   15  O   UNL     1     -13.262  12.138  64.382  1.00  0.00    -0.758 OA 
HETATM   16  H   UNL     1     -13.660  12.194  63.522  1.00  0.00     0.000 HD 
HETATM   17  C   UNL     1     -11.616  15.357  64.585  1.00  0.00    -0.311 A  
HETATM   18  O   UNL     1     -11.424  16.488  63.850  1.00  0.00    -1.608 OA 
HETATM   19  C   UNL     1     -11.027  15.300  65.845  1.00  0.00    -0.325 A  
HETATM   20  H   UNL     1     -10.911  17.215  64.185  1.00  0.00     0.000 HD 
ENDBRANCH   8  11
ENDBRANCH   7   8
ENDBRANCH   3   7
TORSDOF 3
ENDMDL
MODEL       23
REMARK 921   NORMALIZED FREE ENERGY PREDICTED BY IDOCK:   -5.80 KCAL/MOL
REMARK 922        TOTAL FREE ENERGY PREDICTED BY IDOCK:   -7.11 KCAL/MOL
REMARK 923 INTER-LIGAND FREE ENERGY PREDICTED BY IDOCK:   -6.70 KCAL/MOL
REMARK 924 INTRA-LIGAND FREE ENERGY PREDICTED BY IDOCK:   -0.41 KCAL/MOL
REMARK 927      BINDING AFFINITY PREDICTED BY RF-SCORE:    0.00 PKD
ROOT
HETATM    1  C   UNL     1     -10.864   9.838  68.057  1.00  0.00    -0.276 C  
HETATM    2  C   UNL     1     -10.325  10.430  69.370  1.00  0.00    -0.237 C  
HETATM    3  N   UNL     1      -9.729  11.769  69.186  1.00  0.00    -0.395 NA 
HETATM    4  C   UNL     1     -11.444  10.468  70.426  1.00  0.00    -0.427 C  
HETATM    5  C   UNL     1      -9.210   9.502  69.889  1.00  0.00    -0.242 C  
HETATM    6  H   UNL     1      -8.890  11.705  68.610  1.00  0.00     0.000 HD 
ENDROOT
BRANCH   3   7
HETATM    7  C   UNL     1     -10.645  12.786  68.642  1.00  0.00    -0.233 C  
BRANCH   7   8
HETATM    8  C   UNL     1      -9.947  13.774  67.669  1.00  0.00    -0.238 C  
HETATM    9  H   UNL     1      -8.198  13.910  66.785  1.00  0.00     0.000 HD 
HETATM   10  O   UNL     1      -8.625  13.305  67.381  1.00  0.00    -0.183 OA 
BRANCH   8  11
HETATM   11  C   UNL     1     -10.760  13.918  66.392  1.00  0.00    -0.281 A  
HETATM   12  C   UNL     1     -10.730  15.124  65.670  1.00  0.00    -0.374 A  
HETATM   13  C   UNL     1     -11.535  15.282  64.538  1.00  0.00    -0.315 A  
HETATM   14  C   UNL     1     -12.374  14.263  64.101  1.00  0.00    -0.361 A  
HETATM   15  O   UNL     1     -11.539  16.446  63.828  1.00  0.00    -1.605 OA 
HETATM   16  H   UNL     1     -12.086  16.554  63.059  1.00  0.00     0.000 HD 
HETATM   17  C   UNL     1     -12.394  13.067  64.808  1.00  0.00    -0.436 A  
HETATM   18  O   UNL     1     -13.199  12.033  64.430  1.00  0.00    -0.669 OA 
HETATM   19  C   UNL     1     -11.598  12.884  65.935  1.00  0.00    -0.423 A  
HETATM   20  H   UNL     1     -13.213  11.215  64.913  1.00  0.00     0.000 HD 
ENDBRANCH   8  11
ENDBRANCH   7   8
ENDBRANCH   3   7
TORSDOF 3
ENDMDL
MODEL       24
REMARK 921   NORMALIZED FREE ENERGY PREDICTED BY IDOCK:   -5.75 KCAL/MOL
REMARK 922        TOTAL FREE ENERGY PREDICTED BY IDOCK:   -7.05 KCAL/MOL
REMARK 923 INTER-LIGAND FREE ENERGY PREDICTED BY IDOCK:   -6.78 KCAL/MOL
REMARK 924 INTRA-LIGAND FREE ENERGY PREDICTED BY IDOCK:   -0.28 KCAL/MOL
REMARK 927      BINDING AFFINITY PREDICTED BY RF-SCORE:    0.00 PKD
ROOT
HETATM    1  C   UNL     1     -10.410  19.717  66.187  1.00  0.00    -0.627 C  
HETATM    2  C   UNL     1      -9.787  18.985  67.388  1.00  0.00    -0.324 C  
HETATM    3  N   UNL     1     -10.217  17.575  67.478  1.00  0.00    -0.327 NA 
HETATM    4  C   UNL     1      -8.253  19.087  67.328  1.00  0.00    -0.294 C  
HETATM    5  C   UNL     1     -10.263  19.688  68.674  1.00  0.00    -0.498 C  
HETATM    6  H   UNL     1     -11.216  17.523  67.678  1.00  0.00     0.000 HD 
ENDROOT
BRANCH   3   7
HETATM    7  C   UNL     1      -9.890  16.751  66.302  1.00  0.00    -0.309 C  
BRANCH   7   8
HETATM    8  C   UNL     1     -11.147  16.194  65.580  1.00  0.00    -0.023 C  
HETATM    9  H   UNL     1     -11.979  16.387  63.811  1.00  0.00     0.000 HD 
HETATM   10  O   UNL     1     -11.210  16.728  64.253  1.00  0.00    -1.163 OA 
BRANCH   8  11
HETATM   11  C   UNL     1     -11.108  14.675  65.551  1.00  0.00    -0.345 A  
HETATM   12  C   UNL     1     -11.713  13.934  66.583  1.00  0.00    -0.417 A  
HETATM   13  C   UNL     1     -11.612  12.541  66.596  1.00  0.00    -0.380 A  
HETATM   14  C   UNL     1     -10.921  11.858  65.600  1.00  0.00    -0.353 A  
HETATM   15  O   UNL     1     -12.174  11.797  67.591  1.00  0.00    -0.534 OA 
HETATM   16  H   UNL     1     -12.105  10.850  67.600  1.00  0.00     0.000 HD 
HETATM   17  C   UNL     1     -10.334  12.589  64.575  1.00  0.00    -0.336 A  
HETATM   18  O   UNL     1      -9.642  11.976  63.573  1.00  0.00    -0.560 OA 
HETATM   19  C   UNL     1     -10.425  13.977  64.538  1.00  0.00    -0.285 A  
HETATM   20  H   UNL     1      -9.240  12.475  62.872  1.00  0.00     0.000 HD 
ENDBRANCH   8  11
ENDBRANCH   7   8
ENDBRANCH   3   7
TORSDOF 3
ENDMDL
MODEL       25
REMARK 921   NORMALIZED FREE ENERGY PREDICTED BY IDOCK:   -5.71 KCAL/MOL
REMARK 922        TOTAL FREE ENERGY PREDICTED BY IDOCK:   -7.01 KCAL/MOL
REMARK 923 INTER-LIGAND FREE ENERGY PREDICTED BY IDOCK:   -6.65 KCAL/MOL
REMARK 924 INTRA-LIGAND FREE ENERGY PREDICTED BY IDOCK:   -0.36 KCAL/MOL
REMARK 927      BINDING AFFINITY PREDICTED BY RF-SCORE:    0.00 PKD
ROOT
HETATM    1  C   UNL     1      -8.416  10.384  68.824  1.00  0.00    -0.132 C  
HETATM    2  C   UNL     1      -9.920  10.320  69.142  1.00  0.00    -0.222 C  
HETATM    3  N   UNL     1     -10.525  11.658  69.293  1.00  0.00    -0.427 NA 
HETATM    4  C   UNL     1     -10.651   9.507  68.060  1.00  0.00    -0.282 C  
HETATM    5  C   UNL     1     -10.092   9.588  70.487  1.00  0.00    -0.347 C  
HETATM    6  H   UNL     1     -10.143  12.127  70.115  1.00  0.00     0.000 HD 
ENDROOT
BRANCH   3   7
HETATM    7  C   UNL     1     -10.409  12.529  68.111  1.00  0.00    -0.232 C  
BRANCH   7   8
HETATM    8  C   UNL     1     -11.757  13.178  67.699  1.00  0.00    -0.369 C  
HETATM    9  H   UNL     1     -12.726  14.838  68.110  1.00  0.00     0.000 HD 
HETATM   10  O   UNL     1     -11.900  14.440  68.361  1.00  0.00    -0.316 OA 
BRANCH   8  11
HETATM   11  C   UNL     1     -11.820  13.349  66.190  1.00  0.00    -0.427 A  
HETATM   12  C   UNL     1     -11.896  14.638  65.629  1.00  0.00    -0.273 A  
HETATM   13  C   UNL     1     -12.029  14.792  64.247  1.00  0.00    -0.368 A  
HETATM   14  C   UNL     1     -12.088  13.691  63.400  1.00  0.00    -0.246 A  
HETATM   15  O   UNL     1     -12.121  16.028  63.677  1.00  0.00    -1.285 OA 
HETATM   16  H   UNL     1     -12.212  16.133  62.738  1.00  0.00     0.000 HD 
HETATM   17  C   UNL     1     -12.002  12.419  63.953  1.00  0.00    -0.486 A  
HETATM   18  O   UNL     1     -12.057  11.302  63.174  1.00  0.00    -0.828 OA 
HETATM   19  C   UNL     1     -11.864  12.240  65.326  1.00  0.00    -0.411 A  
HETATM   20  H   UNL     1     -11.998  10.432  63.551  1.00  0.00     0.000 HD 
ENDBRANCH   8  11
ENDBRANCH   7   8
ENDBRANCH   3   7
TORSDOF 3
ENDMDL
MODEL       26
REMARK 921   NORMALIZED FREE ENERGY PREDICTED BY IDOCK:   -5.70 KCAL/MOL
REMARK 922        TOTAL FREE ENERGY PREDICTED BY IDOCK:   -7.00 KCAL/MOL
REMARK 923 INTER-LIGAND FREE ENERGY PREDICTED BY IDOCK:   -6.61 KCAL/MOL
REMARK 924 INTRA-LIGAND FREE ENERGY PREDICTED BY IDOCK:   -0.39 KCAL/MOL
REMARK 927      BINDING AFFINITY PREDICTED BY RF-SCORE:    0.00 PKD
ROOT
HETATM    1  C   UNL     1      -8.476  18.522  66.339  1.00  0.00    -0.275 C  
HETATM    2  C   UNL     1     -10.010  18.413  66.356  1.00  0.00    -0.386 C  
HETATM    3  N   UNL     1     -10.508  17.286  65.543  1.00  0.00    -0.629 NA 
HETATM    4  C   UNL     1     -10.512  18.307  67.807  1.00  0.00    -0.430 C  
HETATM    5  C   UNL     1     -10.586  19.706  65.745  1.00  0.00    -0.537 C  
HETATM    6  H   UNL     1     -10.308  17.447  64.556  1.00  0.00     0.000 HD 
ENDROOT
BRANCH   3   7
HETATM    7  C   UNL     1     -10.015  15.960  65.952  1.00  0.00    -0.349 C  
BRANCH   7   8
HETATM    8  C   UNL     1     -11.033  14.821  65.678  1.00  0.00    -0.344 C  
HETATM    9  H   UNL     1     -11.154  13.276  64.470  1.00  0.00     0.000 HD 
HETATM   10  O   UNL     1     -10.531  13.973  64.639  1.00  0.00    -0.434 OA 
BRANCH   8  11
HETATM   11  C   UNL     1     -11.289  14.026  66.948  1.00  0.00    -0.343 A  
HETATM   12  C   UNL     1     -11.246  14.665  68.201  1.00  0.00    -0.304 A  
HETATM   13  C   UNL     1     -11.406  13.921  69.372  1.00  0.00    -0.258 A  
HETATM   14  C   UNL     1     -11.612  12.546  69.330  1.00  0.00    -0.368 A  
HETATM   15  O   UNL     1     -11.353  14.510  70.600  1.00  0.00    -0.469 OA 
HETATM   16  H   UNL     1     -11.461  14.004  71.397  1.00  0.00     0.000 HD 
HETATM   17  C   UNL     1     -11.666  11.916  68.093  1.00  0.00    -0.320 A  
HETATM   18  O   UNL     1     -11.861  10.571  67.989  1.00  0.00    -0.765 OA 
HETATM   19  C   UNL     1     -11.514  12.638  66.912  1.00  0.00    -0.402 A  
HETATM   20  H   UNL     1     -11.898  10.140  67.143  1.00  0.00     0.000 HD 
ENDBRANCH   8  11
ENDBRANCH   7   8
ENDBRANCH   3   7
TORSDOF 3
ENDMDL
MODEL       27
REMARK 921   NORMALIZED FREE ENERGY PREDICTED BY IDOCK:   -5.67 KCAL/MOL
REMARK 922        TOTAL FREE ENERGY PREDICTED BY IDOCK:   -6.96 KCAL/MOL
REMARK 923 INTER-LIGAND FREE ENERGY PREDICTED BY IDOCK:   -6.41 KCAL/MOL
REMARK 924 INTRA-LIGAND FREE ENERGY PREDICTED BY IDOCK:   -0.56 KCAL/MOL
REMARK 927      BINDING AFFINITY PREDICTED BY RF-SCORE:    0.00 PKD
ROOT
HETATM    1  C   UNL     1      -9.190  11.628  65.935  1.00  0.00    -0.206 C  
HETATM    2  C   UNL     1      -9.623  10.532  64.947  1.00  0.00    -0.277 C  
HETATM    3  N   UNL     1     -10.888  10.858  64.256  1.00  0.00    -0.356 NA 
HETATM    4  C   UNL     1      -8.498  10.265  63.933  1.00  0.00    -0.179 C  
HETATM    5  C   UNL     1      -9.862   9.237  65.747  1.00  0.00    -0.302 C  
HETATM    6  H   UNL     1     -11.659  10.875  64.923  1.00  0.00     0.000 HD 
ENDROOT
BRANCH   3   7
HETATM    7  C   UNL     1     -10.863  12.106  63.474  1.00  0.00    -0.458 C  
BRANCH   7   8
HETATM    8  C   UNL     1     -12.050  13.051  63.799  1.00  0.00    -0.502 C  
HETATM    9  H   UNL     1     -13.936  12.849  64.311  1.00  0.00     0.000 HD 
HETATM   10  O   UNL     1     -13.209  12.270  64.112  1.00  0.00    -0.745 OA 
BRANCH   8  11
HETATM   11  C   UNL     1     -11.690  13.970  64.955  1.00  0.00    -0.385 A  
HETATM   12  C   UNL     1     -10.800  15.041  64.752  1.00  0.00    -0.375 A  
HETATM   13  C   UNL     1     -10.411  15.840  65.830  1.00  0.00    -0.354 A  
HETATM   14  C   UNL     1     -10.888  15.602  67.114  1.00  0.00    -0.297 A  
HETATM   15  O   UNL     1      -9.537  16.875  65.668  1.00  0.00    -0.534 OA 
HETATM   16  H   UNL     1      -9.272  17.418  66.400  1.00  0.00     0.000 HD 
HETATM   17  C   UNL     1     -11.775  14.552  67.312  1.00  0.00    -0.406 A  
HETATM   18  O   UNL     1     -12.274  14.268  68.549  1.00  0.00    -0.542 OA 
HETATM   19  C   UNL     1     -12.182  13.745  66.253  1.00  0.00    -0.489 A  
HETATM   20  H   UNL     1     -12.881  13.549  68.684  1.00  0.00     0.000 HD 
ENDBRANCH   8  11
ENDBRANCH   7   8
ENDBRANCH   3   7
TORSDOF 3
ENDMDL
MODEL       28
REMARK 921   NORMALIZED FREE ENERGY PREDICTED BY IDOCK:   -5.67 KCAL/MOL
REMARK 922        TOTAL FREE ENERGY PREDICTED BY IDOCK:   -6.96 KCAL/MOL
REMARK 923 INTER-LIGAND FREE ENERGY PREDICTED BY IDOCK:   -6.54 KCAL/MOL
REMARK 924 INTRA-LIGAND FREE ENERGY PREDICTED BY IDOCK:   -0.42 KCAL/MOL
REMARK 927      BINDING AFFINITY PREDICTED BY RF-SCORE:    0.00 PKD
ROOT
HETATM    1  C   UNL     1     -10.430  13.511  64.801  1.00  0.00    -0.430 C  
HETATM    2  C   UNL     1     -11.793  12.934  65.219  1.00  0.00    -0.392 C  
HETATM    3  N   UNL     1     -11.679  11.933  66.299  1.00  0.00    -0.520 NA 
HETATM    4  C   UNL     1     -12.743  14.074  65.626  1.00  0.00    -0.515 C  
HETATM    5  C   UNL     1     -12.402  12.219  63.997  1.00  0.00    -0.569 C  
HETATM    6  H   UNL     1     -11.180  11.108  65.964  1.00  0.00     0.000 HD 
ENDROOT
BRANCH   3   7
HETATM    7  C   UNL     1     -11.064  12.429  67.542  1.00  0.00    -0.266 C  
BRANCH   7   8
HETATM    8  C   UNL     1     -11.861  12.036  68.814  1.00  0.00    -0.302 C  
HETATM    9  H   UNL     1     -11.665  10.738  70.276  1.00  0.00     0.000 HD 
HETATM   10  O   UNL     1     -11.177  10.979  69.497  1.00  0.00    -0.239 OA 
BRANCH   8  11
HETATM   11  C   UNL     1     -12.034  13.243  69.721  1.00  0.00    -0.391 A  
HETATM   12  C   UNL     1     -11.525  14.496  69.332  1.00  0.00    -0.323 A  
HETATM   13  C   UNL     1     -11.618  15.588  70.198  1.00  0.00    -0.337 A  
HETATM   14  C   UNL     1     -12.209  15.468  71.451  1.00  0.00    -0.453 A  
HETATM   15  O   UNL     1     -11.119  16.810  69.855  1.00  0.00    -0.423 OA 
HETATM   16  H   UNL     1     -11.182  17.553  70.444  1.00  0.00     0.000 HD 
HETATM   17  C   UNL     1     -12.722  14.233  71.830  1.00  0.00    -0.338 A  
HETATM   18  O   UNL     1     -13.310  14.053  73.047  1.00  0.00    -0.641 OA 
HETATM   19  C   UNL     1     -12.646  13.132  70.983  1.00  0.00    -0.397 A  
HETATM   20  H   UNL     1     -13.661  13.209  73.307  1.00  0.00     0.000 HD 
ENDBRANCH   8  11
ENDBRANCH   7   8
ENDBRANCH   3   7
TORSDOF 3
ENDMDL
MODEL       29
REMARK 921   NORMALIZED FREE ENERGY PREDICTED BY IDOCK:   -5.65 KCAL/MOL
REMARK 922        TOTAL FREE ENERGY PREDICTED BY IDOCK:   -6.94 KCAL/MOL
REMARK 923 INTER-LIGAND FREE ENERGY PREDICTED BY IDOCK:   -6.68 KCAL/MOL
REMARK 924 INTRA-LIGAND FREE ENERGY PREDICTED BY IDOCK:   -0.26 KCAL/MOL
REMARK 927      BINDING AFFINITY PREDICTED BY RF-SCORE:    0.00 PKD
ROOT
HETATM    1  C   UNL     1     -14.049  15.019  71.002  1.00  0.00    -0.305 C  
HETATM    2  C   UNL     1     -12.712  14.752  71.713  1.00  0.00    -0.328 C  
HETATM    3  N   UNL     1     -12.184  13.400  71.439  1.00  0.00    -0.297 NA 
HETATM    4  C   UNL     1     -11.686  15.830  71.324  1.00  0.00    -0.496 C  
HETATM    5  C   UNL     1     -12.952  14.847  73.232  1.00  0.00    -0.635 C  
HETATM    6  H   UNL     1     -12.797  12.693  71.845  1.00  0.00     0.000 HD 
ENDROOT
BRANCH   3   7
HETATM    7  C   UNL     1     -11.939  13.106  70.017  1.00  0.00    -0.321 C  
BRANCH   7   8
HETATM    8  C   UNL     1     -12.527  11.742  69.568  1.00  0.00     0.083 C  
HETATM    9  H   UNL     1     -12.325  10.538  68.028  1.00  0.00     0.000 HD 
HETATM   10  O   UNL     1     -11.965  11.373  68.303  1.00  0.00    -0.566 OA 
BRANCH   8  11
HETATM   11  C   UNL     1     -12.245  10.677  70.615  1.00  0.00    -0.459 A  
HETATM   12  C   UNL     1     -10.985  10.053  70.665  1.00  0.00    -0.392 A  
HETATM   13  C   UNL     1     -10.750   9.022  71.578  1.00  0.00    -0.351 A  
HETATM   14  C   UNL     1     -11.742   8.592  72.452  1.00  0.00    -0.393 A  
HETATM   15  O   UNL     1      -9.544   8.388  71.637  1.00  0.00    -0.178 OA 
HETATM   16  H   UNL     1      -9.384   7.687  72.258  1.00  0.00     0.000 HD 
HETATM   17  C   UNL     1     -12.983   9.216  72.411  1.00  0.00    -0.398 A  
HETATM   18  O   UNL     1     -13.995   8.836  73.241  1.00  0.00    -1.160 OA 
HETATM   19  C   UNL     1     -13.239  10.248  71.514  1.00  0.00    -0.484 A  
HETATM   20  H   UNL     1     -14.844   9.263  73.213  1.00  0.00     0.000 HD 
ENDBRANCH   8  11
ENDBRANCH   7   8
ENDBRANCH   3   7
TORSDOF 3
ENDMDL
MODEL       30
REMARK 921   NORMALIZED FREE ENERGY PREDICTED BY IDOCK:   -5.61 KCAL/MOL
REMARK 922        TOTAL FREE ENERGY PREDICTED BY IDOCK:   -6.89 KCAL/MOL
REMARK 923 INTER-LIGAND FREE ENERGY PREDICTED BY IDOCK:   -6.52 KCAL/MOL
REMARK 924 INTRA-LIGAND FREE ENERGY PREDICTED BY IDOCK:   -0.37 KCAL/MOL
REMARK 927      BINDING AFFINITY PREDICTED BY RF-SCORE:    0.00 PKD
ROOT
HETATM    1  C   UNL     1     -12.005  15.390  68.502  1.00  0.00    -0.205 C  
HETATM    2  C   UNL     1     -11.308  14.603  69.625  1.00  0.00    -0.280 C  
HETATM    3  N   UNL     1     -11.162  13.168  69.305  1.00  0.00    -0.395 NA 
HETATM    4  C   UNL     1      -9.943  15.236  69.941  1.00  0.00    -0.176 C  
HETATM    5  C   UNL     1     -12.184  14.700  70.889  1.00  0.00    -0.391 C  
HETATM    6  H   UNL     1     -12.078  12.722  69.255  1.00  0.00     0.000 HD 
ENDROOT
BRANCH   3   7
HETATM    7  C   UNL     1     -10.388  12.881  68.085  1.00  0.00    -0.240 C  
BRANCH   7   8
HETATM    8  C   UNL     1     -10.833  11.573  67.377  1.00  0.00    -0.246 C  
HETATM    9  H   UNL     1     -12.322  10.302  67.534  1.00  0.00     0.000 HD 
HETATM   10  O   UNL     1     -12.050  11.102  67.967  1.00  0.00    -0.635 OA 
BRANCH   8  11
HETATM   11  C   UNL     1     -11.014  11.817  65.887  1.00  0.00    -0.354 A  
HETATM   12  C   UNL     1     -10.404  10.959  64.954  1.00  0.00    -0.371 A  
HETATM   13  C   UNL     1     -10.508  11.225  63.587  1.00  0.00    -0.405 A  
HETATM   14  C   UNL     1     -11.210  12.331  63.118  1.00  0.00    -0.236 A  
HETATM   15  O   UNL     1      -9.914  10.421  62.659  1.00  0.00    -0.679 OA 
HETATM   16  H   UNL     1      -9.984  10.602  61.730  1.00  0.00     0.000 HD 
HETATM   17  C   UNL     1     -11.821  13.172  64.040  1.00  0.00    -0.453 A  
HETATM   18  O   UNL     1     -12.520  14.272  63.641  1.00  0.00    -1.043 OA 
HETATM   19  C   UNL     1     -11.736  12.924  65.406  1.00  0.00    -0.413 A  
HETATM   20  H   UNL     1     -12.939  14.848  64.271  1.00  0.00     0.000 HD 
ENDBRANCH   8  11
ENDBRANCH   7   8
ENDBRANCH   3   7
TORSDOF 3
ENDMDL
MODEL       31
REMARK 921   NORMALIZED FREE ENERGY PREDICTED BY IDOCK:   -5.59 KCAL/MOL
REMARK 922        TOTAL FREE ENERGY PREDICTED BY IDOCK:   -6.86 KCAL/MOL
REMARK 923 INTER-LIGAND FREE ENERGY PREDICTED BY IDOCK:   -6.53 KCAL/MOL
REMARK 924 INTRA-LIGAND FREE ENERGY PREDICTED BY IDOCK:   -0.34 KCAL/MOL
REMARK 927      BINDING AFFINITY PREDICTED BY RF-SCORE:    0.00 PKD
ROOT
HETATM    1  C   UNL     1     -12.821  11.613  71.595  1.00  0.00    -0.454 C  
HETATM    2  C   UNL     1     -12.495  10.294  70.874  1.00  0.00    -0.370 C  
HETATM    3  N   UNL     1     -12.511  10.432  69.404  1.00  0.00    -0.656 NA 
HETATM    4  C   UNL     1     -11.139   9.753  71.359  1.00  0.00    -0.317 C  
HETATM    5  C   UNL     1     -13.580   9.266  71.247  1.00  0.00    -0.287 C  
HETATM    6  H   UNL     1     -13.456  10.636  69.079  1.00  0.00     0.000 HD 
ENDROOT
BRANCH   3   7
HETATM    7  C   UNL     1     -11.563  11.421  68.863  1.00  0.00    -0.323 C  
BRANCH   7   8
HETATM    8  C   UNL     1     -10.641  10.840  67.759  1.00  0.00    -0.228 C  
HETATM    9  H   UNL     1     -10.309   9.076  66.960  1.00  0.00     0.000 HD 
HETATM   10  O   UNL     1     -10.874   9.432  67.636  1.00  0.00    -0.267 OA 
BRANCH   8  11
HETATM   11  C   UNL     1     -10.892  11.547  66.437  1.00  0.00    -0.334 A  
HETATM   12  C   UNL     1      -9.979  11.403  65.376  1.00  0.00    -0.289 A  
HETATM   13  C   UNL     1     -10.170  12.111  64.187  1.00  0.00    -0.343 A  
HETATM   14  C   UNL     1     -11.255  12.966  64.023  1.00  0.00    -0.458 A  
HETATM   15  O   UNL     1      -9.293  12.005  63.148  1.00  0.00    -0.664 OA 
HETATM   16  H   UNL     1      -9.423  12.487  62.341  1.00  0.00     0.000 HD 
HETATM   17  C   UNL     1     -12.163  13.099  65.066  1.00  0.00    -0.440 A  
HETATM   18  O   UNL     1     -13.244  13.924  64.965  1.00  0.00    -0.729 OA 
HETATM   19  C   UNL     1     -11.996  12.399  66.258  1.00  0.00    -0.369 A  
HETATM   20  H   UNL     1     -13.865  14.015  65.679  1.00  0.00     0.000 HD 
ENDBRANCH   8  11
ENDBRANCH   7   8
ENDBRANCH   3   7
TORSDOF 3
ENDMDL
MODEL       32
REMARK 921   NORMALIZED FREE ENERGY PREDICTED BY IDOCK:   -5.56 KCAL/MOL
REMARK 922        TOTAL FREE ENERGY PREDICTED BY IDOCK:   -6.84 KCAL/MOL
REMARK 923 INTER-LIGAND FREE ENERGY PREDICTED BY IDOCK:   -6.46 KCAL/MOL
REMARK 924 INTRA-LIGAND FREE ENERGY PREDICTED BY IDOCK:   -0.37 KCAL/MOL
REMARK 927      BINDING AFFINITY PREDICTED BY RF-SCORE:    0.00 PKD
ROOT
HETATM    1  C   UNL     1     -12.058  15.045  68.292  1.00  0.00    -0.110 C  
HETATM    2  C   UNL     1     -11.246  14.537  69.494  1.00  0.00    -0.264 C  
HETATM    3  N   UNL     1     -10.964  13.089  69.418  1.00  0.00    -0.452 NA 
HETATM    4  C   UNL     1      -9.942  15.343  69.625  1.00  0.00    -0.270 C  
HETATM    5  C   UNL     1     -12.081  14.772  70.768  1.00  0.00    -0.374 C  
HETATM    6  H   UNL     1     -11.831  12.557  69.494  1.00  0.00     0.000 HD 
ENDROOT
BRANCH   3   7
HETATM    7  C   UNL     1     -10.209  12.667  68.226  1.00  0.00    -0.239 C  
BRANCH   7   8
HETATM    8  C   UNL     1     -10.879  11.490  67.468  1.00  0.00    -0.237 C  
HETATM    9  H   UNL     1     -12.580  10.512  67.568  1.00  0.00     0.000 HD 
HETATM   10  O   UNL     1     -12.170  11.232  68.032  1.00  0.00    -0.621 OA 
BRANCH   8  11
HETATM   11  C   UNL     1     -10.992  11.814  65.987  1.00  0.00    -0.355 A  
HETATM   12  C   UNL     1     -11.721  12.942  65.566  1.00  0.00    -0.423 A  
HETATM   13  C   UNL     1     -11.888  13.198  64.203  1.00  0.00    -0.429 A  
HETATM   14  C   UNL     1     -11.343  12.357  63.238  1.00  0.00    -0.399 A  
HETATM   15  O   UNL     1     -12.603  14.274  63.765  1.00  0.00    -0.909 OA 
HETATM   16  H   UNL     1     -12.717  14.448  62.838  1.00  0.00     0.000 HD 
HETATM   17  C   UNL     1     -10.614  11.250  63.654  1.00  0.00    -0.388 A  
HETATM   18  O   UNL     1     -10.059  10.388  62.755  1.00  0.00    -0.650 OA 
HETATM   19  C   UNL     1     -10.430  10.977  65.006  1.00  0.00    -0.344 A  
HETATM   20  H   UNL     1      -9.560   9.631  63.039  1.00  0.00     0.000 HD 
ENDBRANCH   8  11
ENDBRANCH   7   8
ENDBRANCH   3   7
TORSDOF 3
ENDMDL
MODEL       33
REMARK 921   NORMALIZED FREE ENERGY PREDICTED BY IDOCK:   -5.56 KCAL/MOL
REMARK 922        TOTAL FREE ENERGY PREDICTED BY IDOCK:   -6.83 KCAL/MOL
REMARK 923 INTER-LIGAND FREE ENERGY PREDICTED BY IDOCK:   -6.44 KCAL/MOL
REMARK 924 INTRA-LIGAND FREE ENERGY PREDICTED BY IDOCK:   -0.39 KCAL/MOL
REMARK 927      BINDING AFFINITY PREDICTED BY RF-SCORE:    0.00 PKD
ROOT
HETATM    1  C   UNL     1      -8.606  10.035  69.929  1.00  0.00    -0.171 C  
HETATM    2  C   UNL     1     -10.133   9.856  69.901  1.00  0.00    -0.257 C  
HETATM    3  N   UNL     1     -10.850  11.133  69.709  1.00  0.00    -0.459 NA 
HETATM    4  C   UNL     1     -10.522   8.840  68.813  1.00  0.00    -0.214 C  
HETATM    5  C   UNL     1     -10.572   9.288  71.264  1.00  0.00    -0.417 C  
HETATM    6  H   UNL     1     -10.712  11.740  70.517  1.00  0.00     0.000 HD 
ENDROOT
BRANCH   3   7
HETATM    7  C   UNL     1     -10.515  11.853  68.468  1.00  0.00    -0.224 C  
BRANCH   7   8
HETATM    8  C   UNL     1     -11.764  12.391  67.721  1.00  0.00    -0.350 C  
HETATM    9  H   UNL     1     -12.762  14.082  67.646  1.00  0.00     0.000 HD 
HETATM   10  O   UNL     1     -11.998  13.752  68.103  1.00  0.00    -0.362 OA 
BRANCH   8  11
HETATM   11  C   UNL     1     -11.567  12.279  66.218  1.00  0.00    -0.446 A  
HETATM   12  C   UNL     1     -10.793  11.232  65.684  1.00  0.00    -0.242 A  
HETATM   13  C   UNL     1     -10.550  11.171  64.310  1.00  0.00    -0.357 A  
HETATM   14  C   UNL     1     -11.062  12.131  63.444  1.00  0.00    -0.495 A  
HETATM   15  O   UNL     1      -9.790  10.178  63.767  1.00  0.00    -0.403 OA 
HETATM   16  H   UNL     1      -9.625  10.137  62.832  1.00  0.00     0.000 HD 
HETATM   17  C   UNL     1     -11.836  13.158  63.969  1.00  0.00    -0.453 A  
HETATM   18  O   UNL     1     -12.363  14.130  63.170  1.00  0.00    -1.125 OA 
HETATM   19  C   UNL     1     -12.096  13.237  65.334  1.00  0.00    -0.464 A  
HETATM   20  H   UNL     1     -12.892  14.832  63.529  1.00  0.00     0.000 HD 
ENDBRANCH   8  11
ENDBRANCH   7   8
ENDBRANCH   3   7
TORSDOF 3
ENDMDL
MODEL       34
REMARK 921   NORMALIZED FREE ENERGY PREDICTED BY IDOCK:   -5.55 KCAL/MOL
REMARK 922        TOTAL FREE ENERGY PREDICTED BY IDOCK:   -6.81 KCAL/MOL
REMARK 923 INTER-LIGAND FREE ENERGY PREDICTED BY IDOCK:   -6.44 KCAL/MOL
REMARK 924 INTRA-LIGAND FREE ENERGY PREDICTED BY IDOCK:   -0.37 KCAL/MOL
REMARK 927      BINDING AFFINITY PREDICTED BY RF-SCORE:    0.00 PKD
ROOT
HETATM    1  C   UNL     1     -10.563  13.508  64.689  1.00  0.00    -0.441 C  
HETATM    2  C   UNL     1     -11.908  12.916  65.142  1.00  0.00    -0.380 C  
HETATM    3  N   UNL     1     -11.761  11.968  66.265  1.00  0.00    -0.547 NA 
HETATM    4  C   UNL     1     -12.884  14.048  65.505  1.00  0.00    -0.453 C  
HETATM    5  C   UNL     1     -12.506  12.131  63.959  1.00  0.00    -0.541 C  
HETATM    6  H   UNL     1     -11.244  11.142  65.964  1.00  0.00     0.000 HD 
ENDROOT
BRANCH   3   7
HETATM    7  C   UNL     1     -11.151  12.535  67.480  1.00  0.00    -0.267 C  
BRANCH   7   8
HETATM    8  C   UNL     1     -11.909  12.150  68.778  1.00  0.00    -0.303 C  
HETATM    9  H   UNL     1     -11.735  10.784  70.179  1.00  0.00     0.000 HD 
HETATM   10  O   UNL     1     -11.271  11.020  69.384  1.00  0.00    -0.227 OA 
BRANCH   8  11
HETATM   11  C   UNL     1     -11.945  13.329  69.736  1.00  0.00    -0.391 A  
HETATM   12  C   UNL     1     -12.593  13.207  70.980  1.00  0.00    -0.397 A  
HETATM   13  C   UNL     1     -12.691  14.312  71.828  1.00  0.00    -0.347 A  
HETATM   14  C   UNL     1     -12.156  15.546  71.472  1.00  0.00    -0.458 A  
HETATM   15  O   UNL     1     -13.327  14.229  73.032  1.00  0.00    -0.618 OA 
HETATM   16  H   UNL     1     -13.394  14.981  73.608  1.00  0.00     0.000 HD 
HETATM   17  C   UNL     1     -11.506  15.663  70.249  1.00  0.00    -0.349 A  
HETATM   18  O   UNL     1     -10.965  16.847  69.844  1.00  0.00    -0.406 OA 
HETATM   19  C   UNL     1     -11.391  14.575  69.389  1.00  0.00    -0.314 A  
HETATM   20  H   UNL     1     -10.520  16.927  69.008  1.00  0.00     0.000 HD 
ENDBRANCH   8  11
ENDBRANCH   7   8
ENDBRANCH   3   7
TORSDOF 3
ENDMDL
MODEL       35
REMARK 921   NORMALIZED FREE ENERGY PREDICTED BY IDOCK:   -5.54 KCAL/MOL
REMARK 922        TOTAL FREE ENERGY PREDICTED BY IDOCK:   -6.81 KCAL/MOL
REMARK 923 INTER-LIGAND FREE ENERGY PREDICTED BY IDOCK:   -6.36 KCAL/MOL
REMARK 924 INTRA-LIGAND FREE ENERGY PREDICTED BY IDOCK:   -0.45 KCAL/MOL
REMARK 927      BINDING AFFINITY PREDICTED BY RF-SCORE:    0.00 PKD
ROOT
HETATM    1  C   UNL     1      -9.495  16.674  68.398  1.00  0.00    -0.231 C  
HETATM    2  C   UNL     1      -8.809  15.300  68.467  1.00  0.00    -0.185 C  
HETATM    3  N   UNL     1      -9.663  14.270  69.094  1.00  0.00    -0.414 NA 
HETATM    4  C   UNL     1      -8.366  14.862  67.060  1.00  0.00    -0.246 C  
HETATM    5  C   UNL     1      -7.548  15.440  69.343  1.00  0.00    -0.224 C  
HETATM    6  H   UNL     1      -9.818  14.492  70.077  1.00  0.00     0.000 HD 
ENDROOT
BRANCH   3   7
HETATM    7  C   UNL     1     -10.949  14.035  68.415  1.00  0.00    -0.252 C  
BRANCH   7   8
HETATM    8  C   UNL     1     -11.026  12.648  67.723  1.00  0.00    -0.234 C  
HETATM    9  H   UNL     1     -12.133  11.033  67.882  1.00  0.00     0.000 HD 
HETATM   10  O   UNL     1     -12.086  11.882  68.306  1.00  0.00    -0.485 OA 
BRANCH   8  11
HETATM   11  C   UNL     1     -11.242  12.818  66.228  1.00  0.00    -0.339 A  
HETATM   12  C   UNL     1     -11.784  14.015  65.725  1.00  0.00    -0.368 A  
HETATM   13  C   UNL     1     -12.052  14.143  64.360  1.00  0.00    -0.463 A  
HETATM   14  C   UNL     1     -11.791  13.104  63.473  1.00  0.00    -0.539 A  
HETATM   15  O   UNL     1     -12.594  15.284  63.847  1.00  0.00    -0.922 OA 
HETATM   16  H   UNL     1     -12.776  15.371  62.919  1.00  0.00     0.000 HD 
HETATM   17  C   UNL     1     -11.244  11.926  63.968  1.00  0.00    -0.396 A  
HETATM   18  O   UNL     1     -10.969  10.873  63.147  1.00  0.00    -0.714 OA 
HETATM   19  C   UNL     1     -10.964  11.777  65.323  1.00  0.00    -0.350 A  
HETATM   20  H   UNL     1     -10.595  10.067  63.485  1.00  0.00     0.000 HD 
ENDBRANCH   8  11
ENDBRANCH   7   8
ENDBRANCH   3   7
TORSDOF 3
ENDMDL
MODEL       36
REMARK 921   NORMALIZED FREE ENERGY PREDICTED BY IDOCK:   -5.51 KCAL/MOL
REMARK 922        TOTAL FREE ENERGY PREDICTED BY IDOCK:   -6.77 KCAL/MOL
REMARK 923 INTER-LIGAND FREE ENERGY PREDICTED BY IDOCK:   -6.55 KCAL/MOL
REMARK 924 INTRA-LIGAND FREE ENERGY PREDICTED BY IDOCK:   -0.22 KCAL/MOL
REMARK 927      BINDING AFFINITY PREDICTED BY RF-SCORE:    0.00 PKD
ROOT
HETATM    1  C   UNL     1     -11.691  14.921  71.839  1.00  0.00    -0.386 C  
HETATM    2  C   UNL     1     -12.836  14.268  71.048  1.00  0.00    -0.357 C  
HETATM    3  N   UNL     1     -12.552  14.188  69.601  1.00  0.00    -0.459 NA 
HETATM    4  C   UNL     1     -13.146  12.876  71.625  1.00  0.00    -0.430 C  
HETATM    5  C   UNL     1     -14.092  15.145  71.217  1.00  0.00    -0.537 C  
HETATM    6  H   UNL     1     -12.508  15.123  69.197  1.00  0.00     0.000 HD 
ENDROOT
BRANCH   3   7
HETATM    7  C   UNL     1     -11.344  13.423  69.248  1.00  0.00    -0.257 C  
BRANCH   7   8
HETATM    8  C   UNL     1     -11.104  13.338  67.717  1.00  0.00    -0.265 C  
HETATM    9  H   UNL     1     -12.081  12.653  66.156  1.00  0.00     0.000 HD 
HETATM   10  O   UNL     1     -12.228  12.705  67.093  1.00  0.00    -0.445 OA 
BRANCH   8  11
HETATM   11  C   UNL     1     -10.877  14.726  67.142  1.00  0.00    -0.311 A  
HETATM   12  C   UNL     1     -11.303  15.026  65.835  1.00  0.00    -0.273 A  
HETATM   13  C   UNL     1     -11.028  16.278  65.279  1.00  0.00    -0.236 A  
HETATM   14  C   UNL     1     -10.337  17.249  65.995  1.00  0.00    -0.312 A  
HETATM   15  O   UNL     1     -11.413  16.591  64.009  1.00  0.00    -1.513 OA 
HETATM   16  H   UNL     1     -11.226  17.442  63.631  1.00  0.00     0.000 HD 
HETATM   17  C   UNL     1      -9.926  16.957  67.290  1.00  0.00    -0.277 A  
HETATM   18  O   UNL     1      -9.242  17.868  68.040  1.00  0.00    -0.255 OA 
HETATM   19  C   UNL     1     -10.193  15.719  67.867  1.00  0.00    -0.242 A  
HETATM   20  H   UNL     1      -8.962  17.668  68.926  1.00  0.00     0.000 HD 
ENDBRANCH   8  11
ENDBRANCH   7   8
ENDBRANCH   3   7
TORSDOF 3
ENDMDL
MODEL       37
REMARK 921   NORMALIZED FREE ENERGY PREDICTED BY IDOCK:   -5.49 KCAL/MOL
REMARK 922        TOTAL FREE ENERGY PREDICTED BY IDOCK:   -6.74 KCAL/MOL
REMARK 923 INTER-LIGAND FREE ENERGY PREDICTED BY IDOCK:   -6.46 KCAL/MOL
REMARK 924 INTRA-LIGAND FREE ENERGY PREDICTED BY IDOCK:   -0.29 KCAL/MOL
REMARK 927      BINDING AFFINITY PREDICTED BY RF-SCORE:    0.00 PKD
ROOT
HETATM    1  C   UNL     1     -11.897  15.778  71.990  1.00  0.00    -0.582 C  
HETATM    2  C   UNL     1     -12.858  14.980  71.092  1.00  0.00    -0.373 C  
HETATM    3  N   UNL     1     -12.749  15.357  69.668  1.00  0.00    -0.610 NA 
HETATM    4  C   UNL     1     -12.622  13.472  71.279  1.00  0.00    -0.427 C  
HETATM    5  C   UNL     1     -14.299  15.296  71.537  1.00  0.00    -0.633 C  
HETATM    6  H   UNL     1     -13.063  16.318  69.532  1.00  0.00     0.000 HD 
ENDROOT
BRANCH   3   7
HETATM    7  C   UNL     1     -11.412  15.170  69.078  1.00  0.00    -0.309 C  
BRANCH   7   8
HETATM    8  C   UNL     1     -11.327  15.646  67.603  1.00  0.00    -0.228 C  
HETATM    9  H   UNL     1     -10.107  16.749  66.529  1.00  0.00     0.000 HD 
HETATM   10  O   UNL     1     -10.160  16.458  67.432  1.00  0.00    -0.251 OA 
BRANCH   8  11
HETATM   11  C   UNL     1     -11.295  14.450  66.665  1.00  0.00    -0.359 A  
HETATM   12  C   UNL     1     -10.684  13.250  67.073  1.00  0.00    -0.263 A  
HETATM   13  C   UNL     1     -10.589  12.176  66.185  1.00  0.00    -0.255 A  
HETATM   14  C   UNL     1     -11.091  12.263  64.891  1.00  0.00    -0.356 A  
HETATM   15  O   UNL     1      -9.987  11.007  66.546  1.00  0.00    -0.200 OA 
HETATM   16  H   UNL     1      -9.922  10.277  65.943  1.00  0.00     0.000 HD 
HETATM   17  C   UNL     1     -11.704  13.444  64.492  1.00  0.00    -0.384 A  
HETATM   18  O   UNL     1     -12.213  13.590  63.235  1.00  0.00    -0.880 OA 
HETATM   19  C   UNL     1     -11.816  14.526  65.361  1.00  0.00    -0.344 A  
HETATM   20  H   UNL     1     -12.633  14.397  62.962  1.00  0.00     0.000 HD 
ENDBRANCH   8  11
ENDBRANCH   7   8
ENDBRANCH   3   7
TORSDOF 3
ENDMDL
MODEL       38
REMARK 921   NORMALIZED FREE ENERGY PREDICTED BY IDOCK:   -5.48 KCAL/MOL
REMARK 922        TOTAL FREE ENERGY PREDICTED BY IDOCK:   -6.73 KCAL/MOL
REMARK 923 INTER-LIGAND FREE ENERGY PREDICTED BY IDOCK:   -6.40 KCAL/MOL
REMARK 924 INTRA-LIGAND FREE ENERGY PREDICTED BY IDOCK:   -0.33 KCAL/MOL
REMARK 927      BINDING AFFINITY PREDICTED BY RF-SCORE:    0.00 PKD
ROOT
HETATM    1  C   UNL     1     -12.204   9.376  71.171  1.00  0.00    -0.402 C  
HETATM    2  C   UNL     1     -11.098   8.774  70.287  1.00  0.00    -0.222 C  
HETATM    3  N   UNL     1     -11.239   9.153  68.866  1.00  0.00    -0.431 NA 
HETATM    4  C   UNL     1      -9.716   9.179  70.828  1.00  0.00    -0.337 C  
HETATM    5  C   UNL     1     -11.210   7.239  70.363  1.00  0.00    -0.302 C  
HETATM    6  H   UNL     1     -12.086   8.742  68.474  1.00  0.00     0.000 HD 
ENDROOT
BRANCH   3   7
HETATM    7  C   UNL     1     -11.207  10.602  68.604  1.00  0.00    -0.278 C  
BRANCH   7   8
HETATM    8  C   UNL     1     -10.095  11.015  67.605  1.00  0.00    -0.182 C  
HETATM    9  H   UNL     1      -8.568  10.142  66.729  1.00  0.00     0.000 HD 
HETATM   10  O   UNL     1      -9.249   9.889  67.341  1.00  0.00    -0.134 OA 
BRANCH   8  11
HETATM   11  C   UNL     1     -10.711  11.541  66.319  1.00  0.00    -0.321 A  
HETATM   12  C   UNL     1     -11.727  12.512  66.370  1.00  0.00    -0.458 A  
HETATM   13  C   UNL     1     -12.346  12.941  65.193  1.00  0.00    -0.493 A  
HETATM   14  C   UNL     1     -11.977  12.426  63.955  1.00  0.00    -0.572 A  
HETATM   15  O   UNL     1     -13.345  13.868  65.213  1.00  0.00    -0.732 OA 
HETATM   16  H   UNL     1     -13.766  14.159  64.413  1.00  0.00     0.000 HD 
HETATM   17  C   UNL     1     -10.965  11.475  63.903  1.00  0.00    -0.401 A  
HETATM   18  O   UNL     1     -10.562  10.932  62.719  1.00  0.00    -0.780 OA 
HETATM   19  C   UNL     1     -10.330  11.036  65.062  1.00  0.00    -0.360 A  
HETATM   20  H   UNL     1      -9.870  10.281  62.684  1.00  0.00     0.000 HD 
ENDBRANCH   8  11
ENDBRANCH   7   8
ENDBRANCH   3   7
TORSDOF 3
ENDMDL
MODEL       39
REMARK 921   NORMALIZED FREE ENERGY PREDICTED BY IDOCK:   -5.46 KCAL/MOL
REMARK 922        TOTAL FREE ENERGY PREDICTED BY IDOCK:   -6.71 KCAL/MOL
REMARK 923 INTER-LIGAND FREE ENERGY PREDICTED BY IDOCK:   -6.46 KCAL/MOL
REMARK 924 INTRA-LIGAND FREE ENERGY PREDICTED BY IDOCK:   -0.26 KCAL/MOL
REMARK 927      BINDING AFFINITY PREDICTED BY RF-SCORE:    0.00 PKD
ROOT
HETATM    1  C   UNL     1     -13.351  12.911  72.129  1.00  0.00    -0.615 C  
HETATM    2  C   UNL     1     -12.651  14.213  71.703  1.00  0.00    -0.337 C  
HETATM    3  N   UNL     1     -11.609  13.988  70.680  1.00  0.00    -0.516 NA 
HETATM    4  C   UNL     1     -13.692  15.232  71.211  1.00  0.00    -0.570 C  
HETATM    5  C   UNL     1     -11.951  14.804  72.942  1.00  0.00    -0.236 C  
HETATM    6  H   UNL     1     -10.843  13.440  71.071  1.00  0.00     0.000 HD 
ENDROOT
BRANCH   3   7
HETATM    7  C   UNL     1     -12.090  13.373  69.431  1.00  0.00    -0.269 C  
BRANCH   7   8
HETATM    8  C   UNL     1     -12.008  14.329  68.211  1.00  0.00    -0.311 C  
HETATM    9  H   UNL     1     -11.021  15.962  67.742  1.00  0.00     0.000 HD 
HETATM   10  O   UNL     1     -11.071  15.376  68.489  1.00  0.00    -0.265 OA 
BRANCH   8  11
HETATM   11  C   UNL     1     -11.604  13.559  66.965  1.00  0.00    -0.394 A  
HETATM   12  C   UNL     1     -12.531  13.368  65.923  1.00  0.00    -0.468 A  
HETATM   13  C   UNL     1     -12.184  12.597  64.811  1.00  0.00    -0.465 A  
HETATM   14  C   UNL     1     -10.929  12.007  64.705  1.00  0.00    -0.367 A  
HETATM   15  O   UNL     1     -13.066  12.381  63.794  1.00  0.00    -0.756 OA 
HETATM   16  H   UNL     1     -12.831  11.856  63.038  1.00  0.00     0.000 HD 
HETATM   17  C   UNL     1     -10.010  12.205  65.728  1.00  0.00    -0.249 A  
HETATM   18  O   UNL     1      -8.766  11.650  65.681  1.00  0.00    -0.393 OA 
HETATM   19  C   UNL     1     -10.331  12.974  66.843  1.00  0.00    -0.246 A  
HETATM   20  H   UNL     1      -8.137  11.785  66.381  1.00  0.00     0.000 HD 
ENDBRANCH   8  11
ENDBRANCH   7   8
ENDBRANCH   3   7
TORSDOF 3
ENDMDL
MODEL       40
REMARK 921   NORMALIZED FREE ENERGY PREDICTED BY IDOCK:   -5.46 KCAL/MOL
REMARK 922        TOTAL FREE ENERGY PREDICTED BY IDOCK:   -6.71 KCAL/MOL
REMARK 923 INTER-LIGAND FREE ENERGY PREDICTED BY IDOCK:   -6.49 KCAL/MOL
REMARK 924 INTRA-LIGAND FREE ENERGY PREDICTED BY IDOCK:   -0.22 KCAL/MOL
REMARK 927      BINDING AFFINITY PREDICTED BY RF-SCORE:    0.00 PKD
ROOT
HETATM    1  C   UNL     1      -9.968   6.971  73.932  1.00  0.00    -0.370 C  
HETATM    2  C   UNL     1     -10.891   6.374  72.856  1.00  0.00    -0.256 C  
HETATM    3  N   UNL     1     -12.148   7.133  72.702  1.00  0.00    -0.507 NA 
HETATM    4  C   UNL     1     -10.140   6.276  71.517  1.00  0.00    -0.218 C  
HETATM    5  C   UNL     1     -11.272   4.946  73.295  1.00  0.00    -0.423 C  
HETATM    6  H   UNL     1     -12.713   7.056  73.548  1.00  0.00     0.000 HD 
ENDROOT
BRANCH   3   7
HETATM    7  C   UNL     1     -11.976   8.548  72.331  1.00  0.00    -0.364 C  
BRANCH   7   8
HETATM    8  C   UNL     1     -13.245   9.166  71.686  1.00  0.00    -0.377 C  
HETATM    9  H   UNL     1     -15.144   9.342  72.156  1.00  0.00     0.000 HD 
HETATM   10  O   UNL     1     -14.367   8.964  72.552  1.00  0.00    -0.579 OA 
BRANCH   8  11
HETATM   11  C   UNL     1     -13.030  10.647  71.416  1.00  0.00    -0.545 A  
HETATM   12  C   UNL     1     -12.144  11.059  70.404  1.00  0.00    -0.463 A  
HETATM   13  C   UNL     1     -11.890  12.418  70.206  1.00  0.00    -0.232 A  
HETATM   14  C   UNL     1     -12.500  13.388  70.994  1.00  0.00    -0.437 A  
HETATM   15  O   UNL     1     -11.024  12.846  69.244  1.00  0.00    -0.403 OA 
HETATM   16  H   UNL     1     -10.851  13.770  69.110  1.00  0.00     0.000 HD 
HETATM   17  C   UNL     1     -13.384  12.982  71.987  1.00  0.00    -0.492 A  
HETATM   18  O   UNL     1     -14.010  13.887  72.792  1.00  0.00    -0.697 OA 
HETATM   19  C   UNL     1     -13.657  11.634  72.199  1.00  0.00    -0.124 A  
HETATM   20  H   UNL     1     -14.614  13.610  73.471  1.00  0.00     0.000 HD 
ENDBRANCH   8  11
ENDBRANCH   7   8
ENDBRANCH   3   7
TORSDOF 3
ENDMDL
MODEL       41
REMARK 921   NORMALIZED FREE ENERGY PREDICTED BY IDOCK:   -5.41 KCAL/MOL
REMARK 922        TOTAL FREE ENERGY PREDICTED BY IDOCK:   -6.65 KCAL/MOL
REMARK 923 INTER-LIGAND FREE ENERGY PREDICTED BY IDOCK:   -6.31 KCAL/MOL
REMARK 924 INTRA-LIGAND FREE ENERGY PREDICTED BY IDOCK:   -0.34 KCAL/MOL
REMARK 927      BINDING AFFINITY PREDICTED BY RF-SCORE:    0.00 PKD
ROOT
HETATM    1  C   UNL     1      -8.485  18.319  66.397  1.00  0.00    -0.266 C  
HETATM    2  C   UNL     1     -10.021  18.393  66.417  1.00  0.00    -0.386 C  
HETATM    3  N   UNL     1     -10.653  17.268  65.698  1.00  0.00    -0.532 NA 
HETATM    4  C   UNL     1     -10.523  18.468  67.869  1.00  0.00    -0.419 C  
HETATM    5  C   UNL     1     -10.444  19.689  65.698  1.00  0.00    -0.445 C  
HETATM    6  H   UNL     1     -10.440  17.322  64.702  1.00  0.00     0.000 HD 
ENDROOT
BRANCH   3   7
HETATM    7  C   UNL     1     -10.316  15.932  66.220  1.00  0.00    -0.314 C  
BRANCH   7   8
HETATM    8  C   UNL     1     -11.491  14.924  66.111  1.00  0.00    -0.272 C  
HETATM    9  H   UNL     1     -12.063  13.532  64.849  1.00  0.00     0.000 HD 
HETATM   10  O   UNL     1     -11.344  14.149  64.915  1.00  0.00    -0.334 OA 
BRANCH   8  11
HETATM   11  C   UNL     1     -11.528  14.025  67.336  1.00  0.00    -0.373 A  
HETATM   12  C   UNL     1     -11.666  12.633  67.186  1.00  0.00    -0.438 A  
HETATM   13  C   UNL     1     -11.776  11.815  68.312  1.00  0.00    -0.310 A  
HETATM   14  C   UNL     1     -11.749  12.348  69.597  1.00  0.00    -0.377 A  
HETATM   15  O   UNL     1     -11.928  10.464  68.197  1.00  0.00    -0.756 OA 
HETATM   16  H   UNL     1     -12.002   9.908  68.963  1.00  0.00     0.000 HD 
HETATM   17  C   UNL     1     -11.601  13.721  69.746  1.00  0.00    -0.257 A  
HETATM   18  O   UNL     1     -11.571  14.302  70.979  1.00  0.00    -0.509 OA 
HETATM   19  C   UNL     1     -11.485  14.556  68.638  1.00  0.00    -0.321 A  
HETATM   20  H   UNL     1     -11.469  15.241  71.081  1.00  0.00     0.000 HD 
ENDBRANCH   8  11
ENDBRANCH   7   8
ENDBRANCH   3   7
TORSDOF 3
ENDMDL
MODEL       42
REMARK 921   NORMALIZED FREE ENERGY PREDICTED BY IDOCK:   -5.40 KCAL/MOL
REMARK 922        TOTAL FREE ENERGY PREDICTED BY IDOCK:   -6.64 KCAL/MOL
REMARK 923 INTER-LIGAND FREE ENERGY PREDICTED BY IDOCK:   -6.30 KCAL/MOL
REMARK 924 INTRA-LIGAND FREE ENERGY PREDICTED BY IDOCK:   -0.35 KCAL/MOL
REMARK 927      BINDING AFFINITY PREDICTED BY RF-SCORE:    0.00 PKD
ROOT
HETATM    1  C   UNL     1      -7.033  12.555  68.615  1.00  0.00    -0.091 C  
HETATM    2  C   UNL     1      -8.126  11.490  68.422  1.00  0.00    -0.149 C  
HETATM    3  N   UNL     1      -9.471  11.987  68.774  1.00  0.00    -0.397 NA 
HETATM    4  C   UNL     1      -8.096  10.963  66.977  1.00  0.00    -0.131 C  
HETATM    5  C   UNL     1      -7.815  10.313  69.367  1.00  0.00    -0.157 C  
HETATM    6  H   UNL     1      -9.525  12.184  69.773  1.00  0.00     0.000 HD 
ENDROOT
BRANCH   3   7
HETATM    7  C   UNL     1      -9.922  13.157  68.000  1.00  0.00    -0.233 C  
BRANCH   7   8
HETATM    8  C   UNL     1     -11.451  13.162  67.739  1.00  0.00    -0.313 C  
HETATM    9  H   UNL     1     -13.000  14.205  68.351  1.00  0.00     0.000 HD 
HETATM   10  O   UNL     1     -12.063  14.202  68.510  1.00  0.00    -0.342 OA 
BRANCH   8  11
HETATM   11  C   UNL     1     -11.732  13.351  66.257  1.00  0.00    -0.405 A  
HETATM   12  C   UNL     1     -11.831  12.232  65.410  1.00  0.00    -0.418 A  
HETATM   13  C   UNL     1     -12.014  12.409  64.036  1.00  0.00    -0.460 A  
HETATM   14  C   UNL     1     -12.105  13.680  63.478  1.00  0.00    -0.341 A  
HETATM   15  O   UNL     1     -12.097  11.345  63.188  1.00  0.00    -0.900 OA 
HETATM   16  H   UNL     1     -12.221  11.465  62.254  1.00  0.00     0.000 HD 
HETATM   17  C   UNL     1     -12.019  14.784  64.316  1.00  0.00    -0.368 A  
HETATM   18  O   UNL     1     -12.098  16.054  63.827  1.00  0.00    -1.318 OA 
HETATM   19  C   UNL     1     -11.841  14.633  65.688  1.00  0.00    -0.273 A  
HETATM   20  H   UNL     1     -12.039  16.810  64.400  1.00  0.00     0.000 HD 
ENDBRANCH   8  11
ENDBRANCH   7   8
ENDBRANCH   3   7
TORSDOF 3
ENDMDL
MODEL       43
REMARK 921   NORMALIZED FREE ENERGY PREDICTED BY IDOCK:   -5.39 KCAL/MOL
REMARK 922        TOTAL FREE ENERGY PREDICTED BY IDOCK:   -6.63 KCAL/MOL
REMARK 923 INTER-LIGAND FREE ENERGY PREDICTED BY IDOCK:   -6.34 KCAL/MOL
REMARK 924 INTRA-LIGAND FREE ENERGY PREDICTED BY IDOCK:   -0.28 KCAL/MOL
REMARK 927      BINDING AFFINITY PREDICTED BY RF-SCORE:    0.00 PKD
ROOT
HETATM    1  C   UNL     1      -9.214   8.070  72.413  1.00  0.00    -0.264 C  
HETATM    2  C   UNL     1     -10.412   7.162  72.738  1.00  0.00    -0.244 C  
HETATM    3  N   UNL     1     -11.689   7.903  72.784  1.00  0.00    -0.580 NA 
HETATM    4  C   UNL     1     -10.484   6.007  71.724  1.00  0.00    -0.268 C  
HETATM    5  C   UNL     1     -10.186   6.556  74.136  1.00  0.00    -0.380 C  
HETATM    6  H   UNL     1     -11.688   8.558  73.566  1.00  0.00     0.000 HD 
ENDROOT
BRANCH   3   7
HETATM    7  C   UNL     1     -12.049   8.598  71.537  1.00  0.00    -0.316 C  
BRANCH   7   8
HETATM    8  C   UNL     1     -13.342   9.446  71.664  1.00  0.00    -0.404 C  
HETATM    9  H   UNL     1     -14.747   9.711  73.012  1.00  0.00     0.000 HD 
HETATM   10  O   UNL     1     -13.955   9.192  72.934  1.00  0.00    -0.427 OA 
BRANCH   8  11
HETATM   11  C   UNL     1     -13.021  10.923  71.505  1.00  0.00    -0.556 A  
HETATM   12  C   UNL     1     -13.654  11.875  72.326  1.00  0.00    -0.109 A  
HETATM   13  C   UNL     1     -13.416  13.237  72.129  1.00  0.00    -0.562 A  
HETATM   14  C   UNL     1     -12.556  13.683  71.131  1.00  0.00    -0.452 A  
HETATM   15  O   UNL     1     -14.028  14.183  72.898  1.00  0.00    -0.602 OA 
HETATM   16  H   UNL     1     -13.867  15.109  72.764  1.00  0.00     0.000 HD 
HETATM   17  C   UNL     1     -11.922  12.743  70.329  1.00  0.00    -0.280 A  
HETATM   18  O   UNL     1     -11.071  13.119  69.332  1.00  0.00    -0.411 OA 
HETATM   19  C   UNL     1     -12.139  11.380  70.508  1.00  0.00    -0.487 A  
HETATM   20  H   UNL     1     -10.637  12.477  68.783  1.00  0.00     0.000 HD 
ENDBRANCH   8  11
ENDBRANCH   7   8
ENDBRANCH   3   7
TORSDOF 3
ENDMDL
MODEL       44
REMARK 921   NORMALIZED FREE ENERGY PREDICTED BY IDOCK:   -5.36 KCAL/MOL
REMARK 922        TOTAL FREE ENERGY PREDICTED BY IDOCK:   -6.60 KCAL/MOL
REMARK 923 INTER-LIGAND FREE ENERGY PREDICTED BY IDOCK:   -6.30 KCAL/MOL
REMARK 924 INTRA-LIGAND FREE ENERGY PREDICTED BY IDOCK:   -0.30 KCAL/MOL
REMARK 927      BINDING AFFINITY PREDICTED BY RF-SCORE:    0.00 PKD
ROOT
HETATM    1  C   UNL     1     -10.944  15.462  68.682  1.00  0.00    -0.273 C  
HETATM    2  C   UNL     1     -10.643  14.192  67.869  1.00  0.00    -0.243 C  
HETATM    3  N   UNL     1     -10.496  12.994  68.721  1.00  0.00    -0.384 NA 
HETATM    4  C   UNL     1     -11.736  13.978  66.807  1.00  0.00    -0.430 C  
HETATM    5  C   UNL     1      -9.302  14.399  67.140  1.00  0.00    -0.226 C  
HETATM    6  H   UNL     1      -9.669  13.081  69.312  1.00  0.00     0.000 HD 
ENDROOT
BRANCH   3   7
HETATM    7  C   UNL     1     -11.676  12.667  69.541  1.00  0.00    -0.308 C  
BRANCH   7   8
HETATM    8  C   UNL     1     -12.274  11.273  69.216  1.00  0.00    -0.222 C  
HETATM    9  H   UNL     1     -11.988   9.877  67.864  1.00  0.00     0.000 HD 
HETATM   10  O   UNL     1     -11.621  10.731  68.062  1.00  0.00    -0.470 OA 
BRANCH   8  11
HETATM   11  C   UNL     1     -12.123  10.344  70.409  1.00  0.00    -0.402 A  
HETATM   12  C   UNL     1     -10.875   9.762  70.696  1.00  0.00    -0.396 A  
HETATM   13  C   UNL     1     -10.753   8.850  71.747  1.00  0.00    -0.362 A  
HETATM   14  C   UNL     1     -11.848   8.500  72.530  1.00  0.00    -0.398 A  
HETATM   15  O   UNL     1      -9.559   8.257  72.038  1.00  0.00    -0.197 OA 
HETATM   16  H   UNL     1      -9.476   7.637  72.752  1.00  0.00     0.000 HD 
HETATM   17  C   UNL     1     -13.078   9.084  72.254  1.00  0.00    -0.445 A  
HETATM   18  O   UNL     1     -14.188   8.778  72.985  1.00  0.00    -1.075 OA 
HETATM   19  C   UNL     1     -13.223   9.999  71.215  1.00  0.00    -0.469 A  
HETATM   20  H   UNL     1     -15.029   9.177  72.797  1.00  0.00     0.000 HD 
ENDBRANCH   8  11
ENDBRANCH   7   8
ENDBRANCH   3   7
TORSDOF 3
ENDMDL
MODEL       45
REMARK 921   NORMALIZED FREE ENERGY PREDICTED BY IDOCK:   -5.35 KCAL/MOL
REMARK 922        TOTAL FREE ENERGY PREDICTED BY IDOCK:   -6.59 KCAL/MOL
REMARK 923 INTER-LIGAND FREE ENERGY PREDICTED BY IDOCK:   -6.25 KCAL/MOL
REMARK 924 INTRA-LIGAND FREE ENERGY PREDICTED BY IDOCK:   -0.34 KCAL/MOL
REMARK 927      BINDING AFFINITY PREDICTED BY RF-SCORE:    0.00 PKD
ROOT
HETATM    1  C   UNL     1     -11.861  11.025  70.473  1.00  0.00    -0.464 C  
HETATM    2  C   UNL     1     -11.109  10.342  69.318  1.00  0.00    -0.245 C  
HETATM    3  N   UNL     1     -11.762  10.556  68.011  1.00  0.00    -0.750 NA 
HETATM    4  C   UNL     1      -9.648  10.822  69.287  1.00  0.00    -0.121 C  
HETATM    5  C   UNL     1     -11.108   8.824  69.583  1.00  0.00    -0.038 C  
HETATM    6  H   UNL     1     -12.671  10.094  67.990  1.00  0.00     0.000 HD 
ENDROOT
BRANCH   3   7
HETATM    7  C   UNL     1     -11.900  11.967  67.611  1.00  0.00    -0.224 C  
BRANCH   7   8
HETATM    8  C   UNL     1     -11.347  12.253  66.190  1.00  0.00    -0.353 C  
HETATM    9  H   UNL     1     -11.988  12.055  64.343  1.00  0.00     0.000 HD 
HETATM   10  O   UNL     1     -12.326  11.880  65.213  1.00  0.00    -0.344 OA 
BRANCH   8  11
HETATM   11  C   UNL     1     -10.980  13.722  66.053  1.00  0.00    -0.284 A  
HETATM   12  C   UNL     1     -11.511  14.487  64.998  1.00  0.00    -0.382 A  
HETATM   13  C   UNL     1     -11.116  15.816  64.829  1.00  0.00    -0.400 A  
HETATM   14  C   UNL     1     -10.201  16.412  65.690  1.00  0.00    -0.349 A  
HETATM   15  O   UNL     1     -11.601  16.576  63.805  1.00  0.00    -1.617 OA 
HETATM   16  H   UNL     1     -11.332  17.479  63.690  1.00  0.00     0.000 HD 
HETATM   17  C   UNL     1      -9.686  15.661  66.739  1.00  0.00    -0.241 A  
HETATM   18  O   UNL     1      -8.783  16.189  67.613  1.00  0.00    -0.175 OA 
HETATM   19  C   UNL     1     -10.068  14.336  66.931  1.00  0.00    -0.264 A  
HETATM   20  H   UNL     1      -8.431  15.676  68.331  1.00  0.00     0.000 HD 
ENDBRANCH   8  11
ENDBRANCH   7   8
ENDBRANCH   3   7
TORSDOF 3
ENDMDL
MODEL       46
REMARK 921   NORMALIZED FREE ENERGY PREDICTED BY IDOCK:   -5.34 KCAL/MOL
REMARK 922        TOTAL FREE ENERGY PREDICTED BY IDOCK:   -6.58 KCAL/MOL
REMARK 923 INTER-LIGAND FREE ENERGY PREDICTED BY IDOCK:   -6.05 KCAL/MOL
REMARK 924 INTRA-LIGAND FREE ENERGY PREDICTED BY IDOCK:   -0.52 KCAL/MOL
REMARK 927      BINDING AFFINITY PREDICTED BY RF-SCORE:    0.00 PKD
ROOT
HETATM    1  C   UNL     1      -9.240  11.752  66.567  1.00  0.00    -0.206 C  
HETATM    2  C   UNL     1      -9.677  10.704  65.530  1.00  0.00    -0.237 C  
HETATM    3  N   UNL     1     -10.900  11.100  64.803  1.00  0.00    -0.256 NA 
HETATM    4  C   UNL     1      -8.524  10.422  64.551  1.00  0.00    -0.172 C  
HETATM    5  C   UNL     1      -9.997   9.396  66.280  1.00  0.00    -0.353 C  
HETATM    6  H   UNL     1     -11.696  11.128  65.440  1.00  0.00     0.000 HD 
ENDROOT
BRANCH   3   7
HETATM    7  C   UNL     1     -10.797  12.368  64.061  1.00  0.00    -0.397 C  
BRANCH   7   8
HETATM    8  C   UNL     1     -11.932  13.369  64.407  1.00  0.00    -0.411 C  
HETATM    9  H   UNL     1     -13.774  13.259  65.081  1.00  0.00     0.000 HD 
HETATM   10  O   UNL     1     -13.080  12.647  64.869  1.00  0.00    -0.850 OA 
BRANCH   8  11
HETATM   11  C   UNL     1     -11.457  14.359  65.458  1.00  0.00    -0.340 A  
HETATM   12  C   UNL     1     -11.984  14.310  66.762  1.00  0.00    -0.462 A  
HETATM   13  C   UNL     1     -11.603  15.267  67.706  1.00  0.00    -0.265 A  
HETATM   14  C   UNL     1     -10.705  16.279  67.387  1.00  0.00    -0.287 A  
HETATM   15  O   UNL     1     -12.109  15.254  68.972  1.00  0.00    -0.516 OA 
HETATM   16  H   UNL     1     -11.852  15.905  69.614  1.00  0.00     0.000 HD 
HETATM   17  C   UNL     1     -10.177  16.321  66.102  1.00  0.00    -0.346 A  
HETATM   18  O   UNL     1      -9.294  17.291  65.730  1.00  0.00    -0.514 OA 
HETATM   19  C   UNL     1     -10.536  15.376  65.146  1.00  0.00    -0.439 A  
HETATM   20  H   UNL     1      -8.932  17.319  64.851  1.00  0.00     0.000 HD 
ENDBRANCH   8  11
ENDBRANCH   7   8
ENDBRANCH   3   7
TORSDOF 3
ENDMDL
MODEL       47
REMARK 921   NORMALIZED FREE ENERGY PREDICTED BY IDOCK:   -5.33 KCAL/MOL
REMARK 922        TOTAL FREE ENERGY PREDICTED BY IDOCK:   -6.56 KCAL/MOL
REMARK 923 INTER-LIGAND FREE ENERGY PREDICTED BY IDOCK:   -6.36 KCAL/MOL
REMARK 924 INTRA-LIGAND FREE ENERGY PREDICTED BY IDOCK:   -0.21 KCAL/MOL
REMARK 927      BINDING AFFINITY PREDICTED BY RF-SCORE:    0.00 PKD
ROOT
HETATM    1  C   UNL     1     -11.464  15.071  71.431  1.00  0.00    -0.369 C  
HETATM    2  C   UNL     1     -12.602  14.220  70.844  1.00  0.00    -0.356 C  
HETATM    3  N   UNL     1     -12.472  14.024  69.386  1.00  0.00    -0.451 NA 
HETATM    4  C   UNL     1     -12.676  12.868  71.574  1.00  0.00    -0.339 C  
HETATM    5  C   UNL     1     -13.929  14.966  71.086  1.00  0.00    -0.403 C  
HETATM    6  H   UNL     1     -12.585  14.914  68.899  1.00  0.00     0.000 HD 
ENDROOT
BRANCH   3   7
HETATM    7  C   UNL     1     -11.226  13.364  68.958  1.00  0.00    -0.275 C  
BRANCH   7   8
HETATM    8  C   UNL     1     -11.076  13.291  67.415  1.00  0.00    -0.278 C  
HETATM    9  H   UNL     1     -12.140  12.612  65.909  1.00  0.00     0.000 HD 
HETATM   10  O   UNL     1     -12.231  12.657  66.854  1.00  0.00    -0.489 OA 
BRANCH   8  11
HETATM   11  C   UNL     1     -10.890  14.685  66.838  1.00  0.00    -0.305 A  
HETATM   12  C   UNL     1     -10.338  15.708  67.629  1.00  0.00    -0.275 A  
HETATM   13  C   UNL     1     -10.236  17.006  67.124  1.00  0.00    -0.306 A  
HETATM   14  C   UNL     1     -10.670  17.316  65.839  1.00  0.00    -0.126 A  
HETATM   15  O   UNL     1      -9.721  18.022  67.874  1.00  0.00    -0.279 OA 
HETATM   16  H   UNL     1      -9.651  18.905  67.530  1.00  0.00     0.000 HD 
HETATM   17  C   UNL     1     -11.204  16.303  65.053  1.00  0.00    -0.176 A  
HETATM   18  O   UNL     1     -11.649  16.547  63.788  1.00  0.00    -1.617 OA 
HETATM   19  C   UNL     1     -11.311  15.001  65.533  1.00  0.00    -0.312 A  
HETATM   20  H   UNL     1     -12.014  15.854  63.249  1.00  0.00     0.000 HD 
ENDBRANCH   8  11
ENDBRANCH   7   8
ENDBRANCH   3   7
TORSDOF 3
ENDMDL
MODEL       48
REMARK 921   NORMALIZED FREE ENERGY PREDICTED BY IDOCK:   -5.31 KCAL/MOL
REMARK 922        TOTAL FREE ENERGY PREDICTED BY IDOCK:   -6.54 KCAL/MOL
REMARK 923 INTER-LIGAND FREE ENERGY PREDICTED BY IDOCK:   -6.33 KCAL/MOL
REMARK 924 INTRA-LIGAND FREE ENERGY PREDICTED BY IDOCK:   -0.21 KCAL/MOL
REMARK 927      BINDING AFFINITY PREDICTED BY RF-SCORE:    0.00 PKD
ROOT
HETATM    1  C   UNL     1     -11.225   7.827  70.421  1.00  0.00    -0.246 C  
HETATM    2  C   UNL     1     -11.990   8.136  71.719  1.00  0.00    -0.305 C  
HETATM    3  N   UNL     1     -12.179   9.585  71.935  1.00  0.00    -0.374 NA 
HETATM    4  C   UNL     1     -13.342   7.401  71.719  1.00  0.00    -0.373 C  
HETATM    5  C   UNL     1     -11.157   7.604  72.901  1.00  0.00    -0.448 C  
HETATM    6  H   UNL     1     -11.279  10.038  72.093  1.00  0.00     0.000 HD 
ENDROOT
BRANCH   3   7
HETATM    7  C   UNL     1     -12.918  10.280  70.867  1.00  0.00    -0.371 C  
BRANCH   7   8
HETATM    8  C   UNL     1     -12.018  11.212  70.013  1.00  0.00    -0.367 C  
HETATM    9  H   UNL     1     -11.714  11.540  68.100  1.00  0.00     0.000 HD 
HETATM   10  O   UNL     1     -12.264  10.969  68.623  1.00  0.00    -0.571 OA 
BRANCH   8  11
HETATM   11  C   UNL     1     -12.286  12.667  70.362  1.00  0.00    -0.315 A  
HETATM   12  C   UNL     1     -12.874  12.999  71.597  1.00  0.00    -0.376 A  
HETATM   13  C   UNL     1     -13.189  14.328  71.887  1.00  0.00    -0.375 A  
HETATM   14  C   UNL     1     -12.931  15.347  70.976  1.00  0.00    -0.556 A  
HETATM   15  O   UNL     1     -13.775  14.678  73.068  1.00  0.00    -0.555 OA 
HETATM   16  H   UNL     1     -13.989  15.581  73.266  1.00  0.00     0.000 HD 
HETATM   17  C   UNL     1     -12.340  15.021  69.762  1.00  0.00    -0.240 A  
HETATM   18  O   UNL     1     -12.065  15.975  68.828  1.00  0.00    -0.463 OA 
HETATM   19  C   UNL     1     -12.012  13.704  69.452  1.00  0.00    -0.394 A  
HETATM   20  H   UNL     1     -11.660  15.753  67.997  1.00  0.00     0.000 HD 
ENDBRANCH   8  11
ENDBRANCH   7   8
ENDBRANCH   3   7
TORSDOF 3
ENDMDL
MODEL       49
REMARK 921   NORMALIZED FREE ENERGY PREDICTED BY IDOCK:   -5.30 KCAL/MOL
REMARK 922        TOTAL FREE ENERGY PREDICTED BY IDOCK:   -6.53 KCAL/MOL
REMARK 923 INTER-LIGAND FREE ENERGY PREDICTED BY IDOCK:   -6.28 KCAL/MOL
REMARK 924 INTRA-LIGAND FREE ENERGY PREDICTED BY IDOCK:   -0.25 KCAL/MOL
REMARK 927      BINDING AFFINITY PREDICTED BY RF-SCORE:    0.00 PKD
ROOT
HETATM    1  C   UNL     1      -6.843  18.828  65.709  1.00  0.00    -0.305 C  
HETATM    2  C   UNL     1      -6.787  18.004  67.006  1.00  0.00    -0.188 C  
HETATM    3  N   UNL     1      -8.109  17.480  67.404  1.00  0.00    -0.200 NA 
HETATM    4  C   UNL     1      -5.767  16.861  66.857  1.00  0.00    -0.199 C  
HETATM    5  C   UNL     1      -6.304  18.930  68.139  1.00  0.00    -0.231 C  
HETATM    6  H   UNL     1      -8.732  18.248  67.655  1.00  0.00     0.000 HD 
ENDROOT
BRANCH   3   7
HETATM    7  C   UNL     1      -8.755  16.606  66.409  1.00  0.00    -0.310 C  
BRANCH   7   8
HETATM    8  C   UNL     1     -10.298  16.765  66.371  1.00  0.00    -0.306 C  
HETATM    9  H   UNL     1     -11.592  17.895  65.418  1.00  0.00     0.000 HD 
HETATM   10  O   UNL     1     -10.648  17.798  65.442  1.00  0.00    -0.659 OA 
BRANCH   8  11
HETATM   11  C   UNL     1     -10.953  15.448  65.987  1.00  0.00    -0.286 A  
HETATM   12  C   UNL     1     -11.312  15.203  64.649  1.00  0.00    -0.362 A  
HETATM   13  C   UNL     1     -11.982  14.025  64.309  1.00  0.00    -0.435 A  
HETATM   14  C   UNL     1     -12.306  13.075  65.272  1.00  0.00    -0.537 A  
HETATM   15  O   UNL     1     -12.357  13.767  63.023  1.00  0.00    -1.089 OA 
HETATM   16  H   UNL     1     -12.812  12.967  62.792  1.00  0.00     0.000 HD 
HETATM   17  C   UNL     1     -11.941  13.312  66.591  1.00  0.00    -0.388 A  
HETATM   18  O   UNL     1     -12.234  12.419  67.579  1.00  0.00    -0.442 OA 
HETATM   19  C   UNL     1     -11.269  14.476  66.953  1.00  0.00    -0.340 A  
HETATM   20  H   UNL     1     -11.984  12.581  68.482  1.00  0.00     0.000 HD 
ENDBRANCH   8  11
ENDBRANCH   7   8
ENDBRANCH   3   7
TORSDOF 3
ENDMDL
MODEL       50
REMARK 921   NORMALIZED FREE ENERGY PREDICTED BY IDOCK:   -5.30 KCAL/MOL
REMARK 922        TOTAL FREE ENERGY PREDICTED BY IDOCK:   -6.53 KCAL/MOL
REMARK 923 INTER-LIGAND FREE ENERGY PREDICTED BY IDOCK:   -6.35 KCAL/MOL
REMARK 924 INTRA-LIGAND FREE ENERGY PREDICTED BY IDOCK:   -0.17 KCAL/MOL
REMARK 927      BINDING AFFINITY PREDICTED BY RF-SCORE:    0.00 PKD
ROOT
HETATM    1  C   UNL     1      -7.506  18.381  68.446  1.00  0.00    -0.300 C  
HETATM    2  C   UNL     1      -8.443  18.961  67.373  1.00  0.00    -0.276 C  
HETATM    3  N   UNL     1      -8.579  18.075  66.199  1.00  0.00    -0.491 NA 
HETATM    4  C   UNL     1      -9.818  19.271  67.989  1.00  0.00    -0.454 C  
HETATM    5  C   UNL     1      -7.834  20.286  66.874  1.00  0.00    -0.351 C  
HETATM    6  H   UNL     1      -7.690  18.005  65.705  1.00  0.00     0.000 HD 
ENDROOT
BRANCH   3   7
HETATM    7  C   UNL     1      -9.104  16.730  66.495  1.00  0.00    -0.273 C  
BRANCH   7   8
HETATM    8  C   UNL     1     -10.597  16.562  66.107  1.00  0.00    -0.236 C  
HETATM    9  H   UNL     1     -11.688  16.804  64.491  1.00  0.00     0.000 HD 
HETATM   10  O   UNL     1     -10.774  16.907  64.729  1.00  0.00    -0.758 OA 
BRANCH   8  11
HETATM   11  C   UNL     1     -11.051  15.135  66.370  1.00  0.00    -0.312 A  
HETATM   12  C   UNL     1     -10.583  14.443  67.502  1.00  0.00    -0.265 A  
HETATM   13  C   UNL     1     -10.941  13.108  67.703  1.00  0.00    -0.262 A  
HETATM   14  C   UNL     1     -11.760  12.436  66.802  1.00  0.00    -0.430 A  
HETATM   15  O   UNL     1     -10.489  12.407  68.782  1.00  0.00    -0.296 OA 
HETATM   16  H   UNL     1     -10.732  11.499  68.919  1.00  0.00     0.000 HD 
HETATM   17  C   UNL     1     -12.232  13.123  65.690  1.00  0.00    -0.466 A  
HETATM   18  O   UNL     1     -13.035  12.517  64.770  1.00  0.00    -0.827 OA 
HETATM   19  C   UNL     1     -11.893  14.455  65.471  1.00  0.00    -0.357 A  
HETATM   20  H   UNL     1     -13.358  12.987  64.010  1.00  0.00     0.000 HD 
ENDBRANCH   8  11
ENDBRANCH   7   8
ENDBRANCH   3   7
TORSDOF 3
ENDMDL
MODEL       51
REMARK 921   NORMALIZED FREE ENERGY PREDICTED BY IDOCK:   -5.30 KCAL/MOL
REMARK 922        TOTAL FREE ENERGY PREDICTED BY IDOCK:   -6.52 KCAL/MOL
REMARK 923 INTER-LIGAND FREE ENERGY PREDICTED BY IDOCK:   -6.16 KCAL/MOL
REMARK 924 INTRA-LIGAND FREE ENERGY PREDICTED BY IDOCK:   -0.36 KCAL/MOL
REMARK 927      BINDING AFFINITY PREDICTED BY RF-SCORE:    0.00 PKD
ROOT
HETATM    1  C   UNL     1     -10.471   9.155  68.435  1.00  0.00    -0.241 C  
HETATM    2  C   UNL     1     -10.245   9.940  69.739  1.00  0.00    -0.246 C  
HETATM    3  N   UNL     1     -10.061  11.387  69.505  1.00  0.00    -0.393 NA 
HETATM    4  C   UNL     1     -11.408   9.686  70.713  1.00  0.00    -0.409 C  
HETATM    5  C   UNL     1      -8.952   9.416  70.392  1.00  0.00    -0.294 C  
HETATM    6  H   UNL     1      -9.196  11.553  68.991  1.00  0.00     0.000 HD 
ENDROOT
BRANCH   3   7
HETATM    7  C   UNL     1     -11.189  12.055  68.833  1.00  0.00    -0.261 C  
BRANCH   7   8
HETATM    8  C   UNL     1     -11.166  13.598  68.996  1.00  0.00    -0.273 C  
HETATM    9  H   UNL     1     -11.858  15.147  68.007  1.00  0.00     0.000 HD 
HETATM   10  O   UNL     1     -11.872  14.203  67.907  1.00  0.00    -0.345 OA 
BRANCH   8  11
HETATM   11  C   UNL     1     -11.784  13.995  70.327  1.00  0.00    -0.308 A  
HETATM   12  C   UNL     1     -12.713  13.145  70.955  1.00  0.00    -0.361 A  
HETATM   13  C   UNL     1     -13.337  13.544  72.140  1.00  0.00    -0.500 A  
HETATM   14  C   UNL     1     -13.059  14.775  72.723  1.00  0.00    -0.569 A  
HETATM   15  O   UNL     1     -14.253  12.748  72.762  1.00  0.00    -0.630 OA 
HETATM   16  H   UNL     1     -14.678  13.019  73.567  1.00  0.00     0.000 HD 
HETATM   17  C   UNL     1     -12.133  15.610  72.109  1.00  0.00    -0.448 A  
HETATM   18  O   UNL     1     -11.821  16.830  72.632  1.00  0.00    -0.510 OA 
HETATM   19  C   UNL     1     -11.495  15.232  70.931  1.00  0.00    -0.377 A  
HETATM   20  H   UNL     1     -11.188  17.401  72.212  1.00  0.00     0.000 HD 
ENDBRANCH   8  11
ENDBRANCH   7   8
ENDBRANCH   3   7
TORSDOF 3
ENDMDL
MODEL       52
REMARK 921   NORMALIZED FREE ENERGY PREDICTED BY IDOCK:   -5.28 KCAL/MOL
REMARK 922        TOTAL FREE ENERGY PREDICTED BY IDOCK:   -6.51 KCAL/MOL
REMARK 923 INTER-LIGAND FREE ENERGY PREDICTED BY IDOCK:   -6.21 KCAL/MOL
REMARK 924 INTRA-LIGAND FREE ENERGY PREDICTED BY IDOCK:   -0.29 KCAL/MOL
REMARK 927      BINDING AFFINITY PREDICTED BY RF-SCORE:    0.00 PKD
ROOT
HETATM    1  C   UNL     1     -10.050  10.291  68.132  1.00  0.00    -0.175 C  
HETATM    2  C   UNL     1     -10.739  11.646  67.900  1.00  0.00    -0.202 C  
HETATM    3  N   UNL     1     -11.953  11.814  68.723  1.00  0.00    -0.366 NA 
HETATM    4  C   UNL     1      -9.743  12.791  68.153  1.00  0.00    -0.223 C  
HETATM    5  C   UNL     1     -11.176  11.712  66.424  1.00  0.00    -0.349 C  
HETATM    6  H   UNL     1     -12.670  11.147  68.435  1.00  0.00     0.000 HD 
ENDROOT
BRANCH   3   7
HETATM    7  C   UNL     1     -11.734  11.727  70.177  1.00  0.00    -0.269 C  
BRANCH   7   8
HETATM    8  C   UNL     1     -12.908  12.315  71.005  1.00  0.00    -0.160 C  
HETATM    9  H   UNL     1     -13.880  11.832  72.642  1.00  0.00     0.000 HD 
HETATM   10  O   UNL     1     -13.162  11.472  72.135  1.00  0.00    -0.505 OA 
BRANCH   8  11
HETATM   11  C   UNL     1     -12.581  13.731  71.450  1.00  0.00    -0.433 A  
HETATM   12  C   UNL     1     -13.035  14.202  72.696  1.00  0.00    -0.505 A  
HETATM   13  C   UNL     1     -12.799  15.526  73.072  1.00  0.00    -0.472 A  
HETATM   14  C   UNL     1     -12.116  16.403  72.236  1.00  0.00    -0.462 A  
HETATM   15  O   UNL     1     -13.242  16.015  74.265  1.00  0.00    -0.881 OA 
HETATM   16  H   UNL     1     -13.082  16.915  74.521  1.00  0.00     0.000 HD 
HETATM   17  C   UNL     1     -11.658  15.935  71.011  1.00  0.00    -0.424 A  
HETATM   18  O   UNL     1     -10.985  16.748  70.148  1.00  0.00    -0.423 OA 
HETATM   19  C   UNL     1     -11.876  14.618  70.616  1.00  0.00    -0.367 A  
HETATM   20  H   UNL     1     -10.671  16.429  69.309  1.00  0.00     0.000 HD 
ENDBRANCH   8  11
ENDBRANCH   7   8
ENDBRANCH   3   7
TORSDOF 3
ENDMDL
MODEL       53
REMARK 921   NORMALIZED FREE ENERGY PREDICTED BY IDOCK:   -5.25 KCAL/MOL
REMARK 922        TOTAL FREE ENERGY PREDICTED BY IDOCK:   -6.46 KCAL/MOL
REMARK 923 INTER-LIGAND FREE ENERGY PREDICTED BY IDOCK:   -6.19 KCAL/MOL
REMARK 924 INTRA-LIGAND FREE ENERGY PREDICTED BY IDOCK:   -0.27 KCAL/MOL
REMARK 927      BINDING AFFINITY PREDICTED BY RF-SCORE:    0.00 PKD
ROOT
HETATM    1  C   UNL     1     -11.660  12.056  65.680  1.00  0.00    -0.356 C  
HETATM    2  C   UNL     1     -11.456  12.558  64.240  1.00  0.00    -0.362 C  
HETATM    3  N   UNL     1     -11.422  14.032  64.153  1.00  0.00    -0.608 NA 
HETATM    4  C   UNL     1     -10.176  11.944  63.647  1.00  0.00    -0.466 C  
HETATM    5  C   UNL     1     -12.652  12.079  63.395  1.00  0.00    -0.592 C  
HETATM    6  H   UNL     1     -12.333  14.421  64.398  1.00  0.00     0.000 HD 
ENDROOT
BRANCH   3   7
HETATM    7  C   UNL     1     -10.363  14.676  64.948  1.00  0.00    -0.350 C  
BRANCH   7   8
HETATM    8  C   UNL     1     -10.908  15.740  65.938  1.00  0.00    -0.268 C  
HETATM    9  H   UNL     1     -11.544  15.767  67.797  1.00  0.00     0.000 HD 
HETATM   10  O   UNL     1     -11.210  15.116  67.191  1.00  0.00    -0.335 OA 
BRANCH   8  11
HETATM   11  C   UNL     1      -9.893  16.857  66.121  1.00  0.00    -0.318 A  
HETATM   12  C   UNL     1     -10.316  18.198  66.142  1.00  0.00    -0.394 A  
HETATM   13  C   UNL     1      -9.377  19.227  66.235  1.00  0.00    -0.339 A  
HETATM   14  C   UNL     1      -8.015  18.956  66.311  1.00  0.00    -0.291 A  
HETATM   15  O   UNL     1      -9.756  20.537  66.241  1.00  0.00    -0.646 OA 
HETATM   16  H   UNL     1      -9.117  21.237  66.304  1.00  0.00     0.000 HD 
HETATM   17  C   UNL     1      -7.597  17.631  66.303  1.00  0.00    -0.298 A  
HETATM   18  O   UNL     1      -6.276  17.303  66.372  1.00  0.00    -0.202 OA 
HETATM   19  C   UNL     1      -8.515  16.589  66.216  1.00  0.00    -0.363 A  
HETATM   20  H   UNL     1      -5.990  16.397  66.366  1.00  0.00     0.000 HD 
ENDBRANCH   8  11
ENDBRANCH   7   8
ENDBRANCH   3   7
TORSDOF 3
ENDMDL
MODEL       54
REMARK 921   NORMALIZED FREE ENERGY PREDICTED BY IDOCK:   -5.24 KCAL/MOL
REMARK 922        TOTAL FREE ENERGY PREDICTED BY IDOCK:   -6.45 KCAL/MOL
REMARK 923 INTER-LIGAND FREE ENERGY PREDICTED BY IDOCK:   -6.10 KCAL/MOL
REMARK 924 INTRA-LIGAND FREE ENERGY PREDICTED BY IDOCK:   -0.35 KCAL/MOL
REMARK 927      BINDING AFFINITY PREDICTED BY RF-SCORE:    0.00 PKD
ROOT
HETATM    1  C   UNL     1     -11.236  10.577  70.403  1.00  0.00    -0.378 C  
HETATM    2  C   UNL     1     -10.759   9.948  69.082  1.00  0.00    -0.224 C  
HETATM    3  N   UNL     1     -11.580  10.366  67.927  1.00  0.00    -0.693 NA 
HETATM    4  C   UNL     1      -9.275  10.280  68.849  1.00  0.00    -0.176 C  
HETATM    5  C   UNL     1     -10.893   8.418  69.207  1.00  0.00    -0.069 C  
HETATM    6  H   UNL     1     -12.528  10.001  68.018  1.00  0.00     0.000 HD 
ENDROOT
BRANCH   3   7
HETATM    7  C   UNL     1     -11.613  11.818  67.682  1.00  0.00    -0.294 C  
BRANCH   7   8
HETATM    8  C   UNL     1     -11.287  12.195  66.213  1.00  0.00    -0.357 C  
HETATM    9  H   UNL     1     -12.255  12.244  64.504  1.00  0.00     0.000 HD 
HETATM   10  O   UNL     1     -12.455  12.013  65.403  1.00  0.00    -0.421 OA 
BRANCH   8  11
HETATM   11  C   UNL     1     -10.794  13.630  66.135  1.00  0.00    -0.279 A  
HETATM   12  C   UNL     1      -9.932  14.135  67.126  1.00  0.00    -0.255 A  
HETATM   13  C   UNL     1      -9.539  15.475  67.095  1.00  0.00    -0.222 A  
HETATM   14  C   UNL     1      -9.981  16.334  66.096  1.00  0.00    -0.355 A  
HETATM   15  O   UNL     1      -8.718  15.996  68.052  1.00  0.00    -0.168 OA 
HETATM   16  H   UNL     1      -8.451  16.907  68.032  1.00  0.00     0.000 HD 
HETATM   17  C   UNL     1     -10.823  15.833  65.110  1.00  0.00    -0.428 A  
HETATM   18  O   UNL     1     -11.291  16.628  64.106  1.00  0.00    -1.419 OA 
HETATM   19  C   UNL     1     -11.224  14.501  65.117  1.00  0.00    -0.367 A  
HETATM   20  H   UNL     1     -11.867  16.286  63.432  1.00  0.00     0.000 HD 
ENDBRANCH   8  11
ENDBRANCH   7   8
ENDBRANCH   3   7
TORSDOF 3
ENDMDL
MODEL       55
REMARK 921   NORMALIZED FREE ENERGY PREDICTED BY IDOCK:   -5.23 KCAL/MOL
REMARK 922        TOTAL FREE ENERGY PREDICTED BY IDOCK:   -6.45 KCAL/MOL
REMARK 923 INTER-LIGAND FREE ENERGY PREDICTED BY IDOCK:   -6.07 KCAL/MOL
REMARK 924 INTRA-LIGAND FREE ENERGY PREDICTED BY IDOCK:   -0.37 KCAL/MOL
REMARK 927      BINDING AFFINITY PREDICTED BY RF-SCORE:    0.00 PKD
ROOT
HETATM    1  C   UNL     1     -12.172  12.297  63.335  1.00  0.00    -0.630 C  
HETATM    2  C   UNL     1     -10.783  12.286  63.995  1.00  0.00    -0.396 C  
HETATM    3  N   UNL     1     -10.302  13.643  64.327  1.00  0.00    -0.697 NA 
HETATM    4  C   UNL     1     -10.802  11.390  65.245  1.00  0.00    -0.297 C  
HETATM    5  C   UNL     1      -9.783  11.682  62.990  1.00  0.00    -0.331 C  
HETATM    6  H   UNL     1     -10.140  14.178  63.474  1.00  0.00     0.000 HD 
ENDROOT
BRANCH   3   7
HETATM    7  C   UNL     1     -11.168  14.400  65.247  1.00  0.00    -0.345 C  
BRANCH   7   8
HETATM    8  C   UNL     1     -10.392  15.030  66.433  1.00  0.00    -0.287 C  
HETATM    9  H   UNL     1      -9.961  16.843  67.055  1.00  0.00     0.000 HD 
HETATM   10  O   UNL     1     -10.437  16.458  66.328  1.00  0.00    -0.309 OA 
BRANCH   8  11
HETATM   11  C   UNL     1     -10.983  14.567  67.755  1.00  0.00    -0.282 A  
HETATM   12  C   UNL     1     -10.698  13.278  68.242  1.00  0.00    -0.267 A  
HETATM   13  C   UNL     1     -11.301  12.825  69.418  1.00  0.00    -0.202 A  
HETATM   14  C   UNL     1     -12.186  13.626  70.130  1.00  0.00    -0.413 A  
HETATM   15  O   UNL     1     -11.056  11.575  69.905  1.00  0.00    -0.459 OA 
HETATM   16  H   UNL     1     -11.467  11.267  70.704  1.00  0.00     0.000 HD 
HETATM   17  C   UNL     1     -12.459  14.903  69.655  1.00  0.00    -0.139 A  
HETATM   18  O   UNL     1     -13.321  15.734  70.308  1.00  0.00    -0.726 OA 
HETATM   19  C   UNL     1     -11.867  15.379  68.489  1.00  0.00    -0.293 A  
HETATM   20  H   UNL     1     -13.508  16.607  69.984  1.00  0.00     0.000 HD 
ENDBRANCH   8  11
ENDBRANCH   7   8
ENDBRANCH   3   7
TORSDOF 3
ENDMDL
MODEL       56
REMARK 921   NORMALIZED FREE ENERGY PREDICTED BY IDOCK:   -5.22 KCAL/MOL
REMARK 922        TOTAL FREE ENERGY PREDICTED BY IDOCK:   -6.43 KCAL/MOL
REMARK 923 INTER-LIGAND FREE ENERGY PREDICTED BY IDOCK:   -5.95 KCAL/MOL
REMARK 924 INTRA-LIGAND FREE ENERGY PREDICTED BY IDOCK:   -0.48 KCAL/MOL
REMARK 927      BINDING AFFINITY PREDICTED BY RF-SCORE:    0.00 PKD
ROOT
HETATM    1  C   UNL     1      -8.336  14.734  67.010  1.00  0.00    -0.228 C  
HETATM    2  C   UNL     1      -8.296  14.303  68.486  1.00  0.00    -0.156 C  
HETATM    3  N   UNL     1      -9.603  13.814  68.970  1.00  0.00    -0.404 NA 
HETATM    4  C   UNL     1      -7.202  13.242  68.693  1.00  0.00    -0.106 C  
HETATM    5  C   UNL     1      -7.930  15.537  69.333  1.00  0.00    -0.229 C  
HETATM    6  H   UNL     1     -10.283  14.574  68.978  1.00  0.00     0.000 HD 
ENDROOT
BRANCH   3   7
HETATM    7  C   UNL     1     -10.141  12.656  68.236  1.00  0.00    -0.233 C  
BRANCH   7   8
HETATM    8  C   UNL     1     -11.619  12.846  67.802  1.00  0.00    -0.343 C  
HETATM    9  H   UNL     1     -13.033  14.177  68.097  1.00  0.00     0.000 HD 
HETATM   10  O   UNL     1     -12.129  14.061  68.363  1.00  0.00    -0.354 OA 
BRANCH   8  11
HETATM   11  C   UNL     1     -11.723  12.866  66.285  1.00  0.00    -0.457 A  
HETATM   12  C   UNL     1     -11.277  11.763  65.533  1.00  0.00    -0.316 A  
HETATM   13  C   UNL     1     -11.303  11.812  64.138  1.00  0.00    -0.352 A  
HETATM   14  C   UNL     1     -11.767  12.936  63.463  1.00  0.00    -0.576 A  
HETATM   15  O   UNL     1     -10.861  10.766  63.382  1.00  0.00    -0.523 OA 
HETATM   16  H   UNL     1     -10.879  10.799  62.433  1.00  0.00     0.000 HD 
HETATM   17  C   UNL     1     -12.219  14.020  64.206  1.00  0.00    -0.418 A  
HETATM   18  O   UNL     1     -12.682  15.151  63.601  1.00  0.00    -0.797 OA 
HETATM   19  C   UNL     1     -12.207  13.993  65.597  1.00  0.00    -0.462 A  
HETATM   20  H   UNL     1     -12.992  15.892  64.108  1.00  0.00     0.000 HD 
ENDBRANCH   8  11
ENDBRANCH   7   8
ENDBRANCH   3   7
TORSDOF 3
ENDMDL
MODEL       57
REMARK 921   NORMALIZED FREE ENERGY PREDICTED BY IDOCK:   -5.22 KCAL/MOL
REMARK 922        TOTAL FREE ENERGY PREDICTED BY IDOCK:   -6.43 KCAL/MOL
REMARK 923 INTER-LIGAND FREE ENERGY PREDICTED BY IDOCK:   -6.12 KCAL/MOL
REMARK 924 INTRA-LIGAND FREE ENERGY PREDICTED BY IDOCK:   -0.31 KCAL/MOL
REMARK 927      BINDING AFFINITY PREDICTED BY RF-SCORE:    0.00 PKD
ROOT
HETATM    1  C   UNL     1     -11.891   6.572  72.085  1.00  0.00    -0.348 C  
HETATM    2  C   UNL     1     -10.976   7.063  70.952  1.00  0.00    -0.253 C  
HETATM    3  N   UNL     1     -11.441   8.333  70.357  1.00  0.00    -0.433 NA 
HETATM    4  C   UNL     1      -9.531   7.194  71.463  1.00  0.00    -0.161 C  
HETATM    5  C   UNL     1     -10.992   6.004  69.833  1.00  0.00    -0.458 C  
HETATM    6  H   UNL     1     -12.331   8.194  69.880  1.00  0.00     0.000 HD 
ENDROOT
BRANCH   3   7
HETATM    7  C   UNL     1     -11.539   9.460  71.300  1.00  0.00    -0.364 C  
BRANCH   7   8
HETATM    8  C   UNL     1     -12.954  10.097  71.341  1.00  0.00    -0.429 C  
HETATM    9  H   UNL     1     -14.471  10.122  72.588  1.00  0.00     0.000 HD 
HETATM   10  O   UNL     1     -13.605   9.733  72.563  1.00  0.00    -0.356 OA 
BRANCH   8  11
HETATM   11  C   UNL     1     -12.854  11.608  71.211  1.00  0.00    -0.430 A  
HETATM   12  C   UNL     1     -12.156  12.179  70.131  1.00  0.00    -0.368 A  
HETATM   13  C   UNL     1     -12.001  13.565  70.052  1.00  0.00    -0.340 A  
HETATM   14  C   UNL     1     -12.527  14.406  71.026  1.00  0.00    -0.425 A  
HETATM   15  O   UNL     1     -11.315  14.145  69.026  1.00  0.00    -0.245 OA 
HETATM   16  H   UNL     1     -11.209  15.087  68.972  1.00  0.00     0.000 HD 
HETATM   17  C   UNL     1     -13.226  13.844  72.087  1.00  0.00    -0.444 A  
HETATM   18  O   UNL     1     -13.762  14.618  73.073  1.00  0.00    -0.555 OA 
HETATM   19  C   UNL     1     -13.398  12.466  72.184  1.00  0.00    -0.508 A  
HETATM   20  H   UNL     1     -14.240  14.233  73.799  1.00  0.00     0.000 HD 
ENDBRANCH   8  11
ENDBRANCH   7   8
ENDBRANCH   3   7
TORSDOF 3
ENDMDL
MODEL       58
REMARK 921   NORMALIZED FREE ENERGY PREDICTED BY IDOCK:   -5.21 KCAL/MOL
REMARK 922        TOTAL FREE ENERGY PREDICTED BY IDOCK:   -6.41 KCAL/MOL
REMARK 923 INTER-LIGAND FREE ENERGY PREDICTED BY IDOCK:   -6.12 KCAL/MOL
REMARK 924 INTRA-LIGAND FREE ENERGY PREDICTED BY IDOCK:   -0.29 KCAL/MOL
REMARK 927      BINDING AFFINITY PREDICTED BY RF-SCORE:    0.00 PKD
ROOT
HETATM    1  C   UNL     1     -10.998   7.691  70.211  1.00  0.00    -0.261 C  
HETATM    2  C   UNL     1     -10.846   8.773  71.294  1.00  0.00    -0.277 C  
HETATM    3  N   UNL     1     -10.685  10.126  70.725  1.00  0.00    -0.388 NA 
HETATM    4  C   UNL     1     -12.044   8.722  72.257  1.00  0.00    -0.423 C  
HETATM    5  C   UNL     1      -9.571   8.463  72.101  1.00  0.00    -0.367 C  
HETATM    6  H   UNL     1      -9.802  10.193  70.218  1.00  0.00     0.000 HD 
ENDROOT
BRANCH   3   7
HETATM    7  C   UNL     1     -11.797  10.577  69.871  1.00  0.00    -0.282 C  
BRANCH   7   8
HETATM    8  C   UNL     1     -11.479  11.884  69.097  1.00  0.00    -0.296 C  
HETATM    9  H   UNL     1     -11.940  12.655  67.350  1.00  0.00     0.000 HD 
HETATM   10  O   UNL     1     -12.135  11.855  67.824  1.00  0.00    -0.564 OA 
BRANCH   8  11
HETATM   11  C   UNL     1     -11.918  13.094  69.905  1.00  0.00    -0.387 A  
HETATM   12  C   UNL     1     -11.362  14.359  69.638  1.00  0.00    -0.309 A  
HETATM   13  C   UNL     1     -11.710  15.457  70.429  1.00  0.00    -0.319 A  
HETATM   14  C   UNL     1     -12.605  15.330  71.486  1.00  0.00    -0.442 A  
HETATM   15  O   UNL     1     -11.174  16.691  70.206  1.00  0.00    -0.479 OA 
HETATM   16  H   UNL     1     -11.410  17.437  70.743  1.00  0.00     0.000 HD 
HETATM   17  C   UNL     1     -13.163  14.084  71.741  1.00  0.00    -0.375 A  
HETATM   18  O   UNL     1     -14.044  13.898  72.765  1.00  0.00    -0.668 OA 
HETATM   19  C   UNL     1     -12.836  12.977  70.964  1.00  0.00    -0.281 A  
HETATM   20  H   UNL     1     -14.426  13.045  72.940  1.00  0.00     0.000 HD 
ENDBRANCH   8  11
ENDBRANCH   7   8
ENDBRANCH   3   7
TORSDOF 3
ENDMDL
MODEL       59
REMARK 921   NORMALIZED FREE ENERGY PREDICTED BY IDOCK:   -5.20 KCAL/MOL
REMARK 922        TOTAL FREE ENERGY PREDICTED BY IDOCK:   -6.41 KCAL/MOL
REMARK 923 INTER-LIGAND FREE ENERGY PREDICTED BY IDOCK:   -6.17 KCAL/MOL
REMARK 924 INTRA-LIGAND FREE ENERGY PREDICTED BY IDOCK:   -0.24 KCAL/MOL
REMARK 927      BINDING AFFINITY PREDICTED BY RF-SCORE:    0.00 PKD
ROOT
HETATM    1  C   UNL     1      -7.650  18.087  67.818  1.00  0.00    -0.220 C  
HETATM    2  C   UNL     1      -8.651  18.782  66.879  1.00  0.00    -0.284 C  
HETATM    3  N   UNL     1      -9.260  17.850  65.909  1.00  0.00    -0.509 NA 
HETATM    4  C   UNL     1      -9.734  19.498  67.705  1.00  0.00    -0.450 C  
HETATM    5  C   UNL     1      -7.886  19.847  66.070  1.00  0.00    -0.335 C  
HETATM    6  H   UNL     1      -8.552  17.502  65.262  1.00  0.00     0.000 HD 
ENDROOT
BRANCH   3   7
HETATM    7  C   UNL     1      -9.998  16.725  66.508  1.00  0.00    -0.298 C  
BRANCH   7   8
HETATM    8  C   UNL     1     -11.188  16.245  65.636  1.00  0.00     0.155 C  
HETATM    9  H   UNL     1     -11.834  16.557  63.807  1.00  0.00     0.000 HD 
HETATM   10  O   UNL     1     -11.105  16.851  64.341  1.00  0.00    -1.128 OA 
BRANCH   8  11
HETATM   11  C   UNL     1     -11.181  14.729  65.524  1.00  0.00    -0.346 A  
HETATM   12  C   UNL     1     -10.721  14.110  64.348  1.00  0.00    -0.176 A  
HETATM   13  C   UNL     1     -10.784  12.721  64.216  1.00  0.00    -0.394 A  
HETATM   14  C   UNL     1     -11.296  11.923  65.233  1.00  0.00    -0.333 A  
HETATM   15  O   UNL     1     -10.361  12.095  63.081  1.00  0.00    -0.540 OA 
HETATM   16  H   UNL     1     -10.404  11.151  62.991  1.00  0.00     0.000 HD 
HETATM   17  C   UNL     1     -11.740  12.532  66.400  1.00  0.00    -0.397 A  
HETATM   18  O   UNL     1     -12.255  11.802  67.430  1.00  0.00    -0.501 OA 
HETATM   19  C   UNL     1     -11.682  13.914  66.556  1.00  0.00    -0.414 A  
HETATM   20  H   UNL     1     -12.558  12.219  68.229  1.00  0.00     0.000 HD 
ENDBRANCH   8  11
ENDBRANCH   7   8
ENDBRANCH   3   7
TORSDOF 3
ENDMDL
MODEL       60
REMARK 921   NORMALIZED FREE ENERGY PREDICTED BY IDOCK:   -5.20 KCAL/MOL
REMARK 922        TOTAL FREE ENERGY PREDICTED BY IDOCK:   -6.41 KCAL/MOL
REMARK 923 INTER-LIGAND FREE ENERGY PREDICTED BY IDOCK:   -6.06 KCAL/MOL
REMARK 924 INTRA-LIGAND FREE ENERGY PREDICTED BY IDOCK:   -0.34 KCAL/MOL
REMARK 927      BINDING AFFINITY PREDICTED BY RF-SCORE:    0.00 PKD
ROOT
HETATM    1  C   UNL     1     -10.935   7.871  69.805  1.00  0.00    -0.148 C  
HETATM    2  C   UNL     1     -10.286   9.262  69.902  1.00  0.00    -0.214 C  
HETATM    3  N   UNL     1      -9.666   9.688  68.630  1.00  0.00    -0.152 NA 
HETATM    4  C   UNL     1     -11.323  10.294  70.379  1.00  0.00    -0.410 C  
HETATM    5  C   UNL     1      -9.163   9.192  70.954  1.00  0.00    -0.326 C  
HETATM    6  H   UNL     1      -8.873   9.087  68.405  1.00  0.00     0.000 HD 
ENDROOT
BRANCH   3   7
HETATM    7  C   UNL     1     -10.589   9.763  67.485  1.00  0.00    -0.275 C  
BRANCH   7   8
HETATM    8  C   UNL     1     -10.022  10.589  66.300  1.00  0.00    -0.221 C  
HETATM    9  H   UNL     1      -9.539  10.249  64.426  1.00  0.00     0.000 HD 
HETATM   10  O   UNL     1      -9.887   9.744  65.151  1.00  0.00    -0.315 OA 
BRANCH   8  11
HETATM   11  C   UNL     1     -10.930  11.770  65.998  1.00  0.00    -0.355 A  
HETATM   12  C   UNL     1     -11.232  12.104  64.665  1.00  0.00    -0.374 A  
HETATM   13  C   UNL     1     -12.006  13.233  64.385  1.00  0.00    -0.406 A  
HETATM   14  C   UNL     1     -12.493  14.045  65.404  1.00  0.00    -0.520 A  
HETATM   15  O   UNL     1     -12.301  13.592  63.103  1.00  0.00    -1.045 OA 
HETATM   16  H   UNL     1     -12.826  14.360  62.913  1.00  0.00     0.000 HD 
HETATM   17  C   UNL     1     -12.204  13.708  66.721  1.00  0.00    -0.369 A  
HETATM   18  O   UNL     1     -12.651  14.467  67.762  1.00  0.00    -0.516 OA 
HETATM   19  C   UNL     1     -11.440  12.585  67.025  1.00  0.00    -0.419 A  
HETATM   20  H   UNL     1     -12.454  14.237  68.662  1.00  0.00     0.000 HD 
ENDBRANCH   8  11
ENDBRANCH   7   8
ENDBRANCH   3   7
TORSDOF 3
ENDMDL
MODEL       61
REMARK 921   NORMALIZED FREE ENERGY PREDICTED BY IDOCK:   -5.16 KCAL/MOL
REMARK 922        TOTAL FREE ENERGY PREDICTED BY IDOCK:   -6.36 KCAL/MOL
REMARK 923 INTER-LIGAND FREE ENERGY PREDICTED BY IDOCK:   -6.11 KCAL/MOL
REMARK 924 INTRA-LIGAND FREE ENERGY PREDICTED BY IDOCK:   -0.26 KCAL/MOL
REMARK 927      BINDING AFFINITY PREDICTED BY RF-SCORE:    0.00 PKD
ROOT
HETATM    1  C   UNL     1     -13.296   9.626  72.122  1.00  0.00    -0.545 C  
HETATM    2  C   UNL     1     -12.319   8.623  71.485  1.00  0.00    -0.324 C  
HETATM    3  N   UNL     1     -11.892   9.029  70.131  1.00  0.00    -0.453 NA 
HETATM    4  C   UNL     1     -11.103   8.418  72.405  1.00  0.00    -0.431 C  
HETATM    5  C   UNL     1     -13.047   7.272  71.347  1.00  0.00    -0.412 C  
HETATM    6  H   UNL     1     -12.685   9.006  69.489  1.00  0.00     0.000 HD 
ENDROOT
BRANCH   3   7
HETATM    7  C   UNL     1     -11.217  10.336  70.059  1.00  0.00    -0.311 C  
BRANCH   7   8
HETATM    8  C   UNL     1     -10.504  10.578  68.702  1.00  0.00    -0.191 C  
HETATM    9  H   UNL     1     -10.183   9.554  67.056  1.00  0.00     0.000 HD 
HETATM   10  O   UNL     1     -10.620   9.406  67.887  1.00  0.00    -0.237 OA 
BRANCH   8  11
HETATM   11  C   UNL     1     -11.103  11.786  68.000  1.00  0.00    -0.297 A  
HETATM   12  C   UNL     1     -11.287  11.772  66.606  1.00  0.00    -0.381 A  
HETATM   13  C   UNL     1     -11.768  12.909  65.952  1.00  0.00    -0.399 A  
HETATM   14  C   UNL     1     -12.076  14.069  66.654  1.00  0.00    -0.487 A  
HETATM   15  O   UNL     1     -11.941  12.931  64.599  1.00  0.00    -0.351 OA 
HETATM   16  H   UNL     1     -12.267  13.704  64.155  1.00  0.00     0.000 HD 
HETATM   17  C   UNL     1     -11.906  14.079  68.033  1.00  0.00    -0.368 A  
HETATM   18  O   UNL     1     -12.187  15.188  68.775  1.00  0.00    -0.573 OA 
HETATM   19  C   UNL     1     -11.433  12.957  68.707  1.00  0.00    -0.345 A  
HETATM   20  H   UNL     1     -12.071  15.195  69.718  1.00  0.00     0.000 HD 
ENDBRANCH   8  11
ENDBRANCH   7   8
ENDBRANCH   3   7
TORSDOF 3
ENDMDL
MODEL       62
REMARK 921   NORMALIZED FREE ENERGY PREDICTED BY IDOCK:   -5.15 KCAL/MOL
REMARK 922        TOTAL FREE ENERGY PREDICTED BY IDOCK:   -6.34 KCAL/MOL
REMARK 923 INTER-LIGAND FREE ENERGY PREDICTED BY IDOCK:   -6.10 KCAL/MOL
REMARK 924 INTRA-LIGAND FREE ENERGY PREDICTED BY IDOCK:   -0.25 KCAL/MOL
REMARK 927      BINDING AFFINITY PREDICTED BY RF-SCORE:    0.00 PKD
ROOT
HETATM    1  C   UNL     1      -9.186   9.757  69.714  1.00  0.00    -0.248 C  
HETATM    2  C   UNL     1     -10.523   9.323  69.090  1.00  0.00    -0.217 C  
HETATM    3  N   UNL     1     -11.690   9.831  69.838  1.00  0.00    -0.448 NA 
HETATM    4  C   UNL     1     -10.581   9.762  67.617  1.00  0.00    -0.333 C  
HETATM    5  C   UNL     1     -10.590   7.784  69.132  1.00  0.00    -0.193 C  
HETATM    6  H   UNL     1     -11.728   9.406  70.764  1.00  0.00     0.000 HD 
ENDROOT
BRANCH   3   7
HETATM    7  C   UNL     1     -11.766  11.298  69.948  1.00  0.00    -0.352 C  
BRANCH   7   8
HETATM    8  C   UNL     1     -12.902  11.780  70.889  1.00  0.00    -0.152 C  
HETATM    9  H   UNL     1     -13.638  11.241  72.629  1.00  0.00     0.000 HD 
HETATM   10  O   UNL     1     -12.943  10.946  72.053  1.00  0.00    -0.457 OA 
BRANCH   8  11
HETATM   11  C   UNL     1     -12.685  13.234  71.274  1.00  0.00    -0.411 A  
HETATM   12  C   UNL     1     -11.914  14.075  70.450  1.00  0.00    -0.398 A  
HETATM   13  C   UNL     1     -11.652  15.390  70.841  1.00  0.00    -0.358 A  
HETATM   14  C   UNL     1     -12.142  15.897  72.039  1.00  0.00    -0.591 A  
HETATM   15  O   UNL     1     -10.895  16.222  70.071  1.00  0.00    -0.335 OA 
HETATM   16  H   UNL     1     -10.716  17.116  70.337  1.00  0.00     0.000 HD 
HETATM   17  C   UNL     1     -12.913  15.071  72.848  1.00  0.00    -0.463 A  
HETATM   18  O   UNL     1     -13.418  15.512  74.035  1.00  0.00    -0.543 OA 
HETATM   19  C   UNL     1     -13.191  13.759  72.477  1.00  0.00    -0.599 A  
HETATM   20  H   UNL     1     -13.945  14.947  74.589  1.00  0.00     0.000 HD 
ENDBRANCH   8  11
ENDBRANCH   7   8
ENDBRANCH   3   7
TORSDOF 3
ENDMDL
MODEL       63
REMARK 921   NORMALIZED FREE ENERGY PREDICTED BY IDOCK:   -5.14 KCAL/MOL
REMARK 922        TOTAL FREE ENERGY PREDICTED BY IDOCK:   -6.34 KCAL/MOL
REMARK 923 INTER-LIGAND FREE ENERGY PREDICTED BY IDOCK:   -5.99 KCAL/MOL
REMARK 924 INTRA-LIGAND FREE ENERGY PREDICTED BY IDOCK:   -0.34 KCAL/MOL
REMARK 927      BINDING AFFINITY PREDICTED BY RF-SCORE:    0.00 PKD
ROOT
HETATM    1  C   UNL     1      -7.310  14.830  68.162  1.00  0.00    -0.122 C  
HETATM    2  C   UNL     1      -8.685  14.354  67.665  1.00  0.00    -0.189 C  
HETATM    3  N   UNL     1      -9.682  14.267  68.751  1.00  0.00    -0.320 NA 
HETATM    4  C   UNL     1      -9.182  15.273  66.536  1.00  0.00    -0.321 C  
HETATM    5  C   UNL     1      -8.517  12.936  67.086  1.00  0.00    -0.179 C  
HETATM    6  H   UNL     1      -9.419  13.537  69.414  1.00  0.00     0.000 HD 
ENDROOT
BRANCH   3   7
HETATM    7  C   UNL     1      -9.936  15.532  69.462  1.00  0.00    -0.280 C  
BRANCH   7   8
HETATM    8  C   UNL     1     -11.441  15.909  69.511  1.00  0.00    -0.342 C  
HETATM    9  H   UNL     1     -13.046  15.517  68.448  1.00  0.00     0.000 HD 
HETATM   10  O   UNL     1     -12.125  15.286  68.418  1.00  0.00    -0.236 OA 
BRANCH   8  11
HETATM   11  C   UNL     1     -12.046  15.486  70.839  1.00  0.00    -0.433 A  
HETATM   12  C   UNL     1     -11.961  16.337  71.957  1.00  0.00    -0.544 A  
HETATM   13  C   UNL     1     -12.451  15.917  73.195  1.00  0.00    -0.497 A  
HETATM   14  C   UNL     1     -13.031  14.663  73.355  1.00  0.00    -0.483 A  
HETATM   15  O   UNL     1     -12.367  16.714  74.299  1.00  0.00    -0.643 OA 
HETATM   16  H   UNL     1     -12.700  16.428  75.141  1.00  0.00     0.000 HD 
HETATM   17  C   UNL     1     -13.125  13.827  72.249  1.00  0.00    -0.405 A  
HETATM   18  O   UNL     1     -13.681  12.585  72.344  1.00  0.00    -0.572 OA 
HETATM   19  C   UNL     1     -12.649  14.225  71.004  1.00  0.00    -0.428 A  
HETATM   20  H   UNL     1     -13.746  12.013  71.588  1.00  0.00     0.000 HD 
ENDBRANCH   8  11
ENDBRANCH   7   8
ENDBRANCH   3   7
TORSDOF 3
ENDMDL
MODEL       64
REMARK 921   NORMALIZED FREE ENERGY PREDICTED BY IDOCK:   -5.12 KCAL/MOL
REMARK 922        TOTAL FREE ENERGY PREDICTED BY IDOCK:   -6.31 KCAL/MOL
REMARK 923 INTER-LIGAND FREE ENERGY PREDICTED BY IDOCK:   -6.03 KCAL/MOL
REMARK 924 INTRA-LIGAND FREE ENERGY PREDICTED BY IDOCK:   -0.28 KCAL/MOL
REMARK 927      BINDING AFFINITY PREDICTED BY RF-SCORE:    0.00 PKD
ROOT
HETATM    1  C   UNL     1     -12.075  13.858  63.898  1.00  0.00    -0.387 C  
HETATM    2  C   UNL     1     -11.131  13.254  64.952  1.00  0.00    -0.328 C  
HETATM    3  N   UNL     1     -10.097  14.209  65.401  1.00  0.00    -0.449 NA 
HETATM    4  C   UNL     1     -11.945  12.725  66.145  1.00  0.00    -0.476 C  
HETATM    5  C   UNL     1     -10.399  12.061  64.307  1.00  0.00    -0.357 C  
HETATM    6  H   UNL     1      -9.463  14.430  64.634  1.00  0.00     0.000 HD 
ENDROOT
BRANCH   3   7
HETATM    7  C   UNL     1     -10.618  15.448  66.004  1.00  0.00    -0.322 C  
BRANCH   7   8
HETATM    8  C   UNL     1     -10.054  16.732  65.339  1.00  0.00     0.024 C  
HETATM    9  H   UNL     1     -10.748  18.167  64.191  1.00  0.00     0.000 HD 
HETATM   10  O   UNL     1     -11.094  17.381  64.598  1.00  0.00    -1.029 OA 
BRANCH   8  11
HETATM   11  C   UNL     1      -9.480  17.662  66.394  1.00  0.00    -0.274 A  
HETATM   12  C   UNL     1     -10.334  18.299  67.314  1.00  0.00    -0.407 A  
HETATM   13  C   UNL     1      -9.815  19.211  68.235  1.00  0.00    -0.390 A  
HETATM   14  C   UNL     1      -8.457  19.510  68.269  1.00  0.00    -0.376 A  
HETATM   15  O   UNL     1     -10.621  19.856  69.127  1.00  0.00    -0.549 OA 
HETATM   16  H   UNL     1     -10.268  20.476  69.753  1.00  0.00     0.000 HD 
HETATM   17  C   UNL     1      -7.612  18.873  67.369  1.00  0.00    -0.230 A  
HETATM   18  O   UNL     1      -6.273  19.127  67.352  1.00  0.00    -0.186 OA 
HETATM   19  C   UNL     1      -8.105  17.956  66.445  1.00  0.00    -0.296 A  
HETATM   20  H   UNL     1      -5.694  18.692  66.737  1.00  0.00     0.000 HD 
ENDBRANCH   8  11
ENDBRANCH   7   8
ENDBRANCH   3   7
TORSDOF 3
ENDMDL
MODEL       65
REMARK 921   NORMALIZED FREE ENERGY PREDICTED BY IDOCK:   -5.11 KCAL/MOL
REMARK 922        TOTAL FREE ENERGY PREDICTED BY IDOCK:   -6.30 KCAL/MOL
REMARK 923 INTER-LIGAND FREE ENERGY PREDICTED BY IDOCK:   -6.00 KCAL/MOL
REMARK 924 INTRA-LIGAND FREE ENERGY PREDICTED BY IDOCK:   -0.30 KCAL/MOL
REMARK 927      BINDING AFFINITY PREDICTED BY RF-SCORE:    0.00 PKD
ROOT
HETATM    1  C   UNL     1     -11.913  15.332  72.135  1.00  0.00    -0.503 C  
HETATM    2  C   UNL     1     -13.095  14.621  71.455  1.00  0.00    -0.347 C  
HETATM    3  N   UNL     1     -13.020  14.679  69.981  1.00  0.00    -0.546 NA 
HETATM    4  C   UNL     1     -13.184  13.165  71.942  1.00  0.00    -0.526 C  
HETATM    5  C   UNL     1     -14.390  15.344  71.873  1.00  0.00    -0.649 C  
HETATM    6  H   UNL     1     -13.123  15.642  69.660  1.00  0.00     0.000 HD 
ENDROOT
BRANCH   3   7
HETATM    7  C   UNL     1     -11.809  14.076  69.398  1.00  0.00    -0.333 C  
BRANCH   7   8
HETATM    8  C   UNL     1     -11.868  13.968  67.851  1.00  0.00    -0.376 C  
HETATM    9  H   UNL     1     -11.064  14.908  66.324  1.00  0.00     0.000 HD 
HETATM   10  O   UNL     1     -11.028  14.974  67.271  1.00  0.00    -0.309 OA 
BRANCH   8  11
HETATM   11  C   UNL     1     -11.437  12.581  67.403  1.00  0.00    -0.404 A  
HETATM   12  C   UNL     1     -11.206  12.320  66.040  1.00  0.00    -0.375 A  
HETATM   13  C   UNL     1     -10.884  11.028  65.619  1.00  0.00    -0.090 A  
HETATM   14  C   UNL     1     -10.782   9.978  66.526  1.00  0.00    -0.094 A  
HETATM   15  O   UNL     1     -10.671  10.741  64.303  1.00  0.00    -0.386 OA 
HETATM   16  H   UNL     1     -10.452   9.863  64.017  1.00  0.00     0.000 HD 
HETATM   17  C   UNL     1     -10.999  10.238  67.874  1.00  0.00    -0.292 A  
HETATM   18  O   UNL     1     -10.916   9.250  68.809  1.00  0.00    -0.418 OA 
HETATM   19  C   UNL     1     -11.316  11.519  68.317  1.00  0.00    -0.352 A  
HETATM   20  H   UNL     1     -11.064   9.427  69.731  1.00  0.00     0.000 HD 
ENDBRANCH   8  11
ENDBRANCH   7   8
ENDBRANCH   3   7
TORSDOF 3
ENDMDL
MODEL       66
REMARK 921   NORMALIZED FREE ENERGY PREDICTED BY IDOCK:   -5.10 KCAL/MOL
REMARK 922        TOTAL FREE ENERGY PREDICTED BY IDOCK:   -6.29 KCAL/MOL
REMARK 923 INTER-LIGAND FREE ENERGY PREDICTED BY IDOCK:   -6.04 KCAL/MOL
REMARK 924 INTRA-LIGAND FREE ENERGY PREDICTED BY IDOCK:   -0.26 KCAL/MOL
REMARK 927      BINDING AFFINITY PREDICTED BY RF-SCORE:    0.00 PKD
ROOT
HETATM    1  C   UNL     1     -12.320  12.956  64.656  1.00  0.00    -0.501 C  
HETATM    2  C   UNL     1     -11.236  12.784  65.734  1.00  0.00    -0.307 C  
HETATM    3  N   UNL     1     -10.319  13.939  65.805  1.00  0.00    -0.306 NA 
HETATM    4  C   UNL     1     -11.892  12.519  67.100  1.00  0.00    -0.386 C  
HETATM    5  C   UNL     1     -10.389  11.551  65.364  1.00  0.00    -0.322 C  
HETATM    6  H   UNL     1      -9.771  14.008  64.947  1.00  0.00     0.000 HD 
ENDROOT
BRANCH   3   7
HETATM    7  C   UNL     1     -10.966  15.228  66.101  1.00  0.00    -0.307 C  
BRANCH   7   8
HETATM    8  C   UNL     1     -10.288  16.427  65.387  1.00  0.00    -0.262 C  
HETATM    9  H   UNL     1     -10.844  17.858  64.161  1.00  0.00     0.000 HD 
HETATM   10  O   UNL     1     -11.259  17.123  64.598  1.00  0.00    -1.003 OA 
BRANCH   8  11
HETATM   11  C   UNL     1      -9.655  17.358  66.409  1.00  0.00    -0.291 A  
HETATM   12  C   UNL     1      -8.293  17.223  66.737  1.00  0.00    -0.276 A  
HETATM   13  C   UNL     1      -7.730  18.029  67.730  1.00  0.00    -0.222 A  
HETATM   14  C   UNL     1      -8.490  18.974  68.410  1.00  0.00    -0.383 A  
HETATM   15  O   UNL     1      -6.418  17.909  68.081  1.00  0.00    -0.182 OA 
HETATM   16  H   UNL     1      -6.035  18.456  68.756  1.00  0.00     0.000 HD 
HETATM   17  C   UNL     1      -9.831  19.116  68.077  1.00  0.00    -0.356 A  
HETATM   18  O   UNL     1     -10.627  20.023  68.711  1.00  0.00    -0.515 OA 
HETATM   19  C   UNL     1     -10.414  18.328  67.089  1.00  0.00    -0.417 A  
HETATM   20  H   UNL     1     -11.545  20.120  68.484  1.00  0.00     0.000 HD 
ENDBRANCH   8  11
ENDBRANCH   7   8
ENDBRANCH   3   7
TORSDOF 3
ENDMDL
MODEL       67
REMARK 921   NORMALIZED FREE ENERGY PREDICTED BY IDOCK:   -5.10 KCAL/MOL
REMARK 922        TOTAL FREE ENERGY PREDICTED BY IDOCK:   -6.29 KCAL/MOL
REMARK 923 INTER-LIGAND FREE ENERGY PREDICTED BY IDOCK:   -6.03 KCAL/MOL
REMARK 924 INTRA-LIGAND FREE ENERGY PREDICTED BY IDOCK:   -0.26 KCAL/MOL
REMARK 927      BINDING AFFINITY PREDICTED BY RF-SCORE:    0.00 PKD
ROOT
HETATM    1  C   UNL     1      -8.018   9.800  70.026  1.00  0.00    -0.196 C  
HETATM    2  C   UNL     1      -9.541   9.597  69.961  1.00  0.00    -0.243 C  
HETATM    3  N   UNL     1     -10.268  10.847  69.658  1.00  0.00    -0.445 NA 
HETATM    4  C   UNL     1      -9.881   8.502  68.934  1.00  0.00    -0.181 C  
HETATM    5  C   UNL     1     -10.018   9.117  71.346  1.00  0.00    -0.373 C  
HETATM    6  H   UNL     1     -10.164  11.510  70.426  1.00  0.00     0.000 HD 
ENDROOT
BRANCH   3   7
HETATM    7  C   UNL     1      -9.901  11.484  68.382  1.00  0.00    -0.204 C  
BRANCH   7   8
HETATM    8  C   UNL     1     -11.029  11.411  67.318  1.00  0.00    -0.282 C  
HETATM    9  H   UNL     1     -12.969  11.102  67.316  1.00  0.00     0.000 HD 
HETATM   10  O   UNL     1     -12.278  11.146  67.967  1.00  0.00    -0.584 OA 
BRANCH   8  11
HETATM   11  C   UNL     1     -11.093  12.709  66.530  1.00  0.00    -0.320 A  
HETATM   12  C   UNL     1     -11.828  12.770  65.331  1.00  0.00    -0.456 A  
HETATM   13  C   UNL     1     -11.826  13.940  64.569  1.00  0.00    -0.426 A  
HETATM   14  C   UNL     1     -11.109  15.062  64.970  1.00  0.00    -0.421 A  
HETATM   15  O   UNL     1     -12.515  14.023  63.395  1.00  0.00    -1.108 OA 
HETATM   16  H   UNL     1     -12.513  14.819  62.876  1.00  0.00     0.000 HD 
HETATM   17  C   UNL     1     -10.393  15.006  66.159  1.00  0.00    -0.299 A  
HETATM   18  O   UNL     1      -9.668  16.072  66.602  1.00  0.00    -0.225 OA 
HETATM   19  C   UNL     1     -10.384  13.853  66.939  1.00  0.00    -0.266 A  
HETATM   20  H   UNL     1      -9.179  16.034  67.416  1.00  0.00     0.000 HD 
ENDBRANCH   8  11
ENDBRANCH   7   8
ENDBRANCH   3   7
TORSDOF 3
ENDMDL
MODEL       68
REMARK 921   NORMALIZED FREE ENERGY PREDICTED BY IDOCK:   -5.06 KCAL/MOL
REMARK 922        TOTAL FREE ENERGY PREDICTED BY IDOCK:   -6.24 KCAL/MOL
REMARK 923 INTER-LIGAND FREE ENERGY PREDICTED BY IDOCK:   -5.97 KCAL/MOL
REMARK 924 INTRA-LIGAND FREE ENERGY PREDICTED BY IDOCK:   -0.27 KCAL/MOL
REMARK 927      BINDING AFFINITY PREDICTED BY RF-SCORE:    0.00 PKD
ROOT
HETATM    1  C   UNL     1     -12.165   8.113  71.769  1.00  0.00    -0.358 C  
HETATM    2  C   UNL     1     -11.103   8.461  70.713  1.00  0.00    -0.258 C  
HETATM    3  N   UNL     1     -11.603   9.408  69.695  1.00  0.00    -0.429 NA 
HETATM    4  C   UNL     1      -9.841   9.010  71.399  1.00  0.00    -0.381 C  
HETATM    5  C   UNL     1     -10.720   7.162  69.977  1.00  0.00    -0.268 C  
HETATM    6  H   UNL     1     -12.338   8.971  69.138  1.00  0.00     0.000 HD 
ENDROOT
BRANCH   3   7
HETATM    7  C   UNL     1     -12.068  10.701  70.227  1.00  0.00    -0.338 C  
BRANCH   7   8
HETATM    8  C   UNL     1     -11.595  11.912  69.379  1.00  0.00    -0.325 C  
HETATM    9  H   UNL     1     -11.918  12.597  67.567  1.00  0.00     0.000 HD 
HETATM   10  O   UNL     1     -12.207  11.856  68.086  1.00  0.00    -0.470 OA 
BRANCH   8  11
HETATM   11  C   UNL     1     -11.940  13.214  70.084  1.00  0.00    -0.381 A  
HETATM   12  C   UNL     1     -12.933  13.235  71.081  1.00  0.00    -0.297 A  
HETATM   13  C   UNL     1     -13.302  14.444  71.675  1.00  0.00    -0.363 A  
HETATM   14  C   UNL     1     -12.704  15.643  71.304  1.00  0.00    -0.537 A  
HETATM   15  O   UNL     1     -14.273  14.497  72.631  1.00  0.00    -0.499 OA 
HETATM   16  H   UNL     1     -14.524  15.319  73.035  1.00  0.00     0.000 HD 
HETATM   17  C   UNL     1     -11.715  15.620  70.329  1.00  0.00    -0.357 A  
HETATM   18  O   UNL     1     -11.094  16.764  69.921  1.00  0.00    -0.423 OA 
HETATM   19  C   UNL     1     -11.326  14.428  69.725  1.00  0.00    -0.285 A  
HETATM   20  H   UNL     1     -10.417  16.749  69.254  1.00  0.00     0.000 HD 
ENDBRANCH   8  11
ENDBRANCH   7   8
ENDBRANCH   3   7
TORSDOF 3
ENDMDL
MODEL       69
REMARK 921   NORMALIZED FREE ENERGY PREDICTED BY IDOCK:   -5.05 KCAL/MOL
REMARK 922        TOTAL FREE ENERGY PREDICTED BY IDOCK:   -6.24 KCAL/MOL
REMARK 923 INTER-LIGAND FREE ENERGY PREDICTED BY IDOCK:   -6.10 KCAL/MOL
REMARK 924 INTRA-LIGAND FREE ENERGY PREDICTED BY IDOCK:   -0.13 KCAL/MOL
REMARK 927      BINDING AFFINITY PREDICTED BY RF-SCORE:    0.00 PKD
ROOT
HETATM    1  C   UNL     1     -12.350  12.718  65.423  1.00  0.00    -0.528 C  
HETATM    2  C   UNL     1     -10.879  12.535  65.012  1.00  0.00    -0.290 C  
HETATM    3  N   UNL     1     -10.066  13.742  65.266  1.00  0.00    -0.496 NA 
HETATM    4  C   UNL     1     -10.283  11.311  65.728  1.00  0.00    -0.301 C  
HETATM    5  C   UNL     1     -10.837  12.269  63.495  1.00  0.00    -0.508 C  
HETATM    6  H   UNL     1     -10.372  14.507  64.664  1.00  0.00     0.000 HD 
ENDROOT
BRANCH   3   7
HETATM    7  C   UNL     1     -10.031  14.182  66.671  1.00  0.00    -0.277 C  
BRANCH   7   8
HETATM    8  C   UNL     1     -10.982  15.374  66.959  1.00  0.00    -0.306 C  
HETATM    9  H   UNL     1     -12.364  15.808  68.286  1.00  0.00     0.000 HD 
HETATM   10  O   UNL     1     -11.782  15.078  68.110  1.00  0.00    -0.333 OA 
BRANCH   8  11
HETATM   11  C   UNL     1     -10.181  16.648  67.171  1.00  0.00    -0.290 A  
HETATM   12  C   UNL     1     -10.579  17.578  68.149  1.00  0.00    -0.366 A  
HETATM   13  C   UNL     1      -9.887  18.782  68.292  1.00  0.00    -0.373 A  
HETATM   14  C   UNL     1      -8.799  19.090  67.484  1.00  0.00    -0.316 A  
HETATM   15  O   UNL     1     -10.261  19.710  69.220  1.00  0.00    -0.629 OA 
HETATM   16  H   UNL     1      -9.791  20.529  69.317  1.00  0.00     0.000 HD 
HETATM   17  C   UNL     1      -8.397  18.167  66.526  1.00  0.00    -0.265 A  
HETATM   18  O   UNL     1      -7.339  18.414  65.702  1.00  0.00    -0.510 OA 
HETATM   19  C   UNL     1      -9.068  16.958  66.367  1.00  0.00    -0.315 A  
HETATM   20  H   UNL     1      -7.065  17.783  65.047  1.00  0.00     0.000 HD 
ENDBRANCH   8  11
ENDBRANCH   7   8
ENDBRANCH   3   7
TORSDOF 3
ENDMDL
MODEL       70
REMARK 921   NORMALIZED FREE ENERGY PREDICTED BY IDOCK:   -5.05 KCAL/MOL
REMARK 922        TOTAL FREE ENERGY PREDICTED BY IDOCK:   -6.23 KCAL/MOL
REMARK 923 INTER-LIGAND FREE ENERGY PREDICTED BY IDOCK:   -5.92 KCAL/MOL
REMARK 924 INTRA-LIGAND FREE ENERGY PREDICTED BY IDOCK:   -0.31 KCAL/MOL
REMARK 927      BINDING AFFINITY PREDICTED BY RF-SCORE:    0.00 PKD
ROOT
HETATM    1  C   UNL     1     -11.158   7.629  70.389  1.00  0.00    -0.270 C  
HETATM    2  C   UNL     1     -11.039   8.819  71.356  1.00  0.00    -0.291 C  
HETATM    3  N   UNL     1     -10.587  10.054  70.683  1.00  0.00    -0.376 NA 
HETATM    4  C   UNL     1     -12.380   9.046  72.076  1.00  0.00    -0.455 C  
HETATM    5  C   UNL     1      -9.980   8.466  72.418  1.00  0.00    -0.380 C  
HETATM    6  H   UNL     1      -9.631   9.943  70.347  1.00  0.00     0.000 HD 
ENDROOT
BRANCH   3   7
HETATM    7  C   UNL     1     -11.459  10.519  69.591  1.00  0.00    -0.282 C  
BRANCH   7   8
HETATM    8  C   UNL     1     -10.692  10.772  68.266  1.00  0.00    -0.213 C  
HETATM    9  H   UNL     1     -10.349   9.781  66.604  1.00  0.00     0.000 HD 
HETATM   10  O   UNL     1     -10.819   9.626  67.415  1.00  0.00    -0.274 OA 
BRANCH   8  11
HETATM   11  C   UNL     1     -11.226  12.017  67.577  1.00  0.00    -0.357 A  
HETATM   12  C   UNL     1     -11.351  13.221  68.295  1.00  0.00    -0.335 A  
HETATM   13  C   UNL     1     -11.912  14.345  67.684  1.00  0.00    -0.343 A  
HETATM   14  C   UNL     1     -12.354  14.305  66.366  1.00  0.00    -0.378 A  
HETATM   15  O   UNL     1     -12.061  15.520  68.360  1.00  0.00    -0.520 OA 
HETATM   16  H   UNL     1     -12.443  16.284  67.945  1.00  0.00     0.000 HD 
HETATM   17  C   UNL     1     -12.220  13.120  65.654  1.00  0.00    -0.466 A  
HETATM   18  O   UNL     1     -12.637  13.019  64.360  1.00  0.00    -0.607 OA 
HETATM   19  C   UNL     1     -11.660  11.988  66.239  1.00  0.00    -0.378 A  
HETATM   20  H   UNL     1     -12.545  12.209  63.872  1.00  0.00     0.000 HD 
ENDBRANCH   8  11
ENDBRANCH   7   8
ENDBRANCH   3   7
TORSDOF 3
ENDMDL
MODEL       71
REMARK 921   NORMALIZED FREE ENERGY PREDICTED BY IDOCK:   -5.03 KCAL/MOL
REMARK 922        TOTAL FREE ENERGY PREDICTED BY IDOCK:   -6.21 KCAL/MOL
REMARK 923 INTER-LIGAND FREE ENERGY PREDICTED BY IDOCK:   -5.91 KCAL/MOL
REMARK 924 INTRA-LIGAND FREE ENERGY PREDICTED BY IDOCK:   -0.30 KCAL/MOL
REMARK 927      BINDING AFFINITY PREDICTED BY RF-SCORE:    0.00 PKD
ROOT
HETATM    1  C   UNL     1     -13.000   9.812  71.769  1.00  0.00    -0.536 C  
HETATM    2  C   UNL     1     -12.062   8.679  71.319  1.00  0.00    -0.290 C  
HETATM    3  N   UNL     1     -11.599   8.845  69.926  1.00  0.00    -0.438 NA 
HETATM    4  C   UNL     1     -10.868   8.571  72.284  1.00  0.00    -0.418 C  
HETATM    5  C   UNL     1     -12.848   7.355  71.383  1.00  0.00    -0.408 C  
HETATM    6  H   UNL     1     -12.384   8.755  69.281  1.00  0.00     0.000 HD 
ENDROOT
BRANCH   3   7
HETATM    7  C   UNL     1     -10.864  10.094  69.662  1.00  0.00    -0.263 C  
BRANCH   7   8
HETATM    8  C   UNL     1     -10.488  10.273  68.167  1.00  0.00    -0.190 C  
HETATM    9  H   UNL     1     -10.743   9.265  66.501  1.00  0.00     0.000 HD 
HETATM   10  O   UNL     1     -10.974   9.155  67.416  1.00  0.00    -0.170 OA 
BRANCH   8  11
HETATM   11  C   UNL     1     -11.062  11.575  67.632  1.00  0.00    -0.324 A  
HETATM   12  C   UNL     1     -11.341  12.637  68.512  1.00  0.00    -0.333 A  
HETATM   13  C   UNL     1     -11.938  13.805  68.032  1.00  0.00    -0.355 A  
HETATM   14  C   UNL     1     -12.268  13.947  66.688  1.00  0.00    -0.465 A  
HETATM   15  O   UNL     1     -12.235  14.844  68.863  1.00  0.00    -0.543 OA 
HETATM   16  H   UNL     1     -12.641  15.638  68.537  1.00  0.00     0.000 HD 
HETATM   17  C   UNL     1     -11.982  12.903  65.817  1.00  0.00    -0.443 A  
HETATM   18  O   UNL     1     -12.285  12.983  64.490  1.00  0.00    -0.383 OA 
HETATM   19  C   UNL     1     -11.383  11.732  66.271  1.00  0.00    -0.350 A  
HETATM   20  H   UNL     1     -12.090  12.269  63.894  1.00  0.00     0.000 HD 
ENDBRANCH   8  11
ENDBRANCH   7   8
ENDBRANCH   3   7
TORSDOF 3
ENDMDL
MODEL       72
REMARK 921   NORMALIZED FREE ENERGY PREDICTED BY IDOCK:   -5.02 KCAL/MOL
REMARK 922        TOTAL FREE ENERGY PREDICTED BY IDOCK:   -6.19 KCAL/MOL
REMARK 923 INTER-LIGAND FREE ENERGY PREDICTED BY IDOCK:   -5.90 KCAL/MOL
REMARK 924 INTRA-LIGAND FREE ENERGY PREDICTED BY IDOCK:   -0.29 KCAL/MOL
REMARK 927      BINDING AFFINITY PREDICTED BY RF-SCORE:    0.00 PKD
ROOT
HETATM    1  C   UNL     1     -10.580   7.681  69.984  1.00  0.00    -0.240 C  
HETATM    2  C   UNL     1     -10.279   7.484  68.489  1.00  0.00    -0.197 C  
HETATM    3  N   UNL     1     -11.026   8.426  67.631  1.00  0.00    -0.483 NA 
HETATM    4  C   UNL     1      -8.765   7.595  68.239  1.00  0.00    -0.123 C  
HETATM    5  C   UNL     1     -10.724   6.061  68.098  1.00  0.00    -0.353 C  
HETATM    6  H   UNL     1     -12.026   8.235  67.684  1.00  0.00     0.000 HD 
ENDROOT
BRANCH   3   7
HETATM    7  C   UNL     1     -10.764   9.850  67.900  1.00  0.00    -0.265 C  
BRANCH   7   8
HETATM    8  C   UNL     1     -10.118  10.588  66.698  1.00  0.00    -0.222 C  
HETATM    9  H   UNL     1      -9.655  10.153  64.839  1.00  0.00     0.000 HD 
HETATM   10  O   UNL     1     -10.051   9.701  65.575  1.00  0.00    -0.290 OA 
BRANCH   8  11
HETATM   11  C   UNL     1     -10.917  11.835  66.354  1.00  0.00    -0.341 A  
HETATM   12  C   UNL     1     -11.250  12.759  67.362  1.00  0.00    -0.337 A  
HETATM   13  C   UNL     1     -12.047  13.866  67.061  1.00  0.00    -0.415 A  
HETATM   14  C   UNL     1     -12.526  14.081  65.773  1.00  0.00    -0.523 A  
HETATM   15  O   UNL     1     -12.400  14.769  68.020  1.00  0.00    -0.592 OA 
HETATM   16  H   UNL     1     -12.942  15.521  67.815  1.00  0.00     0.000 HD 
HETATM   17  C   UNL     1     -12.188  13.175  64.775  1.00  0.00    -0.425 A  
HETATM   18  O   UNL     1     -12.630  13.332  63.495  1.00  0.00    -0.728 OA 
HETATM   19  C   UNL     1     -11.391  12.068  65.050  1.00  0.00    -0.365 A  
HETATM   20  H   UNL     1     -12.399  12.712  62.813  1.00  0.00     0.000 HD 
ENDBRANCH   8  11
ENDBRANCH   7   8
ENDBRANCH   3   7
TORSDOF 3
ENDMDL
MODEL       73
REMARK 921   NORMALIZED FREE ENERGY PREDICTED BY IDOCK:   -5.02 KCAL/MOL
REMARK 922        TOTAL FREE ENERGY PREDICTED BY IDOCK:   -6.19 KCAL/MOL
REMARK 923 INTER-LIGAND FREE ENERGY PREDICTED BY IDOCK:   -5.84 KCAL/MOL
REMARK 924 INTRA-LIGAND FREE ENERGY PREDICTED BY IDOCK:   -0.35 KCAL/MOL
REMARK 927      BINDING AFFINITY PREDICTED BY RF-SCORE:    0.00 PKD
ROOT
HETATM    1  C   UNL     1      -9.041  15.438  68.504  1.00  0.00    -0.197 C  
HETATM    2  C   UNL     1      -9.822  16.206  67.424  1.00  0.00    -0.238 C  
HETATM    3  N   UNL     1     -10.640  15.317  66.575  1.00  0.00    -0.298 NA 
HETATM    4  C   UNL     1     -10.693  17.292  68.079  1.00  0.00    -0.367 C  
HETATM    5  C   UNL     1      -8.801  16.903  66.504  1.00  0.00    -0.305 C  
HETATM    6  H   UNL     1     -10.039  14.705  66.023  1.00  0.00     0.000 HD 
ENDROOT
BRANCH   3   7
HETATM    7  C   UNL     1     -11.647  14.522  67.299  1.00  0.00    -0.385 C  
BRANCH   7   8
HETATM    8  C   UNL     1     -12.466  13.586  66.370  1.00  0.00    -0.292 C  
HETATM    9  H   UNL     1     -13.463  13.763  64.687  1.00  0.00     0.000 HD 
HETATM   10  O   UNL     1     -12.962  14.336  65.255  1.00  0.00    -0.679 OA 
BRANCH   8  11
HETATM   11  C   UNL     1     -11.603  12.426  65.900  1.00  0.00    -0.449 A  
HETATM   12  C   UNL     1     -10.921  11.629  66.838  1.00  0.00    -0.342 A  
HETATM   13  C   UNL     1     -10.070  10.611  66.403  1.00  0.00    -0.225 A  
HETATM   14  C   UNL     1      -9.879  10.359  65.048  1.00  0.00    -0.384 A  
HETATM   15  O   UNL     1      -9.382   9.834  67.288  1.00  0.00    -0.136 OA 
HETATM   16  H   UNL     1      -8.804   9.141  66.992  1.00  0.00     0.000 HD 
HETATM   17  C   UNL     1     -10.561  11.138  64.123  1.00  0.00    -0.368 A  
HETATM   18  O   UNL     1     -10.412  10.941  62.782  1.00  0.00    -0.772 OA 
HETATM   19  C   UNL     1     -11.419  12.156  64.532  1.00  0.00    -0.397 A  
HETATM   20  H   UNL     1     -10.879  11.474  62.148  1.00  0.00     0.000 HD 
ENDBRANCH   8  11
ENDBRANCH   7   8
ENDBRANCH   3   7
TORSDOF 3
ENDMDL
MODEL       74
REMARK 921   NORMALIZED FREE ENERGY PREDICTED BY IDOCK:   -5.01 KCAL/MOL
REMARK 922        TOTAL FREE ENERGY PREDICTED BY IDOCK:   -6.18 KCAL/MOL
REMARK 923 INTER-LIGAND FREE ENERGY PREDICTED BY IDOCK:   -5.86 KCAL/MOL
REMARK 924 INTRA-LIGAND FREE ENERGY PREDICTED BY IDOCK:   -0.32 KCAL/MOL
REMARK 927      BINDING AFFINITY PREDICTED BY RF-SCORE:    0.00 PKD
ROOT
HETATM    1  C   UNL     1      -6.173  17.232  67.408  1.00  0.00    -0.168 C  
HETATM    2  C   UNL     1      -6.943  17.373  68.732  1.00  0.00    -0.236 C  
HETATM    3  N   UNL     1      -8.406  17.437  68.533  1.00  0.00    -0.266 NA 
HETATM    4  C   UNL     1      -6.569  16.223  69.682  1.00  0.00    -0.175 C  
HETATM    5  C   UNL     1      -6.516  18.697  69.393  1.00  0.00    -0.269 C  
HETATM    6  H   UNL     1      -8.657  18.291  68.037  1.00  0.00     0.000 HD 
ENDROOT
BRANCH   3   7
HETATM    7  C   UNL     1      -8.992  16.265  67.860  1.00  0.00    -0.187 C  
BRANCH   7   8
HETATM    8  C   UNL     1      -9.999  16.646  66.743  1.00  0.00    -0.279 C  
HETATM    9  H   UNL     1      -9.915  17.504  64.977  1.00  0.00     0.000 HD 
HETATM   10  O   UNL     1      -9.298  17.270  65.661  1.00  0.00    -0.506 OA 
BRANCH   8  11
HETATM   11  C   UNL     1     -10.745  15.412  66.263  1.00  0.00    -0.312 A  
HETATM   12  C   UNL     1     -10.952  14.329  67.137  1.00  0.00    -0.305 A  
HETATM   13  C   UNL     1     -11.571  13.165  66.675  1.00  0.00    -0.356 A  
HETATM   14  C   UNL     1     -11.996  13.049  65.356  1.00  0.00    -0.457 A  
HETATM   15  O   UNL     1     -11.770  12.093  67.494  1.00  0.00    -0.415 OA 
HETATM   16  H   UNL     1     -12.191  11.302  67.180  1.00  0.00     0.000 HD 
HETATM   17  C   UNL     1     -11.802  14.122  64.496  1.00  0.00    -0.436 A  
HETATM   18  O   UNL     1     -12.194  14.066  63.191  1.00  0.00    -1.071 OA 
HETATM   19  C   UNL     1     -11.192  15.294  64.934  1.00  0.00    -0.422 A  
HETATM   20  H   UNL     1     -12.062  14.800  62.603  1.00  0.00     0.000 HD 
ENDBRANCH   8  11
ENDBRANCH   7   8
ENDBRANCH   3   7
TORSDOF 3
ENDMDL
MODEL       75
REMARK 921   NORMALIZED FREE ENERGY PREDICTED BY IDOCK:   -4.98 KCAL/MOL
REMARK 922        TOTAL FREE ENERGY PREDICTED BY IDOCK:   -6.14 KCAL/MOL
REMARK 923 INTER-LIGAND FREE ENERGY PREDICTED BY IDOCK:   -5.81 KCAL/MOL
REMARK 924 INTRA-LIGAND FREE ENERGY PREDICTED BY IDOCK:   -0.34 KCAL/MOL
REMARK 927      BINDING AFFINITY PREDICTED BY RF-SCORE:    0.00 PKD
ROOT
HETATM    1  C   UNL     1      -8.326  11.244  66.376  1.00  0.00    -0.159 C  
HETATM    2  C   UNL     1      -9.854  11.403  66.303  1.00  0.00    -0.218 C  
HETATM    3  N   UNL     1     -10.559  10.567  67.296  1.00  0.00    -0.247 NA 
HETATM    4  C   UNL     1     -10.235  12.884  66.464  1.00  0.00    -0.264 C  
HETATM    5  C   UNL     1     -10.315  10.940  64.908  1.00  0.00    -0.371 C  
HETATM    6  H   UNL     1     -10.427   9.578  67.082  1.00  0.00     0.000 HD 
ENDROOT
BRANCH   3   7
HETATM    7  C   UNL     1     -10.201  10.836  68.699  1.00  0.00    -0.185 C  
BRANCH   7   8
HETATM    8  C   UNL     1     -11.432  11.139  69.593  1.00  0.00    -0.310 C  
HETATM    9  H   UNL     1     -13.372  11.318  69.337  1.00  0.00     0.000 HD 
HETATM   10  O   UNL     1     -12.618  11.131  68.790  1.00  0.00    -0.345 OA 
BRANCH   8  11
HETATM   11  C   UNL     1     -11.533  10.119  70.715  1.00  0.00    -0.442 A  
HETATM   12  C   UNL     1     -10.463   9.240  70.967  1.00  0.00    -0.384 A  
HETATM   13  C   UNL     1     -10.585   8.253  71.948  1.00  0.00    -0.282 A  
HETATM   14  C   UNL     1     -11.751   8.116  72.694  1.00  0.00    -0.419 A  
HETATM   15  O   UNL     1      -9.572   7.376  72.203  1.00  0.00    -0.145 OA 
HETATM   16  H   UNL     1      -9.654   6.705  72.869  1.00  0.00     0.000 HD 
HETATM   17  C   UNL     1     -12.802   8.991  72.453  1.00  0.00    -0.385 A  
HETATM   18  O   UNL     1     -13.971   8.905  73.150  1.00  0.00    -1.118 OA 
HETATM   19  C   UNL     1     -12.703   9.986  71.485  1.00  0.00    -0.532 A  
HETATM   20  H   UNL     1     -14.691   9.503  72.986  1.00  0.00     0.000 HD 
ENDBRANCH   8  11
ENDBRANCH   7   8
ENDBRANCH   3   7
TORSDOF 3
ENDMDL
MODEL       76
REMARK 921   NORMALIZED FREE ENERGY PREDICTED BY IDOCK:   -4.97 KCAL/MOL
REMARK 922        TOTAL FREE ENERGY PREDICTED BY IDOCK:   -6.13 KCAL/MOL
REMARK 923 INTER-LIGAND FREE ENERGY PREDICTED BY IDOCK:   -5.79 KCAL/MOL
REMARK 924 INTRA-LIGAND FREE ENERGY PREDICTED BY IDOCK:   -0.34 KCAL/MOL
REMARK 927      BINDING AFFINITY PREDICTED BY RF-SCORE:    0.00 PKD
ROOT
HETATM    1  C   UNL     1      -8.175  11.448  66.530  1.00  0.00    -0.152 C  
HETATM    2  C   UNL     1      -9.700  11.318  66.374  1.00  0.00    -0.209 C  
HETATM    3  N   UNL     1     -10.307  10.468  67.418  1.00  0.00    -0.210 NA 
HETATM    4  C   UNL     1     -10.346  12.714  66.359  1.00  0.00    -0.264 C  
HETATM    5  C   UNL     1      -9.984  10.646  65.017  1.00  0.00    -0.369 C  
HETATM    6  H   UNL     1      -9.989   9.504  67.316  1.00  0.00     0.000 HD 
ENDROOT
BRANCH   3   7
HETATM    7  C   UNL     1     -10.090  10.932  68.799  1.00  0.00    -0.194 C  
BRANCH   7   8
HETATM    8  C   UNL     1     -11.412  11.122  69.590  1.00  0.00    -0.310 C  
HETATM    9  H   UNL     1     -13.325  11.251  69.163  1.00  0.00     0.000 HD 
HETATM   10  O   UNL     1     -12.516  11.134  68.678  1.00  0.00    -0.463 OA 
BRANCH   8  11
HETATM   11  C   UNL     1     -11.573  10.015  70.619  1.00  0.00    -0.422 A  
HETATM   12  C   UNL     1     -12.720   9.968  71.432  1.00  0.00    -0.518 A  
HETATM   13  C   UNL     1     -12.834   8.996  72.427  1.00  0.00    -0.385 A  
HETATM   14  C   UNL     1     -11.829   8.058  72.638  1.00  0.00    -0.380 A  
HETATM   15  O   UNL     1     -13.927   8.937  73.241  1.00  0.00    -1.203 OA 
HETATM   16  H   UNL     1     -14.004   8.276  73.918  1.00  0.00     0.000 HD 
HETATM   17  C   UNL     1     -10.701   8.096  71.829  1.00  0.00    -0.251 A  
HETATM   18  O   UNL     1      -9.681   7.205  71.990  1.00  0.00    -0.158 OA 
HETATM   19  C   UNL     1     -10.567   9.053  70.826  1.00  0.00    -0.300 A  
HETATM   20  H   UNL     1      -8.910   7.231  71.436  1.00  0.00     0.000 HD 
ENDBRANCH   8  11
ENDBRANCH   7   8
ENDBRANCH   3   7
TORSDOF 3
ENDMDL
MODEL       77
REMARK 921   NORMALIZED FREE ENERGY PREDICTED BY IDOCK:   -4.96 KCAL/MOL
REMARK 922        TOTAL FREE ENERGY PREDICTED BY IDOCK:   -6.13 KCAL/MOL
REMARK 923 INTER-LIGAND FREE ENERGY PREDICTED BY IDOCK:   -5.81 KCAL/MOL
REMARK 924 INTRA-LIGAND FREE ENERGY PREDICTED BY IDOCK:   -0.32 KCAL/MOL
REMARK 927      BINDING AFFINITY PREDICTED BY RF-SCORE:    0.00 PKD
ROOT
HETATM    1  C   UNL     1      -9.650  15.400  68.289  1.00  0.00    -0.205 C  
HETATM    2  C   UNL     1      -9.847  15.999  66.886  1.00  0.00    -0.245 C  
HETATM    3  N   UNL     1     -10.502  15.058  65.954  1.00  0.00    -0.309 NA 
HETATM    4  C   UNL     1     -10.638  17.315  66.983  1.00  0.00    -0.231 C  
HETATM    5  C   UNL     1      -8.456  16.320  66.305  1.00  0.00    -0.369 C  
HETATM    6  H   UNL     1      -9.894  14.260  65.773  1.00  0.00     0.000 HD 
ENDROOT
BRANCH   3   7
HETATM    7  C   UNL     1     -11.836  14.596  66.376  1.00  0.00    -0.293 C  
BRANCH   7   8
HETATM    8  C   UNL     1     -12.455  13.558  65.402  1.00  0.00    -0.497 C  
HETATM    9  H   UNL     1     -13.139  13.560  63.561  1.00  0.00     0.000 HD 
HETATM   10  O   UNL     1     -12.760  14.195  64.156  1.00  0.00    -0.656 OA 
BRANCH   8  11
HETATM   11  C   UNL     1     -11.499  12.395  65.195  1.00  0.00    -0.379 A  
HETATM   12  C   UNL     1     -11.139  12.002  63.893  1.00  0.00    -0.474 A  
HETATM   13  C   UNL     1     -10.320  10.887  63.700  1.00  0.00    -0.298 A  
HETATM   14  C   UNL     1      -9.843  10.147  64.777  1.00  0.00    -0.382 A  
HETATM   15  O   UNL     1      -9.968  10.472  62.450  1.00  0.00    -0.723 OA 
HETATM   16  H   UNL     1      -9.412   9.714  62.319  1.00  0.00     0.000 HD 
HETATM   17  C   UNL     1     -10.189  10.542  66.063  1.00  0.00    -0.245 A  
HETATM   18  O   UNL     1      -9.755   9.854  67.157  1.00  0.00    -0.166 OA 
HETATM   19  C   UNL     1     -10.999  11.652  66.281  1.00  0.00    -0.338 A  
HETATM   20  H   UNL     1      -9.991  10.124  68.037  1.00  0.00     0.000 HD 
ENDBRANCH   8  11
ENDBRANCH   7   8
ENDBRANCH   3   7
TORSDOF 3
ENDMDL
MODEL       78
REMARK 921   NORMALIZED FREE ENERGY PREDICTED BY IDOCK:   -4.96 KCAL/MOL
REMARK 922        TOTAL FREE ENERGY PREDICTED BY IDOCK:   -6.12 KCAL/MOL
REMARK 923 INTER-LIGAND FREE ENERGY PREDICTED BY IDOCK:   -5.87 KCAL/MOL
REMARK 924 INTRA-LIGAND FREE ENERGY PREDICTED BY IDOCK:   -0.25 KCAL/MOL
REMARK 927      BINDING AFFINITY PREDICTED BY RF-SCORE:    0.00 PKD
ROOT
HETATM    1  C   UNL     1      -8.684  19.054  68.244  1.00  0.00    -0.366 C  
HETATM    2  C   UNL     1      -8.904  19.104  66.723  1.00  0.00    -0.311 C  
HETATM    3  N   UNL     1      -9.341  17.806  66.170  1.00  0.00    -0.496 NA 
HETATM    4  C   UNL     1      -9.908  20.216  66.374  1.00  0.00    -0.560 C  
HETATM    5  C   UNL     1      -7.557  19.451  66.059  1.00  0.00    -0.308 C  
HETATM    6  H   UNL     1      -8.599  17.114  66.265  1.00  0.00     0.000 HD 
ENDROOT
BRANCH   3   7
HETATM    7  C   UNL     1     -10.599  17.285  66.732  1.00  0.00    -0.192 C  
BRANCH   7   8
HETATM    8  C   UNL     1     -10.396  16.016  67.603  1.00  0.00    -0.284 C  
HETATM    9  H   UNL     1     -11.216  15.245  69.212  1.00  0.00     0.000 HD 
HETATM   10  O   UNL     1     -11.340  16.021  68.680  1.00  0.00    -0.349 OA 
BRANCH   8  11
HETATM   11  C   UNL     1     -10.552  14.765  66.753  1.00  0.00    -0.302 A  
HETATM   12  C   UNL     1     -11.772  14.500  66.105  1.00  0.00    -0.355 A  
HETATM   13  C   UNL     1     -11.940  13.314  65.386  1.00  0.00    -0.395 A  
HETATM   14  C   UNL     1     -10.917  12.377  65.292  1.00  0.00    -0.335 A  
HETATM   15  O   UNL     1     -13.116  13.022  64.762  1.00  0.00    -0.742 OA 
HETATM   16  H   UNL     1     -13.230  12.216  64.274  1.00  0.00     0.000 HD 
HETATM   17  C   UNL     1      -9.708  12.644  65.923  1.00  0.00    -0.207 A  
HETATM   18  O   UNL     1      -8.669  11.762  65.868  1.00  0.00    -0.382 OA 
HETATM   19  C   UNL     1      -9.515  13.821  66.640  1.00  0.00    -0.289 A  
HETATM   20  H   UNL     1      -7.842  11.944  66.299  1.00  0.00     0.000 HD 
ENDBRANCH   8  11
ENDBRANCH   7   8
ENDBRANCH   3   7
TORSDOF 3
ENDMDL
MODEL       79
REMARK 921   NORMALIZED FREE ENERGY PREDICTED BY IDOCK:   -4.95 KCAL/MOL
REMARK 922        TOTAL FREE ENERGY PREDICTED BY IDOCK:   -6.11 KCAL/MOL
REMARK 923 INTER-LIGAND FREE ENERGY PREDICTED BY IDOCK:   -5.87 KCAL/MOL
REMARK 924 INTRA-LIGAND FREE ENERGY PREDICTED BY IDOCK:   -0.25 KCAL/MOL
REMARK 927      BINDING AFFINITY PREDICTED BY RF-SCORE:    0.00 PKD
ROOT
HETATM    1  C   UNL     1     -12.483  13.176  65.893  1.00  0.00    -0.386 C  
HETATM    2  C   UNL     1     -10.990  12.849  66.064  1.00  0.00    -0.276 C  
HETATM    3  N   UNL     1     -10.612  12.647  67.478  1.00  0.00    -0.219 NA 
HETATM    4  C   UNL     1     -10.621  11.619  65.217  1.00  0.00    -0.333 C  
HETATM    5  C   UNL     1     -10.176  14.050  65.542  1.00  0.00    -0.362 C  
HETATM    6  H   UNL     1     -10.710  13.520  67.997  1.00  0.00     0.000 HD 
ENDROOT
BRANCH   3   7
HETATM    7  C   UNL     1     -11.334  11.562  68.164  1.00  0.00    -0.298 C  
BRANCH   7   8
HETATM    8  C   UNL     1     -11.416  11.762  69.700  1.00  0.00    -0.270 C  
HETATM    9  H   UNL     1     -12.432  12.899  70.939  1.00  0.00     0.000 HD 
HETATM   10  O   UNL     1     -12.382  12.776  69.998  1.00  0.00    -0.223 OA 
BRANCH   8  11
HETATM   11  C   UNL     1     -11.778  10.453  70.383  1.00  0.00    -0.419 A  
HETATM   12  C   UNL     1     -12.704  10.443  71.442  1.00  0.00    -0.551 A  
HETATM   13  C   UNL     1     -12.981   9.252  72.118  1.00  0.00    -0.424 A  
HETATM   14  C   UNL     1     -12.356   8.061  71.766  1.00  0.00    -0.352 A  
HETATM   15  O   UNL     1     -13.861   9.215  73.159  1.00  0.00    -1.065 OA 
HETATM   16  H   UNL     1     -14.049   8.406  73.619  1.00  0.00     0.000 HD 
HETATM   17  C   UNL     1     -11.450   8.069  70.713  1.00  0.00    -0.263 A  
HETATM   18  O   UNL     1     -10.805   6.932  70.324  1.00  0.00    -0.234 OA 
HETATM   19  C   UNL     1     -11.162   9.241  70.021  1.00  0.00    -0.190 A  
HETATM   20  H   UNL     1     -10.185   6.937  69.604  1.00  0.00     0.000 HD 
ENDBRANCH   8  11
ENDBRANCH   7   8
ENDBRANCH   3   7
TORSDOF 3
ENDMDL
MODEL       80
REMARK 921   NORMALIZED FREE ENERGY PREDICTED BY IDOCK:   -4.94 KCAL/MOL
REMARK 922        TOTAL FREE ENERGY PREDICTED BY IDOCK:   -6.11 KCAL/MOL
REMARK 923 INTER-LIGAND FREE ENERGY PREDICTED BY IDOCK:   -5.57 KCAL/MOL
REMARK 924 INTRA-LIGAND FREE ENERGY PREDICTED BY IDOCK:   -0.54 KCAL/MOL
REMARK 927      BINDING AFFINITY PREDICTED BY RF-SCORE:    0.00 PKD
ROOT
HETATM    1  C   UNL     1      -7.082  18.255  66.570  1.00  0.00    -0.257 C  
HETATM    2  C   UNL     1      -7.473  19.504  67.378  1.00  0.00    -0.244 C  
HETATM    3  N   UNL     1      -8.931  19.736  67.393  1.00  0.00    -0.314 NA 
HETATM    4  C   UNL     1      -6.920  19.397  68.809  1.00  0.00    -0.368 C  
HETATM    5  C   UNL     1      -6.824  20.729  66.705  1.00  0.00    -0.352 C  
HETATM    6  H   UNL     1      -9.262  19.964  66.455  1.00  0.00     0.000 HD 
ENDROOT
BRANCH   3   7
HETATM    7  C   UNL     1      -9.729  18.635  67.960  1.00  0.00    -0.321 C  
BRANCH   7   8
HETATM    8  C   UNL     1     -10.705  18.000  66.934  1.00  0.00    -0.200 C  
HETATM    9  H   UNL     1     -11.160  18.270  65.042  1.00  0.00     0.000 HD 
HETATM   10  O   UNL     1     -10.562  18.659  65.670  1.00  0.00    -0.610 OA 
BRANCH   8  11
HETATM   11  C   UNL     1     -10.433  16.511  66.800  1.00  0.00    -0.269 A  
HETATM   12  C   UNL     1     -10.052  15.760  67.928  1.00  0.00    -0.230 A  
HETATM   13  C   UNL     1      -9.730  14.407  67.791  1.00  0.00    -0.221 A  
HETATM   14  C   UNL     1      -9.777  13.775  66.553  1.00  0.00    -0.301 A  
HETATM   15  O   UNL     1      -9.342  13.658  68.863  1.00  0.00    -0.395 OA 
HETATM   16  H   UNL     1      -9.122  12.739  68.770  1.00  0.00     0.000 HD 
HETATM   17  C   UNL     1     -10.164  14.514  65.442  1.00  0.00    -0.389 A  
HETATM   18  O   UNL     1     -10.227  13.950  64.202  1.00  0.00    -0.671 OA 
HETATM   19  C   UNL     1     -10.495  15.861  65.554  1.00  0.00    -0.425 A  
HETATM   20  H   UNL     1     -10.491  14.455  63.442  1.00  0.00     0.000 HD 
ENDBRANCH   8  11
ENDBRANCH   7   8
ENDBRANCH   3   7
TORSDOF 3
ENDMDL
MODEL       81
REMARK 921   NORMALIZED FREE ENERGY PREDICTED BY IDOCK:   -4.94 KCAL/MOL
REMARK 922        TOTAL FREE ENERGY PREDICTED BY IDOCK:   -6.10 KCAL/MOL
REMARK 923 INTER-LIGAND FREE ENERGY PREDICTED BY IDOCK:   -5.67 KCAL/MOL
REMARK 924 INTRA-LIGAND FREE ENERGY PREDICTED BY IDOCK:   -0.43 KCAL/MOL
REMARK 927      BINDING AFFINITY PREDICTED BY RF-SCORE:    0.00 PKD
ROOT
HETATM    1  C   UNL     1      -8.611  10.171  68.521  1.00  0.00    -0.118 C  
HETATM    2  C   UNL     1      -9.736  10.179  67.472  1.00  0.00    -0.162 C  
HETATM    3  N   UNL     1     -10.951  10.871  67.947  1.00  0.00    -0.249 NA 
HETATM    4  C   UNL     1      -9.226  10.802  66.161  1.00  0.00    -0.202 C  
HETATM    5  C   UNL     1     -10.128   8.717  67.184  1.00  0.00    -0.329 C  
HETATM    6  H   UNL     1     -11.371  10.356  68.721  1.00  0.00     0.000 HD 
ENDROOT
BRANCH   3   7
HETATM    7  C   UNL     1     -10.753  12.282  68.323  1.00  0.00    -0.221 C  
BRANCH   7   8
HETATM    8  C   UNL     1     -11.965  13.182  67.962  1.00  0.00    -0.304 C  
HETATM    9  H   UNL     1     -12.958  14.646  68.816  1.00  0.00     0.000 HD 
HETATM   10  O   UNL     1     -12.217  14.095  69.037  1.00  0.00    -0.332 OA 
BRANCH   8  11
HETATM   11  C   UNL     1     -11.696  13.932  66.668  1.00  0.00    -0.417 A  
HETATM   12  C   UNL     1     -10.967  15.136  66.688  1.00  0.00    -0.318 A  
HETATM   13  C   UNL     1     -10.785  15.863  65.510  1.00  0.00    -0.372 A  
HETATM   14  C   UNL     1     -11.311  15.422  64.300  1.00  0.00    -0.136 A  
HETATM   15  O   UNL     1     -10.097  17.041  65.502  1.00  0.00    -0.577 OA 
HETATM   16  H   UNL     1      -9.973  17.536  64.701  1.00  0.00     0.000 HD 
HETATM   17  C   UNL     1     -12.020  14.228  64.278  1.00  0.00    -0.425 A  
HETATM   18  O   UNL     1     -12.562  13.746  63.123  1.00  0.00    -1.024 OA 
HETATM   19  C   UNL     1     -12.211  13.483  65.438  1.00  0.00    -0.482 A  
HETATM   20  H   UNL     1     -13.048  12.929  63.107  1.00  0.00     0.000 HD 
ENDBRANCH   8  11
ENDBRANCH   7   8
ENDBRANCH   3   7
TORSDOF 3
ENDMDL
MODEL       82
REMARK 921   NORMALIZED FREE ENERGY PREDICTED BY IDOCK:   -4.94 KCAL/MOL
REMARK 922        TOTAL FREE ENERGY PREDICTED BY IDOCK:   -6.10 KCAL/MOL
REMARK 923 INTER-LIGAND FREE ENERGY PREDICTED BY IDOCK:   -5.73 KCAL/MOL
REMARK 924 INTRA-LIGAND FREE ENERGY PREDICTED BY IDOCK:   -0.37 KCAL/MOL
REMARK 927      BINDING AFFINITY PREDICTED BY RF-SCORE:    0.00 PKD
ROOT
HETATM    1  C   UNL     1     -12.154  12.350  63.688  1.00  0.00    -0.648 C  
HETATM    2  C   UNL     1     -10.728  12.181  64.239  1.00  0.00    -0.338 C  
HETATM    3  N   UNL     1     -10.159  13.449  64.740  1.00  0.00    -0.596 NA 
HETATM    4  C   UNL     1     -10.713  11.102  65.335  1.00  0.00    -0.259 C  
HETATM    5  C   UNL     1      -9.825  11.703  63.085  1.00  0.00    -0.407 C  
HETATM    6  H   UNL     1     -10.025  14.104  63.970  1.00  0.00     0.000 HD 
ENDROOT
BRANCH   3   7
HETATM    7  C   UNL     1     -10.927  14.087  65.824  1.00  0.00    -0.294 C  
BRANCH   7   8
HETATM    8  C   UNL     1     -10.089  14.312  67.111  1.00  0.00    -0.254 C  
HETATM    9  H   UNL     1      -9.095  15.798  67.924  1.00  0.00     0.000 HD 
HETATM   10  O   UNL     1      -9.607  15.660  67.136  1.00  0.00    -0.215 OA 
BRANCH   8  11
HETATM   11  C   UNL     1     -10.928  14.015  68.343  1.00  0.00    -0.269 A  
HETATM   12  C   UNL     1     -11.772  15.006  68.877  1.00  0.00    -0.354 A  
HETATM   13  C   UNL     1     -12.485  14.758  70.052  1.00  0.00    -0.281 A  
HETATM   14  C   UNL     1     -12.384  13.540  70.715  1.00  0.00    -0.440 A  
HETATM   15  O   UNL     1     -13.298  15.706  70.603  1.00  0.00    -0.772 OA 
HETATM   16  H   UNL     1     -13.782  15.537  71.402  1.00  0.00     0.000 HD 
HETATM   17  C   UNL     1     -11.560  12.557  70.181  1.00  0.00    -0.069 A  
HETATM   18  O   UNL     1     -11.417  11.345  70.788  1.00  0.00    -0.344 OA 
HETATM   19  C   UNL     1     -10.843  12.779  69.009  1.00  0.00    -0.192 A  
HETATM   20  H   UNL     1     -10.854  10.672  70.423  1.00  0.00     0.000 HD 
ENDBRANCH   8  11
ENDBRANCH   7   8
ENDBRANCH   3   7
TORSDOF 3
ENDMDL
MODEL       83
REMARK 921   NORMALIZED FREE ENERGY PREDICTED BY IDOCK:   -4.94 KCAL/MOL
REMARK 922        TOTAL FREE ENERGY PREDICTED BY IDOCK:   -6.10 KCAL/MOL
REMARK 923 INTER-LIGAND FREE ENERGY PREDICTED BY IDOCK:   -5.78 KCAL/MOL
REMARK 924 INTRA-LIGAND FREE ENERGY PREDICTED BY IDOCK:   -0.32 KCAL/MOL
REMARK 927      BINDING AFFINITY PREDICTED BY RF-SCORE:    0.00 PKD
ROOT
HETATM    1  C   UNL     1     -13.577  13.010  72.298  1.00  0.00    -0.643 C  
HETATM    2  C   UNL     1     -13.151  14.469  72.065  1.00  0.00    -0.344 C  
HETATM    3  N   UNL     1     -12.042  14.588  71.097  1.00  0.00    -0.331 NA 
HETATM    4  C   UNL     1     -14.363  15.304  71.616  1.00  0.00    -0.666 C  
HETATM    5  C   UNL     1     -12.649  15.039  73.405  1.00  0.00    -0.641 C  
HETATM    6  H   UNL     1     -11.195  14.167  71.477  1.00  0.00     0.000 HD 
ENDROOT
BRANCH   3   7
HETATM    7  C   UNL     1     -12.326  14.042  69.758  1.00  0.00    -0.291 C  
BRANCH   7   8
HETATM    8  C   UNL     1     -11.053  13.879  68.886  1.00  0.00    -0.266 C  
HETATM    9  H   UNL     1     -10.639  13.260  67.068  1.00  0.00     0.000 HD 
HETATM   10  O   UNL     1     -11.418  13.360  67.602  1.00  0.00    -0.285 OA 
BRANCH   8  11
HETATM   11  C   UNL     1     -10.337  15.213  68.745  1.00  0.00    -0.236 A  
HETATM   12  C   UNL     1     -10.984  16.299  68.127  1.00  0.00    -0.343 A  
HETATM   13  C   UNL     1     -10.301  17.501  67.930  1.00  0.00    -0.371 A  
HETATM   14  C   UNL     1      -8.980  17.655  68.337  1.00  0.00    -0.280 A  
HETATM   15  O   UNL     1     -10.897  18.565  67.319  1.00  0.00    -0.408 OA 
HETATM   16  H   UNL     1     -10.432  19.382  67.185  1.00  0.00     0.000 HD 
HETATM   17  C   UNL     1      -8.344  16.587  68.957  1.00  0.00    -0.202 A  
HETATM   18  O   UNL     1      -7.050  16.677  69.375  1.00  0.00    -0.232 OA 
HETATM   19  C   UNL     1      -9.006  15.381  69.169  1.00  0.00    -0.245 A  
HETATM   20  H   UNL     1      -6.615  15.946  69.800  1.00  0.00     0.000 HD 
ENDBRANCH   8  11
ENDBRANCH   7   8
ENDBRANCH   3   7
TORSDOF 3
ENDMDL
MODEL       84
REMARK 921   NORMALIZED FREE ENERGY PREDICTED BY IDOCK:   -4.92 KCAL/MOL
REMARK 922        TOTAL FREE ENERGY PREDICTED BY IDOCK:   -6.08 KCAL/MOL
REMARK 923 INTER-LIGAND FREE ENERGY PREDICTED BY IDOCK:   -5.80 KCAL/MOL
REMARK 924 INTRA-LIGAND FREE ENERGY PREDICTED BY IDOCK:   -0.27 KCAL/MOL
REMARK 927      BINDING AFFINITY PREDICTED BY RF-SCORE:    0.00 PKD
ROOT
HETATM    1  C   UNL     1      -7.784  10.268  67.101  1.00  0.00    -0.092 C  
HETATM    2  C   UNL     1      -8.961   9.379  66.665  1.00  0.00    -0.146 C  
HETATM    3  N   UNL     1     -10.250  10.099  66.676  1.00  0.00    -0.224 NA 
HETATM    4  C   UNL     1      -8.679   8.780  65.277  1.00  0.00    -0.216 C  
HETATM    5  C   UNL     1      -9.079   8.218  67.671  1.00  0.00    -0.139 C  
HETATM    6  H   UNL     1     -10.504  10.353  67.631  1.00  0.00     0.000 HD 
ENDROOT
BRANCH   3   7
HETATM    7  C   UNL     1     -10.307  11.284  65.802  1.00  0.00    -0.258 C  
BRANCH   7   8
HETATM    8  C   UNL     1     -11.479  12.239  66.148  1.00  0.00    -0.374 C  
HETATM    9  H   UNL     1     -12.655  12.555  67.690  1.00  0.00     0.000 HD 
HETATM   10  O   UNL     1     -11.937  11.970  67.478  1.00  0.00    -0.572 OA 
BRANCH   8  11
HETATM   11  C   UNL     1     -11.037  13.687  66.012  1.00  0.00    -0.297 A  
HETATM   12  C   UNL     1     -10.292  14.296  67.038  1.00  0.00    -0.267 A  
HETATM   13  C   UNL     1      -9.949  15.647  66.946  1.00  0.00    -0.248 A  
HETATM   14  C   UNL     1     -10.329  16.416  65.851  1.00  0.00    -0.378 A  
HETATM   15  O   UNL     1      -9.242  16.269  67.933  1.00  0.00    -0.199 OA 
HETATM   16  H   UNL     1      -9.010  17.188  67.871  1.00  0.00     0.000 HD 
HETATM   17  C   UNL     1     -11.055  15.811  64.832  1.00  0.00    -0.399 A  
HETATM   18  O   UNL     1     -11.458  16.514  63.735  1.00  0.00    -1.615 OA 
HETATM   19  C   UNL     1     -11.403  14.465  64.898  1.00  0.00    -0.380 A  
HETATM   20  H   UNL     1     -11.954  16.100  63.038  1.00  0.00     0.000 HD 
ENDBRANCH   8  11
ENDBRANCH   7   8
ENDBRANCH   3   7
TORSDOF 3
ENDMDL
MODEL       85
REMARK 921   NORMALIZED FREE ENERGY PREDICTED BY IDOCK:   -4.92 KCAL/MOL
REMARK 922        TOTAL FREE ENERGY PREDICTED BY IDOCK:   -6.08 KCAL/MOL
REMARK 923 INTER-LIGAND FREE ENERGY PREDICTED BY IDOCK:   -5.83 KCAL/MOL
REMARK 924 INTRA-LIGAND FREE ENERGY PREDICTED BY IDOCK:   -0.25 KCAL/MOL
REMARK 927      BINDING AFFINITY PREDICTED BY RF-SCORE:    0.00 PKD
ROOT
HETATM    1  C   UNL     1      -9.946   8.039  70.748  1.00  0.00    -0.202 C  
HETATM    2  C   UNL     1     -10.235   8.708  69.394  1.00  0.00    -0.210 C  
HETATM    3  N   UNL     1     -11.422   9.586  69.437  1.00  0.00    -0.438 NA 
HETATM    4  C   UNL     1      -8.995   9.485  68.918  1.00  0.00    -0.141 C  
HETATM    5  C   UNL     1     -10.526   7.597  68.366  1.00  0.00    -0.208 C  
HETATM    6  H   UNL     1     -12.264   9.032  69.596  1.00  0.00     0.000 HD 
ENDROOT
BRANCH   3   7
HETATM    7  C   UNL     1     -11.345  10.687  70.411  1.00  0.00    -0.304 C  
BRANCH   7   8
HETATM    8  C   UNL     1     -12.736  11.146  70.922  1.00  0.00    -0.344 C  
HETATM    9  H   UNL     1     -13.858  10.811  72.500  1.00  0.00     0.000 HD 
HETATM   10  O   UNL     1     -13.006  10.531  72.187  1.00  0.00    -0.435 OA 
BRANCH   8  11
HETATM   11  C   UNL     1     -12.781  12.661  71.038  1.00  0.00    -0.316 A  
HETATM   12  C   UNL     1     -13.317  13.265  72.191  1.00  0.00    -0.618 A  
HETATM   13  C   UNL     1     -13.427  14.655  72.265  1.00  0.00    -0.408 A  
HETATM   14  C   UNL     1     -13.014  15.469  71.216  1.00  0.00    -0.565 A  
HETATM   15  O   UNL     1     -13.957  15.268  73.362  1.00  0.00    -0.476 OA 
HETATM   16  H   UNL     1     -14.032  16.213  73.413  1.00  0.00     0.000 HD 
HETATM   17  C   UNL     1     -12.474  14.874  70.083  1.00  0.00    -0.306 A  
HETATM   18  O   UNL     1     -12.054  15.619  69.021  1.00  0.00    -0.545 OA 
HETATM   19  C   UNL     1     -12.349  13.491  69.987  1.00  0.00    -0.315 A  
HETATM   20  H   UNL     1     -11.685  15.212  68.246  1.00  0.00     0.000 HD 
ENDBRANCH   8  11
ENDBRANCH   7   8
ENDBRANCH   3   7
TORSDOF 3
ENDMDL
MODEL       86
REMARK 921   NORMALIZED FREE ENERGY PREDICTED BY IDOCK:   -4.92 KCAL/MOL
REMARK 922        TOTAL FREE ENERGY PREDICTED BY IDOCK:   -6.08 KCAL/MOL
REMARK 923 INTER-LIGAND FREE ENERGY PREDICTED BY IDOCK:   -5.85 KCAL/MOL
REMARK 924 INTRA-LIGAND FREE ENERGY PREDICTED BY IDOCK:   -0.23 KCAL/MOL
REMARK 927      BINDING AFFINITY PREDICTED BY RF-SCORE:    0.00 PKD
ROOT
HETATM    1  C   UNL     1     -14.006  15.440  71.813  1.00  0.00    -0.626 C  
HETATM    2  C   UNL     1     -12.875  14.477  72.212  1.00  0.00    -0.349 C  
HETATM    3  N   UNL     1     -11.907  14.255  71.119  1.00  0.00    -0.482 NA 
HETATM    4  C   UNL     1     -12.166  14.996  73.475  1.00  0.00    -0.554 C  
HETATM    5  C   UNL     1     -13.507  13.112  72.545  1.00  0.00    -0.579 C  
HETATM    6  H   UNL     1     -12.355  13.764  70.345  1.00  0.00     0.000 HD 
ENDROOT
BRANCH   3   7
HETATM    7  C   UNL     1     -11.235  15.471  70.629  1.00  0.00    -0.347 C  
BRANCH   7   8
HETATM    8  C   UNL     1     -10.637  15.304  69.207  1.00  0.00    -0.256 C  
HETATM    9  H   UNL     1     -11.305  14.809  67.427  1.00  0.00     0.000 HD 
HETATM   10  O   UNL     1     -11.671  14.911  68.297  1.00  0.00    -0.321 OA 
BRANCH   8  11
HETATM   11  C   UNL     1      -9.983  16.600  68.755  1.00  0.00    -0.265 A  
HETATM   12  C   UNL     1      -8.586  16.749  68.830  1.00  0.00    -0.255 A  
HETATM   13  C   UNL     1      -7.993  17.966  68.486  1.00  0.00    -0.298 A  
HETATM   14  C   UNL     1      -8.758  19.048  68.063  1.00  0.00    -0.341 A  
HETATM   15  O   UNL     1      -6.643  18.145  68.564  1.00  0.00    -0.204 OA 
HETATM   16  H   UNL     1      -6.240  18.973  68.331  1.00  0.00     0.000 HD 
HETATM   17  C   UNL     1     -10.136  18.897  67.978  1.00  0.00    -0.377 A  
HETATM   18  O   UNL     1     -10.939  19.923  67.574  1.00  0.00    -0.308 OA 
HETATM   19  C   UNL     1     -10.750  17.693  68.311  1.00  0.00    -0.285 A  
HETATM   20  H   UNL     1     -11.882  19.820  67.515  1.00  0.00     0.000 HD 
ENDBRANCH   8  11
ENDBRANCH   7   8
ENDBRANCH   3   7
TORSDOF 3
ENDMDL
MODEL       87
REMARK 921   NORMALIZED FREE ENERGY PREDICTED BY IDOCK:   -4.89 KCAL/MOL
REMARK 922        TOTAL FREE ENERGY PREDICTED BY IDOCK:   -6.04 KCAL/MOL
REMARK 923 INTER-LIGAND FREE ENERGY PREDICTED BY IDOCK:   -5.56 KCAL/MOL
REMARK 924 INTRA-LIGAND FREE ENERGY PREDICTED BY IDOCK:   -0.48 KCAL/MOL
REMARK 927      BINDING AFFINITY PREDICTED BY RF-SCORE:    0.00 PKD
ROOT
HETATM    1  C   UNL     1     -11.084  12.307  66.286  1.00  0.00    -0.342 C  
HETATM    2  C   UNL     1     -11.779  13.610  65.858  1.00  0.00    -0.354 C  
HETATM    3  N   UNL     1     -12.260  14.401  67.009  1.00  0.00    -0.563 NA 
HETATM    4  C   UNL     1     -10.833  14.444  64.977  1.00  0.00    -0.420 C  
HETATM    5  C   UNL     1     -13.013  13.237  65.014  1.00  0.00    -0.228 C  
HETATM    6  H   UNL     1     -13.004  13.900  67.494  1.00  0.00     0.000 HD 
ENDROOT
BRANCH   3   7
HETATM    7  C   UNL     1     -11.214  14.808  67.963  1.00  0.00    -0.299 C  
BRANCH   7   8
HETATM    8  C   UNL     1     -11.325  16.296  68.389  1.00  0.00    -0.312 C  
HETATM    9  H   UNL     1     -11.227  17.310  70.069  1.00  0.00     0.000 HD 
HETATM   10  O   UNL     1     -11.159  16.399  69.808  1.00  0.00    -0.338 OA 
BRANCH   8  11
HETATM   11  C   UNL     1     -10.285  17.131  67.660  1.00  0.00    -0.329 A  
HETATM   12  C   UNL     1      -9.020  16.587  67.372  1.00  0.00    -0.207 A  
HETATM   13  C   UNL     1      -8.039  17.379  66.770  1.00  0.00    -0.250 A  
HETATM   14  C   UNL     1      -8.284  18.707  66.442  1.00  0.00    -0.295 A  
HETATM   15  O   UNL     1      -6.798  16.884  66.495  1.00  0.00    -0.222 OA 
HETATM   16  H   UNL     1      -6.131  17.422  66.086  1.00  0.00     0.000 HD 
HETATM   17  C   UNL     1      -9.537  19.241  66.716  1.00  0.00    -0.334 A  
HETATM   18  O   UNL     1      -9.836  20.538  66.420  1.00  0.00    -0.612 OA 
HETATM   19  C   UNL     1     -10.533  18.471  67.311  1.00  0.00    -0.455 A  
HETATM   20  H   UNL     1     -10.693  20.904  66.607  1.00  0.00     0.000 HD 
ENDBRANCH   8  11
ENDBRANCH   7   8
ENDBRANCH   3   7
TORSDOF 3
ENDMDL
MODEL       88
REMARK 921   NORMALIZED FREE ENERGY PREDICTED BY IDOCK:   -4.88 KCAL/MOL
REMARK 922        TOTAL FREE ENERGY PREDICTED BY IDOCK:   -6.03 KCAL/MOL
REMARK 923 INTER-LIGAND FREE ENERGY PREDICTED BY IDOCK:   -5.62 KCAL/MOL
REMARK 924 INTRA-LIGAND FREE ENERGY PREDICTED BY IDOCK:   -0.41 KCAL/MOL
REMARK 927      BINDING AFFINITY PREDICTED BY RF-SCORE:    0.00 PKD
ROOT
HETATM    1  C   UNL     1     -10.321  12.121  64.356  1.00  0.00    -0.348 C  
HETATM    2  C   UNL     1     -11.707  12.706  64.676  1.00  0.00    -0.357 C  
HETATM    3  N   UNL     1     -12.114  12.466  66.076  1.00  0.00    -0.638 NA 
HETATM    4  C   UNL     1     -11.731  14.208  64.347  1.00  0.00    -0.409 C  
HETATM    5  C   UNL     1     -12.741  12.003  63.775  1.00  0.00    -0.516 C  
HETATM    6  H   UNL     1     -12.250  11.469  66.238  1.00  0.00     0.000 HD 
ENDROOT
BRANCH   3   7
HETATM    7  C   UNL     1     -11.206  13.028  67.090  1.00  0.00    -0.286 C  
BRANCH   7   8
HETATM    8  C   UNL     1     -11.790  14.273  67.807  1.00  0.00    -0.379 C  
HETATM    9  H   UNL     1     -12.556  14.676  69.571  1.00  0.00     0.000 HD 
HETATM   10  O   UNL     1     -12.198  13.913  69.132  1.00  0.00    -0.356 OA 
BRANCH   8  11
HETATM   11  C   UNL     1     -10.761  15.391  67.844  1.00  0.00    -0.286 A  
HETATM   12  C   UNL     1     -11.033  16.577  68.550  1.00  0.00    -0.350 A  
HETATM   13  C   UNL     1     -10.119  17.634  68.522  1.00  0.00    -0.375 A  
HETATM   14  C   UNL     1      -8.931  17.541  67.805  1.00  0.00    -0.245 A  
HETATM   15  O   UNL     1     -10.363  18.801  69.182  1.00  0.00    -0.506 OA 
HETATM   16  H   UNL     1      -9.742  19.519  69.163  1.00  0.00     0.000 HD 
HETATM   17  C   UNL     1      -8.657  16.365  67.117  1.00  0.00    -0.181 A  
HETATM   18  O   UNL     1      -7.510  16.216  66.395  1.00  0.00    -0.165 OA 
HETATM   19  C   UNL     1      -9.549  15.297  67.135  1.00  0.00    -0.223 A  
HETATM   20  H   UNL     1      -7.322  15.412  65.925  1.00  0.00     0.000 HD 
ENDBRANCH   8  11
ENDBRANCH   7   8
ENDBRANCH   3   7
TORSDOF 3
ENDMDL
MODEL       89
REMARK 921   NORMALIZED FREE ENERGY PREDICTED BY IDOCK:   -4.87 KCAL/MOL
REMARK 922        TOTAL FREE ENERGY PREDICTED BY IDOCK:   -6.02 KCAL/MOL
REMARK 923 INTER-LIGAND FREE ENERGY PREDICTED BY IDOCK:   -5.78 KCAL/MOL
REMARK 924 INTRA-LIGAND FREE ENERGY PREDICTED BY IDOCK:   -0.25 KCAL/MOL
REMARK 927      BINDING AFFINITY PREDICTED BY RF-SCORE:    0.00 PKD
ROOT
HETATM    1  C   UNL     1     -12.518  12.776  65.058  1.00  0.00    -0.572 C  
HETATM    2  C   UNL     1     -11.156  12.469  65.702  1.00  0.00    -0.303 C  
HETATM    3  N   UNL     1     -10.267  13.649  65.738  1.00  0.00    -0.301 NA 
HETATM    4  C   UNL     1     -11.360  11.894  67.114  1.00  0.00    -0.393 C  
HETATM    5  C   UNL     1     -10.454  11.397  64.846  1.00  0.00    -0.363 C  
HETATM    6  H   UNL     1     -10.009  13.925  64.791  1.00  0.00     0.000 HD 
ENDROOT
BRANCH   3   7
HETATM    7  C   UNL     1     -10.802  14.805  66.478  1.00  0.00    -0.319 C  
BRANCH   7   8
HETATM    8  C   UNL     1      -9.710  15.585  67.259  1.00  0.00    -0.218 C  
HETATM    9  H   UNL     1      -7.773  15.868  67.103  1.00  0.00     0.000 HD 
HETATM   10  O   UNL     1      -8.441  15.391  66.625  1.00  0.00    -0.259 OA 
BRANCH   8  11
HETATM   11  C   UNL     1     -10.063  17.062  67.322  1.00  0.00    -0.295 A  
HETATM   12  C   UNL     1     -10.305  17.781  66.137  1.00  0.00    -0.340 A  
HETATM   13  C   UNL     1     -10.555  19.154  66.191  1.00  0.00    -0.439 A  
HETATM   14  C   UNL     1     -10.573  19.838  67.402  1.00  0.00    -0.553 A  
HETATM   15  O   UNL     1     -10.776  19.880  65.058  1.00  0.00    -0.172 OA 
HETATM   16  H   UNL     1     -10.945  20.814  65.094  1.00  0.00     0.000 HD 
HETATM   17  C   UNL     1     -10.345  19.126  68.573  1.00  0.00    -0.283 A  
HETATM   18  O   UNL     1     -10.348  19.742  69.789  1.00  0.00    -0.591 OA 
HETATM   19  C   UNL     1     -10.099  17.756  68.545  1.00  0.00    -0.377 A  
HETATM   20  H   UNL     1     -10.192  19.255  70.591  1.00  0.00     0.000 HD 
ENDBRANCH   8  11
ENDBRANCH   7   8
ENDBRANCH   3   7
TORSDOF 3
ENDMDL
MODEL       90
REMARK 921   NORMALIZED FREE ENERGY PREDICTED BY IDOCK:   -4.83 KCAL/MOL
REMARK 922        TOTAL FREE ENERGY PREDICTED BY IDOCK:   -5.97 KCAL/MOL
REMARK 923 INTER-LIGAND FREE ENERGY PREDICTED BY IDOCK:   -5.73 KCAL/MOL
REMARK 924 INTRA-LIGAND FREE ENERGY PREDICTED BY IDOCK:   -0.24 KCAL/MOL
REMARK 927      BINDING AFFINITY PREDICTED BY RF-SCORE:    0.00 PKD
ROOT
HETATM    1  C   UNL     1     -12.816   9.251  72.274  1.00  0.00    -0.459 C  
HETATM    2  C   UNL     1     -11.801   8.413  71.479  1.00  0.00    -0.297 C  
HETATM    3  N   UNL     1     -11.553   8.955  70.128  1.00  0.00    -0.462 NA 
HETATM    4  C   UNL     1     -10.488   8.289  72.270  1.00  0.00    -0.392 C  
HETATM    5  C   UNL     1     -12.387   6.999  71.301  1.00  0.00    -0.426 C  
HETATM    6  H   UNL     1     -12.396   8.884  69.558  1.00  0.00     0.000 HD 
ENDROOT
BRANCH   3   7
HETATM    7  C   UNL     1     -11.034  10.333  70.098  1.00  0.00    -0.314 C  
BRANCH   7   8
HETATM    8  C   UNL     1     -12.033  11.346  69.479  1.00  0.00    -0.341 C  
HETATM    9  H   UNL     1     -12.774  13.099  69.967  1.00  0.00     0.000 HD 
HETATM   10  O   UNL     1     -12.162  12.479  70.346  1.00  0.00    -0.348 OA 
BRANCH   8  11
HETATM   11  C   UNL     1     -11.562  11.773  68.098  1.00  0.00    -0.391 A  
HETATM   12  C   UNL     1     -11.807  13.082  67.643  1.00  0.00    -0.401 A  
HETATM   13  C   UNL     1     -11.441  13.452  66.347  1.00  0.00    -0.329 A  
HETATM   14  C   UNL     1     -10.830  12.549  65.484  1.00  0.00    -0.312 A  
HETATM   15  O   UNL     1     -11.681  14.708  65.872  1.00  0.00    -0.353 OA 
HETATM   16  H   UNL     1     -11.432  14.959  64.991  1.00  0.00     0.000 HD 
HETATM   17  C   UNL     1     -10.577  11.260  65.937  1.00  0.00    -0.253 A  
HETATM   18  O   UNL     1      -9.983  10.330  65.136  1.00  0.00    -0.299 OA 
HETATM   19  C   UNL     1     -10.928  10.869  67.226  1.00  0.00    -0.355 A  
HETATM   20  H   UNL     1      -9.810   9.449  65.446  1.00  0.00     0.000 HD 
ENDBRANCH   8  11
ENDBRANCH   7   8
ENDBRANCH   3   7
TORSDOF 3
ENDMDL
MODEL       91
REMARK 921   NORMALIZED FREE ENERGY PREDICTED BY IDOCK:   -4.83 KCAL/MOL
REMARK 922        TOTAL FREE ENERGY PREDICTED BY IDOCK:   -5.97 KCAL/MOL
REMARK 923 INTER-LIGAND FREE ENERGY PREDICTED BY IDOCK:   -5.69 KCAL/MOL
REMARK 924 INTRA-LIGAND FREE ENERGY PREDICTED BY IDOCK:   -0.28 KCAL/MOL
REMARK 927      BINDING AFFINITY PREDICTED BY RF-SCORE:    0.00 PKD
ROOT
HETATM    1  C   UNL     1     -12.018  14.539  67.133  1.00  0.00    -0.373 C  
HETATM    2  C   UNL     1     -11.412  13.550  66.123  1.00  0.00    -0.325 C  
HETATM    3  N   UNL     1     -10.724  12.420  66.780  1.00  0.00    -0.230 NA 
HETATM    4  C   UNL     1     -12.503  13.045  65.164  1.00  0.00    -0.552 C  
HETATM    5  C   UNL     1     -10.357  14.304  65.292  1.00  0.00    -0.417 C  
HETATM    6  H   UNL     1      -9.903  12.752  67.286  1.00  0.00     0.000 HD 
ENDROOT
BRANCH   3   7
HETATM    7  C   UNL     1     -11.574  11.607  67.666  1.00  0.00    -0.279 C  
BRANCH   7   8
HETATM    8  C   UNL     1     -10.767  10.595  68.523  1.00  0.00    -0.217 C  
HETATM    9  H   UNL     1      -8.945  10.474  69.246  1.00  0.00     0.000 HD 
HETATM   10  O   UNL     1      -9.439  11.093  68.722  1.00  0.00    -0.191 OA 
BRANCH   8  11
HETATM   11  C   UNL     1     -11.461  10.362  69.855  1.00  0.00    -0.368 A  
HETATM   12  C   UNL     1     -11.396   9.100  70.473  1.00  0.00    -0.300 A  
HETATM   13  C   UNL     1     -12.095   8.864  71.659  1.00  0.00    -0.346 A  
HETATM   14  C   UNL     1     -12.864   9.859  72.253  1.00  0.00    -0.345 A  
HETATM   15  O   UNL     1     -12.064   7.646  72.272  1.00  0.00    -0.370 OA 
HETATM   16  H   UNL     1     -12.540   7.486  73.078  1.00  0.00     0.000 HD 
HETATM   17  C   UNL     1     -12.920  11.109  71.649  1.00  0.00    -0.443 A  
HETATM   18  O   UNL     1     -13.659  12.123  72.183  1.00  0.00    -0.453 OA 
HETATM   19  C   UNL     1     -12.227  11.369  70.470  1.00  0.00    -0.478 A  
HETATM   20  H   UNL     1     -13.697  12.978  71.770  1.00  0.00     0.000 HD 
ENDBRANCH   8  11
ENDBRANCH   7   8
ENDBRANCH   3   7
TORSDOF 3
ENDMDL
MODEL       92
REMARK 921   NORMALIZED FREE ENERGY PREDICTED BY IDOCK:   -4.82 KCAL/MOL
REMARK 922        TOTAL FREE ENERGY PREDICTED BY IDOCK:   -5.96 KCAL/MOL
REMARK 923 INTER-LIGAND FREE ENERGY PREDICTED BY IDOCK:   -5.63 KCAL/MOL
REMARK 924 INTRA-LIGAND FREE ENERGY PREDICTED BY IDOCK:   -0.33 KCAL/MOL
REMARK 927      BINDING AFFINITY PREDICTED BY RF-SCORE:    0.00 PKD
ROOT
HETATM    1  C   UNL     1      -8.446  16.495  68.860  1.00  0.00    -0.235 C  
HETATM    2  C   UNL     1      -9.582  17.086  68.008  1.00  0.00    -0.260 C  
HETATM    3  N   UNL     1     -10.561  16.065  67.582  1.00  0.00    -0.304 NA 
HETATM    4  C   UNL     1     -10.276  18.224  68.776  1.00  0.00    -0.342 C  
HETATM    5  C   UNL     1      -8.959  17.681  66.731  1.00  0.00    -0.272 C  
HETATM    6  H   UNL     1     -10.123  15.403  66.942  1.00  0.00     0.000 HD 
ENDROOT
BRANCH   3   7
HETATM    7  C   UNL     1     -11.226  15.346  68.682  1.00  0.00    -0.308 C  
BRANCH   7   8
HETATM    8  C   UNL     1     -11.243  13.808  68.481  1.00  0.00    -0.275 C  
HETATM    9  H   UNL     1      -9.911  12.393  68.192  1.00  0.00     0.000 HD 
HETATM   10  O   UNL     1      -9.901  13.334  68.315  1.00  0.00    -0.225 OA 
BRANCH   8  11
HETATM   11  C   UNL     1     -11.913  13.129  69.665  1.00  0.00    -0.370 A  
HETATM   12  C   UNL     1     -12.619  13.896  70.610  1.00  0.00    -0.405 A  
HETATM   13  C   UNL     1     -13.171  13.282  71.737  1.00  0.00    -0.405 A  
HETATM   14  C   UNL     1     -13.040  11.914  71.951  1.00  0.00    -0.474 A  
HETATM   15  O   UNL     1     -13.846  14.002  72.678  1.00  0.00    -0.636 OA 
HETATM   16  H   UNL     1     -14.220  13.585  73.444  1.00  0.00     0.000 HD 
HETATM   17  C   UNL     1     -12.352  11.155  71.012  1.00  0.00    -0.382 A  
HETATM   18  O   UNL     1     -12.189   9.811  71.168  1.00  0.00    -0.316 OA 
HETATM   19  C   UNL     1     -11.798  11.743  69.878  1.00  0.00    -0.423 A  
HETATM   20  H   UNL     1     -11.719   9.292  70.526  1.00  0.00     0.000 HD 
ENDBRANCH   8  11
ENDBRANCH   7   8
ENDBRANCH   3   7
TORSDOF 3
ENDMDL
MODEL       93
REMARK 921   NORMALIZED FREE ENERGY PREDICTED BY IDOCK:   -4.82 KCAL/MOL
REMARK 922        TOTAL FREE ENERGY PREDICTED BY IDOCK:   -5.96 KCAL/MOL
REMARK 923 INTER-LIGAND FREE ENERGY PREDICTED BY IDOCK:   -5.70 KCAL/MOL
REMARK 924 INTRA-LIGAND FREE ENERGY PREDICTED BY IDOCK:   -0.26 KCAL/MOL
REMARK 927      BINDING AFFINITY PREDICTED BY RF-SCORE:    0.00 PKD
ROOT
HETATM    1  C   UNL     1     -12.500  13.173  65.895  1.00  0.00    -0.386 C  
HETATM    2  C   UNL     1     -11.007  12.885  66.123  1.00  0.00    -0.281 C  
HETATM    3  N   UNL     1     -10.665  12.760  67.555  1.00  0.00    -0.227 NA 
HETATM    4  C   UNL     1     -10.591  11.622  65.349  1.00  0.00    -0.331 C  
HETATM    5  C   UNL     1     -10.201  14.074  65.565  1.00  0.00    -0.362 C  
HETATM    6  H   UNL     1     -10.795  13.655  68.028  1.00  0.00     0.000 HD 
ENDROOT
BRANCH   3   7
HETATM    7  C   UNL     1     -11.386  11.696  68.274  1.00  0.00    -0.285 C  
BRANCH   7   8
HETATM    8  C   UNL     1     -11.570  11.999  69.785  1.00  0.00    -0.276 C  
HETATM    9  H   UNL     1     -12.725  13.154  70.878  1.00  0.00     0.000 HD 
HETATM   10  O   UNL     1     -12.612  12.968  69.953  1.00  0.00    -0.049 OA 
BRANCH   8  11
HETATM   11  C   UNL     1     -11.893  10.722  70.543  1.00  0.00    -0.453 A  
HETATM   12  C   UNL     1     -11.143   9.554  70.309  1.00  0.00    -0.317 A  
HETATM   13  C   UNL     1     -11.487   8.362  70.949  1.00  0.00    -0.267 A  
HETATM   14  C   UNL     1     -12.565   8.298  71.825  1.00  0.00    -0.364 A  
HETATM   15  O   UNL     1     -10.789   7.211  70.729  1.00  0.00    -0.234 OA 
HETATM   16  H   UNL     1     -11.023   6.400  71.164  1.00  0.00     0.000 HD 
HETATM   17  C   UNL     1     -13.299   9.453  72.065  1.00  0.00    -0.450 A  
HETATM   18  O   UNL     1     -14.367   9.452  72.912  1.00  0.00    -0.870 OA 
HETATM   19  C   UNL     1     -12.972  10.654  71.443  1.00  0.00    -0.545 A  
HETATM   20  H   UNL     1     -14.869  10.242  73.076  1.00  0.00     0.000 HD 
ENDBRANCH   8  11
ENDBRANCH   7   8
ENDBRANCH   3   7
TORSDOF 3
ENDMDL
MODEL       94
REMARK 921   NORMALIZED FREE ENERGY PREDICTED BY IDOCK:   -4.80 KCAL/MOL
REMARK 922        TOTAL FREE ENERGY PREDICTED BY IDOCK:   -5.94 KCAL/MOL
REMARK 923 INTER-LIGAND FREE ENERGY PREDICTED BY IDOCK:   -5.45 KCAL/MOL
REMARK 924 INTRA-LIGAND FREE ENERGY PREDICTED BY IDOCK:   -0.49 KCAL/MOL
REMARK 927      BINDING AFFINITY PREDICTED BY RF-SCORE:    0.00 PKD
ROOT
HETATM    1  C   UNL     1      -7.206  18.340  66.898  1.00  0.00    -0.227 C  
HETATM    2  C   UNL     1      -7.504  19.775  67.364  1.00  0.00    -0.263 C  
HETATM    3  N   UNL     1      -8.925  20.142  67.197  1.00  0.00    -0.346 NA 
HETATM    4  C   UNL     1      -7.058  19.955  68.825  1.00  0.00    -0.332 C  
HETATM    5  C   UNL     1      -6.679  20.740  66.490  1.00  0.00    -0.322 C  
HETATM    6  H   UNL     1      -9.167  20.174  66.207  1.00  0.00     0.000 HD 
ENDROOT
BRANCH   3   7
HETATM    7  C   UNL     1      -9.876  19.286  67.926  1.00  0.00    -0.350 C  
BRANCH   7   8
HETATM    8  C   UNL     1     -10.782  18.447  66.987  1.00  0.00    -0.293 C  
HETATM    9  H   UNL     1     -11.135  18.351  65.057  1.00  0.00     0.000 HD 
HETATM   10  O   UNL     1     -10.580  18.864  65.632  1.00  0.00    -0.575 OA 
BRANCH   8  11
HETATM   11  C   UNL     1     -10.479  16.966  67.148  1.00  0.00    -0.296 A  
HETATM   12  C   UNL     1     -10.280  16.160  66.012  1.00  0.00    -0.374 A  
HETATM   13  C   UNL     1     -10.076  14.786  66.157  1.00  0.00    -0.296 A  
HETATM   14  C   UNL     1     -10.062  14.186  67.411  1.00  0.00    -0.240 A  
HETATM   15  O   UNL     1      -9.897  13.977  65.073  1.00  0.00    -0.588 OA 
HETATM   16  H   UNL     1      -9.758  13.043  65.171  1.00  0.00     0.000 HD 
HETATM   17  C   UNL     1     -10.247  14.984  68.533  1.00  0.00    -0.227 A  
HETATM   18  O   UNL     1     -10.246  14.453  69.789  1.00  0.00    -0.422 OA 
HETATM   19  C   UNL     1     -10.447  16.356  68.415  1.00  0.00    -0.298 A  
HETATM   20  H   UNL     1     -10.372  14.999  70.557  1.00  0.00     0.000 HD 
ENDBRANCH   8  11
ENDBRANCH   7   8
ENDBRANCH   3   7
TORSDOF 3
ENDMDL
MODEL       95
REMARK 921   NORMALIZED FREE ENERGY PREDICTED BY IDOCK:   -4.79 KCAL/MOL
REMARK 922        TOTAL FREE ENERGY PREDICTED BY IDOCK:   -5.93 KCAL/MOL
REMARK 923 INTER-LIGAND FREE ENERGY PREDICTED BY IDOCK:   -5.49 KCAL/MOL
REMARK 924 INTRA-LIGAND FREE ENERGY PREDICTED BY IDOCK:   -0.44 KCAL/MOL
REMARK 927      BINDING AFFINITY PREDICTED BY RF-SCORE:    0.00 PKD
ROOT
HETATM    1  C   UNL     1     -10.665   5.093  72.084  1.00  0.00    -0.252 C  
HETATM    2  C   UNL     1      -9.589   5.014  73.181  1.00  0.00    -0.140 C  
HETATM    3  N   UNL     1      -8.667   6.168  73.155  1.00  0.00    -0.121 NA 
HETATM    4  C   UNL     1     -10.256   4.876  74.560  1.00  0.00    -0.302 C  
HETATM    5  C   UNL     1      -8.745   3.750  72.930  1.00  0.00    -0.099 C  
HETATM    6  H   UNL     1      -8.113   6.158  72.299  1.00  0.00     0.000 HD 
ENDROOT
BRANCH   3   7
HETATM    7  C   UNL     1      -9.312   7.481  73.329  1.00  0.00    -0.219 C  
BRANCH   7   8
HETATM    8  C   UNL     1      -9.261   8.358  72.050  1.00  0.00    -0.234 C  
HETATM    9  H   UNL     1      -8.685   8.129  70.186  1.00  0.00     0.000 HD 
HETATM   10  O   UNL     1      -8.716   7.592  70.969  1.00  0.00    -0.134 OA 
BRANCH   8  11
HETATM   11  C   UNL     1     -10.651   8.867  71.705  1.00  0.00    -0.432 A  
HETATM   12  C   UNL     1     -10.869   9.561  70.501  1.00  0.00    -0.352 A  
HETATM   13  C   UNL     1     -12.129  10.094  70.219  1.00  0.00    -0.204 A  
HETATM   14  C   UNL     1     -13.188   9.952  71.109  1.00  0.00    -0.424 A  
HETATM   15  O   UNL     1     -12.366  10.787  69.069  1.00  0.00    -0.751 OA 
HETATM   16  H   UNL     1     -13.222  11.149  68.877  1.00  0.00     0.000 HD 
HETATM   17  C   UNL     1     -12.976   9.256  72.293  1.00  0.00    -0.412 A  
HETATM   18  O   UNL     1     -13.975   9.087  73.205  1.00  0.00    -1.205 OA 
HETATM   19  C   UNL     1     -11.731   8.712  72.594  1.00  0.00    -0.206 A  
HETATM   20  H   UNL     1     -13.830   8.611  74.015  1.00  0.00     0.000 HD 
ENDBRANCH   8  11
ENDBRANCH   7   8
ENDBRANCH   3   7
TORSDOF 3
ENDMDL
MODEL       96
REMARK 921   NORMALIZED FREE ENERGY PREDICTED BY IDOCK:   -4.78 KCAL/MOL
REMARK 922        TOTAL FREE ENERGY PREDICTED BY IDOCK:   -5.92 KCAL/MOL
REMARK 923 INTER-LIGAND FREE ENERGY PREDICTED BY IDOCK:   -5.63 KCAL/MOL
REMARK 924 INTRA-LIGAND FREE ENERGY PREDICTED BY IDOCK:   -0.28 KCAL/MOL
REMARK 927      BINDING AFFINITY PREDICTED BY RF-SCORE:    0.00 PKD
ROOT
HETATM    1  C   UNL     1      -8.398   8.528  67.929  1.00  0.00    -0.126 C  
HETATM    2  C   UNL     1      -9.725   8.878  67.236  1.00  0.00    -0.181 C  
HETATM    3  N   UNL     1     -10.692   9.517  68.151  1.00  0.00    -0.357 NA 
HETATM    4  C   UNL     1      -9.458   9.769  66.010  1.00  0.00    -0.269 C  
HETATM    5  C   UNL     1     -10.365   7.566  66.741  1.00  0.00    -0.332 C  
HETATM    6  H   UNL     1     -10.985   8.858  68.872  1.00  0.00     0.000 HD 
ENDROOT
BRANCH   3   7
HETATM    7  C   UNL     1     -10.227  10.772  68.767  1.00  0.00    -0.193 C  
BRANCH   7   8
HETATM    8  C   UNL     1     -11.194  11.962  68.527  1.00  0.00    -0.256 C  
HETATM    9  H   UNL     1     -12.647  12.390  67.276  1.00  0.00     0.000 HD 
HETATM   10  O   UNL     1     -12.055  11.661  67.423  1.00  0.00    -0.605 OA 
BRANCH   8  11
HETATM   11  C   UNL     1     -12.004  12.243  69.783  1.00  0.00    -0.365 A  
HETATM   12  C   UNL     1     -12.138  13.561  70.255  1.00  0.00    -0.425 A  
HETATM   13  C   UNL     1     -12.818  13.811  71.449  1.00  0.00    -0.369 A  
HETATM   14  C   UNL     1     -13.375  12.776  72.192  1.00  0.00    -0.593 A  
HETATM   15  O   UNL     1     -12.949  15.077  71.940  1.00  0.00    -0.309 OA 
HETATM   16  H   UNL     1     -13.411  15.247  72.752  1.00  0.00     0.000 HD 
HETATM   17  C   UNL     1     -13.253  11.475  71.720  1.00  0.00    -0.351 A  
HETATM   18  O   UNL     1     -13.776  10.420  72.406  1.00  0.00    -0.545 OA 
HETATM   19  C   UNL     1     -12.584  11.202  70.531  1.00  0.00    -0.360 A  
HETATM   20  H   UNL     1     -13.693   9.530  72.084  1.00  0.00     0.000 HD 
ENDBRANCH   8  11
ENDBRANCH   7   8
ENDBRANCH   3   7
TORSDOF 3
ENDMDL
MODEL       97
REMARK 921   NORMALIZED FREE ENERGY PREDICTED BY IDOCK:   -4.78 KCAL/MOL
REMARK 922        TOTAL FREE ENERGY PREDICTED BY IDOCK:   -5.91 KCAL/MOL
REMARK 923 INTER-LIGAND FREE ENERGY PREDICTED BY IDOCK:   -5.56 KCAL/MOL
REMARK 924 INTRA-LIGAND FREE ENERGY PREDICTED BY IDOCK:   -0.36 KCAL/MOL
REMARK 927      BINDING AFFINITY PREDICTED BY RF-SCORE:    0.00 PKD
ROOT
HETATM    1  C   UNL     1      -9.924  13.485  66.679  1.00  0.00    -0.282 C  
HETATM    2  C   UNL     1     -11.340  13.378  67.269  1.00  0.00    -0.319 C  
HETATM    3  N   UNL     1     -11.565  14.323  68.381  1.00  0.00    -0.302 NA 
HETATM    4  C   UNL     1     -12.387  13.579  66.159  1.00  0.00    -0.463 C  
HETATM    5  C   UNL     1     -11.514  11.956  67.837  1.00  0.00    -0.385 C  
HETATM    6  H   UNL     1     -10.974  14.080  69.176  1.00  0.00     0.000 HD 
ENDROOT
BRANCH   3   7
HETATM    7  C   UNL     1     -11.390  15.744  68.033  1.00  0.00    -0.310 C  
BRANCH   7   8
HETATM    8  C   UNL     1     -10.440  16.495  69.003  1.00  0.00    -0.303 C  
HETATM    9  H   UNL     1      -8.782  16.090  69.976  1.00  0.00     0.000 HD 
HETATM   10  O   UNL     1      -9.363  15.630  69.381  1.00  0.00    -0.255 OA 
BRANCH   8  11
HETATM   11  C   UNL     1      -9.912  17.761  68.348  1.00  0.00    -0.362 A  
HETATM   12  C   UNL     1     -10.625  18.359  67.293  1.00  0.00    -0.435 A  
HETATM   13  C   UNL     1     -10.102  19.479  66.642  1.00  0.00    -0.420 A  
HETATM   14  C   UNL     1      -8.879  20.026  67.015  1.00  0.00    -0.433 A  
HETATM   15  O   UNL     1     -10.762  20.070  65.605  1.00  0.00    -0.439 OA 
HETATM   16  H   UNL     1     -10.407  20.830  65.162  1.00  0.00     0.000 HD 
HETATM   17  C   UNL     1      -8.181  19.442  68.065  1.00  0.00    -0.318 A  
HETATM   18  O   UNL     1      -6.976  19.932  68.474  1.00  0.00    -0.294 OA 
HETATM   19  C   UNL     1      -8.683  18.329  68.733  1.00  0.00    -0.238 A  
HETATM   20  H   UNL     1      -6.498  19.533  69.192  1.00  0.00     0.000 HD 
ENDBRANCH   8  11
ENDBRANCH   7   8
ENDBRANCH   3   7
TORSDOF 3
ENDMDL
MODEL       98
REMARK 921   NORMALIZED FREE ENERGY PREDICTED BY IDOCK:   -4.77 KCAL/MOL
REMARK 922        TOTAL FREE ENERGY PREDICTED BY IDOCK:   -5.90 KCAL/MOL
REMARK 923 INTER-LIGAND FREE ENERGY PREDICTED BY IDOCK:   -5.39 KCAL/MOL
REMARK 924 INTRA-LIGAND FREE ENERGY PREDICTED BY IDOCK:   -0.51 KCAL/MOL
REMARK 927      BINDING AFFINITY PREDICTED BY RF-SCORE:    0.00 PKD
ROOT
HETATM    1  C   UNL     1      -8.259  14.020  67.199  1.00  0.00    -0.146 C  
HETATM    2  C   UNL     1      -7.440  13.135  68.153  1.00  0.00    -0.131 C  
HETATM    3  N   UNL     1      -8.224  12.006  68.693  1.00  0.00    -0.306 NA 
HETATM    4  C   UNL     1      -6.172  12.631  67.443  1.00  0.00    -0.149 C  
HETATM    5  C   UNL     1      -7.004  14.001  69.351  1.00  0.00    -0.050 C  
HETATM    6  H   UNL     1      -8.971  12.351  69.296  1.00  0.00     0.000 HD 
ENDROOT
BRANCH   3   7
HETATM    7  C   UNL     1      -8.772  11.089  67.678  1.00  0.00    -0.128 C  
BRANCH   7   8
HETATM    8  C   UNL     1     -10.323  11.074  67.647  1.00  0.00    -0.191 C  
HETATM    9  H   UNL     1     -11.780  11.818  68.736  1.00  0.00     0.000 HD 
HETATM   10  O   UNL     1     -10.830  11.827  68.755  1.00  0.00    -0.211 OA 
BRANCH   8  11
HETATM   11  C   UNL     1     -10.829  11.643  66.331  1.00  0.00    -0.333 A  
HETATM   12  C   UNL     1     -11.799  12.662  66.329  1.00  0.00    -0.471 A  
HETATM   13  C   UNL     1     -12.318  13.133  65.121  1.00  0.00    -0.473 A  
HETATM   14  C   UNL     1     -11.893  12.614  63.903  1.00  0.00    -0.544 A  
HETATM   15  O   UNL     1     -13.271  14.108  65.089  1.00  0.00    -0.743 OA 
HETATM   16  H   UNL     1     -13.624  14.427  64.267  1.00  0.00     0.000 HD 
HETATM   17  C   UNL     1     -10.927  11.615  63.903  1.00  0.00    -0.407 A  
HETATM   18  O   UNL     1     -10.473  11.066  62.741  1.00  0.00    -0.756 OA 
HETATM   19  C   UNL     1     -10.391  11.134  65.095  1.00  0.00    -0.354 A  
HETATM   20  H   UNL     1      -9.812  10.383  62.741  1.00  0.00     0.000 HD 
ENDBRANCH   8  11
ENDBRANCH   7   8
ENDBRANCH   3   7
TORSDOF 3
ENDMDL
MODEL       99
REMARK 921   NORMALIZED FREE ENERGY PREDICTED BY IDOCK:   -4.75 KCAL/MOL
REMARK 922        TOTAL FREE ENERGY PREDICTED BY IDOCK:   -5.88 KCAL/MOL
REMARK 923 INTER-LIGAND FREE ENERGY PREDICTED BY IDOCK:   -5.59 KCAL/MOL
REMARK 924 INTRA-LIGAND FREE ENERGY PREDICTED BY IDOCK:   -0.29 KCAL/MOL
REMARK 927      BINDING AFFINITY PREDICTED BY RF-SCORE:    0.00 PKD
ROOT
HETATM    1  C   UNL     1     -10.065  13.379  67.778  1.00  0.00    -0.232 C  
HETATM    2  C   UNL     1     -11.598  13.406  67.894  1.00  0.00    -0.339 C  
HETATM    3  N   UNL     1     -12.162  12.091  68.262  1.00  0.00    -0.314 NA 
HETATM    4  C   UNL     1     -12.029  14.488  68.900  1.00  0.00    -0.326 C  
HETATM    5  C   UNL     1     -12.174  13.779  66.515  1.00  0.00    -0.475 C  
HETATM    6  H   UNL     1     -12.008  11.419  67.511  1.00  0.00     0.000 HD 
ENDROOT
BRANCH   3   7
HETATM    7  C   UNL     1     -11.680  11.545  69.542  1.00  0.00    -0.346 C  
BRANCH   7   8
HETATM    8  C   UNL     1     -10.915  10.205  69.382  1.00  0.00    -0.245 C  
HETATM    9  H   UNL     1      -9.043   9.612  69.456  1.00  0.00     0.000 HD 
HETATM   10  O   UNL     1      -9.511  10.433  69.555  1.00  0.00    -0.205 OA 
BRANCH   8  11
HETATM   11  C   UNL     1     -11.424   9.184  70.387  1.00  0.00    -0.228 A  
HETATM   12  C   UNL     1     -10.966   7.855  70.337  1.00  0.00    -0.251 A  
HETATM   13  C   UNL     1     -11.490   6.901  71.212  1.00  0.00    -0.296 A  
HETATM   14  C   UNL     1     -12.465   7.235  72.145  1.00  0.00    -0.203 A  
HETATM   15  O   UNL     1     -11.076   5.602  71.175  1.00  0.00    -0.230 OA 
HETATM   16  H   UNL     1     -11.433   4.952  71.770  1.00  0.00     0.000 HD 
HETATM   17  C   UNL     1     -12.909   8.550  72.202  1.00  0.00    -0.369 A  
HETATM   18  O   UNL     1     -13.866   8.938  73.094  1.00  0.00    -1.084 OA 
HETATM   19  C   UNL     1     -12.399   9.520  71.344  1.00  0.00    -0.451 A  
HETATM   20  H   UNL     1     -14.170   9.837  73.133  1.00  0.00     0.000 HD 
ENDBRANCH   8  11
ENDBRANCH   7   8
ENDBRANCH   3   7
TORSDOF 3
ENDMDL
MODEL      100
REMARK 921   NORMALIZED FREE ENERGY PREDICTED BY IDOCK:   -4.73 KCAL/MOL
REMARK 922        TOTAL FREE ENERGY PREDICTED BY IDOCK:   -5.85 KCAL/MOL
REMARK 923 INTER-LIGAND FREE ENERGY PREDICTED BY IDOCK:   -5.58 KCAL/MOL
REMARK 924 INTRA-LIGAND FREE ENERGY PREDICTED BY IDOCK:   -0.27 KCAL/MOL
REMARK 927      BINDING AFFINITY PREDICTED BY RF-SCORE:    0.00 PKD
ROOT
HETATM    1  C   UNL     1     -11.852  12.881  68.260  1.00  0.00    -0.372 C  
HETATM    2  C   UNL     1     -11.125  13.004  66.911  1.00  0.00    -0.277 C  
HETATM    3  N   UNL     1     -10.893  14.408  66.516  1.00  0.00    -0.305 NA 
HETATM    4  C   UNL     1      -9.801  12.221  66.954  1.00  0.00    -0.216 C  
HETATM    5  C   UNL     1     -12.020  12.369  65.828  1.00  0.00    -0.437 C  
HETATM    6  H   UNL     1     -11.782  14.875  66.334  1.00  0.00     0.000 HD 
ENDROOT
BRANCH   3   7
HETATM    7  C   UNL     1     -10.091  15.195  67.468  1.00  0.00    -0.232 C  
BRANCH   7   8
HETATM    8  C   UNL     1     -10.859  16.411  68.052  1.00  0.00    -0.342 C  
HETATM    9  H   UNL     1     -11.534  16.960  69.813  1.00  0.00     0.000 HD 
HETATM   10  O   UNL     1     -11.063  16.216  69.456  1.00  0.00    -0.304 OA 
BRANCH   8  11
HETATM   11  C   UNL     1     -10.088  17.695  67.791  1.00  0.00    -0.338 A  
HETATM   12  C   UNL     1      -9.069  18.097  68.674  1.00  0.00    -0.290 A  
HETATM   13  C   UNL     1      -8.412  19.314  68.476  1.00  0.00    -0.366 A  
HETATM   14  C   UNL     1      -8.743  20.148  67.414  1.00  0.00    -0.425 A  
HETATM   15  O   UNL     1      -7.432  19.738  69.325  1.00  0.00    -0.316 OA 
HETATM   16  H   UNL     1      -6.986  20.565  69.191  1.00  0.00     0.000 HD 
HETATM   17  C   UNL     1      -9.741  19.745  66.535  1.00  0.00    -0.422 A  
HETATM   18  O   UNL     1     -10.110  20.522  65.477  1.00  0.00    -0.505 OA 
HETATM   19  C   UNL     1     -10.406  18.535  66.709  1.00  0.00    -0.435 A  
HETATM   20  H   UNL     1     -10.793  20.247  64.876  1.00  0.00     0.000 HD 
ENDBRANCH   8  11
ENDBRANCH   7   8
ENDBRANCH   3   7
TORSDOF 3
ENDMDL
MODEL      101
REMARK 921   NORMALIZED FREE ENERGY PREDICTED BY IDOCK:   -4.73 KCAL/MOL
REMARK 922        TOTAL FREE ENERGY PREDICTED BY IDOCK:   -5.85 KCAL/MOL
REMARK 923 INTER-LIGAND FREE ENERGY PREDICTED BY IDOCK:   -5.46 KCAL/MOL
REMARK 924 INTRA-LIGAND FREE ENERGY PREDICTED BY IDOCK:   -0.39 KCAL/MOL
REMARK 927      BINDING AFFINITY PREDICTED BY RF-SCORE:    0.00 PKD
ROOT
HETATM    1  C   UNL     1      -7.963  10.763  67.511  1.00  0.00    -0.110 C  
HETATM    2  C   UNL     1      -8.891   9.610  67.092  1.00  0.00    -0.132 C  
HETATM    3  N   UNL     1     -10.272  10.061  66.827  1.00  0.00    -0.227 NA 
HETATM    4  C   UNL     1      -8.306   8.885  65.868  1.00  0.00    -0.132 C  
HETATM    5  C   UNL     1      -8.956   8.603  68.257  1.00  0.00    -0.142 C  
HETATM    6  H   UNL     1     -10.705  10.395  67.688  1.00  0.00     0.000 HD 
ENDROOT
BRANCH   3   7
HETATM    7  C   UNL     1     -10.400  11.075  65.767  1.00  0.00    -0.257 C  
BRANCH   7   8
HETATM    8  C   UNL     1     -11.521  12.111  66.048  1.00  0.00    -0.370 C  
HETATM    9  H   UNL     1     -12.689  12.574  67.558  1.00  0.00     0.000 HD 
HETATM   10  O   UNL     1     -12.003  11.941  67.386  1.00  0.00    -0.603 OA 
BRANCH   8  11
HETATM   11  C   UNL     1     -10.999  13.523  65.837  1.00  0.00    -0.284 A  
HETATM   12  C   UNL     1     -11.670  14.400  64.964  1.00  0.00    -0.389 A  
HETATM   13  C   UNL     1     -11.148  15.671  64.713  1.00  0.00    -0.412 A  
HETATM   14  C   UNL     1      -9.969  16.098  65.312  1.00  0.00    -0.007 A  
HETATM   15  O   UNL     1     -11.767  16.536  63.859  1.00  0.00    -1.527 OA 
HETATM   16  H   UNL     1     -11.413  17.400  63.688  1.00  0.00     0.000 HD 
HETATM   17  C   UNL     1      -9.312  15.237  66.182  1.00  0.00    -0.325 A  
HETATM   18  O   UNL     1      -8.151  15.599  66.797  1.00  0.00    -0.235 OA 
HETATM   19  C   UNL     1      -9.815  13.968  66.453  1.00  0.00    -0.306 A  
HETATM   20  H   UNL     1      -7.702  15.010  67.393  1.00  0.00     0.000 HD 
ENDBRANCH   8  11
ENDBRANCH   7   8
ENDBRANCH   3   7
TORSDOF 3
ENDMDL
MODEL      102
REMARK 921   NORMALIZED FREE ENERGY PREDICTED BY IDOCK:   -4.71 KCAL/MOL
REMARK 922        TOTAL FREE ENERGY PREDICTED BY IDOCK:   -5.83 KCAL/MOL
REMARK 923 INTER-LIGAND FREE ENERGY PREDICTED BY IDOCK:   -5.65 KCAL/MOL
REMARK 924 INTRA-LIGAND FREE ENERGY PREDICTED BY IDOCK:   -0.18 KCAL/MOL
REMARK 927      BINDING AFFINITY PREDICTED BY RF-SCORE:    0.00 PKD
ROOT
HETATM    1  C   UNL     1      -8.392  17.994  68.264  1.00  0.00    -0.295 C  
HETATM    2  C   UNL     1      -8.489  18.418  66.789  1.00  0.00    -0.264 C  
HETATM    3  N   UNL     1      -8.993  17.336  65.920  1.00  0.00    -0.531 NA 
HETATM    4  C   UNL     1      -9.365  19.677  66.662  1.00  0.00    -0.460 C  
HETATM    5  C   UNL     1      -7.071  18.772  66.301  1.00  0.00    -0.274 C  
HETATM    6  H   UNL     1      -8.322  16.568  65.887  1.00  0.00     0.000 HD 
ENDROOT
BRANCH   3   7
HETATM    7  C   UNL     1     -10.330  16.829  66.272  1.00  0.00    -0.310 C  
BRANCH   7   8
HETATM    8  C   UNL     1     -10.286  15.481  67.041  1.00  0.00    -0.279 C  
HETATM    9  H   UNL     1     -11.242  14.670  68.554  1.00  0.00     0.000 HD 
HETATM   10  O   UNL     1     -11.269  15.495  68.083  1.00  0.00    -0.316 OA 
BRANCH   8  11
HETATM   11  C   UNL     1     -10.528  14.323  66.086  1.00  0.00    -0.294 A  
HETATM   12  C   UNL     1      -9.966  13.061  66.353  1.00  0.00    -0.277 A  
HETATM   13  C   UNL     1     -10.125  12.017  65.439  1.00  0.00    -0.256 A  
HETATM   14  C   UNL     1     -10.836  12.195  64.256  1.00  0.00    -0.388 A  
HETATM   15  O   UNL     1      -9.578  10.788  65.662  1.00  0.00    -0.194 OA 
HETATM   16  H   UNL     1      -9.686  10.078  65.040  1.00  0.00     0.000 HD 
HETATM   17  C   UNL     1     -11.400  13.438  63.999  1.00  0.00    -0.320 A  
HETATM   18  O   UNL     1     -12.105  13.674  62.855  1.00  0.00    -0.795 OA 
HETATM   19  C   UNL     1     -11.260  14.492  64.897  1.00  0.00    -0.395 A  
HETATM   20  H   UNL     1     -12.492  14.524  62.679  1.00  0.00     0.000 HD 
ENDBRANCH   8  11
ENDBRANCH   7   8
ENDBRANCH   3   7
TORSDOF 3
ENDMDL
MODEL      103
REMARK 921   NORMALIZED FREE ENERGY PREDICTED BY IDOCK:   -4.70 KCAL/MOL
REMARK 922        TOTAL FREE ENERGY PREDICTED BY IDOCK:   -5.81 KCAL/MOL
REMARK 923 INTER-LIGAND FREE ENERGY PREDICTED BY IDOCK:   -5.44 KCAL/MOL
REMARK 924 INTRA-LIGAND FREE ENERGY PREDICTED BY IDOCK:   -0.38 KCAL/MOL
REMARK 927      BINDING AFFINITY PREDICTED BY RF-SCORE:    0.00 PKD
ROOT
HETATM    1  C   UNL     1      -6.745  10.409  68.099  1.00  0.00    -0.061 C  
HETATM    2  C   UNL     1      -6.819  11.606  67.136  1.00  0.00    -0.143 C  
HETATM    3  N   UNL     1      -7.005  11.193  65.731  1.00  0.00    -0.373 NA 
HETATM    4  C   UNL     1      -7.937  12.567  67.577  1.00  0.00    -0.175 C  
HETATM    5  C   UNL     1      -5.480  12.364  67.215  1.00  0.00    -0.087 C  
HETATM    6  H   UNL     1      -6.181  10.690  65.399  1.00  0.00     0.000 HD 
ENDROOT
BRANCH   3   7
HETATM    7  C   UNL     1      -8.221  10.404  65.472  1.00  0.00    -0.162 C  
BRANCH   7   8
HETATM    8  C   UNL     1      -8.964  10.838  64.180  1.00  0.00    -0.154 C  
HETATM    9  H   UNL     1      -9.736   9.945  62.610  1.00  0.00     0.000 HD 
HETATM   10  O   UNL     1      -9.281   9.679  63.400  1.00  0.00    -0.241 OA 
BRANCH   8  11
HETATM   11  C   UNL     1     -10.223  11.613  64.533  1.00  0.00    -0.337 A  
HETATM   12  C   UNL     1     -10.875  12.384  63.552  1.00  0.00    -0.487 A  
HETATM   13  C   UNL     1     -11.988  13.155  63.894  1.00  0.00    -0.488 A  
HETATM   14  C   UNL     1     -12.477  13.179  65.195  1.00  0.00    -0.539 A  
HETATM   15  O   UNL     1     -12.629  13.925  62.969  1.00  0.00    -1.030 OA 
HETATM   16  H   UNL     1     -13.386  14.450  63.201  1.00  0.00     0.000 HD 
HETATM   17  C   UNL     1     -11.841  12.409  66.161  1.00  0.00    -0.376 A  
HETATM   18  O   UNL     1     -12.273  12.394  67.454  1.00  0.00    -0.459 OA 
HETATM   19  C   UNL     1     -10.734  11.628  65.844  1.00  0.00    -0.328 A  
HETATM   20  H   UNL     1     -11.839  11.867  68.115  1.00  0.00     0.000 HD 
ENDBRANCH   8  11
ENDBRANCH   7   8
ENDBRANCH   3   7
TORSDOF 3
ENDMDL
MODEL      104
REMARK 921   NORMALIZED FREE ENERGY PREDICTED BY IDOCK:   -4.68 KCAL/MOL
REMARK 922        TOTAL FREE ENERGY PREDICTED BY IDOCK:   -5.80 KCAL/MOL
REMARK 923 INTER-LIGAND FREE ENERGY PREDICTED BY IDOCK:   -5.73 KCAL/MOL
REMARK 924 INTRA-LIGAND FREE ENERGY PREDICTED BY IDOCK:   -0.07 KCAL/MOL
REMARK 927      BINDING AFFINITY PREDICTED BY RF-SCORE:    0.00 PKD
ROOT
HETATM    1  C   UNL     1     -11.777  15.200  71.680  1.00  0.00    -0.458 C  
HETATM    2  C   UNL     1     -12.685  14.464  70.681  1.00  0.00    -0.357 C  
HETATM    3  N   UNL     1     -12.516  14.951  69.296  1.00  0.00    -0.575 NA 
HETATM    4  C   UNL     1     -12.436  12.948  70.763  1.00  0.00    -0.370 C  
HETATM    5  C   UNL     1     -14.149  14.730  71.081  1.00  0.00    -0.323 C  
HETATM    6  H   UNL     1     -12.837  15.916  69.220  1.00  0.00     0.000 HD 
ENDROOT
BRANCH   3   7
HETATM    7  C   UNL     1     -11.152  14.824  68.756  1.00  0.00    -0.265 C  
BRANCH   7   8
HETATM    8  C   UNL     1     -10.294  16.100  68.964  1.00  0.00    -0.258 C  
HETATM    9  H   UNL     1      -8.411  16.507  69.348  1.00  0.00     0.000 HD 
HETATM   10  O   UNL     1      -8.936  15.725  69.220  1.00  0.00    -0.243 OA 
BRANCH   8  11
HETATM   11  C   UNL     1     -10.385  17.000  67.743  1.00  0.00    -0.335 A  
HETATM   12  C   UNL     1     -10.294  18.397  67.888  1.00  0.00    -0.425 A  
HETATM   13  C   UNL     1     -10.453  19.228  66.776  1.00  0.00    -0.448 A  
HETATM   14  C   UNL     1     -10.700  18.703  65.512  1.00  0.00     0.019 A  
HETATM   15  O   UNL     1     -10.387  20.585  66.889  1.00  0.00    -0.300 OA 
HETATM   16  H   UNL     1     -10.495  21.150  66.133  1.00  0.00     0.000 HD 
HETATM   17  C   UNL     1     -10.778  17.323  65.367  1.00  0.00    -0.066 A  
HETATM   18  O   UNL     1     -11.021  16.750  64.154  1.00  0.00    -1.109 OA 
HETATM   19  C   UNL     1     -10.619  16.475  66.459  1.00  0.00    -0.217 A  
HETATM   20  H   UNL     1     -11.075  15.807  64.054  1.00  0.00     0.000 HD 
ENDBRANCH   8  11
ENDBRANCH   7   8
ENDBRANCH   3   7
TORSDOF 3
ENDMDL
MODEL      105
REMARK 921   NORMALIZED FREE ENERGY PREDICTED BY IDOCK:   -4.68 KCAL/MOL
REMARK 922        TOTAL FREE ENERGY PREDICTED BY IDOCK:   -5.79 KCAL/MOL
REMARK 923 INTER-LIGAND FREE ENERGY PREDICTED BY IDOCK:   -5.45 KCAL/MOL
REMARK 924 INTRA-LIGAND FREE ENERGY PREDICTED BY IDOCK:   -0.34 KCAL/MOL
REMARK 927      BINDING AFFINITY PREDICTED BY RF-SCORE:    0.00 PKD
ROOT
HETATM    1  C   UNL     1      -7.187   5.588  72.293  1.00  0.00    -0.089 C  
HETATM    2  C   UNL     1      -7.742   7.001  72.537  1.00  0.00    -0.093 C  
HETATM    3  N   UNL     1      -8.604   7.471  71.433  1.00  0.00    -0.119 NA 
HETATM    4  C   UNL     1      -8.495   7.045  73.878  1.00  0.00    -0.172 C  
HETATM    5  C   UNL     1      -6.549   7.972  72.628  1.00  0.00    -0.082 C  
HETATM    6  H   UNL     1      -8.054   7.591  70.583  1.00  0.00     0.000 HD 
ENDROOT
BRANCH   3   7
HETATM    7  C   UNL     1      -9.781   6.627  71.164  1.00  0.00    -0.174 C  
BRANCH   7   8
HETATM    8  C   UNL     1     -10.756   7.255  70.132  1.00  0.00    -0.244 C  
HETATM    9  H   UNL     1     -12.247   6.632  69.015  1.00  0.00     0.000 HD 
HETATM   10  O   UNL     1     -11.650   6.247  69.647  1.00  0.00    -0.430 OA 
BRANCH   8  11
HETATM   11  C   UNL     1     -11.526   8.402  70.766  1.00  0.00    -0.277 A  
HETATM   12  C   UNL     1     -12.534   8.136  71.712  1.00  0.00    -0.363 A  
HETATM   13  C   UNL     1     -13.292   9.184  72.239  1.00  0.00    -0.477 A  
HETATM   14  C   UNL     1     -13.073  10.501  71.849  1.00  0.00    -0.567 A  
HETATM   15  O   UNL     1     -14.286   8.956  73.144  1.00  0.00    -1.143 OA 
HETATM   16  H   UNL     1     -14.802   9.668  73.502  1.00  0.00     0.000 HD 
HETATM   17  C   UNL     1     -12.071  10.764  70.923  1.00  0.00    -0.370 A  
HETATM   18  O   UNL     1     -11.812  12.034  70.500  1.00  0.00    -0.491 OA 
HETATM   19  C   UNL     1     -11.298   9.738  70.388  1.00  0.00    -0.362 A  
HETATM   20  H   UNL     1     -11.126  12.215  69.868  1.00  0.00     0.000 HD 
ENDBRANCH   8  11
ENDBRANCH   7   8
ENDBRANCH   3   7
TORSDOF 3
ENDMDL
MODEL      106
REMARK 921   NORMALIZED FREE ENERGY PREDICTED BY IDOCK:   -4.66 KCAL/MOL
REMARK 922        TOTAL FREE ENERGY PREDICTED BY IDOCK:   -5.77 KCAL/MOL
REMARK 923 INTER-LIGAND FREE ENERGY PREDICTED BY IDOCK:   -5.43 KCAL/MOL
REMARK 924 INTRA-LIGAND FREE ENERGY PREDICTED BY IDOCK:   -0.34 KCAL/MOL
REMARK 927      BINDING AFFINITY PREDICTED BY RF-SCORE:    0.00 PKD
ROOT
HETATM    1  C   UNL     1     -10.395  12.429  64.142  1.00  0.00    -0.409 C  
HETATM    2  C   UNL     1     -11.795  12.840  64.627  1.00  0.00    -0.374 C  
HETATM    3  N   UNL     1     -12.088  12.355  65.991  1.00  0.00    -0.638 NA 
HETATM    4  C   UNL     1     -11.951  14.369  64.543  1.00  0.00    -0.487 C  
HETATM    5  C   UNL     1     -12.833  12.202  63.684  1.00  0.00    -0.464 C  
HETATM    6  H   UNL     1     -12.139  11.337  66.000  1.00  0.00     0.000 HD 
ENDROOT
BRANCH   3   7
HETATM    7  C   UNL     1     -11.156  12.827  67.030  1.00  0.00    -0.278 C  
BRANCH   7   8
HETATM    8  C   UNL     1     -11.779  13.898  67.965  1.00  0.00    -0.352 C  
HETATM    9  H   UNL     1     -12.412  13.975  69.823  1.00  0.00     0.000 HD 
HETATM   10  O   UNL     1     -12.030  13.320  69.251  1.00  0.00    -0.312 OA 
BRANCH   8  11
HETATM   11  C   UNL     1     -10.853  15.097  68.083  1.00  0.00    -0.266 A  
HETATM   12  C   UNL     1      -9.585  14.953  68.676  1.00  0.00    -0.222 A  
HETATM   13  C   UNL     1      -8.765  16.070  68.852  1.00  0.00    -0.236 A  
HETATM   14  C   UNL     1      -9.173  17.336  68.449  1.00  0.00    -0.268 A  
HETATM   15  O   UNL     1      -7.538  15.964  69.439  1.00  0.00    -0.226 OA 
HETATM   16  H   UNL     1      -6.980  16.723  69.559  1.00  0.00     0.000 HD 
HETATM   17  C   UNL     1     -10.420  17.477  67.852  1.00  0.00    -0.384 A  
HETATM   18  O   UNL     1     -10.876  18.693  67.439  1.00  0.00    -0.439 OA 
HETATM   19  C   UNL     1     -11.253  16.378  67.661  1.00  0.00    -0.072 A  
HETATM   20  H   UNL     1     -11.729  18.790  67.031  1.00  0.00     0.000 HD 
ENDBRANCH   8  11
ENDBRANCH   7   8
ENDBRANCH   3   7
TORSDOF 3
ENDMDL
MODEL      107
REMARK 921   NORMALIZED FREE ENERGY PREDICTED BY IDOCK:   -4.62 KCAL/MOL
REMARK 922        TOTAL FREE ENERGY PREDICTED BY IDOCK:   -5.73 KCAL/MOL
REMARK 923 INTER-LIGAND FREE ENERGY PREDICTED BY IDOCK:   -5.32 KCAL/MOL
REMARK 924 INTRA-LIGAND FREE ENERGY PREDICTED BY IDOCK:   -0.41 KCAL/MOL
REMARK 927      BINDING AFFINITY PREDICTED BY RF-SCORE:    0.00 PKD
ROOT
HETATM    1  C   UNL     1      -9.277  15.745  68.643  1.00  0.00    -0.207 C  
HETATM    2  C   UNL     1      -8.784  15.889  67.193  1.00  0.00    -0.200 C  
HETATM    3  N   UNL     1      -9.473  14.968  66.266  1.00  0.00    -0.294 NA 
HETATM    4  C   UNL     1      -8.935  17.348  66.730  1.00  0.00    -0.272 C  
HETATM    5  C   UNL     1      -7.286  15.530  67.161  1.00  0.00    -0.208 C  
HETATM    6  H   UNL     1      -9.236  14.001  66.488  1.00  0.00     0.000 HD 
ENDROOT
BRANCH   3   7
HETATM    7  C   UNL     1     -10.936  15.131  66.203  1.00  0.00    -0.331 C  
BRANCH   7   8
HETATM    8  C   UNL     1     -11.685  13.801  65.926  1.00  0.00    -0.352 C  
HETATM    9  H   UNL     1     -11.612  12.377  64.574  1.00  0.00     0.000 HD 
HETATM   10  O   UNL     1     -11.153  13.192  64.743  1.00  0.00    -0.305 OA 
BRANCH   8  11
HETATM   11  C   UNL     1     -11.557  12.867  67.118  1.00  0.00    -0.421 A  
HETATM   12  C   UNL     1     -11.276  11.503  66.919  1.00  0.00    -0.363 A  
HETATM   13  C   UNL     1     -11.234  10.631  68.009  1.00  0.00    -0.307 A  
HETATM   14  C   UNL     1     -11.463  11.082  69.304  1.00  0.00    -0.370 A  
HETATM   15  O   UNL     1     -10.981   9.301  67.845  1.00  0.00    -0.478 OA 
HETATM   16  H   UNL     1     -10.952   8.708  68.586  1.00  0.00     0.000 HD 
HETATM   17  C   UNL     1     -11.728  12.432  69.503  1.00  0.00    -0.322 A  
HETATM   18  O   UNL     1     -11.964  12.933  70.749  1.00  0.00    -0.500 OA 
HETATM   19  C   UNL     1     -11.771  13.321  68.433  1.00  0.00    -0.389 A  
HETATM   20  H   UNL     1     -12.145  13.856  70.885  1.00  0.00     0.000 HD 
ENDBRANCH   8  11
ENDBRANCH   7   8
ENDBRANCH   3   7
TORSDOF 3
ENDMDL
MODEL      108
REMARK 921   NORMALIZED FREE ENERGY PREDICTED BY IDOCK:   -4.62 KCAL/MOL
REMARK 922        TOTAL FREE ENERGY PREDICTED BY IDOCK:   -5.72 KCAL/MOL
REMARK 923 INTER-LIGAND FREE ENERGY PREDICTED BY IDOCK:   -5.62 KCAL/MOL
REMARK 924 INTRA-LIGAND FREE ENERGY PREDICTED BY IDOCK:   -0.10 KCAL/MOL
REMARK 927      BINDING AFFINITY PREDICTED BY RF-SCORE:    0.00 PKD
ROOT
HETATM    1  C   UNL     1      -8.990   9.770  63.418  1.00  0.00    -0.271 C  
HETATM    2  C   UNL     1      -8.938  10.303  64.860  1.00  0.00    -0.201 C  
HETATM    3  N   UNL     1      -9.389  11.705  64.963  1.00  0.00    -0.412 NA 
HETATM    4  C   UNL     1      -9.762   9.392  65.786  1.00  0.00    -0.354 C  
HETATM    5  C   UNL     1      -7.471  10.260  65.331  1.00  0.00    -0.145 C  
HETATM    6  H   UNL     1      -8.740  12.321  64.474  1.00  0.00     0.000 HD 
ENDROOT
BRANCH   3   7
HETATM    7  C   UNL     1     -10.767  11.949  64.504  1.00  0.00    -0.312 C  
BRANCH   7   8
HETATM    8  C   UNL     1     -11.352  13.291  65.019  1.00  0.00    -0.305 C  
HETATM    9  H   UNL     1     -12.938  14.390  64.654  1.00  0.00     0.000 HD 
HETATM   10  O   UNL     1     -12.580  13.569  64.338  1.00  0.00    -0.618 OA 
BRANCH   8  11
HETATM   11  C   UNL     1     -11.569  13.227  66.522  1.00  0.00    -0.392 A  
HETATM   12  C   UNL     1     -11.630  11.981  67.174  1.00  0.00    -0.387 A  
HETATM   13  C   UNL     1     -11.905  11.919  68.542  1.00  0.00    -0.297 A  
HETATM   14  C   UNL     1     -12.121  13.073  69.287  1.00  0.00    -0.251 A  
HETATM   15  O   UNL     1     -11.987  10.726  69.197  1.00  0.00    -0.436 OA 
HETATM   16  H   UNL     1     -12.174  10.684  70.127  1.00  0.00     0.000 HD 
HETATM   17  C   UNL     1     -12.049  14.304  68.647  1.00  0.00    -0.260 A  
HETATM   18  O   UNL     1     -12.255  15.470  69.324  1.00  0.00    -0.550 OA 
HETATM   19  C   UNL     1     -11.772  14.391  67.286  1.00  0.00    -0.429 A  
HETATM   20  H   UNL     1     -12.205  16.312  68.886  1.00  0.00     0.000 HD 
ENDBRANCH   8  11
ENDBRANCH   7   8
ENDBRANCH   3   7
TORSDOF 3
ENDMDL
MODEL      109
REMARK 921   NORMALIZED FREE ENERGY PREDICTED BY IDOCK:   -4.61 KCAL/MOL
REMARK 922        TOTAL FREE ENERGY PREDICTED BY IDOCK:   -5.72 KCAL/MOL
REMARK 923 INTER-LIGAND FREE ENERGY PREDICTED BY IDOCK:   -5.47 KCAL/MOL
REMARK 924 INTRA-LIGAND FREE ENERGY PREDICTED BY IDOCK:   -0.24 KCAL/MOL
REMARK 927      BINDING AFFINITY PREDICTED BY RF-SCORE:    0.00 PKD
ROOT
HETATM    1  C   UNL     1      -9.570   8.274  71.227  1.00  0.00    -0.219 C  
HETATM    2  C   UNL     1     -10.576   8.286  70.063  1.00  0.00    -0.235 C  
HETATM    3  N   UNL     1     -11.731   9.169  70.321  1.00  0.00    -0.466 NA 
HETATM    4  C   UNL     1      -9.864   8.680  68.758  1.00  0.00    -0.180 C  
HETATM    5  C   UNL     1     -11.125   6.856  69.894  1.00  0.00    -0.333 C  
HETATM    6  H   UNL     1     -12.288   8.805  71.094  1.00  0.00     0.000 HD 
ENDROOT
BRANCH   3   7
HETATM    7  C   UNL     1     -11.390  10.582  70.560  1.00  0.00    -0.314 C  
BRANCH   7   8
HETATM    8  C   UNL     1     -12.638  11.491  70.712  1.00  0.00    -0.298 C  
HETATM    9  H   UNL     1     -13.826  12.052  72.173  1.00  0.00     0.000 HD 
HETATM   10  O   UNL     1     -13.062  11.495  72.080  1.00  0.00    -0.466 OA 
BRANCH   8  11
HETATM   11  C   UNL     1     -12.322  12.902  70.240  1.00  0.00    -0.294 A  
HETATM   12  C   UNL     1     -12.035  13.144  68.885  1.00  0.00    -0.317 A  
HETATM   13  C   UNL     1     -11.672  14.425  68.465  1.00  0.00    -0.335 A  
HETATM   14  C   UNL     1     -11.587  15.483  69.364  1.00  0.00    -0.366 A  
HETATM   15  O   UNL     1     -11.371  14.687  67.160  1.00  0.00    -0.332 OA 
HETATM   16  H   UNL     1     -11.124  15.558  66.875  1.00  0.00     0.000 HD 
HETATM   17  C   UNL     1     -11.882  15.246  70.701  1.00  0.00    -0.335 A  
HETATM   18  O   UNL     1     -11.814  16.242  71.629  1.00  0.00    -0.567 OA 
HETATM   19  C   UNL     1     -12.252  13.979  71.142  1.00  0.00    -0.417 A  
HETATM   20  H   UNL     1     -12.016  16.081  72.544  1.00  0.00     0.000 HD 
ENDBRANCH   8  11
ENDBRANCH   7   8
ENDBRANCH   3   7
TORSDOF 3
ENDMDL
MODEL      110
REMARK 921   NORMALIZED FREE ENERGY PREDICTED BY IDOCK:   -4.61 KCAL/MOL
REMARK 922        TOTAL FREE ENERGY PREDICTED BY IDOCK:   -5.71 KCAL/MOL
REMARK 923 INTER-LIGAND FREE ENERGY PREDICTED BY IDOCK:   -5.25 KCAL/MOL
REMARK 924 INTRA-LIGAND FREE ENERGY PREDICTED BY IDOCK:   -0.46 KCAL/MOL
REMARK 927      BINDING AFFINITY PREDICTED BY RF-SCORE:    0.00 PKD
ROOT
HETATM    1  C   UNL     1      -9.052   8.598  65.785  1.00  0.00    -0.242 C  
HETATM    2  C   UNL     1      -9.592   8.339  67.201  1.00  0.00    -0.180 C  
HETATM    3  N   UNL     1      -9.951   9.585  67.908  1.00  0.00    -0.164 NA 
HETATM    4  C   UNL     1     -10.794   7.380  67.137  1.00  0.00    -0.340 C  
HETATM    5  C   UNL     1      -8.479   7.656  68.018  1.00  0.00    -0.123 C  
HETATM    6  H   UNL     1      -9.116  10.142  68.087  1.00  0.00     0.000 HD 
ENDROOT
BRANCH   3   7
HETATM    7  C   UNL     1     -10.976  10.405  67.239  1.00  0.00    -0.240 C  
BRANCH   7   8
HETATM    8  C   UNL     1     -10.523  11.869  67.000  1.00  0.00    -0.224 C  
HETATM    9  H   UNL     1      -8.815  12.828  66.853  1.00  0.00     0.000 HD 
HETATM   10  O   UNL     1      -9.092  11.931  66.999  1.00  0.00    -0.179 OA 
BRANCH   8  11
HETATM   11  C   UNL     1     -11.088  12.388  65.688  1.00  0.00    -0.343 A  
HETATM   12  C   UNL     1     -11.198  13.773  65.465  1.00  0.00    -0.303 A  
HETATM   13  C   UNL     1     -11.786  14.248  64.291  1.00  0.00    -0.379 A  
HETATM   14  C   UNL     1     -12.270  13.376  63.322  1.00  0.00    -0.314 A  
HETATM   15  O   UNL     1     -11.922  15.585  64.056  1.00  0.00    -0.918 OA 
HETATM   16  H   UNL     1     -12.322  15.908  63.257  1.00  0.00     0.000 HD 
HETATM   17  C   UNL     1     -12.150  12.009  63.536  1.00  0.00    -0.526 A  
HETATM   18  O   UNL     1     -12.609  11.105  62.623  1.00  0.00    -0.660 OA 
HETATM   19  C   UNL     1     -11.564  11.511  64.696  1.00  0.00    -0.117 A  
HETATM   20  H   UNL     1     -12.527  10.170  62.769  1.00  0.00     0.000 HD 
ENDBRANCH   8  11
ENDBRANCH   7   8
ENDBRANCH   3   7
TORSDOF 3
ENDMDL
MODEL      111
REMARK 921   NORMALIZED FREE ENERGY PREDICTED BY IDOCK:   -4.60 KCAL/MOL
REMARK 922        TOTAL FREE ENERGY PREDICTED BY IDOCK:   -5.71 KCAL/MOL
REMARK 923 INTER-LIGAND FREE ENERGY PREDICTED BY IDOCK:   -5.49 KCAL/MOL
REMARK 924 INTRA-LIGAND FREE ENERGY PREDICTED BY IDOCK:   -0.22 KCAL/MOL
REMARK 927      BINDING AFFINITY PREDICTED BY RF-SCORE:    0.00 PKD
ROOT
HETATM    1  C   UNL     1      -8.951  14.799  66.779  1.00  0.00    -0.292 C  
HETATM    2  C   UNL     1      -8.253  14.273  68.045  1.00  0.00    -0.153 C  
HETATM    3  N   UNL     1      -9.182  13.569  68.953  1.00  0.00    -0.388 NA 
HETATM    4  C   UNL     1      -7.074  13.365  67.655  1.00  0.00    -0.168 C  
HETATM    5  C   UNL     1      -7.691  15.482  68.817  1.00  0.00    -0.159 C  
HETATM    6  H   UNL     1      -9.868  14.222  69.332  1.00  0.00     0.000 HD 
ENDROOT
BRANCH   3   7
HETATM    7  C   UNL     1      -9.861  12.402  68.364  1.00  0.00    -0.198 C  
BRANCH   7   8
HETATM    8  C   UNL     1     -11.378  12.634  68.132  1.00  0.00    -0.290 C  
HETATM    9  H   UNL     1     -12.845  11.687  67.232  1.00  0.00     0.000 HD 
HETATM   10  O   UNL     1     -11.916  11.545  67.374  1.00  0.00    -0.623 OA 
BRANCH   8  11
HETATM   11  C   UNL     1     -12.098  12.775  69.463  1.00  0.00    -0.265 A  
HETATM   12  C   UNL     1     -12.398  14.052  69.971  1.00  0.00    -0.397 A  
HETATM   13  C   UNL     1     -12.992  14.183  71.229  1.00  0.00    -0.356 A  
HETATM   14  C   UNL     1     -13.300  13.068  72.001  1.00  0.00    -0.588 A  
HETATM   15  O   UNL     1     -13.280  15.408  71.754  1.00  0.00    -0.391 OA 
HETATM   16  H   UNL     1     -13.683  15.497  72.609  1.00  0.00     0.000 HD 
HETATM   17  C   UNL     1     -13.015  11.806  71.494  1.00  0.00    -0.341 A  
HETATM   18  O   UNL     1     -13.291  10.677  72.206  1.00  0.00    -0.616 OA 
HETATM   19  C   UNL     1     -12.427  11.650  70.242  1.00  0.00    -0.261 A  
HETATM   20  H   UNL     1     -13.095   9.813  71.860  1.00  0.00     0.000 HD 
ENDBRANCH   8  11
ENDBRANCH   7   8
ENDBRANCH   3   7
TORSDOF 3
ENDMDL
MODEL      112
REMARK 921   NORMALIZED FREE ENERGY PREDICTED BY IDOCK:   -4.60 KCAL/MOL
REMARK 922        TOTAL FREE ENERGY PREDICTED BY IDOCK:   -5.70 KCAL/MOL
REMARK 923 INTER-LIGAND FREE ENERGY PREDICTED BY IDOCK:   -5.40 KCAL/MOL
REMARK 924 INTRA-LIGAND FREE ENERGY PREDICTED BY IDOCK:   -0.30 KCAL/MOL
REMARK 927      BINDING AFFINITY PREDICTED BY RF-SCORE:    0.00 PKD
ROOT
HETATM    1  C   UNL     1      -9.947  13.556  68.116  1.00  0.00    -0.240 C  
HETATM    2  C   UNL     1     -11.444  13.432  67.784  1.00  0.00    -0.316 C  
HETATM    3  N   UNL     1     -11.916  12.033  67.809  1.00  0.00    -0.553 NA 
HETATM    4  C   UNL     1     -12.269  14.307  68.743  1.00  0.00    -0.226 C  
HETATM    5  C   UNL     1     -11.659  13.959  66.352  1.00  0.00    -0.382 C  
HETATM    6  H   UNL     1     -11.476  11.498  67.060  1.00  0.00     0.000 HD 
ENDROOT
BRANCH   3   7
HETATM    7  C   UNL     1     -11.741  11.342  69.098  1.00  0.00    -0.341 C  
BRANCH   7   8
HETATM    8  C   UNL     1     -11.027   9.971  68.961  1.00  0.00    -0.212 C  
HETATM    9  H   UNL     1      -9.199   9.343  68.609  1.00  0.00     0.000 HD 
HETATM   10  O   UNL     1      -9.636  10.182  68.693  1.00  0.00    -0.153 OA 
BRANCH   8  11
HETATM   11  C   UNL     1     -11.216   9.150  70.227  1.00  0.00    -0.249 A  
HETATM   12  C   UNL     1     -12.284   9.433  71.097  1.00  0.00    -0.402 A  
HETATM   13  C   UNL     1     -12.414   8.729  72.297  1.00  0.00    -0.386 A  
HETATM   14  C   UNL     1     -11.503   7.742  72.657  1.00  0.00    -0.430 A  
HETATM   15  O   UNL     1     -13.430   8.992  73.168  1.00  0.00    -0.948 OA 
HETATM   16  H   UNL     1     -13.518   8.514  73.984  1.00  0.00     0.000 HD 
HETATM   17  C   UNL     1     -10.454   7.455  71.792  1.00  0.00    -0.196 A  
HETATM   18  O   UNL     1      -9.528   6.500  72.091  1.00  0.00    -0.150 OA 
HETATM   19  C   UNL     1     -10.307   8.139  70.588  1.00  0.00    -0.214 A  
HETATM   20  H   UNL     1      -8.811   6.304  71.500  1.00  0.00     0.000 HD 
ENDBRANCH   8  11
ENDBRANCH   7   8
ENDBRANCH   3   7
TORSDOF 3
ENDMDL
MODEL      113
REMARK 921   NORMALIZED FREE ENERGY PREDICTED BY IDOCK:   -4.59 KCAL/MOL
REMARK 922        TOTAL FREE ENERGY PREDICTED BY IDOCK:   -5.69 KCAL/MOL
REMARK 923 INTER-LIGAND FREE ENERGY PREDICTED BY IDOCK:   -5.38 KCAL/MOL
REMARK 924 INTRA-LIGAND FREE ENERGY PREDICTED BY IDOCK:   -0.32 KCAL/MOL
REMARK 927      BINDING AFFINITY PREDICTED BY RF-SCORE:    0.00 PKD
ROOT
HETATM    1  C   UNL     1     -12.844  15.183  69.527  1.00  0.00     0.239 C  
HETATM    2  C   UNL     1     -11.581  14.762  70.297  1.00  0.00    -0.282 C  
HETATM    3  N   UNL     1     -11.405  13.296  70.342  1.00  0.00    -0.334 NA 
HETATM    4  C   UNL     1     -10.344  15.444  69.686  1.00  0.00    -0.283 C  
HETATM    5  C   UNL     1     -11.725  15.249  71.752  1.00  0.00    -0.487 C  
HETATM    6  H   UNL     1     -12.152  12.869  70.889  1.00  0.00     0.000 HD 
ENDROOT
BRANCH   3   7
HETATM    7  C   UNL     1     -11.300  12.643  69.026  1.00  0.00    -0.292 C  
BRANCH   7   8
HETATM    8  C   UNL     1     -12.272  11.445  68.863  1.00  0.00    -0.087 C  
HETATM    9  H   UNL     1     -12.613  10.058  67.513  1.00  0.00     0.000 HD 
HETATM   10  O   UNL     1     -12.018  10.792  67.613  1.00  0.00    -0.411 OA 
BRANCH   8  11
HETATM   11  C   UNL     1     -12.110  10.474  70.022  1.00  0.00    -0.351 A  
HETATM   12  C   UNL     1     -13.148  10.316  70.959  1.00  0.00    -0.458 A  
HETATM   13  C   UNL     1     -12.970   9.481  72.065  1.00  0.00    -0.426 A  
HETATM   14  C   UNL     1     -11.779   8.792  72.265  1.00  0.00    -0.398 A  
HETATM   15  O   UNL     1     -13.951   9.321  72.998  1.00  0.00    -0.978 OA 
HETATM   16  H   UNL     1     -13.831   8.754  73.750  1.00  0.00     0.000 HD 
HETATM   17  C   UNL     1     -10.759   8.940  71.334  1.00  0.00    -0.312 A  
HETATM   18  O   UNL     1      -9.567   8.292  71.478  1.00  0.00    -0.161 OA 
HETATM   19  C   UNL     1     -10.914   9.761  70.221  1.00  0.00    -0.352 A  
HETATM   20  H   UNL     1      -8.869   8.393  70.841  1.00  0.00     0.000 HD 
ENDBRANCH   8  11
ENDBRANCH   7   8
ENDBRANCH   3   7
TORSDOF 3
ENDMDL
MODEL      114
REMARK 921   NORMALIZED FREE ENERGY PREDICTED BY IDOCK:   -4.58 KCAL/MOL
REMARK 922        TOTAL FREE ENERGY PREDICTED BY IDOCK:   -5.68 KCAL/MOL
REMARK 923 INTER-LIGAND FREE ENERGY PREDICTED BY IDOCK:   -5.39 KCAL/MOL
REMARK 924 INTRA-LIGAND FREE ENERGY PREDICTED BY IDOCK:   -0.29 KCAL/MOL
REMARK 927      BINDING AFFINITY PREDICTED BY RF-SCORE:    0.00 PKD
ROOT
HETATM    1  C   UNL     1     -11.733  15.183  71.998  1.00  0.00    -0.504 C  
HETATM    2  C   UNL     1     -12.921  14.346  71.493  1.00  0.00    -0.336 C  
HETATM    3  N   UNL     1     -12.925  14.195  70.024  1.00  0.00    -0.339 NA 
HETATM    4  C   UNL     1     -12.926  12.972  72.186  1.00  0.00    -0.366 C  
HETATM    5  C   UNL     1     -14.219  15.080  71.879  1.00  0.00    -0.649 C  
HETATM    6  H   UNL     1     -13.083  15.098  69.577  1.00  0.00     0.000 HD 
ENDROOT
BRANCH   3   7
HETATM    7  C   UNL     1     -11.724  13.553  69.463  1.00  0.00    -0.322 C  
BRANCH   7   8
HETATM    8  C   UNL     1     -11.808  13.342  67.928  1.00  0.00    -0.349 C  
HETATM    9  H   UNL     1     -11.083  14.217  66.326  1.00  0.00     0.000 HD 
HETATM   10  O   UNL     1     -11.032  14.347  67.266  1.00  0.00    -0.285 OA 
BRANCH   8  11
HETATM   11  C   UNL     1     -11.318  11.950  67.560  1.00  0.00    -0.381 A  
HETATM   12  C   UNL     1     -11.077  10.998  68.568  1.00  0.00    -0.297 A  
HETATM   13  C   UNL     1     -10.556   9.746  68.237  1.00  0.00    -0.229 A  
HETATM   14  C   UNL     1     -10.266   9.410  66.919  1.00  0.00    -0.318 A  
HETATM   15  O   UNL     1     -10.297   8.809  69.193  1.00  0.00    -0.210 OA 
HETATM   16  H   UNL     1      -9.942   7.957  68.968  1.00  0.00     0.000 HD 
HETATM   17  C   UNL     1     -10.514  10.346  65.922  1.00  0.00    -0.125 A  
HETATM   18  O   UNL     1     -10.248  10.076  64.613  1.00  0.00    -0.335 OA 
HETATM   19  C   UNL     1     -11.038  11.599  66.227  1.00  0.00    -0.345 A  
HETATM   20  H   UNL     1     -10.418  10.716  63.931  1.00  0.00     0.000 HD 
ENDBRANCH   8  11
ENDBRANCH   7   8
ENDBRANCH   3   7
TORSDOF 3
ENDMDL
MODEL      115
REMARK 921   NORMALIZED FREE ENERGY PREDICTED BY IDOCK:   -4.57 KCAL/MOL
REMARK 922        TOTAL FREE ENERGY PREDICTED BY IDOCK:   -5.67 KCAL/MOL
REMARK 923 INTER-LIGAND FREE ENERGY PREDICTED BY IDOCK:   -5.25 KCAL/MOL
REMARK 924 INTRA-LIGAND FREE ENERGY PREDICTED BY IDOCK:   -0.42 KCAL/MOL
REMARK 927      BINDING AFFINITY PREDICTED BY RF-SCORE:    0.00 PKD
ROOT
HETATM    1  C   UNL     1      -8.425  10.398  67.757  1.00  0.00    -0.114 C  
HETATM    2  C   UNL     1      -8.403   8.960  67.212  1.00  0.00    -0.104 C  
HETATM    3  N   UNL     1      -8.816   7.965  68.222  1.00  0.00    -0.130 NA 
HETATM    4  C   UNL     1      -9.282   8.863  65.953  1.00  0.00    -0.290 C  
HETATM    5  C   UNL     1      -6.953   8.626  66.810  1.00  0.00    -0.077 C  
HETATM    6  H   UNL     1      -8.135   7.927  68.979  1.00  0.00     0.000 HD 
ENDROOT
BRANCH   3   7
HETATM    7  C   UNL     1     -10.171   8.159  68.765  1.00  0.00    -0.207 C  
BRANCH   7   8
HETATM    8  C   UNL     1     -10.219   8.102  70.315  1.00  0.00    -0.200 C  
HETATM    9  H   UNL     1      -8.969   8.436  71.794  1.00  0.00     0.000 HD 
HETATM   10  O   UNL     1      -8.941   8.472  70.845  1.00  0.00    -0.146 OA 
BRANCH   8  11
HETATM   11  C   UNL     1     -11.309   9.020  70.843  1.00  0.00    -0.351 A  
HETATM   12  C   UNL     1     -11.331  10.376  70.469  1.00  0.00    -0.424 A  
HETATM   13  C   UNL     1     -12.288  11.237  71.012  1.00  0.00    -0.366 A  
HETATM   14  C   UNL     1     -13.233  10.781  71.925  1.00  0.00    -0.524 A  
HETATM   15  O   UNL     1     -12.323  12.559  70.681  1.00  0.00    -0.355 OA 
HETATM   16  H   UNL     1     -12.973  13.144  71.051  1.00  0.00     0.000 HD 
HETATM   17  C   UNL     1     -13.219   9.439  72.286  1.00  0.00    -0.446 A  
HETATM   18  O   UNL     1     -14.118   8.935  73.178  1.00  0.00    -1.125 OA 
HETATM   19  C   UNL     1     -12.279   8.562  71.754  1.00  0.00    -0.388 A  
HETATM   20  H   UNL     1     -14.109   8.018  73.425  1.00  0.00     0.000 HD 
ENDBRANCH   8  11
ENDBRANCH   7   8
ENDBRANCH   3   7
TORSDOF 3
ENDMDL
MODEL      116
REMARK 921   NORMALIZED FREE ENERGY PREDICTED BY IDOCK:   -4.56 KCAL/MOL
REMARK 922        TOTAL FREE ENERGY PREDICTED BY IDOCK:   -5.66 KCAL/MOL
REMARK 923 INTER-LIGAND FREE ENERGY PREDICTED BY IDOCK:   -5.33 KCAL/MOL
REMARK 924 INTRA-LIGAND FREE ENERGY PREDICTED BY IDOCK:   -0.33 KCAL/MOL
REMARK 927      BINDING AFFINITY PREDICTED BY RF-SCORE:    0.00 PKD
ROOT
HETATM    1  C   UNL     1     -14.200  15.068  71.635  1.00  0.00    -0.649 C  
HETATM    2  C   UNL     1     -12.770  14.520  71.779  1.00  0.00    -0.343 C  
HETATM    3  N   UNL     1     -12.544  13.305  70.969  1.00  0.00    -0.354 NA 
HETATM    4  C   UNL     1     -11.750  15.614  71.422  1.00  0.00    -0.491 C  
HETATM    5  C   UNL     1     -12.555  14.130  73.254  1.00  0.00    -0.043 C  
HETATM    6  H   UNL     1     -13.115  12.536  71.321  1.00  0.00     0.000 HD 
ENDROOT
BRANCH   3   7
HETATM    7  C   UNL     1     -12.757  13.476  69.522  1.00  0.00     0.417 C  
BRANCH   7   8
HETATM    8  C   UNL     1     -11.657  12.800  68.662  1.00  0.00    -0.314 C  
HETATM    9  H   UNL     1     -11.391  11.055  67.800  1.00  0.00     0.000 HD 
HETATM   10  O   UNL     1     -12.065  11.469  68.326  1.00  0.00    -0.580 OA 
BRANCH   8  11
HETATM   11  C   UNL     1     -11.394  13.617  67.407  1.00  0.00    -0.340 A  
HETATM   12  C   UNL     1     -11.896  13.184  66.166  1.00  0.00    -0.453 A  
HETATM   13  C   UNL     1     -11.591  13.894  65.002  1.00  0.00    -0.345 A  
HETATM   14  C   UNL     1     -10.795  15.033  65.039  1.00  0.00    -0.439 A  
HETATM   15  O   UNL     1     -12.050  13.489  63.783  1.00  0.00    -0.566 OA 
HETATM   16  H   UNL     1     -11.842  13.971  62.992  1.00  0.00     0.000 HD 
HETATM   17  C   UNL     1     -10.309  15.467  66.266  1.00  0.00    -0.302 A  
HETATM   18  O   UNL     1      -9.521  16.576  66.365  1.00  0.00    -0.254 OA 
HETATM   19  C   UNL     1     -10.603  14.780  67.440  1.00  0.00    -0.268 A  
HETATM   20  H   UNL     1      -9.189  16.873  67.204  1.00  0.00     0.000 HD 
ENDBRANCH   8  11
ENDBRANCH   7   8
ENDBRANCH   3   7
TORSDOF 3
ENDMDL
MODEL      117
REMARK 921   NORMALIZED FREE ENERGY PREDICTED BY IDOCK:   -4.54 KCAL/MOL
REMARK 922        TOTAL FREE ENERGY PREDICTED BY IDOCK:   -5.63 KCAL/MOL
REMARK 923 INTER-LIGAND FREE ENERGY PREDICTED BY IDOCK:   -5.18 KCAL/MOL
REMARK 924 INTRA-LIGAND FREE ENERGY PREDICTED BY IDOCK:   -0.45 KCAL/MOL
REMARK 927      BINDING AFFINITY PREDICTED BY RF-SCORE:    0.00 PKD
ROOT
HETATM    1  C   UNL     1      -9.178  15.401  68.366  1.00  0.00    -0.192 C  
HETATM    2  C   UNL     1      -9.344  16.102  67.007  1.00  0.00    -0.218 C  
HETATM    3  N   UNL     1     -10.020  15.250  66.008  1.00  0.00    -0.295 NA 
HETATM    4  C   UNL     1     -10.096  17.432  67.191  1.00  0.00    -0.307 C  
HETATM    5  C   UNL     1      -7.939  16.419  66.460  1.00  0.00    -0.342 C  
HETATM    6  H   UNL     1      -9.434  14.448  65.775  1.00  0.00     0.000 HD 
ENDROOT
BRANCH   3   7
HETATM    7  C   UNL     1     -11.370  14.801  66.387  1.00  0.00    -0.339 C  
BRANCH   7   8
HETATM    8  C   UNL     1     -11.651  13.324  66.001  1.00  0.00    -0.349 C  
HETATM    9  H   UNL     1     -10.841  11.980  64.820  1.00  0.00     0.000 HD 
HETATM   10  O   UNL     1     -10.669  12.884  65.056  1.00  0.00    -0.286 OA 
BRANCH   8  11
HETATM   11  C   UNL     1     -11.640  12.445  67.241  1.00  0.00    -0.435 A  
HETATM   12  C   UNL     1     -11.850  13.014  68.511  1.00  0.00    -0.360 A  
HETATM   13  C   UNL     1     -11.765  12.219  69.657  1.00  0.00    -0.316 A  
HETATM   14  C   UNL     1     -11.476  10.861  69.573  1.00  0.00    -0.372 A  
HETATM   15  O   UNL     1     -11.947  12.746  70.901  1.00  0.00    -0.455 OA 
HETATM   16  H   UNL     1     -11.889  12.206  71.680  1.00  0.00     0.000 HD 
HETATM   17  C   UNL     1     -11.281  10.297  68.319  1.00  0.00    -0.232 A  
HETATM   18  O   UNL     1     -10.992   8.972  68.174  1.00  0.00    -0.471 OA 
HETATM   19  C   UNL     1     -11.365  11.068  67.163  1.00  0.00    -0.214 A  
HETATM   20  H   UNL     1     -10.858   8.586  67.316  1.00  0.00     0.000 HD 
ENDBRANCH   8  11
ENDBRANCH   7   8
ENDBRANCH   3   7
TORSDOF 3
ENDMDL
MODEL      118
REMARK 921   NORMALIZED FREE ENERGY PREDICTED BY IDOCK:   -4.53 KCAL/MOL
REMARK 922        TOTAL FREE ENERGY PREDICTED BY IDOCK:   -5.62 KCAL/MOL
REMARK 923 INTER-LIGAND FREE ENERGY PREDICTED BY IDOCK:   -5.38 KCAL/MOL
REMARK 924 INTRA-LIGAND FREE ENERGY PREDICTED BY IDOCK:   -0.24 KCAL/MOL
REMARK 927      BINDING AFFINITY PREDICTED BY RF-SCORE:    0.00 PKD
ROOT
HETATM    1  C   UNL     1      -8.576   6.544  67.081  1.00  0.00    -0.111 C  
HETATM    2  C   UNL     1      -9.393   6.890  68.337  1.00  0.00    -0.129 C  
HETATM    3  N   UNL     1      -9.612   8.343  68.489  1.00  0.00    -0.147 NA 
HETATM    4  C   UNL     1     -10.732   6.133  68.318  1.00  0.00    -0.361 C  
HETATM    5  C   UNL     1      -8.596   6.419  69.569  1.00  0.00    -0.133 C  
HETATM    6  H   UNL     1      -8.725   8.817  68.661  1.00  0.00     0.000 HD 
ENDROOT
BRANCH   3   7
HETATM    7  C   UNL     1     -10.322   8.983  67.369  1.00  0.00    -0.268 C  
BRANCH   7   8
HETATM    8  C   UNL     1     -10.328  10.532  67.459  1.00  0.00    -0.223 C  
HETATM    9  H   UNL     1      -9.009  11.947  67.799  1.00  0.00     0.000 HD 
HETATM   10  O   UNL     1      -9.005  10.999  67.743  1.00  0.00    -0.137 OA 
BRANCH   8  11
HETATM   11  C   UNL     1     -10.845  11.133  66.161  1.00  0.00    -0.247 A  
HETATM   12  C   UNL     1     -10.392  10.638  64.925  1.00  0.00    -0.347 A  
HETATM   13  C   UNL     1     -10.809  11.238  63.735  1.00  0.00    -0.350 A  
HETATM   14  C   UNL     1     -11.675  12.327  63.741  1.00  0.00    -0.566 A  
HETATM   15  O   UNL     1     -10.373  10.791  62.523  1.00  0.00    -0.748 OA 
HETATM   16  H   UNL     1     -10.657  11.199  61.714  1.00  0.00     0.000 HD 
HETATM   17  C   UNL     1     -12.132  12.809  64.961  1.00  0.00    -0.441 A  
HETATM   18  O   UNL     1     -12.979  13.875  65.031  1.00  0.00    -0.731 OA 
HETATM   19  C   UNL     1     -11.734  12.224  66.160  1.00  0.00    -0.440 A  
HETATM   20  H   UNL     1     -13.292  14.204  65.865  1.00  0.00     0.000 HD 
ENDBRANCH   8  11
ENDBRANCH   7   8
ENDBRANCH   3   7
TORSDOF 3
ENDMDL
MODEL      119
REMARK 921   NORMALIZED FREE ENERGY PREDICTED BY IDOCK:   -4.53 KCAL/MOL
REMARK 922        TOTAL FREE ENERGY PREDICTED BY IDOCK:   -5.62 KCAL/MOL
REMARK 923 INTER-LIGAND FREE ENERGY PREDICTED BY IDOCK:   -5.40 KCAL/MOL
REMARK 924 INTRA-LIGAND FREE ENERGY PREDICTED BY IDOCK:   -0.22 KCAL/MOL
REMARK 927      BINDING AFFINITY PREDICTED BY RF-SCORE:    0.00 PKD
ROOT
HETATM    1  C   UNL     1      -6.835  18.945  65.733  1.00  0.00    -0.307 C  
HETATM    2  C   UNL     1      -6.842  18.083  67.007  1.00  0.00    -0.188 C  
HETATM    3  N   UNL     1      -8.166  17.489  67.283  1.00  0.00    -0.205 NA 
HETATM    4  C   UNL     1      -5.761  16.993  66.909  1.00  0.00    -0.214 C  
HETATM    5  C   UNL     1      -6.494  18.994  68.200  1.00  0.00    -0.242 C  
HETATM    6  H   UNL     1      -8.841  18.220  67.504  1.00  0.00     0.000 HD 
ENDROOT
BRANCH   3   7
HETATM    7  C   UNL     1      -8.689  16.619  66.216  1.00  0.00    -0.324 C  
BRANCH   7   8
HETATM    8  C   UNL     1     -10.239  16.617  66.138  1.00  0.00    -0.348 C  
HETATM    9  H   UNL     1     -11.599  16.183  64.788  1.00  0.00     0.000 HD 
HETATM   10  O   UNL     1     -10.650  16.184  64.836  1.00  0.00    -0.622 OA 
BRANCH   8  11
HETATM   11  C   UNL     1     -10.819  15.716  67.216  1.00  0.00    -0.298 A  
HETATM   12  C   UNL     1     -11.126  14.374  66.923  1.00  0.00    -0.325 A  
HETATM   13  C   UNL     1     -11.728  13.567  67.891  1.00  0.00    -0.357 A  
HETATM   14  C   UNL     1     -12.035  14.062  69.154  1.00  0.00    -0.400 A  
HETATM   15  O   UNL     1     -12.052  12.268  67.631  1.00  0.00    -0.502 OA 
HETATM   16  H   UNL     1     -12.462  11.720  68.289  1.00  0.00     0.000 HD 
HETATM   17  C   UNL     1     -11.722  15.384  69.447  1.00  0.00    -0.351 A  
HETATM   18  O   UNL     1     -12.001  15.926  70.666  1.00  0.00    -0.364 OA 
HETATM   19  C   UNL     1     -11.117  16.206  68.501  1.00  0.00    -0.357 A  
HETATM   20  H   UNL     1     -11.787  16.830  70.867  1.00  0.00     0.000 HD 
ENDBRANCH   8  11
ENDBRANCH   7   8
ENDBRANCH   3   7
TORSDOF 3
ENDMDL
MODEL      120
REMARK 921   NORMALIZED FREE ENERGY PREDICTED BY IDOCK:   -4.49 KCAL/MOL
REMARK 922        TOTAL FREE ENERGY PREDICTED BY IDOCK:   -5.57 KCAL/MOL
REMARK 923 INTER-LIGAND FREE ENERGY PREDICTED BY IDOCK:   -5.33 KCAL/MOL
REMARK 924 INTRA-LIGAND FREE ENERGY PREDICTED BY IDOCK:   -0.24 KCAL/MOL
REMARK 927      BINDING AFFINITY PREDICTED BY RF-SCORE:    0.00 PKD
ROOT
HETATM    1  C   UNL     1     -10.179   7.849  71.947  1.00  0.00    -0.258 C  
HETATM    2  C   UNL     1     -10.479   7.598  70.460  1.00  0.00    -0.220 C  
HETATM    3  N   UNL     1     -11.464   8.552  69.911  1.00  0.00    -0.448 NA 
HETATM    4  C   UNL     1      -9.173   7.630  69.648  1.00  0.00    -0.146 C  
HETATM    5  C   UNL     1     -11.089   6.189  70.329  1.00  0.00    -0.436 C  
HETATM    6  H   UNL     1     -12.374   8.411  70.350  1.00  0.00     0.000 HD 
ENDROOT
BRANCH   3   7
HETATM    7  C   UNL     1     -11.071   9.969  70.000  1.00  0.00    -0.295 C  
BRANCH   7   8
HETATM    8  C   UNL     1     -12.283  10.937  70.014  1.00  0.00    -0.347 C  
HETATM    9  H   UNL     1     -13.330  11.893  71.375  1.00  0.00     0.000 HD 
HETATM   10  O   UNL     1     -12.588  11.300  71.366  1.00  0.00    -0.377 OA 
BRANCH   8  11
HETATM   11  C   UNL     1     -11.982  12.170  69.178  1.00  0.00    -0.311 A  
HETATM   12  C   UNL     1     -12.195  13.454  69.713  1.00  0.00    -0.307 A  
HETATM   13  C   UNL     1     -11.989  14.586  68.920  1.00  0.00    -0.290 A  
HETATM   14  C   UNL     1     -11.573  14.474  67.598  1.00  0.00    -0.402 A  
HETATM   15  O   UNL     1     -12.203  15.842  69.407  1.00  0.00    -0.502 OA 
HETATM   16  H   UNL     1     -12.064  16.611  68.868  1.00  0.00     0.000 HD 
HETATM   17  C   UNL     1     -11.351  13.207  67.073  1.00  0.00    -0.312 A  
HETATM   18  O   UNL     1     -10.945  13.035  65.783  1.00  0.00    -0.275 OA 
HETATM   19  C   UNL     1     -11.544  12.065  67.845  1.00  0.00    -0.405 A  
HETATM   20  H   UNL     1     -10.794  12.168  65.424  1.00  0.00     0.000 HD 
ENDBRANCH   8  11
ENDBRANCH   7   8
ENDBRANCH   3   7
TORSDOF 3
ENDMDL
MODEL      121
REMARK 921   NORMALIZED FREE ENERGY PREDICTED BY IDOCK:   -4.47 KCAL/MOL
REMARK 922        TOTAL FREE ENERGY PREDICTED BY IDOCK:   -5.55 KCAL/MOL
REMARK 923 INTER-LIGAND FREE ENERGY PREDICTED BY IDOCK:   -5.25 KCAL/MOL
REMARK 924 INTRA-LIGAND FREE ENERGY PREDICTED BY IDOCK:   -0.29 KCAL/MOL
REMARK 927      BINDING AFFINITY PREDICTED BY RF-SCORE:    0.00 PKD
ROOT
HETATM    1  C   UNL     1      -9.752  11.639  66.120  1.00  0.00    -0.253 C  
HETATM    2  C   UNL     1      -9.506  10.430  67.038  1.00  0.00    -0.163 C  
HETATM    3  N   UNL     1     -10.071  10.620  68.389  1.00  0.00    -0.160 NA 
HETATM    4  C   UNL     1     -10.064   9.154  66.384  1.00  0.00    -0.345 C  
HETATM    5  C   UNL     1      -7.984  10.257  67.201  1.00  0.00    -0.114 C  
HETATM    6  H   UNL     1      -9.581  11.371  68.874  1.00  0.00     0.000 HD 
ENDROOT
BRANCH   3   7
HETATM    7  C   UNL     1     -11.525  10.854  68.426  1.00  0.00    -0.304 C  
BRANCH   7   8
HETATM    8  C   UNL     1     -12.089  10.951  69.868  1.00  0.00    -0.354 C  
HETATM    9  H   UNL     1     -11.547  10.343  71.656  1.00  0.00     0.000 HD 
HETATM   10  O   UNL     1     -11.202  10.283  70.773  1.00  0.00    -0.329 OA 
BRANCH   8  11
HETATM   11  C   UNL     1     -12.270  12.407  70.266  1.00  0.00    -0.345 A  
HETATM   12  C   UNL     1     -12.893  12.734  71.484  1.00  0.00    -0.369 A  
HETATM   13  C   UNL     1     -13.127  14.071  71.814  1.00  0.00    -0.370 A  
HETATM   14  C   UNL     1     -12.753  15.101  70.959  1.00  0.00    -0.458 A  
HETATM   15  O   UNL     1     -13.744  14.417  72.980  1.00  0.00    -0.596 OA 
HETATM   16  H   UNL     1     -13.903  15.325  73.205  1.00  0.00     0.000 HD 
HETATM   17  C   UNL     1     -12.127  14.780  69.761  1.00  0.00    -0.319 A  
HETATM   18  O   UNL     1     -11.740  15.746  68.881  1.00  0.00    -0.383 OA 
HETATM   19  C   UNL     1     -11.879  13.455  69.412  1.00  0.00    -0.390 A  
HETATM   20  H   UNL     1     -11.312  15.527  68.061  1.00  0.00     0.000 HD 
ENDBRANCH   8  11
ENDBRANCH   7   8
ENDBRANCH   3   7
TORSDOF 3
ENDMDL
MODEL      122
REMARK 921   NORMALIZED FREE ENERGY PREDICTED BY IDOCK:   -4.43 KCAL/MOL
REMARK 922        TOTAL FREE ENERGY PREDICTED BY IDOCK:   -5.50 KCAL/MOL
REMARK 923 INTER-LIGAND FREE ENERGY PREDICTED BY IDOCK:   -5.22 KCAL/MOL
REMARK 924 INTRA-LIGAND FREE ENERGY PREDICTED BY IDOCK:   -0.28 KCAL/MOL
REMARK 927      BINDING AFFINITY PREDICTED BY RF-SCORE:    0.00 PKD
ROOT
HETATM    1  C   UNL     1     -10.671  11.477  65.945  1.00  0.00    -0.325 C  
HETATM    2  C   UNL     1     -11.187  12.432  67.034  1.00  0.00    -0.303 C  
HETATM    3  N   UNL     1     -11.966  11.735  68.078  1.00  0.00    -0.583 NA 
HETATM    4  C   UNL     1     -10.010  13.205  67.654  1.00  0.00    -0.219 C  
HETATM    5  C   UNL     1     -12.130  13.452  66.367  1.00  0.00    -0.464 C  
HETATM    6  H   UNL     1     -12.829  11.361  67.683  1.00  0.00     0.000 HD 
ENDROOT
BRANCH   3   7
HETATM    7  C   UNL     1     -11.234  10.677  68.795  1.00  0.00    -0.279 C  
BRANCH   7   8
HETATM    8  C   UNL     1     -11.548  10.644  70.315  1.00  0.00    -0.336 C  
HETATM    9  H   UNL     1     -13.130  10.335  71.439  1.00  0.00     0.000 HD 
HETATM   10  O   UNL     1     -12.937  10.356  70.508  1.00  0.00    -0.344 OA 
BRANCH   8  11
HETATM   11  C   UNL     1     -10.679   9.608  71.009  1.00  0.00    -0.393 A  
HETATM   12  C   UNL     1      -9.359   9.389  70.575  1.00  0.00    -0.319 A  
HETATM   13  C   UNL     1      -8.586   8.386  71.163  1.00  0.00    -0.154 A  
HETATM   14  C   UNL     1      -9.093   7.588  72.183  1.00  0.00    -0.165 A  
HETATM   15  O   UNL     1      -7.309   8.140  70.752  1.00  0.00    -0.054 OA 
HETATM   16  H   UNL     1      -6.783   7.458  71.151  1.00  0.00     0.000 HD 
HETATM   17  C   UNL     1     -10.393   7.812  72.620  1.00  0.00    -0.292 A  
HETATM   18  O   UNL     1     -10.946   7.060  73.614  1.00  0.00    -0.543 OA 
HETATM   19  C   UNL     1     -11.181   8.809  72.053  1.00  0.00    -0.443 A  
HETATM   20  H   UNL     1     -11.835   7.213  73.914  1.00  0.00     0.000 HD 
ENDBRANCH   8  11
ENDBRANCH   7   8
ENDBRANCH   3   7
TORSDOF 3
ENDMDL
MODEL      123
REMARK 921   NORMALIZED FREE ENERGY PREDICTED BY IDOCK:   -4.42 KCAL/MOL
REMARK 922        TOTAL FREE ENERGY PREDICTED BY IDOCK:   -5.49 KCAL/MOL
REMARK 923 INTER-LIGAND FREE ENERGY PREDICTED BY IDOCK:   -5.22 KCAL/MOL
REMARK 924 INTRA-LIGAND FREE ENERGY PREDICTED BY IDOCK:   -0.27 KCAL/MOL
REMARK 927      BINDING AFFINITY PREDICTED BY RF-SCORE:    0.00 PKD
ROOT
HETATM    1  C   UNL     1      -8.094  10.171  64.545  1.00  0.00    -0.160 C  
HETATM    2  C   UNL     1      -8.212  10.823  65.933  1.00  0.00    -0.155 C  
HETATM    3  N   UNL     1      -9.123  11.986  65.937  1.00  0.00    -0.414 NA 
HETATM    4  C   UNL     1      -8.655   9.775  66.969  1.00  0.00    -0.127 C  
HETATM    5  C   UNL     1      -6.817  11.335  66.339  1.00  0.00    -0.055 C  
HETATM    6  H   UNL     1      -8.735  12.739  65.369  1.00  0.00     0.000 HD 
ENDROOT
BRANCH   3   7
HETATM    7  C   UNL     1     -10.505  11.693  65.521  1.00  0.00    -0.273 C  
BRANCH   7   8
HETATM    8  C   UNL     1     -11.476  12.880  65.759  1.00  0.00    -0.337 C  
HETATM    9  H   UNL     1     -13.309  13.352  65.232  1.00  0.00     0.000 HD 
HETATM   10  O   UNL     1     -12.714  12.625  65.086  1.00  0.00    -0.646 OA 
BRANCH   8  11
HETATM   11  C   UNL     1     -11.703  13.084  67.248  1.00  0.00    -0.429 A  
HETATM   12  C   UNL     1     -11.980  14.369  67.750  1.00  0.00    -0.368 A  
HETATM   13  C   UNL     1     -12.114  14.568  69.126  1.00  0.00    -0.264 A  
HETATM   14  C   UNL     1     -11.981  13.516  70.025  1.00  0.00    -0.410 A  
HETATM   15  O   UNL     1     -12.366  15.805  69.643  1.00  0.00    -0.486 OA 
HETATM   16  H   UNL     1     -12.457  15.941  70.578  1.00  0.00     0.000 HD 
HETATM   17  C   UNL     1     -11.718  12.245  69.529  1.00  0.00    -0.332 A  
HETATM   18  O   UNL     1     -11.574  11.174  70.361  1.00  0.00    -0.360 OA 
HETATM   19  C   UNL     1     -11.586  12.020  68.162  1.00  0.00    -0.403 A  
HETATM   20  H   UNL     1     -11.395  10.305  70.022  1.00  0.00     0.000 HD 
ENDBRANCH   8  11
ENDBRANCH   7   8
ENDBRANCH   3   7
TORSDOF 3
ENDMDL
MODEL      124
REMARK 921   NORMALIZED FREE ENERGY PREDICTED BY IDOCK:   -4.40 KCAL/MOL
REMARK 922        TOTAL FREE ENERGY PREDICTED BY IDOCK:   -5.47 KCAL/MOL
REMARK 923 INTER-LIGAND FREE ENERGY PREDICTED BY IDOCK:   -5.02 KCAL/MOL
REMARK 924 INTRA-LIGAND FREE ENERGY PREDICTED BY IDOCK:   -0.45 KCAL/MOL
REMARK 927      BINDING AFFINITY PREDICTED BY RF-SCORE:    0.00 PKD
ROOT
HETATM    1  C   UNL     1     -10.584  14.238  64.744  1.00  0.00    -0.434 C  
HETATM    2  C   UNL     1     -11.354  12.910  64.837  1.00  0.00    -0.307 C  
HETATM    3  N   UNL     1     -10.518  11.804  65.347  1.00  0.00    -0.262 NA 
HETATM    4  C   UNL     1     -12.611  13.093  65.705  1.00  0.00    -0.351 C  
HETATM    5  C   UNL     1     -11.808  12.521  63.417  1.00  0.00    -0.587 C  
HETATM    6  H   UNL     1      -9.778  11.585  64.680  1.00  0.00     0.000 HD 
ENDROOT
BRANCH   3   7
HETATM    7  C   UNL     1      -9.949  12.024  66.687  1.00  0.00    -0.201 C  
BRANCH   7   8
HETATM    8  C   UNL     1     -10.020  10.765  67.592  1.00  0.00    -0.173 C  
HETATM    9  H   UNL     1      -8.742   9.635  68.566  1.00  0.00     0.000 HD 
HETATM   10  O   UNL     1      -8.699  10.405  68.013  1.00  0.00    -0.121 OA 
BRANCH   8  11
HETATM   11  C   UNL     1     -10.916  11.029  68.791  1.00  0.00    -0.270 A  
HETATM   12  C   UNL     1     -11.297  12.345  69.111  1.00  0.00    -0.327 A  
HETATM   13  C   UNL     1     -12.058  12.595  70.255  1.00  0.00    -0.294 A  
HETATM   14  C   UNL     1     -12.455  11.562  71.097  1.00  0.00    -0.442 A  
HETATM   15  O   UNL     1     -12.427  13.861  70.600  1.00  0.00    -0.335 OA 
HETATM   16  H   UNL     1     -12.944  14.031  71.378  1.00  0.00     0.000 HD 
HETATM   17  C   UNL     1     -12.089  10.261  70.775  1.00  0.00    -0.353 A  
HETATM   18  O   UNL     1     -12.447   9.207  71.563  1.00  0.00    -0.314 OA 
HETATM   19  C   UNL     1     -11.336   9.986  69.637  1.00  0.00    -0.253 A  
HETATM   20  H   UNL     1     -12.197   8.317  71.343  1.00  0.00     0.000 HD 
ENDBRANCH   8  11
ENDBRANCH   7   8
ENDBRANCH   3   7
TORSDOF 3
ENDMDL
MODEL      125
REMARK 921   NORMALIZED FREE ENERGY PREDICTED BY IDOCK:   -4.40 KCAL/MOL
REMARK 922        TOTAL FREE ENERGY PREDICTED BY IDOCK:   -5.47 KCAL/MOL
REMARK 923 INTER-LIGAND FREE ENERGY PREDICTED BY IDOCK:   -5.11 KCAL/MOL
REMARK 924 INTRA-LIGAND FREE ENERGY PREDICTED BY IDOCK:   -0.36 KCAL/MOL
REMARK 927      BINDING AFFINITY PREDICTED BY RF-SCORE:    0.00 PKD
ROOT
HETATM    1  C   UNL     1      -8.760  15.169  68.968  1.00  0.00    -0.215 C  
HETATM    2  C   UNL     1      -9.605  15.636  67.770  1.00  0.00    -0.209 C  
HETATM    3  N   UNL     1     -10.549  14.602  67.303  1.00  0.00    -0.280 NA 
HETATM    4  C   UNL     1     -10.347  16.936  68.127  1.00  0.00    -0.336 C  
HETATM    5  C   UNL     1      -8.647  15.939  66.602  1.00  0.00    -0.320 C  
HETATM    6  H   UNL     1     -10.040  13.806  66.920  1.00  0.00     0.000 HD 
ENDROOT
BRANCH   3   7
HETATM    7  C   UNL     1     -11.519  14.146  68.314  1.00  0.00    -0.304 C  
BRANCH   7   8
HETATM    8  C   UNL     1     -11.732  12.609  68.303  1.00  0.00    -0.342 C  
HETATM    9  H   UNL     1     -10.645  11.021  67.905  1.00  0.00     0.000 HD 
HETATM   10  O   UNL     1     -10.515  11.962  67.912  1.00  0.00    -0.195 OA 
BRANCH   8  11
HETATM   11  C   UNL     1     -12.182  12.130  69.674  1.00  0.00    -0.183 A  
HETATM   12  C   UNL     1     -12.195  10.754  69.971  1.00  0.00    -0.409 A  
HETATM   13  C   UNL     1     -12.679  10.310  71.203  1.00  0.00    -0.403 A  
HETATM   14  C   UNL     1     -13.153  11.203  72.158  1.00  0.00    -0.288 A  
HETATM   15  O   UNL     1     -12.720   8.982  71.513  1.00  0.00    -0.318 OA 
HETATM   16  H   UNL     1     -13.050   8.679  72.350  1.00  0.00     0.000 HD 
HETATM   17  C   UNL     1     -13.129  12.562  71.869  1.00  0.00    -0.368 A  
HETATM   18  O   UNL     1     -13.583  13.485  72.763  1.00  0.00    -0.672 OA 
HETATM   19  C   UNL     1     -12.647  13.030  70.650  1.00  0.00    -0.270 A  
HETATM   20  H   UNL     1     -13.567  14.415  72.566  1.00  0.00     0.000 HD 
ENDBRANCH   8  11
ENDBRANCH   7   8
ENDBRANCH   3   7
TORSDOF 3
ENDMDL
MODEL      126
REMARK 921   NORMALIZED FREE ENERGY PREDICTED BY IDOCK:   -4.40 KCAL/MOL
REMARK 922        TOTAL FREE ENERGY PREDICTED BY IDOCK:   -5.47 KCAL/MOL
REMARK 923 INTER-LIGAND FREE ENERGY PREDICTED BY IDOCK:   -5.41 KCAL/MOL
REMARK 924 INTRA-LIGAND FREE ENERGY PREDICTED BY IDOCK:   -0.06 KCAL/MOL
REMARK 927      BINDING AFFINITY PREDICTED BY RF-SCORE:    0.00 PKD
ROOT
HETATM    1  C   UNL     1      -8.643  16.562  68.150  1.00  0.00    -0.193 C  
HETATM    2  C   UNL     1      -9.941  17.183  67.607  1.00  0.00    -0.283 C  
HETATM    3  N   UNL     1     -11.088  16.255  67.682  1.00  0.00    -0.243 NA 
HETATM    4  C   UNL     1     -10.246  18.495  68.350  1.00  0.00    -0.409 C  
HETATM    5  C   UNL     1      -9.723  17.517  66.118  1.00  0.00    -0.225 C  
HETATM    6  H   UNL     1     -10.942  15.462  67.058  1.00  0.00     0.000 HD 
ENDROOT
BRANCH   3   7
HETATM    7  C   UNL     1     -11.416  15.783  69.038  1.00  0.00    -0.391 C  
BRANCH   7   8
HETATM    8  C   UNL     1     -11.240  14.250  69.207  1.00  0.00    -0.273 C  
HETATM    9  H   UNL     1     -12.219  12.790  70.085  1.00  0.00     0.000 HD 
HETATM   10  O   UNL     1     -12.326  13.729  69.981  1.00  0.00    -0.330 OA 
BRANCH   8  11
HETATM   11  C   UNL     1     -11.174  13.575  67.847  1.00  0.00    -0.302 A  
HETATM   12  C   UNL     1     -10.000  12.911  67.446  1.00  0.00    -0.217 A  
HETATM   13  C   UNL     1      -9.912  12.356  66.167  1.00  0.00    -0.253 A  
HETATM   14  C   UNL     1     -10.970  12.442  65.269  1.00  0.00    -0.335 A  
HETATM   15  O   UNL     1      -8.781  11.721  65.745  1.00  0.00    -0.397 OA 
HETATM   16  H   UNL     1      -8.722  11.344  64.875  1.00  0.00     0.000 HD 
HETATM   17  C   UNL     1     -12.134  13.087  65.669  1.00  0.00    -0.454 A  
HETATM   18  O   UNL     1     -13.203  13.206  64.831  1.00  0.00    -0.705 OA 
HETATM   19  C   UNL     1     -12.247  13.644  66.939  1.00  0.00    -0.398 A  
HETATM   20  H   UNL     1     -13.999  13.647  65.104  1.00  0.00     0.000 HD 
ENDBRANCH   8  11
ENDBRANCH   7   8
ENDBRANCH   3   7
TORSDOF 3
ENDMDL
MODEL      127
REMARK 921   NORMALIZED FREE ENERGY PREDICTED BY IDOCK:   -4.38 KCAL/MOL
REMARK 922        TOTAL FREE ENERGY PREDICTED BY IDOCK:   -5.45 KCAL/MOL
REMARK 923 INTER-LIGAND FREE ENERGY PREDICTED BY IDOCK:   -4.98 KCAL/MOL
REMARK 924 INTRA-LIGAND FREE ENERGY PREDICTED BY IDOCK:   -0.47 KCAL/MOL
REMARK 927      BINDING AFFINITY PREDICTED BY RF-SCORE:    0.00 PKD
ROOT
HETATM    1  C   UNL     1     -11.782  12.115  66.140  1.00  0.00    -0.384 C  
HETATM    2  C   UNL     1     -10.601  12.147  65.155  1.00  0.00    -0.286 C  
HETATM    3  N   UNL     1      -9.447  12.907  65.676  1.00  0.00    -0.467 NA 
HETATM    4  C   UNL     1     -10.190  10.712  64.782  1.00  0.00    -0.401 C  
HETATM    5  C   UNL     1     -11.072  12.858  63.871  1.00  0.00    -0.454 C  
HETATM    6  H   UNL     1      -9.687  13.894  65.769  1.00  0.00     0.000 HD 
ENDROOT
BRANCH   3   7
HETATM    7  C   UNL     1      -8.890  12.398  66.941  1.00  0.00    -0.205 C  
BRANCH   7   8
HETATM    8  C   UNL     1      -8.463  13.528  67.916  1.00  0.00    -0.179 C  
HETATM    9  H   UNL     1      -7.048  14.888  67.991  1.00  0.00     0.000 HD 
HETATM   10  O   UNL     1      -7.309  14.197  67.394  1.00  0.00    -0.180 OA 
BRANCH   8  11
HETATM   11  C   UNL     1      -9.608  14.507  68.121  1.00  0.00    -0.212 A  
HETATM   12  C   UNL     1      -9.496  15.831  67.659  1.00  0.00    -0.218 A  
HETATM   13  C   UNL     1     -10.516  16.750  67.913  1.00  0.00    -0.335 A  
HETATM   14  C   UNL     1     -11.657  16.384  68.619  1.00  0.00    -0.127 A  
HETATM   15  O   UNL     1     -10.427  18.044  67.492  1.00  0.00    -0.371 OA 
HETATM   16  H   UNL     1     -11.121  18.669  67.665  1.00  0.00     0.000 HD 
HETATM   17  C   UNL     1     -11.774  15.074  69.065  1.00  0.00    -0.325 A  
HETATM   18  O   UNL     1     -12.868  14.657  69.764  1.00  0.00    -0.571 OA 
HETATM   19  C   UNL     1     -10.773  14.139  68.819  1.00  0.00    -0.265 A  
HETATM   20  H   UNL     1     -12.948  13.761  70.069  1.00  0.00     0.000 HD 
ENDBRANCH   8  11
ENDBRANCH   7   8
ENDBRANCH   3   7
TORSDOF 3
ENDMDL
MODEL      128
REMARK 921   NORMALIZED FREE ENERGY PREDICTED BY IDOCK:   -4.37 KCAL/MOL
REMARK 922        TOTAL FREE ENERGY PREDICTED BY IDOCK:   -5.44 KCAL/MOL
REMARK 923 INTER-LIGAND FREE ENERGY PREDICTED BY IDOCK:   -5.13 KCAL/MOL
REMARK 924 INTRA-LIGAND FREE ENERGY PREDICTED BY IDOCK:   -0.30 KCAL/MOL
REMARK 927      BINDING AFFINITY PREDICTED BY RF-SCORE:    0.00 PKD
ROOT
HETATM    1  C   UNL     1     -11.548  11.513  63.430  1.00  0.00    -0.232 C  
HETATM    2  C   UNL     1     -10.097  11.343  63.909  1.00  0.00    -0.345 C  
HETATM    3  N   UNL     1      -9.644  12.463  64.759  1.00  0.00    -0.466 NA 
HETATM    4  C   UNL     1      -9.940  10.000  64.643  1.00  0.00    -0.206 C  
HETATM    5  C   UNL     1      -9.185  11.317  62.667  1.00  0.00    -0.330 C  
HETATM    6  H   UNL     1      -9.600  13.324  64.213  1.00  0.00     0.000 HD 
ENDROOT
BRANCH   3   7
HETATM    7  C   UNL     1     -10.440  12.675  65.980  1.00  0.00    -0.268 C  
BRANCH   7   8
HETATM    8  C   UNL     1     -10.986  14.121  66.107  1.00  0.00    -0.309 C  
HETATM    9  H   UNL     1     -12.685  15.041  65.748  1.00  0.00     0.000 HD 
HETATM   10  O   UNL     1     -12.350  14.156  65.671  1.00  0.00    -0.429 OA 
BRANCH   8  11
HETATM   11  C   UNL     1     -10.866  14.606  67.542  1.00  0.00    -0.286 A  
HETATM   12  C   UNL     1     -12.002  15.075  68.227  1.00  0.00    -0.214 A  
HETATM   13  C   UNL     1     -11.878  15.589  69.519  1.00  0.00    -0.372 A  
HETATM   14  C   UNL     1     -10.643  15.650  70.156  1.00  0.00    -0.348 A  
HETATM   15  O   UNL     1     -12.959  16.066  70.200  1.00  0.00    -0.639 OA 
HETATM   16  H   UNL     1     -12.875  16.416  71.079  1.00  0.00     0.000 HD 
HETATM   17  C   UNL     1      -9.523  15.177  69.485  1.00  0.00    -0.145 A  
HETATM   18  O   UNL     1      -8.285  15.213  70.057  1.00  0.00    -0.332 OA 
HETATM   19  C   UNL     1      -9.622  14.655  68.199  1.00  0.00    -0.213 A  
HETATM   20  H   UNL     1      -7.519  14.890  69.598  1.00  0.00     0.000 HD 
ENDBRANCH   8  11
ENDBRANCH   7   8
ENDBRANCH   3   7
TORSDOF 3
ENDMDL
MODEL      129
REMARK 921   NORMALIZED FREE ENERGY PREDICTED BY IDOCK:   -4.37 KCAL/MOL
REMARK 922        TOTAL FREE ENERGY PREDICTED BY IDOCK:   -5.43 KCAL/MOL
REMARK 923 INTER-LIGAND FREE ENERGY PREDICTED BY IDOCK:   -5.02 KCAL/MOL
REMARK 924 INTRA-LIGAND FREE ENERGY PREDICTED BY IDOCK:   -0.40 KCAL/MOL
REMARK 927      BINDING AFFINITY PREDICTED BY RF-SCORE:    0.00 PKD
ROOT
HETATM    1  C   UNL     1     -13.928  15.280  70.859  1.00  0.00    -0.250 C  
HETATM    2  C   UNL     1     -12.527  14.921  71.384  1.00  0.00    -0.337 C  
HETATM    3  N   UNL     1     -11.700  14.235  70.371  1.00  0.00    -0.401 NA 
HETATM    4  C   UNL     1     -11.822  16.186  71.903  1.00  0.00    -0.605 C  
HETATM    5  C   UNL     1     -12.697  13.950  72.568  1.00  0.00    -0.276 C  
HETATM    6  H   UNL     1     -12.097  13.321  70.152  1.00  0.00     0.000 HD 
ENDROOT
BRANCH   3   7
HETATM    7  C   UNL     1     -11.472  15.001  69.134  1.00  0.00    -0.301 C  
BRANCH   7   8
HETATM    8  C   UNL     1      -9.988  14.998  68.681  1.00  0.00    -0.220 C  
HETATM    9  H   UNL     1      -8.965  14.312  67.150  1.00  0.00     0.000 HD 
HETATM   10  O   UNL     1      -9.874  14.314  67.428  1.00  0.00    -0.230 OA 
BRANCH   8  11
HETATM   11  C   UNL     1      -9.469  16.422  68.568  1.00  0.00    -0.227 A  
HETATM   12  C   UNL     1     -10.261  17.498  69.009  1.00  0.00    -0.314 A  
HETATM   13  C   UNL     1      -9.816  18.811  68.837  1.00  0.00    -0.365 A  
HETATM   14  C   UNL     1      -8.593  19.085  68.236  1.00  0.00    -0.366 A  
HETATM   15  O   UNL     1     -10.569  19.875  69.239  1.00  0.00    -0.538 OA 
HETATM   16  H   UNL     1     -10.267  20.767  69.122  1.00  0.00     0.000 HD 
HETATM   17  C   UNL     1      -7.805  18.023  67.811  1.00  0.00    -0.223 A  
HETATM   18  O   UNL     1      -6.598  18.229  67.212  1.00  0.00    -0.183 OA 
HETATM   19  C   UNL     1      -8.225  16.706  67.976  1.00  0.00    -0.185 A  
HETATM   20  H   UNL     1      -6.059  17.502  66.922  1.00  0.00     0.000 HD 
ENDBRANCH   8  11
ENDBRANCH   7   8
ENDBRANCH   3   7
TORSDOF 3
ENDMDL
MODEL      130
REMARK 921   NORMALIZED FREE ENERGY PREDICTED BY IDOCK:   -4.36 KCAL/MOL
REMARK 922        TOTAL FREE ENERGY PREDICTED BY IDOCK:   -5.42 KCAL/MOL
REMARK 923 INTER-LIGAND FREE ENERGY PREDICTED BY IDOCK:   -5.16 KCAL/MOL
REMARK 924 INTRA-LIGAND FREE ENERGY PREDICTED BY IDOCK:   -0.26 KCAL/MOL
REMARK 927      BINDING AFFINITY PREDICTED BY RF-SCORE:    0.00 PKD
ROOT
HETATM    1  C   UNL     1     -10.729  11.926  65.893  1.00  0.00    -0.326 C  
HETATM    2  C   UNL     1     -11.132  12.624  67.203  1.00  0.00    -0.280 C  
HETATM    3  N   UNL     1     -11.987  11.776  68.057  1.00  0.00    -0.583 NA 
HETATM    4  C   UNL     1      -9.874  13.078  67.964  1.00  0.00    -0.224 C  
HETATM    5  C   UNL     1     -11.950  13.878  66.841  1.00  0.00    -0.467 C  
HETATM    6  H   UNL     1     -12.887  11.613  67.605  1.00  0.00     0.000 HD 
ENDROOT
BRANCH   3   7
HETATM    7  C   UNL     1     -11.383  10.495  68.463  1.00  0.00    -0.257 C  
BRANCH   7   8
HETATM    8  C   UNL     1     -11.256  10.344  70.003  1.00  0.00    -0.316 C  
HETATM    9  H   UNL     1     -12.249  10.957  71.583  1.00  0.00     0.000 HD 
HETATM   10  O   UNL     1     -12.327  11.050  70.641  1.00  0.00    -0.328 OA 
BRANCH   8  11
HETATM   11  C   UNL     1     -11.272   8.874  70.390  1.00  0.00    -0.259 A  
HETATM   12  C   UNL     1     -10.304   7.997  69.867  1.00  0.00    -0.221 A  
HETATM   13  C   UNL     1     -10.363   6.633  70.163  1.00  0.00    -0.203 A  
HETATM   14  C   UNL     1     -11.367   6.113  70.974  1.00  0.00    -0.348 A  
HETATM   15  O   UNL     1      -9.449   5.756  69.658  1.00  0.00    -0.135 OA 
HETATM   16  H   UNL     1      -9.489   4.829  69.859  1.00  0.00     0.000 HD 
HETATM   17  C   UNL     1     -12.316   6.981  71.500  1.00  0.00    -0.379 A  
HETATM   18  O   UNL     1     -13.324   6.530  72.298  1.00  0.00    -0.527 OA 
HETATM   19  C   UNL     1     -12.275   8.345  71.223  1.00  0.00    -0.305 A  
HETATM   20  H   UNL     1     -13.974   7.124  72.658  1.00  0.00     0.000 HD 
ENDBRANCH   8  11
ENDBRANCH   7   8
ENDBRANCH   3   7
TORSDOF 3
ENDMDL
MODEL      131
REMARK 921   NORMALIZED FREE ENERGY PREDICTED BY IDOCK:   -4.32 KCAL/MOL
REMARK 922        TOTAL FREE ENERGY PREDICTED BY IDOCK:   -5.37 KCAL/MOL
REMARK 923 INTER-LIGAND FREE ENERGY PREDICTED BY IDOCK:   -5.11 KCAL/MOL
REMARK 924 INTRA-LIGAND FREE ENERGY PREDICTED BY IDOCK:   -0.26 KCAL/MOL
REMARK 927      BINDING AFFINITY PREDICTED BY RF-SCORE:    0.00 PKD
ROOT
HETATM    1  C   UNL     1     -13.623  13.829  72.398  1.00  0.00    -0.690 C  
HETATM    2  C   UNL     1     -12.603  14.602  71.545  1.00  0.00    -0.343 C  
HETATM    3  N   UNL     1     -11.588  13.719  70.936  1.00  0.00    -0.430 NA 
HETATM    4  C   UNL     1     -13.333  15.423  70.468  1.00  0.00    -0.173 C  
HETATM    5  C   UNL     1     -11.856  15.584  72.469  1.00  0.00    -0.572 C  
HETATM    6  H   UNL     1     -11.003  13.302  71.660  1.00  0.00     0.000 HD 
ENDROOT
BRANCH   3   7
HETATM    7  C   UNL     1     -12.127  12.672  70.051  1.00  0.00    -0.269 C  
BRANCH   7   8
HETATM    8  C   UNL     1     -11.121  11.521  69.788  1.00  0.00    -0.084 C  
HETATM    9  H   UNL     1     -11.113   9.565  69.969  1.00  0.00     0.000 HD 
HETATM   10  O   UNL     1     -11.729  10.270  70.130  1.00  0.00    -0.263 OA 
BRANCH   8  11
HETATM   11  C   UNL     1     -10.683  11.527  68.332  1.00  0.00    -0.241 A  
HETATM   12  C   UNL     1     -10.487  12.748  67.660  1.00  0.00    -0.224 A  
HETATM   13  C   UNL     1     -10.157  12.754  66.303  1.00  0.00    -0.259 A  
HETATM   14  C   UNL     1     -10.013  11.569  65.590  1.00  0.00    -0.275 A  
HETATM   15  O   UNL     1      -9.977  13.922  65.622  1.00  0.00    -0.363 OA 
HETATM   16  H   UNL     1      -9.753  13.927  64.699  1.00  0.00     0.000 HD 
HETATM   17  C   UNL     1     -10.195  10.364  66.256  1.00  0.00    -0.222 A  
HETATM   18  O   UNL     1     -10.070   9.170  65.609  1.00  0.00    -0.416 OA 
HETATM   19  C   UNL     1     -10.519  10.332  67.609  1.00  0.00    -0.285 A  
HETATM   20  H   UNL     1     -10.194   8.345  66.064  1.00  0.00     0.000 HD 
ENDBRANCH   8  11
ENDBRANCH   7   8
ENDBRANCH   3   7
TORSDOF 3
ENDMDL
MODEL      132
REMARK 921   NORMALIZED FREE ENERGY PREDICTED BY IDOCK:   -4.31 KCAL/MOL
REMARK 922        TOTAL FREE ENERGY PREDICTED BY IDOCK:   -5.36 KCAL/MOL
REMARK 923 INTER-LIGAND FREE ENERGY PREDICTED BY IDOCK:   -5.12 KCAL/MOL
REMARK 924 INTRA-LIGAND FREE ENERGY PREDICTED BY IDOCK:   -0.25 KCAL/MOL
REMARK 927      BINDING AFFINITY PREDICTED BY RF-SCORE:    0.00 PKD
ROOT
HETATM    1  C   UNL     1     -10.939  11.599  65.472  1.00  0.00    -0.327 C  
HETATM    2  C   UNL     1     -11.355  12.665  66.500  1.00  0.00    -0.326 C  
HETATM    3  N   UNL     1     -12.092  12.093  67.645  1.00  0.00    -0.488 NA 
HETATM    4  C   UNL     1     -10.117  13.443  66.979  1.00  0.00    -0.247 C  
HETATM    5  C   UNL     1     -12.301  13.659  65.800  1.00  0.00    -0.524 C  
HETATM    6  H   UNL     1     -12.990  11.720  67.335  1.00  0.00     0.000 HD 
ENDROOT
BRANCH   3   7
HETATM    7  C   UNL     1     -11.355  11.074  68.410  1.00  0.00    -0.295 C  
BRANCH   7   8
HETATM    8  C   UNL     1     -11.699  11.083  69.924  1.00  0.00    -0.346 C  
HETATM    9  H   UNL     1     -13.326  10.956  71.017  1.00  0.00     0.000 HD 
HETATM   10  O   UNL     1     -13.115  10.950  70.091  1.00  0.00    -0.108 OA 
BRANCH   8  11
HETATM   11  C   UNL     1     -10.963   9.960  70.638  1.00  0.00    -0.405 A  
HETATM   12  C   UNL     1     -11.661   9.097  71.502  1.00  0.00    -0.433 A  
HETATM   13  C   UNL     1     -10.972   8.114  72.215  1.00  0.00    -0.332 A  
HETATM   14  C   UNL     1      -9.596   7.962  72.090  1.00  0.00    -0.255 A  
HETATM   15  O   UNL     1     -11.620   7.274  73.073  1.00  0.00    -0.561 OA 
HETATM   16  H   UNL     1     -11.152   6.605  73.558  1.00  0.00     0.000 HD 
HETATM   17  C   UNL     1      -8.908   8.807  71.228  1.00  0.00    -0.226 A  
HETATM   18  O   UNL     1      -7.558   8.709  71.066  1.00  0.00    -0.079 OA 
HETATM   19  C   UNL     1      -9.573   9.791  70.503  1.00  0.00    -0.166 A  
HETATM   20  H   UNL     1      -7.087   9.286  70.476  1.00  0.00     0.000 HD 
ENDBRANCH   8  11
ENDBRANCH   7   8
ENDBRANCH   3   7
TORSDOF 3
ENDMDL
MODEL      133
REMARK 921   NORMALIZED FREE ENERGY PREDICTED BY IDOCK:   -4.31 KCAL/MOL
REMARK 922        TOTAL FREE ENERGY PREDICTED BY IDOCK:   -5.36 KCAL/MOL
REMARK 923 INTER-LIGAND FREE ENERGY PREDICTED BY IDOCK:   -4.97 KCAL/MOL
REMARK 924 INTRA-LIGAND FREE ENERGY PREDICTED BY IDOCK:   -0.39 KCAL/MOL
REMARK 927      BINDING AFFINITY PREDICTED BY RF-SCORE:    0.00 PKD
ROOT
HETATM    1  C   UNL     1      -9.914  10.014  65.641  1.00  0.00    -0.355 C  
HETATM    2  C   UNL     1      -9.080   8.891  66.279  1.00  0.00    -0.190 C  
HETATM    3  N   UNL     1      -8.259   9.368  67.411  1.00  0.00    -0.120 NA 
HETATM    4  C   UNL     1      -9.999   7.738  66.716  1.00  0.00    -0.331 C  
HETATM    5  C   UNL     1      -8.111   8.351  65.209  1.00  0.00    -0.140 C  
HETATM    6  H   UNL     1      -7.544  10.016  67.080  1.00  0.00     0.000 HD 
ENDROOT
BRANCH   3   7
HETATM    7  C   UNL     1      -9.020   9.971  68.518  1.00  0.00    -0.124 C  
BRANCH   7   8
HETATM    8  C   UNL     1      -8.667   9.361  69.901  1.00  0.00    -0.197 C  
HETATM    9  H   UNL     1      -7.514   9.838  71.418  1.00  0.00     0.000 HD 
HETATM   10  O   UNL     1      -7.730  10.211  70.572  1.00  0.00    -0.232 OA 
BRANCH   8  11
HETATM   11  C   UNL     1      -9.926   9.182  70.734  1.00  0.00    -0.334 A  
HETATM   12  C   UNL     1      -9.892   8.404  71.906  1.00  0.00    -0.328 A  
HETATM   13  C   UNL     1     -11.065   8.178  72.630  1.00  0.00    -0.380 A  
HETATM   14  C   UNL     1     -12.282   8.711  72.217  1.00  0.00    -0.447 A  
HETATM   15  O   UNL     1     -11.066   7.415  73.760  1.00  0.00    -0.557 OA 
HETATM   16  H   UNL     1     -11.863   7.261  74.252  1.00  0.00     0.000 HD 
HETATM   17  C   UNL     1     -12.314   9.488  71.067  1.00  0.00    -0.282 A  
HETATM   18  O   UNL     1     -13.477  10.035  70.612  1.00  0.00    -0.582 OA 
HETATM   19  C   UNL     1     -11.157   9.732  70.331  1.00  0.00    -0.367 A  
HETATM   20  H   UNL     1     -13.499  10.567  69.824  1.00  0.00     0.000 HD 
ENDBRANCH   8  11
ENDBRANCH   7   8
ENDBRANCH   3   7
TORSDOF 3
ENDMDL
MODEL      134
REMARK 921   NORMALIZED FREE ENERGY PREDICTED BY IDOCK:   -4.30 KCAL/MOL
REMARK 922        TOTAL FREE ENERGY PREDICTED BY IDOCK:   -5.35 KCAL/MOL
REMARK 923 INTER-LIGAND FREE ENERGY PREDICTED BY IDOCK:   -5.11 KCAL/MOL
REMARK 924 INTRA-LIGAND FREE ENERGY PREDICTED BY IDOCK:   -0.23 KCAL/MOL
REMARK 927      BINDING AFFINITY PREDICTED BY RF-SCORE:    0.00 PKD
ROOT
HETATM    1  C   UNL     1     -10.255   8.581  71.231  1.00  0.00    -0.287 C  
HETATM    2  C   UNL     1     -10.331   8.378  69.709  1.00  0.00    -0.216 C  
HETATM    3  N   UNL     1     -11.144   9.413  69.038  1.00  0.00    -0.437 NA 
HETATM    4  C   UNL     1      -8.913   8.325  69.115  1.00  0.00    -0.147 C  
HETATM    5  C   UNL     1     -11.012   7.022  69.442  1.00  0.00    -0.232 C  
HETATM    6  H   UNL     1     -12.120   9.334  69.323  1.00  0.00     0.000 HD 
ENDROOT
BRANCH   3   7
HETATM    7  C   UNL     1     -10.669  10.795  69.228  1.00  0.00    -0.229 C  
BRANCH   7   8
HETATM    8  C   UNL     1     -11.767  11.858  68.960  1.00  0.00    -0.331 C  
HETATM    9  H   UNL     1     -12.639  13.296  69.975  1.00  0.00     0.000 HD 
HETATM   10  O   UNL     1     -11.966  12.645  70.140  1.00  0.00    -0.346 OA 
BRANCH   8  11
HETATM   11  C   UNL     1     -11.372  12.737  67.784  1.00  0.00    -0.342 A  
HETATM   12  C   UNL     1     -10.064  13.246  67.692  1.00  0.00    -0.229 A  
HETATM   13  C   UNL     1      -9.723  14.114  66.652  1.00  0.00    -0.288 A  
HETATM   14  C   UNL     1     -10.655  14.491  65.692  1.00  0.00    -0.343 A  
HETATM   15  O   UNL     1      -8.467  14.636  66.547  1.00  0.00    -0.428 OA 
HETATM   16  H   UNL     1      -8.235  15.227  65.840  1.00  0.00     0.000 HD 
HETATM   17  C   UNL     1     -11.943  13.979  65.776  1.00  0.00    -0.404 A  
HETATM   18  O   UNL     1     -12.901  14.315  64.865  1.00  0.00    -0.680 OA 
HETATM   19  C   UNL     1     -12.306  13.109  66.799  1.00  0.00    -0.173 A  
HETATM   20  H   UNL     1     -13.783  13.965  64.922  1.00  0.00     0.000 HD 
ENDBRANCH   8  11
ENDBRANCH   7   8
ENDBRANCH   3   7
TORSDOF 3
ENDMDL
MODEL      135
REMARK 921   NORMALIZED FREE ENERGY PREDICTED BY IDOCK:   -4.28 KCAL/MOL
REMARK 922        TOTAL FREE ENERGY PREDICTED BY IDOCK:   -5.32 KCAL/MOL
REMARK 923 INTER-LIGAND FREE ENERGY PREDICTED BY IDOCK:   -5.03 KCAL/MOL
REMARK 924 INTRA-LIGAND FREE ENERGY PREDICTED BY IDOCK:   -0.29 KCAL/MOL
REMARK 927      BINDING AFFINITY PREDICTED BY RF-SCORE:    0.00 PKD
ROOT
HETATM    1  C   UNL     1     -11.364  12.576  66.824  1.00  0.00    -0.390 C  
HETATM    2  C   UNL     1     -10.278  11.861  67.646  1.00  0.00    -0.201 C  
HETATM    3  N   UNL     1     -10.533  11.923  69.099  1.00  0.00    -0.421 NA 
HETATM    4  C   UNL     1     -10.139  10.403  67.175  1.00  0.00    -0.254 C  
HETATM    5  C   UNL     1      -8.938  12.576  67.388  1.00  0.00    -0.188 C  
HETATM    6  H   UNL     1     -10.465  12.886  69.429  1.00  0.00     0.000 HD 
ENDROOT
BRANCH   3   7
HETATM    7  C   UNL     1     -11.809  11.327  69.531  1.00  0.00    -0.357 C  
BRANCH   7   8
HETATM    8  C   UNL     1     -11.874  11.070  71.060  1.00  0.00    -0.108 C  
HETATM    9  H   UNL     1     -13.061  11.572  72.543  1.00  0.00     0.000 HD 
HETATM   10  O   UNL     1     -13.021  11.730  71.607  1.00  0.00    -0.425 OA 
BRANCH   8  11
HETATM   11  C   UNL     1     -11.925   9.577  71.340  1.00  0.00    -0.464 A  
HETATM   12  C   UNL     1     -13.161   8.907  71.372  1.00  0.00    -0.309 A  
HETATM   13  C   UNL     1     -13.214   7.551  71.703  1.00  0.00    -0.356 A  
HETATM   14  C   UNL     1     -12.060   6.836  72.005  1.00  0.00    -0.344 A  
HETATM   15  O   UNL     1     -14.400   6.879  71.758  1.00  0.00    -0.416 OA 
HETATM   16  H   UNL     1     -14.436   5.957  71.984  1.00  0.00     0.000 HD 
HETATM   17  C   UNL     1     -10.838   7.494  71.962  1.00  0.00    -0.233 A  
HETATM   18  O   UNL     1      -9.673   6.847  72.251  1.00  0.00    -0.149 OA 
HETATM   19  C   UNL     1     -10.759   8.844  71.630  1.00  0.00    -0.418 A  
HETATM   20  H   UNL     1      -8.836   7.298  72.222  1.00  0.00     0.000 HD 
ENDBRANCH   8  11
ENDBRANCH   7   8
ENDBRANCH   3   7
TORSDOF 3
ENDMDL
MODEL      136
REMARK 921   NORMALIZED FREE ENERGY PREDICTED BY IDOCK:   -4.27 KCAL/MOL
REMARK 922        TOTAL FREE ENERGY PREDICTED BY IDOCK:   -5.31 KCAL/MOL
REMARK 923 INTER-LIGAND FREE ENERGY PREDICTED BY IDOCK:   -5.04 KCAL/MOL
REMARK 924 INTRA-LIGAND FREE ENERGY PREDICTED BY IDOCK:   -0.27 KCAL/MOL
REMARK 927      BINDING AFFINITY PREDICTED BY RF-SCORE:    0.00 PKD
ROOT
HETATM    1  C   UNL     1     -12.760  13.652  65.738  1.00  0.00    -0.470 C  
HETATM    2  C   UNL     1     -11.528  13.656  64.818  1.00  0.00    -0.352 C  
HETATM    3  N   UNL     1     -10.858  14.971  64.772  1.00  0.00    -0.573 NA 
HETATM    4  C   UNL     1     -10.545  12.555  65.252  1.00  0.00    -0.319 C  
HETATM    5  C   UNL     1     -12.001  13.336  63.387  1.00  0.00    -0.491 C  
HETATM    6  H   UNL     1     -11.467  15.662  64.333  1.00  0.00     0.000 HD 
ENDROOT
BRANCH   3   7
HETATM    7  C   UNL     1     -10.379  15.469  66.073  1.00  0.00    -0.326 C  
BRANCH   7   8
HETATM    8  C   UNL     1      -9.308  16.584  65.941  1.00  0.00    -0.191 C  
HETATM    9  H   UNL     1      -9.297  18.519  65.600  1.00  0.00     0.000 HD 
HETATM   10  O   UNL     1      -9.953  17.836  65.681  1.00  0.00    -0.548 OA 
BRANCH   8  11
HETATM   11  C   UNL     1      -8.469  16.660  67.207  1.00  0.00    -0.214 A  
HETATM   12  C   UNL     1      -7.764  17.838  67.515  1.00  0.00    -0.214 A  
HETATM   13  C   UNL     1      -6.934  17.883  68.638  1.00  0.00    -0.252 A  
HETATM   14  C   UNL     1      -6.787  16.780  69.471  1.00  0.00    -0.139 A  
HETATM   15  O   UNL     1      -6.225  19.005  68.952  1.00  0.00    -0.231 OA 
HETATM   16  H   UNL     1      -5.661  19.036  69.715  1.00  0.00     0.000 HD 
HETATM   17  C   UNL     1      -7.492  15.620  69.173  1.00  0.00    -0.201 A  
HETATM   18  O   UNL     1      -7.385  14.506  69.951  1.00  0.00    -0.381 OA 
HETATM   19  C   UNL     1      -8.329  15.553  68.063  1.00  0.00    -0.142 A  
HETATM   20  H   UNL     1      -7.868  13.713  69.748  1.00  0.00     0.000 HD 
ENDBRANCH   8  11
ENDBRANCH   7   8
ENDBRANCH   3   7
TORSDOF 3
ENDMDL
MODEL      137
REMARK 921   NORMALIZED FREE ENERGY PREDICTED BY IDOCK:   -4.26 KCAL/MOL
REMARK 922        TOTAL FREE ENERGY PREDICTED BY IDOCK:   -5.30 KCAL/MOL
REMARK 923 INTER-LIGAND FREE ENERGY PREDICTED BY IDOCK:   -4.82 KCAL/MOL
REMARK 924 INTRA-LIGAND FREE ENERGY PREDICTED BY IDOCK:   -0.48 KCAL/MOL
REMARK 927      BINDING AFFINITY PREDICTED BY RF-SCORE:    0.00 PKD
ROOT
HETATM    1  C   UNL     1     -12.455   8.141  71.607  1.00  0.00    -0.349 C  
HETATM    2  C   UNL     1     -11.244   7.239  71.902  1.00  0.00    -0.248 C  
HETATM    3  N   UNL     1     -10.306   7.160  70.764  1.00  0.00    -0.206 NA 
HETATM    4  C   UNL     1     -10.526   7.724  73.172  1.00  0.00    -0.413 C  
HETATM    5  C   UNL     1     -11.765   5.812  72.162  1.00  0.00    -0.226 C  
HETATM    6  H   UNL     1     -10.747   6.689  69.974  1.00  0.00     0.000 HD 
ENDROOT
BRANCH   3   7
HETATM    7  C   UNL     1      -9.740   8.451  70.335  1.00  0.00    -0.173 C  
BRANCH   7   8
HETATM    8  C   UNL     1      -9.936   8.728  68.821  1.00  0.00    -0.185 C  
HETATM    9  H   UNL     1     -10.778   7.812  67.300  1.00  0.00     0.000 HD 
HETATM   10  O   UNL     1     -10.658   7.643  68.227  1.00  0.00    -0.190 OA 
BRANCH   8  11
HETATM   11  C   UNL     1     -10.671  10.043  68.617  1.00  0.00    -0.256 A  
HETATM   12  C   UNL     1     -10.919  10.517  67.316  1.00  0.00    -0.325 A  
HETATM   13  C   UNL     1     -11.527  11.760  67.128  1.00  0.00    -0.295 A  
HETATM   14  C   UNL     1     -11.901  12.551  68.210  1.00  0.00    -0.361 A  
HETATM   15  O   UNL     1     -11.765  12.253  65.879  1.00  0.00    -0.395 OA 
HETATM   16  H   UNL     1     -12.179  13.099  65.752  1.00  0.00     0.000 HD 
HETATM   17  C   UNL     1     -11.667  12.078  69.495  1.00  0.00    -0.342 A  
HETATM   18  O   UNL     1     -12.008  12.809  70.593  1.00  0.00    -0.510 OA 
HETATM   19  C   UNL     1     -11.066  10.840  69.706  1.00  0.00    -0.346 A  
HETATM   20  H   UNL     1     -11.848  12.485  71.472  1.00  0.00     0.000 HD 
ENDBRANCH   8  11
ENDBRANCH   7   8
ENDBRANCH   3   7
TORSDOF 3
ENDMDL
MODEL      138
REMARK 921   NORMALIZED FREE ENERGY PREDICTED BY IDOCK:   -4.25 KCAL/MOL
REMARK 922        TOTAL FREE ENERGY PREDICTED BY IDOCK:   -5.29 KCAL/MOL
REMARK 923 INTER-LIGAND FREE ENERGY PREDICTED BY IDOCK:   -5.05 KCAL/MOL
REMARK 924 INTRA-LIGAND FREE ENERGY PREDICTED BY IDOCK:   -0.24 KCAL/MOL
REMARK 927      BINDING AFFINITY PREDICTED BY RF-SCORE:    0.00 PKD
ROOT
HETATM    1  C   UNL     1     -10.896   6.670  69.376  1.00  0.00    -0.340 C  
HETATM    2  C   UNL     1     -10.499   7.305  68.032  1.00  0.00    -0.197 C  
HETATM    3  N   UNL     1     -10.987   8.692  67.894  1.00  0.00    -0.487 NA 
HETATM    4  C   UNL     1      -8.973   7.240  67.851  1.00  0.00    -0.130 C  
HETATM    5  C   UNL     1     -11.149   6.479  66.905  1.00  0.00    -0.342 C  
HETATM    6  H   UNL     1     -12.007   8.705  67.855  1.00  0.00     0.000 HD 
ENDROOT
BRANCH   3   7
HETATM    7  C   UNL     1     -10.506   9.624  68.928  1.00  0.00    -0.215 C  
BRANCH   7   8
HETATM    8  C   UNL     1     -11.655  10.364  69.663  1.00  0.00    -0.239 C  
HETATM    9  H   UNL     1     -12.127  10.775  71.525  1.00  0.00     0.000 HD 
HETATM   10  O   UNL     1     -11.423  10.322  71.075  1.00  0.00    -0.350 OA 
BRANCH   8  11
HETATM   11  C   UNL     1     -11.753  11.801  69.174  1.00  0.00    -0.388 A  
HETATM   12  C   UNL     1     -11.290  12.142  67.890  1.00  0.00    -0.361 A  
HETATM   13  C   UNL     1     -11.310  13.474  67.470  1.00  0.00    -0.308 A  
HETATM   14  C   UNL     1     -11.785  14.485  68.299  1.00  0.00    -0.368 A  
HETATM   15  O   UNL     1     -10.853  13.837  66.238  1.00  0.00    -0.282 OA 
HETATM   16  H   UNL     1     -10.866  14.743  65.953  1.00  0.00     0.000 HD 
HETATM   17  C   UNL     1     -12.253  14.146  69.563  1.00  0.00    -0.305 A  
HETATM   18  O   UNL     1     -12.728  15.094  70.421  1.00  0.00    -0.458 OA 
HETATM   19  C   UNL     1     -12.248  12.826  70.002  1.00  0.00    -0.279 A  
HETATM   20  H   UNL     1     -13.049  14.862  71.285  1.00  0.00     0.000 HD 
ENDBRANCH   8  11
ENDBRANCH   7   8
ENDBRANCH   3   7
TORSDOF 3
ENDMDL
MODEL      139
REMARK 921   NORMALIZED FREE ENERGY PREDICTED BY IDOCK:   -4.24 KCAL/MOL
REMARK 922        TOTAL FREE ENERGY PREDICTED BY IDOCK:   -5.28 KCAL/MOL
REMARK 923 INTER-LIGAND FREE ENERGY PREDICTED BY IDOCK:   -5.02 KCAL/MOL
REMARK 924 INTRA-LIGAND FREE ENERGY PREDICTED BY IDOCK:   -0.26 KCAL/MOL
REMARK 927      BINDING AFFINITY PREDICTED BY RF-SCORE:    0.00 PKD
ROOT
HETATM    1  C   UNL     1      -6.142  19.036  65.283  1.00  0.00    -0.296 C  
HETATM    2  C   UNL     1      -6.162  18.472  66.713  1.00  0.00    -0.170 C  
HETATM    3  N   UNL     1      -7.533  18.260  67.221  1.00  0.00    -0.211 NA 
HETATM    4  C   UNL     1      -5.346  17.169  66.775  1.00  0.00    -0.205 C  
HETATM    5  C   UNL     1      -5.488  19.502  67.640  1.00  0.00    -0.185 C  
HETATM    6  H   UNL     1      -8.012  19.154  67.327  1.00  0.00     0.000 HD 
ENDROOT
BRANCH   3   7
HETATM    7  C   UNL     1      -8.353  17.334  66.421  1.00  0.00    -0.280 C  
BRANCH   7   8
HETATM    8  C   UNL     1      -9.876  17.603  66.553  1.00  0.00    -0.319 C  
HETATM    9  H   UNL     1     -11.417  17.703  65.340  1.00  0.00     0.000 HD 
HETATM   10  O   UNL     1     -10.485  17.539  65.259  1.00  0.00    -0.643 OA 
BRANCH   8  11
HETATM   11  C   UNL     1     -10.508  16.594  67.499  1.00  0.00    -0.317 A  
HETATM   12  C   UNL     1     -10.781  16.952  68.832  1.00  0.00    -0.321 A  
HETATM   13  C   UNL     1     -11.293  16.003  69.720  1.00  0.00    -0.331 A  
HETATM   14  C   UNL     1     -11.544  14.697  69.315  1.00  0.00    -0.335 A  
HETATM   15  O   UNL     1     -11.551  16.316  71.022  1.00  0.00    -0.520 OA 
HETATM   16  H   UNL     1     -11.898  15.671  71.626  1.00  0.00     0.000 HD 
HETATM   17  C   UNL     1     -11.286  14.346  67.995  1.00  0.00    -0.280 A  
HETATM   18  O   UNL     1     -11.509  13.081  67.540  1.00  0.00    -0.289 OA 
HETATM   19  C   UNL     1     -10.781  15.276  67.090  1.00  0.00    -0.316 A  
HETATM   20  H   UNL     1     -11.333  12.841  66.638  1.00  0.00     0.000 HD 
ENDBRANCH   8  11
ENDBRANCH   7   8
ENDBRANCH   3   7
TORSDOF 3
ENDMDL
MODEL      140
REMARK 921   NORMALIZED FREE ENERGY PREDICTED BY IDOCK:   -4.24 KCAL/MOL
REMARK 922        TOTAL FREE ENERGY PREDICTED BY IDOCK:   -5.28 KCAL/MOL
REMARK 923 INTER-LIGAND FREE ENERGY PREDICTED BY IDOCK:   -4.88 KCAL/MOL
REMARK 924 INTRA-LIGAND FREE ENERGY PREDICTED BY IDOCK:   -0.40 KCAL/MOL
REMARK 927      BINDING AFFINITY PREDICTED BY RF-SCORE:    0.00 PKD
ROOT
HETATM    1  C   UNL     1      -5.893  14.925  68.943  1.00  0.00    -0.086 C  
HETATM    2  C   UNL     1      -7.014  15.306  67.962  1.00  0.00    -0.133 C  
HETATM    3  N   UNL     1      -7.328  14.222  67.009  1.00  0.00    -0.335 NA 
HETATM    4  C   UNL     1      -8.270  15.733  68.740  1.00  0.00    -0.192 C  
HETATM    5  C   UNL     1      -6.533  16.514  67.134  1.00  0.00    -0.229 C  
HETATM    6  H   UNL     1      -6.535  14.057  66.389  1.00  0.00     0.000 HD 
ENDROOT
BRANCH   3   7
HETATM    7  C   UNL     1      -7.760  12.958  67.629  1.00  0.00    -0.162 C  
BRANCH   7   8
HETATM    8  C   UNL     1      -8.595  12.066  66.672  1.00  0.00    -0.143 C  
HETATM    9  H   UNL     1      -9.298  10.231  66.682  1.00  0.00     0.000 HD 
HETATM   10  O   UNL     1      -8.787  10.777  67.268  1.00  0.00    -0.133 OA 
BRANCH   8  11
HETATM   11  C   UNL     1      -9.930  12.725  66.368  1.00  0.00    -0.268 A  
HETATM   12  C   UNL     1     -10.412  12.764  65.047  1.00  0.00    -0.334 A  
HETATM   13  C   UNL     1     -11.602  13.435  64.756  1.00  0.00    -0.339 A  
HETATM   14  C   UNL     1     -12.334  14.073  65.752  1.00  0.00    -0.506 A  
HETATM   15  O   UNL     1     -12.086  13.504  63.483  1.00  0.00    -0.725 OA 
HETATM   16  H   UNL     1     -12.895  13.961  63.285  1.00  0.00     0.000 HD 
HETATM   17  C   UNL     1     -11.863  14.024  67.059  1.00  0.00    -0.428 A  
HETATM   18  O   UNL     1     -12.535  14.632  68.078  1.00  0.00    -0.595 OA 
HETATM   19  C   UNL     1     -10.683  13.357  67.374  1.00  0.00    -0.269 A  
HETATM   20  H   UNL     1     -12.214  14.599  68.971  1.00  0.00     0.000 HD 
ENDBRANCH   8  11
ENDBRANCH   7   8
ENDBRANCH   3   7
TORSDOF 3
ENDMDL
MODEL      141
REMARK 921   NORMALIZED FREE ENERGY PREDICTED BY IDOCK:   -4.23 KCAL/MOL
REMARK 922        TOTAL FREE ENERGY PREDICTED BY IDOCK:   -5.27 KCAL/MOL
REMARK 923 INTER-LIGAND FREE ENERGY PREDICTED BY IDOCK:   -4.93 KCAL/MOL
REMARK 924 INTRA-LIGAND FREE ENERGY PREDICTED BY IDOCK:   -0.34 KCAL/MOL
REMARK 927      BINDING AFFINITY PREDICTED BY RF-SCORE:    0.00 PKD
ROOT
HETATM    1  C   UNL     1     -10.740  16.153  68.015  1.00  0.00    -0.321 C  
HETATM    2  C   UNL     1      -9.583  15.148  67.885  1.00  0.00    -0.203 C  
HETATM    3  N   UNL     1      -9.764  13.960  68.744  1.00  0.00    -0.388 NA 
HETATM    4  C   UNL     1      -9.406  14.739  66.413  1.00  0.00    -0.320 C  
HETATM    5  C   UNL     1      -8.289  15.849  68.345  1.00  0.00    -0.174 C  
HETATM    6  H   UNL     1      -9.719  14.225  69.727  1.00  0.00     0.000 HD 
ENDROOT
BRANCH   3   7
HETATM    7  C   UNL     1     -10.989  13.186  68.480  1.00  0.00    -0.263 C  
BRANCH   7   8
HETATM    8  C   UNL     1     -10.711  11.685  68.198  1.00  0.00    -0.213 C  
HETATM    9  H   UNL     1      -9.168  10.598  67.654  1.00  0.00     0.000 HD 
HETATM   10  O   UNL     1      -9.338  11.516  67.827  1.00  0.00    -0.161 OA 
BRANCH   8  11
HETATM   11  C   UNL     1     -11.047  10.848  69.421  1.00  0.00    -0.317 A  
HETATM   12  C   UNL     1     -12.119  11.217  70.255  1.00  0.00    -0.462 A  
HETATM   13  C   UNL     1     -12.382  10.491  71.419  1.00  0.00    -0.372 A  
HETATM   14  C   UNL     1     -11.602   9.398  71.780  1.00  0.00    -0.433 A  
HETATM   15  O   UNL     1     -13.403  10.835  72.255  1.00  0.00    -0.623 OA 
HETATM   16  H   UNL     1     -13.582  10.342  73.047  1.00  0.00     0.000 HD 
HETATM   17  C   UNL     1     -10.550   9.027  70.951  1.00  0.00    -0.250 A  
HETATM   18  O   UNL     1      -9.749   7.966  71.253  1.00  0.00    -0.156 OA 
HETATM   19  C   UNL     1     -10.272   9.731  69.783  1.00  0.00    -0.271 A  
HETATM   20  H   UNL     1      -9.030   7.712  70.686  1.00  0.00     0.000 HD 
ENDBRANCH   8  11
ENDBRANCH   7   8
ENDBRANCH   3   7
TORSDOF 3
ENDMDL
MODEL      142
REMARK 921   NORMALIZED FREE ENERGY PREDICTED BY IDOCK:   -4.22 KCAL/MOL
REMARK 922        TOTAL FREE ENERGY PREDICTED BY IDOCK:   -5.26 KCAL/MOL
REMARK 923 INTER-LIGAND FREE ENERGY PREDICTED BY IDOCK:   -4.90 KCAL/MOL
REMARK 924 INTRA-LIGAND FREE ENERGY PREDICTED BY IDOCK:   -0.36 KCAL/MOL
REMARK 927      BINDING AFFINITY PREDICTED BY RF-SCORE:    0.00 PKD
ROOT
HETATM    1  C   UNL     1     -12.037  12.694  66.173  1.00  0.00    -0.399 C  
HETATM    2  C   UNL     1     -11.115  13.013  64.984  1.00  0.00    -0.294 C  
HETATM    3  N   UNL     1      -9.765  12.435  65.142  1.00  0.00    -0.451 NA 
HETATM    4  C   UNL     1     -11.765  12.536  63.674  1.00  0.00    -0.594 C  
HETATM    5  C   UNL     1     -10.949  14.543  64.906  1.00  0.00    -0.421 C  
HETATM    6  H   UNL     1      -9.281  12.877  65.924  1.00  0.00     0.000 HD 
ENDROOT
BRANCH   3   7
HETATM    7  C   UNL     1      -9.730  10.969  65.286  1.00  0.00    -0.239 C  
BRANCH   7   8
HETATM    8  C   UNL     1      -8.687  10.485  66.327  1.00  0.00    -0.151 C  
HETATM    9  H   UNL     1      -7.665  11.285  67.802  1.00  0.00     0.000 HD 
HETATM   10  O   UNL     1      -8.304  11.582  67.164  1.00  0.00    -0.146 OA 
BRANCH   8  11
HETATM   11  C   UNL     1      -9.260   9.347  67.156  1.00  0.00    -0.159 A  
HETATM   12  C   UNL     1     -10.031   8.344  66.540  1.00  0.00    -0.335 A  
HETATM   13  C   UNL     1     -10.620   7.340  67.313  1.00  0.00    -0.325 A  
HETATM   14  C   UNL     1     -10.460   7.305  68.694  1.00  0.00    -0.214 A  
HETATM   15  O   UNL     1     -11.386   6.365  66.745  1.00  0.00    -0.704 OA 
HETATM   16  H   UNL     1     -11.787   5.683  67.270  1.00  0.00     0.000 HD 
HETATM   17  C   UNL     1      -9.688   8.288  69.301  1.00  0.00    -0.177 A  
HETATM   18  O   UNL     1      -9.498   8.307  70.651  1.00  0.00    -0.159 OA 
HETATM   19  C   UNL     1      -9.088   9.295  68.552  1.00  0.00    -0.132 A  
HETATM   20  H   UNL     1      -8.970   8.979  71.066  1.00  0.00     0.000 HD 
ENDBRANCH   8  11
ENDBRANCH   7   8
ENDBRANCH   3   7
TORSDOF 3
ENDMDL
MODEL      143
REMARK 921   NORMALIZED FREE ENERGY PREDICTED BY IDOCK:   -4.22 KCAL/MOL
REMARK 922        TOTAL FREE ENERGY PREDICTED BY IDOCK:   -5.26 KCAL/MOL
REMARK 923 INTER-LIGAND FREE ENERGY PREDICTED BY IDOCK:   -4.85 KCAL/MOL
REMARK 924 INTRA-LIGAND FREE ENERGY PREDICTED BY IDOCK:   -0.41 KCAL/MOL
REMARK 927      BINDING AFFINITY PREDICTED BY RF-SCORE:    0.00 PKD
ROOT
HETATM    1  C   UNL     1     -11.324  13.827  64.043  1.00  0.00    -0.179 C  
HETATM    2  C   UNL     1     -11.290  12.290  64.080  1.00  0.00    -0.376 C  
HETATM    3  N   UNL     1     -11.039  11.761  65.436  1.00  0.00    -0.300 NA 
HETATM    4  C   UNL     1     -12.599  11.723  63.504  1.00  0.00    -0.485 C  
HETATM    5  C   UNL     1     -10.129  11.816  63.185  1.00  0.00    -0.386 C  
HETATM    6  H   UNL     1     -10.100  12.012  65.745  1.00  0.00     0.000 HD 
ENDROOT
BRANCH   3   7
HETATM    7  C   UNL     1     -12.031  12.158  66.451  1.00  0.00    -0.121 C  
BRANCH   7   8
HETATM    8  C   UNL     1     -11.422  12.309  67.870  1.00  0.00    -0.330 C  
HETATM    9  H   UNL     1      -9.732  11.840  68.755  1.00  0.00     0.000 HD 
HETATM   10  O   UNL     1     -10.105  11.748  67.886  1.00  0.00    -0.178 OA 
BRANCH   8  11
HETATM   11  C   UNL     1     -11.390  13.774  68.275  1.00  0.00    -0.317 A  
HETATM   12  C   UNL     1     -10.429  14.639  67.720  1.00  0.00    -0.246 A  
HETATM   13  C   UNL     1     -10.351  15.966  68.148  1.00  0.00    -0.256 A  
HETATM   14  C   UNL     1     -11.212  16.462  69.121  1.00  0.00    -0.275 A  
HETATM   15  O   UNL     1      -9.420  16.823  67.640  1.00  0.00    -0.231 OA 
HETATM   16  H   UNL     1      -9.367  17.725  67.931  1.00  0.00     0.000 HD 
HETATM   17  C   UNL     1     -12.169  15.612  69.661  1.00  0.00    -0.240 A  
HETATM   18  O   UNL     1     -13.038  16.040  70.620  1.00  0.00    -0.638 OA 
HETATM   19  C   UNL     1     -12.269  14.287  69.247  1.00  0.00    -0.289 A  
HETATM   20  H   UNL     1     -13.693  15.458  70.990  1.00  0.00     0.000 HD 
ENDBRANCH   8  11
ENDBRANCH   7   8
ENDBRANCH   3   7
TORSDOF 3
ENDMDL
MODEL      144
REMARK 921   NORMALIZED FREE ENERGY PREDICTED BY IDOCK:   -4.22 KCAL/MOL
REMARK 922        TOTAL FREE ENERGY PREDICTED BY IDOCK:   -5.25 KCAL/MOL
REMARK 923 INTER-LIGAND FREE ENERGY PREDICTED BY IDOCK:   -4.98 KCAL/MOL
REMARK 924 INTRA-LIGAND FREE ENERGY PREDICTED BY IDOCK:   -0.27 KCAL/MOL
REMARK 927      BINDING AFFINITY PREDICTED BY RF-SCORE:    0.00 PKD
ROOT
HETATM    1  C   UNL     1      -7.685  18.247  66.267  1.00  0.00    -0.283 C  
HETATM    2  C   UNL     1      -7.503  18.434  67.783  1.00  0.00    -0.229 C  
HETATM    3  N   UNL     1      -8.692  18.017  68.553  1.00  0.00    -0.302 NA 
HETATM    4  C   UNL     1      -6.250  17.678  68.258  1.00  0.00    -0.177 C  
HETATM    5  C   UNL     1      -7.286  19.935  68.055  1.00  0.00    -0.332 C  
HETATM    6  H   UNL     1      -9.480  18.632  68.345  1.00  0.00     0.000 HD 
ENDROOT
BRANCH   3   7
HETATM    7  C   UNL     1      -9.085  16.609  68.374  1.00  0.00    -0.226 C  
BRANCH   7   8
HETATM    8  C   UNL     1     -10.616  16.421  68.207  1.00  0.00    -0.318 C  
HETATM    9  H   UNL     1     -11.814  15.559  66.910  1.00  0.00     0.000 HD 
HETATM   10  O   UNL     1     -10.877  15.674  67.013  1.00  0.00    -0.318 OA 
BRANCH   8  11
HETATM   11  C   UNL     1     -11.196  15.717  69.422  1.00  0.00    -0.313 A  
HETATM   12  C   UNL     1     -11.617  14.378  69.328  1.00  0.00    -0.345 A  
HETATM   13  C   UNL     1     -12.219  13.754  70.423  1.00  0.00    -0.363 A  
HETATM   14  C   UNL     1     -12.413  14.431  71.622  1.00  0.00    -0.427 A  
HETATM   15  O   UNL     1     -12.652  12.463  70.356  1.00  0.00    -0.157 OA 
HETATM   16  H   UNL     1     -13.061  12.039  71.100  1.00  0.00     0.000 HD 
HETATM   17  C   UNL     1     -11.988  15.750  71.719  1.00  0.00    -0.467 A  
HETATM   18  O   UNL     1     -12.154  16.466  72.868  1.00  0.00    -0.516 OA 
HETATM   19  C   UNL     1     -11.381  16.391  70.643  1.00  0.00    -0.208 A  
HETATM   20  H   UNL     1     -11.863  17.369  72.935  1.00  0.00     0.000 HD 
ENDBRANCH   8  11
ENDBRANCH   7   8
ENDBRANCH   3   7
TORSDOF 3
ENDMDL
MODEL      145
REMARK 921   NORMALIZED FREE ENERGY PREDICTED BY IDOCK:   -4.22 KCAL/MOL
REMARK 922        TOTAL FREE ENERGY PREDICTED BY IDOCK:   -5.25 KCAL/MOL
REMARK 923 INTER-LIGAND FREE ENERGY PREDICTED BY IDOCK:   -4.99 KCAL/MOL
REMARK 924 INTRA-LIGAND FREE ENERGY PREDICTED BY IDOCK:   -0.26 KCAL/MOL
REMARK 927      BINDING AFFINITY PREDICTED BY RF-SCORE:    0.00 PKD
ROOT
HETATM    1  C   UNL     1      -8.700  11.429  66.540  1.00  0.00    -0.181 C  
HETATM    2  C   UNL     1     -10.215  11.688  66.567  1.00  0.00    -0.214 C  
HETATM    3  N   UNL     1     -10.575  12.864  67.385  1.00  0.00    -0.232 NA 
HETATM    4  C   UNL     1     -10.749  11.835  65.132  1.00  0.00    -0.343 C  
HETATM    5  C   UNL     1     -10.897  10.463  67.207  1.00  0.00    -0.324 C  
HETATM    6  H   UNL     1     -10.360  12.690  68.367  1.00  0.00     0.000 HD 
ENDROOT
BRANCH   3   7
HETATM    7  C   UNL     1      -9.966  14.133  66.949  1.00  0.00    -0.261 C  
BRANCH   7   8
HETATM    8  C   UNL     1     -10.958  15.326  66.981  1.00  0.00    -0.324 C  
HETATM    9  H   UNL     1     -12.487  15.881  68.083  1.00  0.00     0.000 HD 
HETATM   10  O   UNL     1     -11.880  15.150  68.063  1.00  0.00    -0.331 OA 
BRANCH   8  11
HETATM   11  C   UNL     1     -10.200  16.636  67.125  1.00  0.00    -0.290 A  
HETATM   12  C   UNL     1      -8.980  16.823  66.449  1.00  0.00    -0.325 A  
HETATM   13  C   UNL     1      -8.247  17.997  66.640  1.00  0.00    -0.261 A  
HETATM   14  C   UNL     1      -8.699  18.999  67.491  1.00  0.00    -0.315 A  
HETATM   15  O   UNL     1      -7.053  18.198  66.012  1.00  0.00    -0.256 OA 
HETATM   16  H   UNL     1      -6.555  18.996  66.142  1.00  0.00     0.000 HD 
HETATM   17  C   UNL     1      -9.910  18.820  68.149  1.00  0.00    -0.352 A  
HETATM   18  O   UNL     1     -10.403  19.767  68.997  1.00  0.00    -0.609 OA 
HETATM   19  C   UNL     1     -10.660  17.662  67.971  1.00  0.00    -0.379 A  
HETATM   20  H   UNL     1     -11.231  19.645  69.447  1.00  0.00     0.000 HD 
ENDBRANCH   8  11
ENDBRANCH   7   8
ENDBRANCH   3   7
TORSDOF 3
ENDMDL
MODEL      146
REMARK 921   NORMALIZED FREE ENERGY PREDICTED BY IDOCK:   -4.21 KCAL/MOL
REMARK 922        TOTAL FREE ENERGY PREDICTED BY IDOCK:   -5.24 KCAL/MOL
REMARK 923 INTER-LIGAND FREE ENERGY PREDICTED BY IDOCK:   -4.91 KCAL/MOL
REMARK 924 INTRA-LIGAND FREE ENERGY PREDICTED BY IDOCK:   -0.33 KCAL/MOL
REMARK 927      BINDING AFFINITY PREDICTED BY RF-SCORE:    0.00 PKD
ROOT
HETATM    1  C   UNL     1     -10.904  15.816  67.394  1.00  0.00    -0.306 C  
HETATM    2  C   UNL     1     -10.172  15.454  66.091  1.00  0.00    -0.308 C  
HETATM    3  N   UNL     1      -9.888  14.008  65.983  1.00  0.00    -0.359 NA 
HETATM    4  C   UNL     1     -10.982  15.946  64.879  1.00  0.00    -0.427 C  
HETATM    5  C   UNL     1      -8.815  16.185  66.088  1.00  0.00    -0.367 C  
HETATM    6  H   UNL     1      -9.221  13.725  66.700  1.00  0.00     0.000 HD 
ENDROOT
BRANCH   3   7
HETATM    7  C   UNL     1     -11.077  13.139  66.022  1.00  0.00    -0.280 C  
BRANCH   7   8
HETATM    8  C   UNL     1     -11.009  11.971  65.002  1.00  0.00    -0.306 C  
HETATM    9  H   UNL     1     -10.132  11.632  63.277  1.00  0.00     0.000 HD 
HETATM   10  O   UNL     1     -10.174  12.347  63.901  1.00  0.00    -0.387 OA 
BRANCH   8  11
HETATM   11  C   UNL     1     -10.482  10.714  65.676  1.00  0.00    -0.235 A  
HETATM   12  C   UNL     1      -9.652   9.828  64.965  1.00  0.00    -0.333 A  
HETATM   13  C   UNL     1      -9.229   8.636  65.559  1.00  0.00    -0.091 A  
HETATM   14  C   UNL     1      -9.610   8.301  66.854  1.00  0.00    -0.269 A  
HETATM   15  O   UNL     1      -8.439   7.750  64.889  1.00  0.00    -0.314 OA 
HETATM   16  H   UNL     1      -8.152   6.940  65.292  1.00  0.00     0.000 HD 
HETATM   17  C   UNL     1     -10.420   9.182  67.560  1.00  0.00    -0.270 A  
HETATM   18  O   UNL     1     -10.828   8.906  68.832  1.00  0.00    -0.393 OA 
HETATM   19  C   UNL     1     -10.850  10.377  66.991  1.00  0.00    -0.269 A  
HETATM   20  H   UNL     1     -11.382   9.508  69.315  1.00  0.00     0.000 HD 
ENDBRANCH   8  11
ENDBRANCH   7   8
ENDBRANCH   3   7
TORSDOF 3
ENDMDL
MODEL      147
REMARK 921   NORMALIZED FREE ENERGY PREDICTED BY IDOCK:   -4.20 KCAL/MOL
REMARK 922        TOTAL FREE ENERGY PREDICTED BY IDOCK:   -5.24 KCAL/MOL
REMARK 923 INTER-LIGAND FREE ENERGY PREDICTED BY IDOCK:   -5.22 KCAL/MOL
REMARK 924 INTRA-LIGAND FREE ENERGY PREDICTED BY IDOCK:   -0.02 KCAL/MOL
REMARK 927      BINDING AFFINITY PREDICTED BY RF-SCORE:    0.00 PKD
ROOT
HETATM    1  C   UNL     1     -11.707  15.209  68.787  1.00  0.00    -0.366 C  
HETATM    2  C   UNL     1     -10.451  15.634  68.007  1.00  0.00    -0.263 C  
HETATM    3  N   UNL     1     -10.073  14.658  66.965  1.00  0.00    -0.247 NA 
HETATM    4  C   UNL     1     -10.659  17.032  67.400  1.00  0.00    -0.289 C  
HETATM    5  C   UNL     1      -9.278  15.716  69.002  1.00  0.00    -0.243 C  
HETATM    6  H   UNL     1      -9.783  13.779  67.394  1.00  0.00     0.000 HD 
ENDROOT
BRANCH   3   7
HETATM    7  C   UNL     1     -11.105  14.410  65.944  1.00  0.00    -0.319 C  
BRANCH   7   8
HETATM    8  C   UNL     1     -12.049  13.233  66.308  1.00  0.00    -0.414 C  
HETATM    9  H   UNL     1     -13.442  12.189  65.398  1.00  0.00     0.000 HD 
HETATM   10  O   UNL     1     -12.864  12.909  65.175  1.00  0.00    -0.702 OA 
BRANCH   8  11
HETATM   11  C   UNL     1     -11.240  12.027  66.754  1.00  0.00    -0.376 A  
HETATM   12  C   UNL     1     -10.754  11.112  65.802  1.00  0.00    -0.252 A  
HETATM   13  C   UNL     1     -10.074   9.965  66.217  1.00  0.00    -0.241 A  
HETATM   14  C   UNL     1      -9.861   9.700  67.566  1.00  0.00    -0.213 A  
HETATM   15  O   UNL     1      -9.607   9.052  65.318  1.00  0.00    -0.457 OA 
HETATM   16  H   UNL     1      -9.145   8.271  65.600  1.00  0.00     0.000 HD 
HETATM   17  C   UNL     1     -10.330  10.610  68.506  1.00  0.00    -0.183 A  
HETATM   18  O   UNL     1     -10.154  10.403  69.842  1.00  0.00    -0.377 OA 
HETATM   19  C   UNL     1     -11.006  11.763  68.116  1.00  0.00    -0.275 A  
HETATM   20  H   UNL     1     -10.475  11.025  70.485  1.00  0.00     0.000 HD 
ENDBRANCH   8  11
ENDBRANCH   7   8
ENDBRANCH   3   7
TORSDOF 3
ENDMDL
MODEL      148
REMARK 921   NORMALIZED FREE ENERGY PREDICTED BY IDOCK:   -4.19 KCAL/MOL
REMARK 922        TOTAL FREE ENERGY PREDICTED BY IDOCK:   -5.22 KCAL/MOL
REMARK 923 INTER-LIGAND FREE ENERGY PREDICTED BY IDOCK:   -4.91 KCAL/MOL
REMARK 924 INTRA-LIGAND FREE ENERGY PREDICTED BY IDOCK:   -0.32 KCAL/MOL
REMARK 927      BINDING AFFINITY PREDICTED BY RF-SCORE:    0.00 PKD
ROOT
HETATM    1  C   UNL     1     -13.192   9.217  72.665  1.00  0.00    -0.333 C  
HETATM    2  C   UNL     1     -12.415   8.156  71.867  1.00  0.00    -0.332 C  
HETATM    3  N   UNL     1     -11.919   8.670  70.574  1.00  0.00    -0.483 NA 
HETATM    4  C   UNL     1     -11.259   7.603  72.718  1.00  0.00    -0.431 C  
HETATM    5  C   UNL     1     -13.379   6.995  71.556  1.00  0.00    -0.370 C  
HETATM    6  H   UNL     1     -12.701   8.885  69.956  1.00  0.00     0.000 HD 
ENDROOT
BRANCH   3   7
HETATM    7  C   UNL     1     -11.015   9.828  70.673  1.00  0.00    -0.331 C  
BRANCH   7   8
HETATM    8  C   UNL     1      -9.698   9.642  69.873  1.00  0.00    -0.231 C  
HETATM    9  H   UNL     1      -8.757   8.154  69.001  1.00  0.00     0.000 HD 
HETATM   10  O   UNL     1      -9.563   8.268  69.490  1.00  0.00    -0.168 OA 
BRANCH   8  11
HETATM   11  C   UNL     1      -9.692  10.546  68.651  1.00  0.00    -0.175 A  
HETATM   12  C   UNL     1      -8.472  10.975  68.097  1.00  0.00    -0.135 A  
HETATM   13  C   UNL     1      -8.467  11.865  67.020  1.00  0.00    -0.177 A  
HETATM   14  C   UNL     1      -9.653  12.344  66.475  1.00  0.00    -0.242 A  
HETATM   15  O   UNL     1      -7.300  12.311  66.473  1.00  0.00    -0.364 OA 
HETATM   16  H   UNL     1      -7.296  12.916  65.742  1.00  0.00     0.000 HD 
HETATM   17  C   UNL     1     -10.858  11.912  67.014  1.00  0.00    -0.259 A  
HETATM   18  O   UNL     1     -12.052  12.349  66.524  1.00  0.00    -0.599 OA 
HETATM   19  C   UNL     1     -10.889  11.021  68.083  1.00  0.00    -0.274 A  
HETATM   20  H   UNL     1     -12.877  12.054  66.893  1.00  0.00     0.000 HD 
ENDBRANCH   8  11
ENDBRANCH   7   8
ENDBRANCH   3   7
TORSDOF 3
ENDMDL
MODEL      149
REMARK 921   NORMALIZED FREE ENERGY PREDICTED BY IDOCK:   -4.19 KCAL/MOL
REMARK 922        TOTAL FREE ENERGY PREDICTED BY IDOCK:   -5.22 KCAL/MOL
REMARK 923 INTER-LIGAND FREE ENERGY PREDICTED BY IDOCK:   -4.79 KCAL/MOL
REMARK 924 INTRA-LIGAND FREE ENERGY PREDICTED BY IDOCK:   -0.43 KCAL/MOL
REMARK 927      BINDING AFFINITY PREDICTED BY RF-SCORE:    0.00 PKD
ROOT
HETATM    1  C   UNL     1      -9.431  11.084  68.697  1.00  0.00    -0.197 C  
HETATM    2  C   UNL     1     -10.910  10.676  68.792  1.00  0.00    -0.229 C  
HETATM    3  N   UNL     1     -11.125   9.247  68.485  1.00  0.00    -0.464 NA 
HETATM    4  C   UNL     1     -11.464  11.027  70.183  1.00  0.00    -0.383 C  
HETATM    5  C   UNL     1     -11.697  11.489  67.746  1.00  0.00    -0.299 C  
HETATM    6  H   UNL     1     -10.904   9.059  67.507  1.00  0.00     0.000 HD 
ENDROOT
BRANCH   3   7
HETATM    7  C   UNL     1     -10.401   8.309  69.360  1.00  0.00    -0.222 C  
BRANCH   7   8
HETATM    8  C   UNL     1     -11.344   7.369  70.157  1.00  0.00    -0.177 C  
HETATM    9  H   UNL     1     -12.027   5.537  69.965  1.00  0.00     0.000 HD 
HETATM   10  O   UNL     1     -11.449   6.112  69.478  1.00  0.00    -0.429 OA 
BRANCH   8  11
HETATM   11  C   UNL     1     -10.824   7.177  71.572  1.00  0.00    -0.250 A  
HETATM   12  C   UNL     1      -9.873   8.069  72.101  1.00  0.00    -0.286 A  
HETATM   13  C   UNL     1      -9.339   7.849  73.373  1.00  0.00    -0.282 A  
HETATM   14  C   UNL     1      -9.730   6.758  74.141  1.00  0.00    -0.325 A  
HETATM   15  O   UNL     1      -8.403   8.687  73.904  1.00  0.00    -0.349 OA 
HETATM   16  H   UNL     1      -8.040   8.538  74.769  1.00  0.00     0.000 HD 
HETATM   17  C   UNL     1     -10.678   5.884  73.624  1.00  0.00    -0.235 A  
HETATM   18  O   UNL     1     -11.099   4.795  74.329  1.00  0.00    -0.323 OA 
HETATM   19  C   UNL     1     -11.228   6.085  72.361  1.00  0.00    -0.338 A  
HETATM   20  H   UNL     1     -11.747   4.197  73.975  1.00  0.00     0.000 HD 
ENDBRANCH   8  11
ENDBRANCH   7   8
ENDBRANCH   3   7
TORSDOF 3
ENDMDL
MODEL      150
REMARK 921   NORMALIZED FREE ENERGY PREDICTED BY IDOCK:   -4.18 KCAL/MOL
REMARK 922        TOTAL FREE ENERGY PREDICTED BY IDOCK:   -5.21 KCAL/MOL
REMARK 923 INTER-LIGAND FREE ENERGY PREDICTED BY IDOCK:   -4.91 KCAL/MOL
REMARK 924 INTRA-LIGAND FREE ENERGY PREDICTED BY IDOCK:   -0.30 KCAL/MOL
REMARK 927      BINDING AFFINITY PREDICTED BY RF-SCORE:    0.00 PKD
ROOT
HETATM    1  C   UNL     1     -13.136   9.918  71.516  1.00  0.00    -0.516 C  
HETATM    2  C   UNL     1     -12.626   8.469  71.442  1.00  0.00    -0.283 C  
HETATM    3  N   UNL     1     -12.016   8.147  70.136  1.00  0.00    -0.297 NA 
HETATM    4  C   UNL     1     -11.636   8.202  72.590  1.00  0.00    -0.441 C  
HETATM    5  C   UNL     1     -13.833   7.529  71.625  1.00  0.00    -0.486 C  
HETATM    6  H   UNL     1     -12.723   8.172  69.401  1.00  0.00     0.000 HD 
ENDROOT
BRANCH   3   7
HETATM    7  C   UNL     1     -10.865   8.989  69.765  1.00  0.00    -0.205 C  
BRANCH   7   8
HETATM    8  C   UNL     1     -10.491   8.879  68.263  1.00  0.00    -0.195 C  
HETATM    9  H   UNL     1      -9.146   9.666  67.067  1.00  0.00     0.000 HD 
HETATM   10  O   UNL     1      -9.375   9.733  67.986  1.00  0.00    -0.129 OA 
BRANCH   8  11
HETATM   11  C   UNL     1     -10.170   7.437  67.905  1.00  0.00    -0.242 A  
HETATM   12  C   UNL     1     -10.898   6.783  66.894  1.00  0.00    -0.402 A  
HETATM   13  C   UNL     1     -10.654   5.436  66.616  1.00  0.00    -0.294 A  
HETATM   14  C   UNL     1      -9.696   4.716  67.321  1.00  0.00    -0.216 A  
HETATM   15  O   UNL     1     -11.355   4.771  65.654  1.00  0.00    -0.900 OA 
HETATM   16  H   UNL     1     -11.190   3.855  65.465  1.00  0.00     0.000 HD 
HETATM   17  C   UNL     1      -8.968   5.365  68.311  1.00  0.00    -0.108 A  
HETATM   18  O   UNL     1      -8.018   4.711  69.037  1.00  0.00    -0.070 OA 
HETATM   19  C   UNL     1      -9.190   6.708  68.602  1.00  0.00    -0.128 A  
HETATM   20  H   UNL     1      -7.520   5.155  69.714  1.00  0.00     0.000 HD 
ENDBRANCH   8  11
ENDBRANCH   7   8
ENDBRANCH   3   7
TORSDOF 3
ENDMDL
MODEL      151
REMARK 921   NORMALIZED FREE ENERGY PREDICTED BY IDOCK:   -4.18 KCAL/MOL
REMARK 922        TOTAL FREE ENERGY PREDICTED BY IDOCK:   -5.21 KCAL/MOL
REMARK 923 INTER-LIGAND FREE ENERGY PREDICTED BY IDOCK:   -4.73 KCAL/MOL
REMARK 924 INTRA-LIGAND FREE ENERGY PREDICTED BY IDOCK:   -0.48 KCAL/MOL
REMARK 927      BINDING AFFINITY PREDICTED BY RF-SCORE:    0.00 PKD
ROOT
HETATM    1  C   UNL     1     -10.578   8.687  71.977  1.00  0.00    -0.421 C  
HETATM    2  C   UNL     1     -11.686   7.733  71.500  1.00  0.00    -0.280 C  
HETATM    3  N   UNL     1     -11.684   7.549  70.035  1.00  0.00    -0.488 NA 
HETATM    4  C   UNL     1     -11.560   6.381  72.223  1.00  0.00    -0.341 C  
HETATM    5  C   UNL     1     -13.044   8.353  71.880  1.00  0.00    -0.383 C  
HETATM    6  H   UNL     1     -11.927   8.424  69.569  1.00  0.00     0.000 HD 
ENDROOT
BRANCH   3   7
HETATM    7  C   UNL     1     -10.432   7.008  69.479  1.00  0.00    -0.220 C  
BRANCH   7   8
HETATM    8  C   UNL     1     -10.088   7.585  68.080  1.00  0.00    -0.183 C  
HETATM    9  H   UNL     1     -10.840   7.480  66.269  1.00  0.00     0.000 HD 
HETATM   10  O   UNL     1     -11.051   7.126  67.125  1.00  0.00    -0.326 OA 
BRANCH   8  11
HETATM   11  C   UNL     1     -10.058   9.104  68.131  1.00  0.00    -0.225 A  
HETATM   12  C   UNL     1     -11.084   9.850  67.522  1.00  0.00    -0.141 A  
HETATM   13  C   UNL     1     -11.018  11.245  67.503  1.00  0.00    -0.265 A  
HETATM   14  C   UNL     1      -9.951  11.925  68.081  1.00  0.00    -0.197 A  
HETATM   15  O   UNL     1     -11.988  11.994  66.906  1.00  0.00    -0.612 OA 
HETATM   16  H   UNL     1     -11.943  12.943  66.893  1.00  0.00     0.000 HD 
HETATM   17  C   UNL     1      -8.944  11.189  68.693  1.00  0.00    -0.162 A  
HETATM   18  O   UNL     1      -7.871  11.799  69.273  1.00  0.00    -0.349 OA 
HETATM   19  C   UNL     1      -8.990   9.798  68.728  1.00  0.00    -0.133 A  
HETATM   20  H   UNL     1      -7.183  11.296  69.692  1.00  0.00     0.000 HD 
ENDBRANCH   8  11
ENDBRANCH   7   8
ENDBRANCH   3   7
TORSDOF 3
ENDMDL
MODEL      152
REMARK 921   NORMALIZED FREE ENERGY PREDICTED BY IDOCK:   -4.18 KCAL/MOL
REMARK 922        TOTAL FREE ENERGY PREDICTED BY IDOCK:   -5.21 KCAL/MOL
REMARK 923 INTER-LIGAND FREE ENERGY PREDICTED BY IDOCK:   -4.77 KCAL/MOL
REMARK 924 INTRA-LIGAND FREE ENERGY PREDICTED BY IDOCK:   -0.44 KCAL/MOL
REMARK 927      BINDING AFFINITY PREDICTED BY RF-SCORE:    0.00 PKD
ROOT
HETATM    1  C   UNL     1     -11.903  15.763  68.858  1.00  0.00    -0.354 C  
HETATM    2  C   UNL     1     -11.185  14.738  69.753  1.00  0.00    -0.273 C  
HETATM    3  N   UNL     1      -9.767  14.558  69.383  1.00  0.00    -0.424 NA 
HETATM    4  C   UNL     1     -11.319  15.146  71.230  1.00  0.00    -0.368 C  
HETATM    5  C   UNL     1     -11.881  13.376  69.569  1.00  0.00    -0.391 C  
HETATM    6  H   UNL     1      -9.695  14.135  68.457  1.00  0.00     0.000 HD 
ENDROOT
BRANCH   3   7
HETATM    7  C   UNL     1      -8.948  15.780  69.450  1.00  0.00    -0.247 C  
BRANCH   7   8
HETATM    8  C   UNL     1      -8.063  15.989  68.192  1.00  0.00    -0.147 C  
HETATM    9  H   UNL     1      -7.800  15.087  66.467  1.00  0.00     0.000 HD 
HETATM   10  O   UNL     1      -8.342  14.959  67.237  1.00  0.00    -0.182 OA 
BRANCH   8  11
HETATM   11  C   UNL     1      -8.317  17.364  67.593  1.00  0.00    -0.214 A  
HETATM   12  C   UNL     1      -9.436  17.578  66.768  1.00  0.00    -0.282 A  
HETATM   13  C   UNL     1      -9.628  18.820  66.158  1.00  0.00    -0.220 A  
HETATM   14  C   UNL     1      -8.730  19.864  66.348  1.00  0.00    -0.397 A  
HETATM   15  O   UNL     1     -10.694  19.052  65.340  1.00  0.00    -0.520 OA 
HETATM   16  H   UNL     1     -10.825  19.896  64.925  1.00  0.00     0.000 HD 
HETATM   17  C   UNL     1      -7.630  19.656  67.172  1.00  0.00    -0.252 A  
HETATM   18  O   UNL     1      -6.714  20.641  67.394  1.00  0.00    -0.261 OA 
HETATM   19  C   UNL     1      -7.421  18.429  67.795  1.00  0.00    -0.236 A  
HETATM   20  H   UNL     1      -5.962  20.499  67.958  1.00  0.00     0.000 HD 
ENDBRANCH   8  11
ENDBRANCH   7   8
ENDBRANCH   3   7
TORSDOF 3
ENDMDL
MODEL      153
REMARK 921   NORMALIZED FREE ENERGY PREDICTED BY IDOCK:   -4.16 KCAL/MOL
REMARK 922        TOTAL FREE ENERGY PREDICTED BY IDOCK:   -5.19 KCAL/MOL
REMARK 923 INTER-LIGAND FREE ENERGY PREDICTED BY IDOCK:   -4.95 KCAL/MOL
REMARK 924 INTRA-LIGAND FREE ENERGY PREDICTED BY IDOCK:   -0.24 KCAL/MOL
REMARK 927      BINDING AFFINITY PREDICTED BY RF-SCORE:    0.00 PKD
ROOT
HETATM    1  C   UNL     1      -7.593  17.870  66.099  1.00  0.00    -0.295 C  
HETATM    2  C   UNL     1      -8.108  17.199  67.384  1.00  0.00    -0.177 C  
HETATM    3  N   UNL     1      -9.433  16.572  67.204  1.00  0.00    -0.236 NA 
HETATM    4  C   UNL     1      -7.079  16.171  67.887  1.00  0.00    -0.147 C  
HETATM    5  C   UNL     1      -8.261  18.288  68.462  1.00  0.00    -0.329 C  
HETATM    6  H   UNL     1     -10.140  17.286  67.027  1.00  0.00     0.000 HD 
ENDROOT
BRANCH   3   7
HETATM    7  C   UNL     1      -9.491  15.530  66.165  1.00  0.00    -0.341 C  
BRANCH   7   8
HETATM    8  C   UNL     1     -10.902  14.903  66.011  1.00  0.00    -0.328 C  
HETATM    9  H   UNL     1     -12.269  14.794  64.603  1.00  0.00     0.000 HD 
HETATM   10  O   UNL     1     -11.405  15.177  64.698  1.00  0.00    -0.390 OA 
BRANCH   8  11
HETATM   11  C   UNL     1     -10.844  13.405  66.265  1.00  0.00    -0.294 A  
HETATM   12  C   UNL     1     -10.193  12.560  65.347  1.00  0.00    -0.303 A  
HETATM   13  C   UNL     1     -10.204  11.176  65.542  1.00  0.00    -0.263 A  
HETATM   14  C   UNL     1     -10.848  10.606  66.635  1.00  0.00    -0.197 A  
HETATM   15  O   UNL     1      -9.597  10.331  64.661  1.00  0.00    -0.264 OA 
HETATM   16  H   UNL     1      -9.604   9.390  64.793  1.00  0.00     0.000 HD 
HETATM   17  C   UNL     1     -11.480  11.442  67.547  1.00  0.00    -0.260 A  
HETATM   18  O   UNL     1     -12.130  10.942  68.636  1.00  0.00    -0.724 OA 
HETATM   19  C   UNL     1     -11.479  12.824  67.377  1.00  0.00    -0.396 A  
HETATM   20  H   UNL     1     -12.563  11.513  69.260  1.00  0.00     0.000 HD 
ENDBRANCH   8  11
ENDBRANCH   7   8
ENDBRANCH   3   7
TORSDOF 3
ENDMDL
MODEL      154
REMARK 921   NORMALIZED FREE ENERGY PREDICTED BY IDOCK:   -4.16 KCAL/MOL
REMARK 922        TOTAL FREE ENERGY PREDICTED BY IDOCK:   -5.18 KCAL/MOL
REMARK 923 INTER-LIGAND FREE ENERGY PREDICTED BY IDOCK:   -4.86 KCAL/MOL
REMARK 924 INTRA-LIGAND FREE ENERGY PREDICTED BY IDOCK:   -0.32 KCAL/MOL
REMARK 927      BINDING AFFINITY PREDICTED BY RF-SCORE:    0.00 PKD
ROOT
HETATM    1  C   UNL     1     -10.878  15.373  66.863  1.00  0.00    -0.313 C  
HETATM    2  C   UNL     1     -11.209  14.662  65.540  1.00  0.00    -0.343 C  
HETATM    3  N   UNL     1     -10.111  13.792  65.074  1.00  0.00    -0.574 NA 
HETATM    4  C   UNL     1     -12.516  13.864  65.686  1.00  0.00    -0.538 C  
HETATM    5  C   UNL     1     -11.426  15.740  64.461  1.00  0.00    -0.292 C  
HETATM    6  H   UNL     1      -9.296  14.354  64.827  1.00  0.00     0.000 HD 
ENDROOT
BRANCH   3   7
HETATM    7  C   UNL     1      -9.726  12.722  66.010  1.00  0.00    -0.224 C  
BRANCH   7   8
HETATM    8  C   UNL     1     -10.114  11.306  65.509  1.00  0.00    -0.257 C  
HETATM    9  H   UNL     1      -9.359   9.972  64.280  1.00  0.00     0.000 HD 
HETATM   10  O   UNL     1      -9.122  10.839  64.587  1.00  0.00    -0.199 OA 
BRANCH   8  11
HETATM   11  C   UNL     1     -10.253  10.351  66.683  1.00  0.00    -0.292 A  
HETATM   12  C   UNL     1     -10.440  10.855  67.983  1.00  0.00    -0.222 A  
HETATM   13  C   UNL     1     -10.492   9.981  69.072  1.00  0.00    -0.214 A  
HETATM   14  C   UNL     1     -10.365   8.607  68.901  1.00  0.00    -0.228 A  
HETATM   15  O   UNL     1     -10.656  10.441  70.345  1.00  0.00    -0.431 OA 
HETATM   16  H   UNL     1     -10.691   9.847  71.085  1.00  0.00     0.000 HD 
HETATM   17  C   UNL     1     -10.192   8.108  67.615  1.00  0.00    -0.234 A  
HETATM   18  O   UNL     1     -10.058   6.771  67.385  1.00  0.00    -0.147 OA 
HETATM   19  C   UNL     1     -10.141   8.959  66.515  1.00  0.00    -0.356 A  
HETATM   20  H   UNL     1      -9.940   6.429  66.506  1.00  0.00     0.000 HD 
ENDBRANCH   8  11
ENDBRANCH   7   8
ENDBRANCH   3   7
TORSDOF 3
ENDMDL
MODEL      155
REMARK 921   NORMALIZED FREE ENERGY PREDICTED BY IDOCK:   -4.16 KCAL/MOL
REMARK 922        TOTAL FREE ENERGY PREDICTED BY IDOCK:   -5.18 KCAL/MOL
REMARK 923 INTER-LIGAND FREE ENERGY PREDICTED BY IDOCK:   -4.80 KCAL/MOL
REMARK 924 INTRA-LIGAND FREE ENERGY PREDICTED BY IDOCK:   -0.38 KCAL/MOL
REMARK 927      BINDING AFFINITY PREDICTED BY RF-SCORE:    0.00 PKD
ROOT
HETATM    1  C   UNL     1     -12.260  15.775  69.252  1.00  0.00    -0.120 C  
HETATM    2  C   UNL     1     -11.489  14.771  70.124  1.00  0.00    -0.266 C  
HETATM    3  N   UNL     1     -10.123  14.516  69.624  1.00  0.00    -0.424 NA 
HETATM    4  C   UNL     1     -11.456  15.260  71.583  1.00  0.00    -0.471 C  
HETATM    5  C   UNL     1     -12.245  13.429  70.088  1.00  0.00    -0.385 C  
HETATM    6  H   UNL     1     -10.161  14.044  68.720  1.00  0.00     0.000 HD 
ENDROOT
BRANCH   3   7
HETATM    7  C   UNL     1      -9.261  15.707  69.539  1.00  0.00    -0.259 C  
BRANCH   7   8
HETATM    8  C   UNL     1      -8.568  15.860  68.159  1.00  0.00    -0.169 C  
HETATM    9  H   UNL     1      -8.967  15.366  66.300  1.00  0.00     0.000 HD 
HETATM   10  O   UNL     1      -9.392  15.273  67.144  1.00  0.00    -0.206 OA 
BRANCH   8  11
HETATM   11  C   UNL     1      -8.306  17.327  67.860  1.00  0.00    -0.220 A  
HETATM   12  C   UNL     1      -7.356  18.041  68.613  1.00  0.00    -0.286 A  
HETATM   13  C   UNL     1      -7.169  19.407  68.389  1.00  0.00    -0.310 A  
HETATM   14  C   UNL     1      -7.907  20.088  67.427  1.00  0.00    -0.330 A  
HETATM   15  O   UNL     1      -6.268  20.129  69.115  1.00  0.00    -0.292 OA 
HETATM   16  H   UNL     1      -6.141  21.058  68.963  1.00  0.00     0.000 HD 
HETATM   17  C   UNL     1      -8.837  19.381  66.676  1.00  0.00    -0.339 A  
HETATM   18  O   UNL     1      -9.592  19.995  65.720  1.00  0.00    -0.454 OA 
HETATM   19  C   UNL     1      -9.037  18.018  66.877  1.00  0.00    -0.273 A  
HETATM   20  H   UNL     1     -10.228  19.511  65.206  1.00  0.00     0.000 HD 
ENDBRANCH   8  11
ENDBRANCH   7   8
ENDBRANCH   3   7
TORSDOF 3
ENDMDL
MODEL      156
REMARK 921   NORMALIZED FREE ENERGY PREDICTED BY IDOCK:   -4.16 KCAL/MOL
REMARK 922        TOTAL FREE ENERGY PREDICTED BY IDOCK:   -5.18 KCAL/MOL
REMARK 923 INTER-LIGAND FREE ENERGY PREDICTED BY IDOCK:   -4.90 KCAL/MOL
REMARK 924 INTRA-LIGAND FREE ENERGY PREDICTED BY IDOCK:   -0.28 KCAL/MOL
REMARK 927      BINDING AFFINITY PREDICTED BY RF-SCORE:    0.00 PKD
ROOT
HETATM    1  C   UNL     1      -9.016   7.145  66.226  1.00  0.00    -0.181 C  
HETATM    2  C   UNL     1      -9.897   7.200  67.486  1.00  0.00    -0.151 C  
HETATM    3  N   UNL     1     -10.066   8.574  68.000  1.00  0.00    -0.191 NA 
HETATM    4  C   UNL     1     -11.262   6.549  67.201  1.00  0.00    -0.313 C  
HETATM    5  C   UNL     1      -9.200   6.382  68.591  1.00  0.00    -0.125 C  
HETATM    6  H   UNL     1      -9.174   8.937  68.336  1.00  0.00     0.000 HD 
ENDROOT
BRANCH   3   7
HETATM    7  C   UNL     1     -10.676   9.521  67.051  1.00  0.00    -0.149 C  
BRANCH   7   8
HETATM    8  C   UNL     1      -9.833  10.808  66.849  1.00  0.00    -0.187 C  
HETATM    9  H   UNL     1      -8.424  11.411  65.621  1.00  0.00     0.000 HD 
HETATM   10  O   UNL     1      -8.940  10.624  65.745  1.00  0.00    -0.169 OA 
BRANCH   8  11
HETATM   11  C   UNL     1     -10.744  12.002  66.614  1.00  0.00    -0.280 A  
HETATM   12  C   UNL     1     -11.093  12.376  65.304  1.00  0.00    -0.342 A  
HETATM   13  C   UNL     1     -11.868  13.517  65.084  1.00  0.00    -0.343 A  
HETATM   14  C   UNL     1     -12.311  14.303  66.143  1.00  0.00    -0.411 A  
HETATM   15  O   UNL     1     -12.208  13.913  63.825  1.00  0.00    -0.746 OA 
HETATM   16  H   UNL     1     -12.734  14.689  63.675  1.00  0.00     0.000 HD 
HETATM   17  C   UNL     1     -11.976  13.927  67.438  1.00  0.00    -0.401 A  
HETATM   18  O   UNL     1     -12.379  14.659  68.515  1.00  0.00    -0.585 OA 
HETATM   19  C   UNL     1     -11.210  12.791  67.682  1.00  0.00    -0.323 A  
HETATM   20  H   UNL     1     -12.151  14.402  69.401  1.00  0.00     0.000 HD 
ENDBRANCH   8  11
ENDBRANCH   7   8
ENDBRANCH   3   7
TORSDOF 3
ENDMDL
MODEL      157
REMARK 921   NORMALIZED FREE ENERGY PREDICTED BY IDOCK:   -4.15 KCAL/MOL
REMARK 922        TOTAL FREE ENERGY PREDICTED BY IDOCK:   -5.17 KCAL/MOL
REMARK 923 INTER-LIGAND FREE ENERGY PREDICTED BY IDOCK:   -4.88 KCAL/MOL
REMARK 924 INTRA-LIGAND FREE ENERGY PREDICTED BY IDOCK:   -0.30 KCAL/MOL
REMARK 927      BINDING AFFINITY PREDICTED BY RF-SCORE:    0.00 PKD
ROOT
HETATM    1  C   UNL     1     -14.098  15.188  71.080  1.00  0.00    -0.348 C  
HETATM    2  C   UNL     1     -12.716  14.780  71.617  1.00  0.00    -0.330 C  
HETATM    3  N   UNL     1     -11.999  13.868  70.703  1.00  0.00    -0.455 NA 
HETATM    4  C   UNL     1     -11.876  16.034  71.912  1.00  0.00    -0.619 C  
HETATM    5  C   UNL     1     -12.925  14.023  72.943  1.00  0.00    -0.437 C  
HETATM    6  H   UNL     1     -12.487  12.975  70.641  1.00  0.00     0.000 HD 
ENDROOT
BRANCH   3   7
HETATM    7  C   UNL     1     -11.753  14.409  69.355  1.00  0.00    -0.317 C  
BRANCH   7   8
HETATM    8  C   UNL     1     -12.000  13.370  68.229  1.00  0.00    -0.317 C  
HETATM    9  H   UNL     1     -12.432  13.419  66.313  1.00  0.00     0.000 HD 
HETATM   10  O   UNL     1     -12.281  14.055  67.003  1.00  0.00    -0.430 OA 
BRANCH   8  11
HETATM   11  C   UNL     1     -10.790  12.462  68.076  1.00  0.00    -0.251 A  
HETATM   12  C   UNL     1      -9.539  13.006  67.734  1.00  0.00    -0.208 A  
HETATM   13  C   UNL     1      -8.445  12.164  67.520  1.00  0.00    -0.169 A  
HETATM   14  C   UNL     1      -8.562  10.784  67.640  1.00  0.00    -0.123 A  
HETATM   15  O   UNL     1      -7.224  12.662  67.171  1.00  0.00    -0.301 OA 
HETATM   16  H   UNL     1      -6.480  12.089  67.025  1.00  0.00     0.000 HD 
HETATM   17  C   UNL     1      -9.795  10.247  67.990  1.00  0.00    -0.150 A  
HETATM   18  O   UNL     1      -9.972   8.902  68.120  1.00  0.00    -0.163 OA 
HETATM   19  C   UNL     1     -10.898  11.066  68.213  1.00  0.00    -0.261 A  
HETATM   20  H   UNL     1     -10.815   8.534  68.359  1.00  0.00     0.000 HD 
ENDBRANCH   8  11
ENDBRANCH   7   8
ENDBRANCH   3   7
TORSDOF 3
ENDMDL
MODEL      158
REMARK 921   NORMALIZED FREE ENERGY PREDICTED BY IDOCK:   -4.14 KCAL/MOL
REMARK 922        TOTAL FREE ENERGY PREDICTED BY IDOCK:   -5.16 KCAL/MOL
REMARK 923 INTER-LIGAND FREE ENERGY PREDICTED BY IDOCK:   -5.46 KCAL/MOL
REMARK 924 INTRA-LIGAND FREE ENERGY PREDICTED BY IDOCK:    0.30 KCAL/MOL
REMARK 927      BINDING AFFINITY PREDICTED BY RF-SCORE:    0.00 PKD
ROOT
HETATM    1  C   UNL     1     -12.013  15.656  68.698  1.00  0.00    -0.201 C  
HETATM    2  C   UNL     1     -11.515  14.567  69.662  1.00  0.00    -0.288 C  
HETATM    3  N   UNL     1     -10.763  13.500  68.973  1.00  0.00    -0.390 NA 
HETATM    4  C   UNL     1     -10.667  15.203  70.778  1.00  0.00    -0.113 C  
HETATM    5  C   UNL     1     -12.746  13.909  70.314  1.00  0.00    -0.244 C  
HETATM    6  H   UNL     1     -11.380  12.980  68.349  1.00  0.00     0.000 HD 
ENDROOT
BRANCH   3   7
HETATM    7  C   UNL     1      -9.567  13.956  68.242  1.00  0.00    -0.218 C  
BRANCH   7   8
HETATM    8  C   UNL     1      -9.908  14.714  66.932  1.00  0.00    -0.249 C  
HETATM    9  H   UNL     1      -8.969  15.915  65.693  1.00  0.00     0.000 HD 
HETATM   10  O   UNL     1      -8.760  15.451  66.495  1.00  0.00    -0.279 OA 
BRANCH   8  11
HETATM   11  C   UNL     1     -10.362  13.736  65.861  1.00  0.00    -0.315 A  
HETATM   12  C   UNL     1     -11.192  14.174  64.812  1.00  0.00    -0.379 A  
HETATM   13  C   UNL     1     -11.670  13.260  63.870  1.00  0.00    -0.431 A  
HETATM   14  C   UNL     1     -11.341  11.911  63.942  1.00  0.00    -0.509 A  
HETATM   15  O   UNL     1     -12.489  13.652  62.852  1.00  0.00    -0.960 OA 
HETATM   16  H   UNL     1     -12.814  13.031  62.212  1.00  0.00     0.000 HD 
HETATM   17  C   UNL     1     -10.513  11.480  64.971  1.00  0.00    -0.290 A  
HETATM   18  O   UNL     1     -10.158  10.170  65.095  1.00  0.00    -0.326 OA 
HETATM   19  C   UNL     1     -10.020  12.373  65.918  1.00  0.00    -0.271 A  
HETATM   20  H   UNL     1      -9.592   9.875  65.798  1.00  0.00     0.000 HD 
ENDBRANCH   8  11
ENDBRANCH   7   8
ENDBRANCH   3   7
TORSDOF 3
ENDMDL
MODEL      159
REMARK 921   NORMALIZED FREE ENERGY PREDICTED BY IDOCK:   -4.14 KCAL/MOL
REMARK 922        TOTAL FREE ENERGY PREDICTED BY IDOCK:   -5.16 KCAL/MOL
REMARK 923 INTER-LIGAND FREE ENERGY PREDICTED BY IDOCK:   -4.87 KCAL/MOL
REMARK 924 INTRA-LIGAND FREE ENERGY PREDICTED BY IDOCK:   -0.29 KCAL/MOL
REMARK 927      BINDING AFFINITY PREDICTED BY RF-SCORE:    0.00 PKD
ROOT
HETATM    1  C   UNL     1     -11.932  13.939  67.082  1.00  0.00    -0.455 C  
HETATM    2  C   UNL     1     -11.120  14.028  65.779  1.00  0.00    -0.305 C  
HETATM    3  N   UNL     1     -10.496  15.353  65.589  1.00  0.00    -0.344 NA 
HETATM    4  C   UNL     1     -10.060  12.913  65.745  1.00  0.00    -0.294 C  
HETATM    5  C   UNL     1     -12.085  13.806  64.599  1.00  0.00    -0.452 C  
HETATM    6  H   UNL     1     -11.214  16.065  65.453  1.00  0.00     0.000 HD 
ENDROOT
BRANCH   3   7
HETATM    7  C   UNL     1      -9.570  15.762  66.659  1.00  0.00    -0.247 C  
BRANCH   7   8
HETATM    8  C   UNL     1     -10.036  17.036  67.413  1.00  0.00    -0.278 C  
HETATM    9  H   UNL     1     -10.686  17.470  69.215  1.00  0.00     0.000 HD 
HETATM   10  O   UNL     1     -10.400  16.690  68.754  1.00  0.00    -0.261 OA 
BRANCH   8  11
HETATM   11  C   UNL     1      -8.935  18.084  67.406  1.00  0.00    -0.246 A  
HETATM   12  C   UNL     1      -8.440  18.579  66.185  1.00  0.00    -0.153 A  
HETATM   13  C   UNL     1      -7.378  19.486  66.176  1.00  0.00    -0.281 A  
HETATM   14  C   UNL     1      -6.790  19.920  67.359  1.00  0.00    -0.253 A  
HETATM   15  O   UNL     1      -6.866  19.969  65.008  1.00  0.00    -0.294 OA 
HETATM   16  H   UNL     1      -6.144  20.585  65.002  1.00  0.00     0.000 HD 
HETATM   17  C   UNL     1      -7.286  19.440  68.565  1.00  0.00    -0.333 A  
HETATM   18  O   UNL     1      -6.749  19.827  69.757  1.00  0.00    -0.340 OA 
HETATM   19  C   UNL     1      -8.347  18.540  68.600  1.00  0.00    -0.330 A  
HETATM   20  H   UNL     1      -7.088  19.500  70.582  1.00  0.00     0.000 HD 
ENDBRANCH   8  11
ENDBRANCH   7   8
ENDBRANCH   3   7
TORSDOF 3
ENDMDL
MODEL      160
REMARK 921   NORMALIZED FREE ENERGY PREDICTED BY IDOCK:   -4.14 KCAL/MOL
REMARK 922        TOTAL FREE ENERGY PREDICTED BY IDOCK:   -5.16 KCAL/MOL
REMARK 923 INTER-LIGAND FREE ENERGY PREDICTED BY IDOCK:   -4.88 KCAL/MOL
REMARK 924 INTRA-LIGAND FREE ENERGY PREDICTED BY IDOCK:   -0.27 KCAL/MOL
REMARK 927      BINDING AFFINITY PREDICTED BY RF-SCORE:    0.00 PKD
ROOT
HETATM    1  C   UNL     1     -11.725  13.272  67.380  1.00  0.00    -0.419 C  
HETATM    2  C   UNL     1     -11.110  14.174  66.297  1.00  0.00    -0.318 C  
HETATM    3  N   UNL     1     -10.443  15.365  66.862  1.00  0.00    -0.289 NA 
HETATM    4  C   UNL     1     -10.137  13.361  65.427  1.00  0.00    -0.270 C  
HETATM    5  C   UNL     1     -12.252  14.679  65.393  1.00  0.00    -0.221 C  
HETATM    6  H   UNL     1     -11.128  15.979  67.301  1.00  0.00     0.000 HD 
ENDROOT
BRANCH   3   7
HETATM    7  C   UNL     1      -9.345  15.073  67.801  1.00  0.00    -0.186 C  
BRANCH   7   8
HETATM    8  C   UNL     1      -8.986  16.279  68.709  1.00  0.00    -0.243 C  
HETATM    9  H   UNL     1      -7.655  16.670  70.100  1.00  0.00     0.000 HD 
HETATM   10  O   UNL     1      -7.875  15.932  69.544  1.00  0.00    -0.226 OA 
BRANCH   8  11
HETATM   11  C   UNL     1      -8.665  17.499  67.862  1.00  0.00    -0.247 A  
HETATM   12  C   UNL     1      -9.381  18.696  68.049  1.00  0.00    -0.340 A  
HETATM   13  C   UNL     1      -9.138  19.794  67.221  1.00  0.00    -0.326 A  
HETATM   14  C   UNL     1      -8.193  19.734  66.203  1.00  0.00    -0.363 A  
HETATM   15  O   UNL     1      -9.828  20.961  67.368  1.00  0.00    -0.496 OA 
HETATM   16  H   UNL     1      -9.663  21.707  66.805  1.00  0.00     0.000 HD 
HETATM   17  C   UNL     1      -7.478  18.556  66.025  1.00  0.00    -0.224 A  
HETATM   18  O   UNL     1      -6.540  18.437  65.042  1.00  0.00    -0.467 OA 
HETATM   19  C   UNL     1      -7.698  17.451  66.841  1.00  0.00    -0.249 A  
HETATM   20  H   UNL     1      -6.051  17.632  64.920  1.00  0.00     0.000 HD 
ENDBRANCH   8  11
ENDBRANCH   7   8
ENDBRANCH   3   7
TORSDOF 3
ENDMDL
MODEL      161
REMARK 921   NORMALIZED FREE ENERGY PREDICTED BY IDOCK:   -4.12 KCAL/MOL
REMARK 922        TOTAL FREE ENERGY PREDICTED BY IDOCK:   -5.14 KCAL/MOL
REMARK 923 INTER-LIGAND FREE ENERGY PREDICTED BY IDOCK:   -4.98 KCAL/MOL
REMARK 924 INTRA-LIGAND FREE ENERGY PREDICTED BY IDOCK:   -0.16 KCAL/MOL
REMARK 927      BINDING AFFINITY PREDICTED BY RF-SCORE:    0.00 PKD
ROOT
HETATM    1  C   UNL     1      -9.820   7.789  71.640  1.00  0.00    -0.201 C  
HETATM    2  C   UNL     1     -10.904   7.349  70.642  1.00  0.00    -0.242 C  
HETATM    3  N   UNL     1     -10.969   8.223  69.453  1.00  0.00    -0.431 NA 
HETATM    4  C   UNL     1     -10.677   5.883  70.233  1.00  0.00    -0.383 C  
HETATM    5  C   UNL     1     -12.270   7.441  71.350  1.00  0.00    -0.374 C  
HETATM    6  H   UNL     1     -11.278   9.158  69.719  1.00  0.00     0.000 HD 
ENDROOT
BRANCH   3   7
HETATM    7  C   UNL     1      -9.723   8.301  68.672  1.00  0.00    -0.156 C  
BRANCH   7   8
HETATM    8  C   UNL     1      -9.955   8.170  67.143  1.00  0.00    -0.236 C  
HETATM    9  H   UNL     1     -11.260   7.290  65.968  1.00  0.00     0.000 HD 
HETATM   10  O   UNL     1     -11.118   7.370  66.903  1.00  0.00    -0.236 OA 
BRANCH   8  11
HETATM   11  C   UNL     1     -10.107   9.546  66.514  1.00  0.00    -0.326 A  
HETATM   12  C   UNL     1     -10.928  10.513  67.123  1.00  0.00    -0.294 A  
HETATM   13  C   UNL     1     -11.127  11.750  66.507  1.00  0.00    -0.310 A  
HETATM   14  C   UNL     1     -10.525  12.056  65.291  1.00  0.00    -0.323 A  
HETATM   15  O   UNL     1     -11.931  12.700  67.065  1.00  0.00    -0.445 OA 
HETATM   16  H   UNL     1     -12.067  13.542  66.646  1.00  0.00     0.000 HD 
HETATM   17  C   UNL     1      -9.705  11.106  64.695  1.00  0.00    -0.262 A  
HETATM   18  O   UNL     1      -9.090  11.348  63.503  1.00  0.00    -0.429 OA 
HETATM   19  C   UNL     1      -9.487   9.868  65.293  1.00  0.00    -0.331 A  
HETATM   20  H   UNL     1      -8.529  10.698  63.095  1.00  0.00     0.000 HD 
ENDBRANCH   8  11
ENDBRANCH   7   8
ENDBRANCH   3   7
TORSDOF 3
ENDMDL
MODEL      162
REMARK 921   NORMALIZED FREE ENERGY PREDICTED BY IDOCK:   -4.12 KCAL/MOL
REMARK 922        TOTAL FREE ENERGY PREDICTED BY IDOCK:   -5.13 KCAL/MOL
REMARK 923 INTER-LIGAND FREE ENERGY PREDICTED BY IDOCK:   -4.68 KCAL/MOL
REMARK 924 INTRA-LIGAND FREE ENERGY PREDICTED BY IDOCK:   -0.45 KCAL/MOL
REMARK 927      BINDING AFFINITY PREDICTED BY RF-SCORE:    0.00 PKD
ROOT
HETATM    1  C   UNL     1      -9.428  11.148  68.640  1.00  0.00    -0.196 C  
HETATM    2  C   UNL     1     -10.895  10.699  68.742  1.00  0.00    -0.229 C  
HETATM    3  N   UNL     1     -11.096   9.310  68.282  1.00  0.00    -0.487 NA 
HETATM    4  C   UNL     1     -11.399  10.877  70.185  1.00  0.00    -0.367 C  
HETATM    5  C   UNL     1     -11.737  11.608  67.826  1.00  0.00    -0.315 C  
HETATM    6  H   UNL     1     -10.910   9.239  67.282  1.00  0.00     0.000 HD 
ENDROOT
BRANCH   3   7
HETATM    7  C   UNL     1     -10.321   8.295  69.016  1.00  0.00    -0.221 C  
BRANCH   7   8
HETATM    8  C   UNL     1     -11.215   7.256  69.745  1.00  0.00    -0.126 C  
HETATM    9  H   UNL     1     -11.760   5.391  69.455  1.00  0.00     0.000 HD 
HETATM   10  O   UNL     1     -11.212   6.027  69.010  1.00  0.00    -0.367 OA 
BRANCH   8  11
HETATM   11  C   UNL     1     -10.718   7.038  71.164  1.00  0.00    -0.253 A  
HETATM   12  C   UNL     1     -11.246   5.992  71.943  1.00  0.00    -0.338 A  
HETATM   13  C   UNL     1     -10.844   5.837  73.272  1.00  0.00    -0.272 A  
HETATM   14  C   UNL     1      -9.922   6.701  73.852  1.00  0.00    -0.317 A  
HETATM   15  O   UNL     1     -11.352   4.844  74.056  1.00  0.00    -0.382 OA 
HETATM   16  H   UNL     1     -11.079   4.739  74.960  1.00  0.00     0.000 HD 
HETATM   17  C   UNL     1      -9.392   7.727  73.080  1.00  0.00    -0.239 A  
HETATM   18  O   UNL     1      -8.486   8.607  73.594  1.00  0.00    -0.353 OA 
HETATM   19  C   UNL     1      -9.772   7.898  71.752  1.00  0.00    -0.219 A  
HETATM   20  H   UNL     1      -8.123   9.309  73.066  1.00  0.00     0.000 HD 
ENDBRANCH   8  11
ENDBRANCH   7   8
ENDBRANCH   3   7
TORSDOF 3
ENDMDL
MODEL      163
REMARK 921   NORMALIZED FREE ENERGY PREDICTED BY IDOCK:   -4.12 KCAL/MOL
REMARK 922        TOTAL FREE ENERGY PREDICTED BY IDOCK:   -5.13 KCAL/MOL
REMARK 923 INTER-LIGAND FREE ENERGY PREDICTED BY IDOCK:   -5.05 KCAL/MOL
REMARK 924 INTRA-LIGAND FREE ENERGY PREDICTED BY IDOCK:   -0.08 KCAL/MOL
REMARK 927      BINDING AFFINITY PREDICTED BY RF-SCORE:    0.00 PKD
ROOT
HETATM    1  C   UNL     1      -9.579  19.262  68.792  1.00  0.00    -0.485 C  
HETATM    2  C   UNL     1      -8.529  18.757  67.789  1.00  0.00    -0.275 C  
HETATM    3  N   UNL     1      -9.014  17.615  66.986  1.00  0.00    -0.244 NA 
HETATM    4  C   UNL     1      -8.073  19.911  66.881  1.00  0.00    -0.346 C  
HETATM    5  C   UNL     1      -7.306  18.265  68.587  1.00  0.00    -0.303 C  
HETATM    6  H   UNL     1      -9.161  16.802  67.583  1.00  0.00     0.000 HD 
ENDROOT
BRANCH   3   7
HETATM    7  C   UNL     1     -10.222  17.887  66.188  1.00  0.00    -0.343 C  
BRANCH   7   8
HETATM    8  C   UNL     1     -11.019  16.604  65.836  1.00  0.00     0.060 C  
HETATM    9  H   UNL     1     -11.368  15.539  64.222  1.00  0.00     0.000 HD 
HETATM   10  O   UNL     1     -10.880  16.325  64.438  1.00  0.00    -0.648 OA 
BRANCH   8  11
HETATM   11  C   UNL     1     -10.529  15.433  66.672  1.00  0.00    -0.293 A  
HETATM   12  C   UNL     1      -9.482  14.620  66.201  1.00  0.00    -0.308 A  
HETATM   13  C   UNL     1      -9.082  13.500  66.934  1.00  0.00    -0.239 A  
HETATM   14  C   UNL     1      -9.699  13.165  68.135  1.00  0.00    -0.228 A  
HETATM   15  O   UNL     1      -8.082  12.684  66.495  1.00  0.00    -0.397 OA 
HETATM   16  H   UNL     1      -7.810  11.922  66.993  1.00  0.00     0.000 HD 
HETATM   17  C   UNL     1     -10.725  13.975  68.606  1.00  0.00    -0.259 A  
HETATM   18  O   UNL     1     -11.369  13.696  69.775  1.00  0.00    -0.417 OA 
HETATM   19  C   UNL     1     -11.137  15.099  67.896  1.00  0.00    -0.322 A  
HETATM   20  H   UNL     1     -12.071  14.250  70.097  1.00  0.00     0.000 HD 
ENDBRANCH   8  11
ENDBRANCH   7   8
ENDBRANCH   3   7
TORSDOF 3
ENDMDL
MODEL      164
REMARK 921   NORMALIZED FREE ENERGY PREDICTED BY IDOCK:   -4.08 KCAL/MOL
REMARK 922        TOTAL FREE ENERGY PREDICTED BY IDOCK:   -5.10 KCAL/MOL
REMARK 923 INTER-LIGAND FREE ENERGY PREDICTED BY IDOCK:   -4.84 KCAL/MOL
REMARK 924 INTRA-LIGAND FREE ENERGY PREDICTED BY IDOCK:   -0.26 KCAL/MOL
REMARK 927      BINDING AFFINITY PREDICTED BY RF-SCORE:    0.00 PKD
ROOT
HETATM    1  C   UNL     1     -12.167  14.023  65.655  1.00  0.00    -0.462 C  
HETATM    2  C   UNL     1     -11.211  13.359  66.660  1.00  0.00    -0.309 C  
HETATM    3  N   UNL     1     -10.042  14.205  66.976  1.00  0.00    -0.258 NA 
HETATM    4  C   UNL     1     -11.976  12.980  67.940  1.00  0.00    -0.338 C  
HETATM    5  C   UNL     1     -10.675  12.062  66.022  1.00  0.00    -0.317 C  
HETATM    6  H   UNL     1      -9.454  14.317  66.150  1.00  0.00     0.000 HD 
ENDROOT
BRANCH   3   7
HETATM    7  C   UNL     1     -10.367  15.521  67.553  1.00  0.00    -0.271 C  
BRANCH   7   8
HETATM    8  C   UNL     1      -9.150  16.204  68.232  1.00  0.00    -0.190 C  
HETATM    9  H   UNL     1      -7.358  15.662  68.825  1.00  0.00     0.000 HD 
HETATM   10  O   UNL     1      -8.102  15.244  68.409  1.00  0.00    -0.130 OA 
BRANCH   8  11
HETATM   11  C   UNL     1      -8.672  17.379  67.395  1.00  0.00    -0.227 A  
HETATM   12  C   UNL     1      -7.429  17.317  66.738  1.00  0.00    -0.258 A  
HETATM   13  C   UNL     1      -6.955  18.424  66.031  1.00  0.00    -0.275 A  
HETATM   14  C   UNL     1      -7.691  19.602  65.957  1.00  0.00    -0.335 A  
HETATM   15  O   UNL     1      -5.747  18.399  65.399  1.00  0.00    -0.178 OA 
HETATM   16  H   UNL     1      -5.425  19.152  64.918  1.00  0.00     0.000 HD 
HETATM   17  C   UNL     1      -8.923  19.659  66.596  1.00  0.00    -0.362 A  
HETATM   18  O   UNL     1      -9.688  20.787  66.561  1.00  0.00    -0.632 OA 
HETATM   19  C   UNL     1      -9.419  18.567  67.302  1.00  0.00    -0.296 A  
HETATM   20  H   UNL     1     -10.532  20.827  66.998  1.00  0.00     0.000 HD 
ENDBRANCH   8  11
ENDBRANCH   7   8
ENDBRANCH   3   7
TORSDOF 3
ENDMDL
MODEL      165
REMARK 921   NORMALIZED FREE ENERGY PREDICTED BY IDOCK:   -4.08 KCAL/MOL
REMARK 922        TOTAL FREE ENERGY PREDICTED BY IDOCK:   -5.09 KCAL/MOL
REMARK 923 INTER-LIGAND FREE ENERGY PREDICTED BY IDOCK:   -5.03 KCAL/MOL
REMARK 924 INTRA-LIGAND FREE ENERGY PREDICTED BY IDOCK:   -0.05 KCAL/MOL
REMARK 927      BINDING AFFINITY PREDICTED BY RF-SCORE:    0.00 PKD
ROOT
HETATM    1  C   UNL     1     -11.767  12.419  66.228  1.00  0.00    -0.457 C  
HETATM    2  C   UNL     1     -11.086  13.474  65.341  1.00  0.00    -0.293 C  
HETATM    3  N   UNL     1     -10.086  14.274  66.077  1.00  0.00    -0.305 NA 
HETATM    4  C   UNL     1     -10.453  12.798  64.113  1.00  0.00    -0.437 C  
HETATM    5  C   UNL     1     -12.171  14.449  64.843  1.00  0.00    -0.440 C  
HETATM    6  H   UNL     1     -10.543  14.842  66.789  1.00  0.00     0.000 HD 
ENDROOT
BRANCH   3   7
HETATM    7  C   UNL     1      -8.988  13.495  66.675  1.00  0.00    -0.117 C  
BRANCH   7   8
HETATM    8  C   UNL     1      -8.088  14.337  67.617  1.00  0.00    -0.179 C  
HETATM    9  H   UNL     1      -6.160  14.567  67.920  1.00  0.00     0.000 HD 
HETATM   10  O   UNL     1      -6.711  14.051  67.343  1.00  0.00    -0.243 OA 
BRANCH   8  11
HETATM   11  C   UNL     1      -8.379  15.818  67.438  1.00  0.00    -0.189 A  
HETATM   12  C   UNL     1      -7.684  16.560  66.466  1.00  0.00    -0.323 A  
HETATM   13  C   UNL     1      -7.897  17.936  66.352  1.00  0.00    -0.272 A  
HETATM   14  C   UNL     1      -8.791  18.599  67.185  1.00  0.00    -0.281 A  
HETATM   15  O   UNL     1      -7.225  18.685  65.430  1.00  0.00    -0.520 OA 
HETATM   16  H   UNL     1      -7.370  19.620  65.353  1.00  0.00     0.000 HD 
HETATM   17  C   UNL     1      -9.486  17.864  68.137  1.00  0.00    -0.288 A  
HETATM   18  O   UNL     1     -10.374  18.460  68.983  1.00  0.00    -0.471 OA 
HETATM   19  C   UNL     1      -9.295  16.492  68.266  1.00  0.00    -0.217 A  
HETATM   20  H   UNL     1     -10.850  17.957  69.635  1.00  0.00     0.000 HD 
ENDBRANCH   8  11
ENDBRANCH   7   8
ENDBRANCH   3   7
TORSDOF 3
ENDMDL
MODEL      166
REMARK 921   NORMALIZED FREE ENERGY PREDICTED BY IDOCK:   -4.05 KCAL/MOL
REMARK 922        TOTAL FREE ENERGY PREDICTED BY IDOCK:   -5.05 KCAL/MOL
REMARK 923 INTER-LIGAND FREE ENERGY PREDICTED BY IDOCK:   -5.51 KCAL/MOL
REMARK 924 INTRA-LIGAND FREE ENERGY PREDICTED BY IDOCK:    0.46 KCAL/MOL
REMARK 927      BINDING AFFINITY PREDICTED BY RF-SCORE:    0.00 PKD
ROOT
HETATM    1  C   UNL     1     -12.137  12.060  64.426  1.00  0.00    -0.375 C  
HETATM    2  C   UNL     1     -10.624  11.845  64.605  1.00  0.00    -0.306 C  
HETATM    3  N   UNL     1     -10.029  12.781  65.580  1.00  0.00    -0.376 NA 
HETATM    4  C   UNL     1     -10.345  10.386  65.006  1.00  0.00    -0.249 C  
HETATM    5  C   UNL     1      -9.942  12.106  63.248  1.00  0.00    -0.226 C  
HETATM    6  H   UNL     1     -10.079  13.737  65.226  1.00  0.00     0.000 HD 
ENDROOT
BRANCH   3   7
HETATM    7  C   UNL     1     -10.600  12.711  66.936  1.00  0.00    -0.240 C  
BRANCH   7   8
HETATM    8  C   UNL     1     -10.089  13.839  67.870  1.00  0.00    -0.246 C  
HETATM    9  H   UNL     1      -8.466  14.200  68.917  1.00  0.00     0.000 HD 
HETATM   10  O   UNL     1      -8.779  13.509  68.345  1.00  0.00    -0.173 OA 
BRANCH   8  11
HETATM   11  C   UNL     1     -10.077  15.168  67.132  1.00  0.00    -0.239 A  
HETATM   12  C   UNL     1      -9.471  16.295  67.718  1.00  0.00    -0.221 A  
HETATM   13  C   UNL     1      -9.525  17.533  67.074  1.00  0.00    -0.268 A  
HETATM   14  C   UNL     1     -10.171  17.683  65.852  1.00  0.00    -0.240 A  
HETATM   15  O   UNL     1      -8.961  18.645  67.626  1.00  0.00    -0.272 OA 
HETATM   16  H   UNL     1      -8.999  19.487  67.188  1.00  0.00     0.000 HD 
HETATM   17  C   UNL     1     -10.760  16.568  65.267  1.00  0.00    -0.254 A  
HETATM   18  O   UNL     1     -11.409  16.654  64.072  1.00  0.00    -1.486 OA 
HETATM   19  C   UNL     1     -10.714  15.323  65.887  1.00  0.00    -0.340 A  
HETATM   20  H   UNL     1     -11.812  15.892  63.672  1.00  0.00     0.000 HD 
ENDBRANCH   8  11
ENDBRANCH   7   8
ENDBRANCH   3   7
TORSDOF 3
ENDMDL
MODEL      167
REMARK 921   NORMALIZED FREE ENERGY PREDICTED BY IDOCK:   -4.04 KCAL/MOL
REMARK 922        TOTAL FREE ENERGY PREDICTED BY IDOCK:   -5.05 KCAL/MOL
REMARK 923 INTER-LIGAND FREE ENERGY PREDICTED BY IDOCK:   -4.83 KCAL/MOL
REMARK 924 INTRA-LIGAND FREE ENERGY PREDICTED BY IDOCK:   -0.21 KCAL/MOL
REMARK 927      BINDING AFFINITY PREDICTED BY RF-SCORE:    0.00 PKD
ROOT
HETATM    1  C   UNL     1      -7.182  17.696  66.609  1.00  0.00    -0.264 C  
HETATM    2  C   UNL     1      -7.950  17.659  67.942  1.00  0.00    -0.231 C  
HETATM    3  N   UNL     1      -9.270  17.009  67.818  1.00  0.00    -0.233 NA 
HETATM    4  C   UNL     1      -7.097  16.968  69.019  1.00  0.00    -0.233 C  
HETATM    5  C   UNL     1      -8.198  19.113  68.389  1.00  0.00    -0.384 C  
HETATM    6  H   UNL     1      -9.883  17.566  67.223  1.00  0.00     0.000 HD 
ENDROOT
BRANCH   3   7
HETATM    7  C   UNL     1      -9.233  15.614  67.346  1.00  0.00    -0.198 C  
BRANCH   7   8
HETATM    8  C   UNL     1     -10.641  15.038  67.039  1.00  0.00    -0.293 C  
HETATM    9  H   UNL     1     -12.044  15.340  65.698  1.00  0.00     0.000 HD 
HETATM   10  O   UNL     1     -11.182  15.692  65.886  1.00  0.00    -0.214 OA 
BRANCH   8  11
HETATM   11  C   UNL     1     -10.559  13.536  66.821  1.00  0.00    -0.272 A  
HETATM   12  C   UNL     1     -11.326  12.665  67.615  1.00  0.00    -0.362 A  
HETATM   13  C   UNL     1     -11.195  11.283  67.465  1.00  0.00    -0.291 A  
HETATM   14  C   UNL     1     -10.314  10.738  66.536  1.00  0.00    -0.300 A  
HETATM   15  O   UNL     1     -11.913  10.413  68.232  1.00  0.00    -0.772 OA 
HETATM   16  H   UNL     1     -11.824   9.474  68.130  1.00  0.00     0.000 HD 
HETATM   17  C   UNL     1      -9.564  11.598  65.744  1.00  0.00    -0.232 A  
HETATM   18  O   UNL     1      -8.683  11.123  64.819  1.00  0.00    -0.367 OA 
HETATM   19  C   UNL     1      -9.682  12.979  65.871  1.00  0.00    -0.187 A  
HETATM   20  H   UNL     1      -8.170  11.712  64.276  1.00  0.00     0.000 HD 
ENDBRANCH   8  11
ENDBRANCH   7   8
ENDBRANCH   3   7
TORSDOF 3
ENDMDL
MODEL      168
REMARK 921   NORMALIZED FREE ENERGY PREDICTED BY IDOCK:   -4.04 KCAL/MOL
REMARK 922        TOTAL FREE ENERGY PREDICTED BY IDOCK:   -5.04 KCAL/MOL
REMARK 923 INTER-LIGAND FREE ENERGY PREDICTED BY IDOCK:   -4.66 KCAL/MOL
REMARK 924 INTRA-LIGAND FREE ENERGY PREDICTED BY IDOCK:   -0.38 KCAL/MOL
REMARK 927      BINDING AFFINITY PREDICTED BY RF-SCORE:    0.00 PKD
ROOT
HETATM    1  C   UNL     1     -10.972  12.604  67.933  1.00  0.00    -0.262 C  
HETATM    2  C   UNL     1     -10.155  12.357  66.653  1.00  0.00    -0.221 C  
HETATM    3  N   UNL     1      -9.019  13.291  66.516  1.00  0.00    -0.444 NA 
HETATM    4  C   UNL     1      -9.672  10.897  66.613  1.00  0.00    -0.222 C  
HETATM    5  C   UNL     1     -11.082  12.587  65.444  1.00  0.00    -0.337 C  
HETATM    6  H   UNL     1      -9.360  14.243  66.383  1.00  0.00     0.000 HD 
ENDROOT
BRANCH   3   7
HETATM    7  C   UNL     1      -8.044  13.249  67.620  1.00  0.00    -0.174 C  
BRANCH   7   8
HETATM    8  C   UNL     1      -7.471  14.645  67.979  1.00  0.00    -0.131 C  
HETATM    9  H   UNL     1      -6.121  15.866  67.241  1.00  0.00     0.000 HD 
HETATM   10  O   UNL     1      -6.471  15.011  67.021  1.00  0.00    -0.200 OA 
BRANCH   8  11
HETATM   11  C   UNL     1      -8.587  15.678  68.017  1.00  0.00    -0.155 A  
HETATM   12  C   UNL     1      -9.398  15.797  69.160  1.00  0.00    -0.258 A  
HETATM   13  C   UNL     1     -10.470  16.694  69.167  1.00  0.00    -0.333 A  
HETATM   14  C   UNL     1     -10.757  17.483  68.059  1.00  0.00    -0.342 A  
HETATM   15  O   UNL     1     -11.284  16.819  70.254  1.00  0.00    -0.466 OA 
HETATM   16  H   UNL     1     -12.012  17.428  70.258  1.00  0.00     0.000 HD 
HETATM   17  C   UNL     1      -9.949  17.373  66.934  1.00  0.00    -0.300 A  
HETATM   18  O   UNL     1     -10.183  18.119  65.817  1.00  0.00    -0.580 OA 
HETATM   19  C   UNL     1      -8.872  16.491  66.905  1.00  0.00    -0.233 A  
HETATM   20  H   UNL     1      -9.630  18.044  65.047  1.00  0.00     0.000 HD 
ENDBRANCH   8  11
ENDBRANCH   7   8
ENDBRANCH   3   7
TORSDOF 3
ENDMDL
MODEL      169
REMARK 921   NORMALIZED FREE ENERGY PREDICTED BY IDOCK:   -4.03 KCAL/MOL
REMARK 922        TOTAL FREE ENERGY PREDICTED BY IDOCK:   -5.04 KCAL/MOL
REMARK 923 INTER-LIGAND FREE ENERGY PREDICTED BY IDOCK:   -4.61 KCAL/MOL
REMARK 924 INTRA-LIGAND FREE ENERGY PREDICTED BY IDOCK:   -0.42 KCAL/MOL
REMARK 927      BINDING AFFINITY PREDICTED BY RF-SCORE:    0.00 PKD
ROOT
HETATM    1  C   UNL     1      -5.424  15.848  68.542  1.00  0.00    -0.101 C  
HETATM    2  C   UNL     1      -6.733  16.103  67.776  1.00  0.00    -0.148 C  
HETATM    3  N   UNL     1      -7.188  14.918  67.022  1.00  0.00    -0.333 NA 
HETATM    4  C   UNL     1      -7.823  16.587  68.747  1.00  0.00    -0.235 C  
HETATM    5  C   UNL     1      -6.474  17.224  66.751  1.00  0.00    -0.244 C  
HETATM    6  H   UNL     1      -6.530  14.702  66.273  1.00  0.00     0.000 HD 
ENDROOT
BRANCH   3   7
HETATM    7  C   UNL     1      -7.438  13.719  67.841  1.00  0.00    -0.152 C  
BRANCH   7   8
HETATM    8  C   UNL     1      -8.310  12.659  67.117  1.00  0.00    -0.172 C  
HETATM    9  H   UNL     1      -8.947  10.839  67.493  1.00  0.00     0.000 HD 
HETATM   10  O   UNL     1      -8.413  11.488  67.936  1.00  0.00    -0.131 OA 
BRANCH   8  11
HETATM   11  C   UNL     1      -9.686  13.229  66.813  1.00  0.00    -0.258 A  
HETATM   12  C   UNL     1     -10.523  13.649  67.863  1.00  0.00    -0.249 A  
HETATM   13  C   UNL     1     -11.816  14.102  67.589  1.00  0.00    -0.392 A  
HETATM   14  C   UNL     1     -12.302  14.151  66.287  1.00  0.00    -0.451 A  
HETATM   15  O   UNL     1     -12.655  14.500  68.587  1.00  0.00    -0.545 OA 
HETATM   16  H   UNL     1     -13.534  14.808  68.401  1.00  0.00     0.000 HD 
HETATM   17  C   UNL     1     -11.472  13.747  65.249  1.00  0.00    -0.312 A  
HETATM   18  O   UNL     1     -11.894  13.770  63.953  1.00  0.00    -0.591 OA 
HETATM   19  C   UNL     1     -10.179  13.297  65.497  1.00  0.00    -0.298 A  
HETATM   20  H   UNL     1     -11.326  13.493  63.243  1.00  0.00     0.000 HD 
ENDBRANCH   8  11
ENDBRANCH   7   8
ENDBRANCH   3   7
TORSDOF 3
ENDMDL
MODEL      170
REMARK 921   NORMALIZED FREE ENERGY PREDICTED BY IDOCK:   -4.01 KCAL/MOL
REMARK 922        TOTAL FREE ENERGY PREDICTED BY IDOCK:   -5.00 KCAL/MOL
REMARK 923 INTER-LIGAND FREE ENERGY PREDICTED BY IDOCK:   -4.62 KCAL/MOL
REMARK 924 INTRA-LIGAND FREE ENERGY PREDICTED BY IDOCK:   -0.38 KCAL/MOL
REMARK 927      BINDING AFFINITY PREDICTED BY RF-SCORE:    0.00 PKD
ROOT
HETATM    1  C   UNL     1      -9.800   9.774  66.039  1.00  0.00    -0.342 C  
HETATM    2  C   UNL     1     -10.077   9.871  67.548  1.00  0.00    -0.197 C  
HETATM    3  N   UNL     1     -10.943   8.780  68.038  1.00  0.00    -0.480 NA 
HETATM    4  C   UNL     1      -8.749   9.907  68.324  1.00  0.00    -0.119 C  
HETATM    5  C   UNL     1     -10.819  11.196  67.812  1.00  0.00    -0.288 C  
HETATM    6  H   UNL     1     -11.876   8.863  67.634  1.00  0.00     0.000 HD 
ENDROOT
BRANCH   3   7
HETATM    7  C   UNL     1     -10.414   7.423  67.822  1.00  0.00    -0.232 C  
BRANCH   7   8
HETATM    8  C   UNL     1     -10.921   6.398  68.870  1.00  0.00    -0.346 C  
HETATM    9  H   UNL     1     -10.468   4.563  69.407  1.00  0.00     0.000 HD 
HETATM   10  O   UNL     1     -10.157   5.191  68.765  1.00  0.00    -0.177 OA 
BRANCH   8  11
HETATM   11  C   UNL     1     -10.818   6.982  70.270  1.00  0.00    -0.283 A  
HETATM   12  C   UNL     1     -11.973   7.448  70.926  1.00  0.00    -0.308 A  
HETATM   13  C   UNL     1     -11.868   8.053  72.180  1.00  0.00    -0.349 A  
HETATM   14  C   UNL     1     -10.637   8.207  72.807  1.00  0.00    -0.386 A  
HETATM   15  O   UNL     1     -12.967   8.530  72.833  1.00  0.00    -0.667 OA 
HETATM   16  H   UNL     1     -12.897   8.941  73.685  1.00  0.00     0.000 HD 
HETATM   17  C   UNL     1      -9.498   7.737  72.165  1.00  0.00    -0.164 A  
HETATM   18  O   UNL     1      -8.263   7.862  72.728  1.00  0.00    -0.118 OA 
HETATM   19  C   UNL     1      -9.577   7.126  70.917  1.00  0.00    -0.167 A  
HETATM   20  H   UNL     1      -7.484   7.540  72.289  1.00  0.00     0.000 HD 
ENDBRANCH   8  11
ENDBRANCH   7   8
ENDBRANCH   3   7
TORSDOF 3
ENDMDL
MODEL      171
REMARK 921   NORMALIZED FREE ENERGY PREDICTED BY IDOCK:   -4.01 KCAL/MOL
REMARK 922        TOTAL FREE ENERGY PREDICTED BY IDOCK:   -5.00 KCAL/MOL
REMARK 923 INTER-LIGAND FREE ENERGY PREDICTED BY IDOCK:   -4.76 KCAL/MOL
REMARK 924 INTRA-LIGAND FREE ENERGY PREDICTED BY IDOCK:   -0.25 KCAL/MOL
REMARK 927      BINDING AFFINITY PREDICTED BY RF-SCORE:    0.00 PKD
ROOT
HETATM    1  C   UNL     1      -6.737   8.372  67.070  1.00  0.00    -0.062 C  
HETATM    2  C   UNL     1      -7.592   8.590  68.330  1.00  0.00    -0.096 C  
HETATM    3  N   UNL     1      -8.131   9.962  68.419  1.00  0.00    -0.099 NA 
HETATM    4  C   UNL     1      -8.726   7.551  68.381  1.00  0.00    -0.123 C  
HETATM    5  C   UNL     1      -6.691   8.374  69.561  1.00  0.00    -0.041 C  
HETATM    6  H   UNL     1      -7.372  10.632  68.546  1.00  0.00     0.000 HD 
ENDROOT
BRANCH   3   7
HETATM    7  C   UNL     1      -8.985  10.368  67.289  1.00  0.00    -0.135 C  
BRANCH   7   8
HETATM    8  C   UNL     1     -10.063  11.411  67.685  1.00  0.00    -0.180 C  
HETATM    9  H   UNL     1     -10.117  13.095  68.695  1.00  0.00     0.000 HD 
HETATM   10  O   UNL     1      -9.456  12.457  68.452  1.00  0.00    -0.212 OA 
BRANCH   8  11
HETATM   11  C   UNL     1     -10.735  11.972  66.442  1.00  0.00    -0.294 A  
HETATM   12  C   UNL     1     -11.812  12.868  66.566  1.00  0.00    -0.473 A  
HETATM   13  C   UNL     1     -12.477  13.326  65.426  1.00  0.00    -0.489 A  
HETATM   14  C   UNL     1     -12.094  12.914  64.154  1.00  0.00    -0.503 A  
HETATM   15  O   UNL     1     -13.535  14.181  65.516  1.00  0.00    -0.710 OA 
HETATM   16  H   UNL     1     -13.987  14.492  64.741  1.00  0.00     0.000 HD 
HETATM   17  C   UNL     1     -11.023  12.038  64.031  1.00  0.00    -0.381 A  
HETATM   18  O   UNL     1     -10.604  11.597  62.810  1.00  0.00    -0.627 OA 
HETATM   19  C   UNL     1     -10.342  11.572  65.152  1.00  0.00    -0.329 A  
HETATM   20  H   UNL     1      -9.871  10.997  62.726  1.00  0.00     0.000 HD 
ENDBRANCH   8  11
ENDBRANCH   7   8
ENDBRANCH   3   7
TORSDOF 3
ENDMDL
MODEL      172
REMARK 921   NORMALIZED FREE ENERGY PREDICTED BY IDOCK:   -3.99 KCAL/MOL
REMARK 922        TOTAL FREE ENERGY PREDICTED BY IDOCK:   -4.98 KCAL/MOL
REMARK 923 INTER-LIGAND FREE ENERGY PREDICTED BY IDOCK:   -4.57 KCAL/MOL
REMARK 924 INTRA-LIGAND FREE ENERGY PREDICTED BY IDOCK:   -0.40 KCAL/MOL
REMARK 927      BINDING AFFINITY PREDICTED BY RF-SCORE:    0.00 PKD
ROOT
HETATM    1  C   UNL     1      -9.815  10.649  65.804  1.00  0.00    -0.296 C  
HETATM    2  C   UNL     1      -8.816   9.597  66.315  1.00  0.00    -0.151 C  
HETATM    3  N   UNL     1      -8.068  10.055  67.503  1.00  0.00    -0.110 NA 
HETATM    4  C   UNL     1      -9.548   8.275  66.603  1.00  0.00    -0.299 C  
HETATM    5  C   UNL     1      -7.784   9.339  65.200  1.00  0.00    -0.108 C  
HETATM    6  H   UNL     1      -7.462  10.838  67.259  1.00  0.00     0.000 HD 
ENDROOT
BRANCH   3   7
HETATM    7  C   UNL     1      -8.904  10.402  68.666  1.00  0.00    -0.142 C  
BRANCH   7   8
HETATM    8  C   UNL     1      -8.630   9.504  69.901  1.00  0.00    -0.204 C  
HETATM    9  H   UNL     1      -7.539   9.615  71.532  1.00  0.00     0.000 HD 
HETATM   10  O   UNL     1      -7.707  10.165  70.775  1.00  0.00    -0.133 OA 
BRANCH   8  11
HETATM   11  C   UNL     1      -9.930   9.192  70.624  1.00  0.00    -0.307 A  
HETATM   12  C   UNL     1     -11.148   9.698  70.134  1.00  0.00    -0.314 A  
HETATM   13  C   UNL     1     -12.333   9.474  70.840  1.00  0.00    -0.228 A  
HETATM   14  C   UNL     1     -12.340   8.752  72.028  1.00  0.00    -0.444 A  
HETATM   15  O   UNL     1     -13.526   9.966  70.398  1.00  0.00    -0.586 OA 
HETATM   16  H   UNL     1     -14.331   9.814  70.878  1.00  0.00     0.000 HD 
HETATM   17  C   UNL     1     -11.139   8.243  72.506  1.00  0.00    -0.368 A  
HETATM   18  O   UNL     1     -11.082   7.530  73.667  1.00  0.00    -0.573 OA 
HETATM   19  C   UNL     1      -9.946   8.448  71.818  1.00  0.00    -0.312 A  
HETATM   20  H   UNL     1     -10.261   7.181  73.994  1.00  0.00     0.000 HD 
ENDBRANCH   8  11
ENDBRANCH   7   8
ENDBRANCH   3   7
TORSDOF 3
ENDMDL
MODEL      173
REMARK 921   NORMALIZED FREE ENERGY PREDICTED BY IDOCK:   -3.98 KCAL/MOL
REMARK 922        TOTAL FREE ENERGY PREDICTED BY IDOCK:   -4.98 KCAL/MOL
REMARK 923 INTER-LIGAND FREE ENERGY PREDICTED BY IDOCK:   -4.47 KCAL/MOL
REMARK 924 INTRA-LIGAND FREE ENERGY PREDICTED BY IDOCK:   -0.50 KCAL/MOL
REMARK 927      BINDING AFFINITY PREDICTED BY RF-SCORE:    0.00 PKD
ROOT
HETATM    1  C   UNL     1     -11.414   6.031  72.407  1.00  0.00    -0.357 C  
HETATM    2  C   UNL     1     -11.815   7.114  71.392  1.00  0.00    -0.308 C  
HETATM    3  N   UNL     1     -11.052   8.367  71.568  1.00  0.00    -0.252 NA 
HETATM    4  C   UNL     1     -11.659   6.575  69.960  1.00  0.00    -0.455 C  
HETATM    5  C   UNL     1     -13.301   7.451  71.616  1.00  0.00    -0.426 C  
HETATM    6  H   UNL     1     -11.287   8.800  72.461  1.00  0.00     0.000 HD 
ENDROOT
BRANCH   3   7
HETATM    7  C   UNL     1      -9.591   8.227  71.439  1.00  0.00    -0.177 C  
BRANCH   7   8
HETATM    8  C   UNL     1      -8.925   9.436  70.730  1.00  0.00    -0.191 C  
HETATM    9  H   UNL     1      -7.101   9.971  70.234  1.00  0.00     0.000 HD 
HETATM   10  O   UNL     1      -7.509   9.231  70.668  1.00  0.00    -0.108 OA 
BRANCH   8  11
HETATM   11  C   UNL     1      -9.507   9.617  69.338  1.00  0.00    -0.201 A  
HETATM   12  C   UNL     1     -10.443  10.638  69.091  1.00  0.00    -0.245 A  
HETATM   13  C   UNL     1     -11.033  10.756  67.831  1.00  0.00    -0.289 A  
HETATM   14  C   UNL     1     -10.714   9.880  66.799  1.00  0.00    -0.154 A  
HETATM   15  O   UNL     1     -11.956  11.725  67.568  1.00  0.00    -0.607 OA 
HETATM   16  H   UNL     1     -12.358  11.806  66.711  1.00  0.00     0.000 HD 
HETATM   17  C   UNL     1      -9.781   8.879  67.039  1.00  0.00    -0.190 A  
HETATM   18  O   UNL     1      -9.430   7.989  66.067  1.00  0.00    -0.372 OA 
HETATM   19  C   UNL     1      -9.175   8.744  68.285  1.00  0.00    -0.143 A  
HETATM   20  H   UNL     1      -8.792   7.305  66.231  1.00  0.00     0.000 HD 
ENDBRANCH   8  11
ENDBRANCH   7   8
ENDBRANCH   3   7
TORSDOF 3
ENDMDL
MODEL      174
REMARK 921   NORMALIZED FREE ENERGY PREDICTED BY IDOCK:   -3.98 KCAL/MOL
REMARK 922        TOTAL FREE ENERGY PREDICTED BY IDOCK:   -4.98 KCAL/MOL
REMARK 923 INTER-LIGAND FREE ENERGY PREDICTED BY IDOCK:   -4.61 KCAL/MOL
REMARK 924 INTRA-LIGAND FREE ENERGY PREDICTED BY IDOCK:   -0.36 KCAL/MOL
REMARK 927      BINDING AFFINITY PREDICTED BY RF-SCORE:    0.00 PKD
ROOT
HETATM    1  C   UNL     1     -10.181  15.552  65.513  1.00  0.00    -0.415 C  
HETATM    2  C   UNL     1     -11.160  14.369  65.429  1.00  0.00    -0.331 C  
HETATM    3  N   UNL     1     -10.478  13.089  65.149  1.00  0.00    -0.310 NA 
HETATM    4  C   UNL     1     -11.987  14.279  66.723  1.00  0.00    -0.462 C  
HETATM    5  C   UNL     1     -12.128  14.634  64.260  1.00  0.00    -0.437 C  
HETATM    6  H   UNL     1     -10.066  13.105  64.216  1.00  0.00     0.000 HD 
ENDROOT
BRANCH   3   7
HETATM    7  C   UNL     1      -9.468  12.693  66.145  1.00  0.00    -0.175 C  
BRANCH   7   8
HETATM    8  C   UNL     1      -9.340  11.155  66.305  1.00  0.00    -0.195 C  
HETATM    9  H   UNL     1      -7.942   9.803  66.026  1.00  0.00     0.000 HD 
HETATM   10  O   UNL     1      -8.020  10.745  65.928  1.00  0.00    -0.158 OA 
BRANCH   8  11
HETATM   11  C   UNL     1      -9.645  10.747  67.737  1.00  0.00    -0.176 A  
HETATM   12  C   UNL     1      -8.594  10.490  68.636  1.00  0.00    -0.139 A  
HETATM   13  C   UNL     1      -8.873  10.043  69.929  1.00  0.00    -0.147 A  
HETATM   14  C   UNL     1     -10.181   9.845  70.358  1.00  0.00    -0.299 A  
HETATM   15  O   UNL     1      -7.874   9.768  70.817  1.00  0.00    -0.327 OA 
HETATM   16  H   UNL     1      -8.064   9.464  71.696  1.00  0.00     0.000 HD 
HETATM   17  C   UNL     1     -11.220  10.111  69.474  1.00  0.00    -0.238 A  
HETATM   18  O   UNL     1     -12.522   9.933  69.836  1.00  0.00    -0.474 OA 
HETATM   19  C   UNL     1     -10.966  10.562  68.182  1.00  0.00    -0.330 A  
HETATM   20  H   UNL     1     -13.233  10.115  69.232  1.00  0.00     0.000 HD 
ENDBRANCH   8  11
ENDBRANCH   7   8
ENDBRANCH   3   7
TORSDOF 3
ENDMDL
MODEL      175
REMARK 921   NORMALIZED FREE ENERGY PREDICTED BY IDOCK:   -3.98 KCAL/MOL
REMARK 922        TOTAL FREE ENERGY PREDICTED BY IDOCK:   -4.97 KCAL/MOL
REMARK 923 INTER-LIGAND FREE ENERGY PREDICTED BY IDOCK:   -4.44 KCAL/MOL
REMARK 924 INTRA-LIGAND FREE ENERGY PREDICTED BY IDOCK:   -0.52 KCAL/MOL
REMARK 927      BINDING AFFINITY PREDICTED BY RF-SCORE:    0.00 PKD
ROOT
HETATM    1  C   UNL     1     -11.357   5.838  72.416  1.00  0.00    -0.348 C  
HETATM    2  C   UNL     1     -11.792   6.891  71.384  1.00  0.00    -0.330 C  
HETATM    3  N   UNL     1     -11.138   8.198  71.596  1.00  0.00    -0.245 NA 
HETATM    4  C   UNL     1     -11.528   6.370  69.960  1.00  0.00    -0.496 C  
HETATM    5  C   UNL     1     -13.310   7.111  71.538  1.00  0.00    -0.413 C  
HETATM    6  H   UNL     1     -11.447   8.608  72.477  1.00  0.00     0.000 HD 
ENDROOT
BRANCH   3   7
HETATM    7  C   UNL     1      -9.666   8.172  71.535  1.00  0.00    -0.176 C  
BRANCH   7   8
HETATM    8  C   UNL     1      -9.065   9.411  70.822  1.00  0.00    -0.204 C  
HETATM    9  H   UNL     1      -7.268  10.126  70.475  1.00  0.00     0.000 HD 
HETATM   10  O   UNL     1      -7.636   9.367  70.912  1.00  0.00    -0.216 OA 
BRANCH   8  11
HETATM   11  C   UNL     1      -9.514   9.452  69.370  1.00  0.00    -0.177 A  
HETATM   12  C   UNL     1      -8.896   8.621  68.417  1.00  0.00    -0.142 A  
HETATM   13  C   UNL     1      -9.256   8.712  67.071  1.00  0.00    -0.151 A  
HETATM   14  C   UNL     1     -10.224   9.614  66.642  1.00  0.00    -0.302 A  
HETATM   15  O   UNL     1      -8.663   7.932  66.122  1.00  0.00    -0.143 OA 
HETATM   16  H   UNL     1      -8.907   7.994  65.207  1.00  0.00     0.000 HD 
HETATM   17  C   UNL     1     -10.843  10.426  67.584  1.00  0.00    -0.306 A  
HETATM   18  O   UNL     1     -11.797  11.331  67.224  1.00  0.00    -0.562 OA 
HETATM   19  C   UNL     1     -10.505  10.350  68.932  1.00  0.00    -0.232 A  
HETATM   20  H   UNL     1     -12.221  11.886  67.869  1.00  0.00     0.000 HD 
ENDBRANCH   8  11
ENDBRANCH   7   8
ENDBRANCH   3   7
TORSDOF 3
ENDMDL
MODEL      176
REMARK 921   NORMALIZED FREE ENERGY PREDICTED BY IDOCK:   -3.98 KCAL/MOL
REMARK 922        TOTAL FREE ENERGY PREDICTED BY IDOCK:   -4.97 KCAL/MOL
REMARK 923 INTER-LIGAND FREE ENERGY PREDICTED BY IDOCK:   -4.67 KCAL/MOL
REMARK 924 INTRA-LIGAND FREE ENERGY PREDICTED BY IDOCK:   -0.30 KCAL/MOL
REMARK 927      BINDING AFFINITY PREDICTED BY RF-SCORE:    0.00 PKD
ROOT
HETATM    1  C   UNL     1      -9.663   3.310  71.042  1.00  0.00    -0.199 C  
HETATM    2  C   UNL     1      -9.230   4.136  69.819  1.00  0.00    -0.143 C  
HETATM    3  N   UNL     1     -10.062   5.341  69.626  1.00  0.00    -0.234 NA 
HETATM    4  C   UNL     1      -7.742   4.511  69.940  1.00  0.00    -0.057 C  
HETATM    5  C   UNL     1      -9.401   3.258  68.565  1.00  0.00    -0.237 C  
HETATM    6  H   UNL     1     -11.017   5.076  69.388  1.00  0.00     0.000 HD 
ENDROOT
BRANCH   3   7
HETATM    7  C   UNL     1     -10.062   6.283  70.758  1.00  0.00    -0.189 C  
BRANCH   7   8
HETATM    8  C   UNL     1     -11.489   6.709  71.194  1.00  0.00    -0.320 C  
HETATM    9  H   UNL     1     -12.582   6.578  72.821  1.00  0.00     0.000 HD 
HETATM   10  O   UNL     1     -11.709   6.318  72.554  1.00  0.00    -0.274 OA 
BRANCH   8  11
HETATM   11  C   UNL     1     -11.664   8.210  71.029  1.00  0.00    -0.295 A  
HETATM   12  C   UNL     1     -10.833   8.924  70.146  1.00  0.00    -0.251 A  
HETATM   13  C   UNL     1     -10.944  10.313  70.049  1.00  0.00    -0.311 A  
HETATM   14  C   UNL     1     -11.868  11.018  70.813  1.00  0.00    -0.383 A  
HETATM   15  O   UNL     1     -10.141  11.033  69.215  1.00  0.00    -0.351 OA 
HETATM   16  H   UNL     1     -10.216  11.977  69.150  1.00  0.00     0.000 HD 
HETATM   17  C   UNL     1     -12.697  10.312  71.676  1.00  0.00    -0.456 A  
HETATM   18  O   UNL     1     -13.620  10.948  72.452  1.00  0.00    -0.545 OA 
HETATM   19  C   UNL     1     -12.609   8.927  71.785  1.00  0.00    -0.420 A  
HETATM   20  H   UNL     1     -14.188  10.465  73.042  1.00  0.00     0.000 HD 
ENDBRANCH   8  11
ENDBRANCH   7   8
ENDBRANCH   3   7
TORSDOF 3
ENDMDL
MODEL      177
REMARK 921   NORMALIZED FREE ENERGY PREDICTED BY IDOCK:   -3.94 KCAL/MOL
REMARK 922        TOTAL FREE ENERGY PREDICTED BY IDOCK:   -4.93 KCAL/MOL
REMARK 923 INTER-LIGAND FREE ENERGY PREDICTED BY IDOCK:   -4.64 KCAL/MOL
REMARK 924 INTRA-LIGAND FREE ENERGY PREDICTED BY IDOCK:   -0.29 KCAL/MOL
REMARK 927      BINDING AFFINITY PREDICTED BY RF-SCORE:    0.00 PKD
ROOT
HETATM    1  C   UNL     1     -10.475  13.702  64.669  1.00  0.00    -0.442 C  
HETATM    2  C   UNL     1     -11.664  12.910  65.239  1.00  0.00    -0.364 C  
HETATM    3  N   UNL     1     -11.237  11.787  66.099  1.00  0.00    -0.323 NA 
HETATM    4  C   UNL     1     -12.608  13.856  66.001  1.00  0.00    -0.467 C  
HETATM    5  C   UNL     1     -12.445  12.306  64.057  1.00  0.00    -0.556 C  
HETATM    6  H   UNL     1     -10.746  11.086  65.545  1.00  0.00     0.000 HD 
ENDROOT
BRANCH   3   7
HETATM    7  C   UNL     1     -10.425  12.174  67.266  1.00  0.00    -0.218 C  
BRANCH   7   8
HETATM    8  C   UNL     1     -11.002  11.651  68.608  1.00  0.00    -0.220 C  
HETATM    9  H   UNL     1     -12.744  11.022  69.264  1.00  0.00     0.000 HD 
HETATM   10  O   UNL     1     -12.390  11.342  68.442  1.00  0.00    -0.545 OA 
BRANCH   8  11
HETATM   11  C   UNL     1     -10.228  10.429  69.074  1.00  0.00    -0.233 A  
HETATM   12  C   UNL     1      -9.319   9.797  68.205  1.00  0.00    -0.134 A  
HETATM   13  C   UNL     1      -8.663   8.630  68.606  1.00  0.00    -0.138 A  
HETATM   14  C   UNL     1      -8.888   8.071  69.860  1.00  0.00    -0.144 A  
HETATM   15  O   UNL     1      -7.790   7.987  67.780  1.00  0.00    -0.121 OA 
HETATM   16  H   UNL     1      -7.345   7.193  68.052  1.00  0.00     0.000 HD 
HETATM   17  C   UNL     1      -9.776   8.702  70.722  1.00  0.00    -0.194 A  
HETATM   18  O   UNL     1     -10.039   8.199  71.962  1.00  0.00    -0.198 OA 
HETATM   19  C   UNL     1     -10.437   9.868  70.347  1.00  0.00    -0.347 A  
HETATM   20  H   UNL     1     -10.646   8.631  72.552  1.00  0.00     0.000 HD 
ENDBRANCH   8  11
ENDBRANCH   7   8
ENDBRANCH   3   7
TORSDOF 3
ENDMDL
MODEL      178
REMARK 921   NORMALIZED FREE ENERGY PREDICTED BY IDOCK:   -3.94 KCAL/MOL
REMARK 922        TOTAL FREE ENERGY PREDICTED BY IDOCK:   -4.92 KCAL/MOL
REMARK 923 INTER-LIGAND FREE ENERGY PREDICTED BY IDOCK:   -4.73 KCAL/MOL
REMARK 924 INTRA-LIGAND FREE ENERGY PREDICTED BY IDOCK:   -0.20 KCAL/MOL
REMARK 927      BINDING AFFINITY PREDICTED BY RF-SCORE:    0.00 PKD
ROOT
HETATM    1  C   UNL     1      -6.360  12.670  69.551  1.00  0.00    -0.111 C  
HETATM    2  C   UNL     1      -7.024  11.318  69.239  1.00  0.00    -0.119 C  
HETATM    3  N   UNL     1      -8.484  11.433  69.051  1.00  0.00    -0.371 NA 
HETATM    4  C   UNL     1      -6.360  10.680  68.007  1.00  0.00    -0.058 C  
HETATM    5  C   UNL     1      -6.792  10.385  70.444  1.00  0.00    -0.073 C  
HETATM    6  H   UNL     1      -8.932  11.705  69.926  1.00  0.00     0.000 HD 
ENDROOT
BRANCH   3   7
HETATM    7  C   UNL     1      -8.900  12.335  67.964  1.00  0.00    -0.182 C  
BRANCH   7   8
HETATM    8  C   UNL     1      -9.420  11.580  66.712  1.00  0.00    -0.189 C  
HETATM    9  H   UNL     1     -10.498   9.976  66.359  1.00  0.00     0.000 HD 
HETATM   10  O   UNL     1     -10.180  10.438  67.125  1.00  0.00    -0.201 OA 
BRANCH   8  11
HETATM   11  C   UNL     1     -10.262  12.507  65.850  1.00  0.00    -0.280 A  
HETATM   12  C   UNL     1     -10.092  13.901  65.939  1.00  0.00    -0.331 A  
HETATM   13  C   UNL     1     -10.917  14.754  65.203  1.00  0.00    -0.393 A  
HETATM   14  C   UNL     1     -11.915  14.255  64.373  1.00  0.00    -0.476 A  
HETATM   15  O   UNL     1     -10.787  16.110  65.281  1.00  0.00    -0.383 OA 
HETATM   16  H   UNL     1     -11.348  16.690  64.781  1.00  0.00     0.000 HD 
HETATM   17  C   UNL     1     -12.075  12.879  64.276  1.00  0.00    -0.419 A  
HETATM   18  O   UNL     1     -13.038  12.331  63.481  1.00  0.00    -0.766 OA 
HETATM   19  C   UNL     1     -11.262  12.008  64.995  1.00  0.00    -0.374 A  
HETATM   20  H   UNL     1     -13.148  11.389  63.415  1.00  0.00     0.000 HD 
ENDBRANCH   8  11
ENDBRANCH   7   8
ENDBRANCH   3   7
TORSDOF 3
ENDMDL
MODEL      179
REMARK 921   NORMALIZED FREE ENERGY PREDICTED BY IDOCK:   -3.93 KCAL/MOL
REMARK 922        TOTAL FREE ENERGY PREDICTED BY IDOCK:   -4.92 KCAL/MOL
REMARK 923 INTER-LIGAND FREE ENERGY PREDICTED BY IDOCK:   -4.60 KCAL/MOL
REMARK 924 INTRA-LIGAND FREE ENERGY PREDICTED BY IDOCK:   -0.32 KCAL/MOL
REMARK 927      BINDING AFFINITY PREDICTED BY RF-SCORE:    0.00 PKD
ROOT
HETATM    1  C   UNL     1      -9.053   9.801  66.379  1.00  0.00    -0.187 C  
HETATM    2  C   UNL     1     -10.104   9.738  67.500  1.00  0.00    -0.197 C  
HETATM    3  N   UNL     1     -10.844   8.459  67.512  1.00  0.00    -0.496 NA 
HETATM    4  C   UNL     1      -9.437   9.999  68.861  1.00  0.00    -0.172 C  
HETATM    5  C   UNL     1     -11.134  10.857  67.250  1.00  0.00    -0.350 C  
HETATM    6  H   UNL     1     -11.411   8.371  66.669  1.00  0.00     0.000 HD 
ENDROOT
BRANCH   3   7
HETATM    7  C   UNL     1     -10.007   7.260  67.690  1.00  0.00    -0.162 C  
BRANCH   7   8
HETATM    8  C   UNL     1     -10.815   6.017  68.149  1.00  0.00    -0.281 C  
HETATM    9  H   UNL     1     -10.664   4.068  67.960  1.00  0.00     0.000 HD 
HETATM   10  O   UNL     1     -10.169   4.829  67.679  1.00  0.00    -0.125 OA 
BRANCH   8  11
HETATM   11  C   UNL     1     -10.939   6.001  69.664  1.00  0.00    -0.470 A  
HETATM   12  C   UNL     1     -10.095   5.178  70.432  1.00  0.00    -0.333 A  
HETATM   13  C   UNL     1     -10.259   5.107  71.818  1.00  0.00    -0.209 A  
HETATM   14  C   UNL     1     -11.248   5.839  72.466  1.00  0.00    -0.347 A  
HETATM   15  O   UNL     1      -9.467   4.305  72.586  1.00  0.00    -0.123 OA 
HETATM   16  H   UNL     1      -9.579   4.256  73.528  1.00  0.00     0.000 HD 
HETATM   17  C   UNL     1     -12.074   6.660  71.709  1.00  0.00    -0.353 A  
HETATM   18  O   UNL     1     -13.063   7.399  72.288  1.00  0.00    -0.503 OA 
HETATM   19  C   UNL     1     -11.927   6.752  70.328  1.00  0.00    -0.294 A  
HETATM   20  H   UNL     1     -13.628   7.961  71.770  1.00  0.00     0.000 HD 
ENDBRANCH   8  11
ENDBRANCH   7   8
ENDBRANCH   3   7
TORSDOF 3
ENDMDL
MODEL      180
REMARK 921   NORMALIZED FREE ENERGY PREDICTED BY IDOCK:   -3.93 KCAL/MOL
REMARK 922        TOTAL FREE ENERGY PREDICTED BY IDOCK:   -4.91 KCAL/MOL
REMARK 923 INTER-LIGAND FREE ENERGY PREDICTED BY IDOCK:   -4.62 KCAL/MOL
REMARK 924 INTRA-LIGAND FREE ENERGY PREDICTED BY IDOCK:   -0.29 KCAL/MOL
REMARK 927      BINDING AFFINITY PREDICTED BY RF-SCORE:    0.00 PKD
ROOT
HETATM    1  C   UNL     1     -10.023   9.003  71.820  1.00  0.00    -0.359 C  
HETATM    2  C   UNL     1     -11.448   8.625  71.383  1.00  0.00    -0.289 C  
HETATM    3  N   UNL     1     -11.504   8.139  69.989  1.00  0.00    -0.465 NA 
HETATM    4  C   UNL     1     -12.035   7.583  72.351  1.00  0.00    -0.264 C  
HETATM    5  C   UNL     1     -12.322   9.892  71.459  1.00  0.00    -0.504 C  
HETATM    6  H   UNL     1     -11.265   8.892  69.344  1.00  0.00     0.000 HD 
ENDROOT
BRANCH   3   7
HETATM    7  C   UNL     1     -10.679   6.951  69.713  1.00  0.00    -0.244 C  
BRANCH   7   8
HETATM    8  C   UNL     1      -9.714   7.145  68.513  1.00  0.00    -0.143 C  
HETATM    9  H   UNL     1      -7.817   7.589  68.266  1.00  0.00     0.000 HD 
HETATM   10  O   UNL     1      -8.407   7.470  69.000  1.00  0.00    -0.126 OA 
BRANCH   8  11
HETATM   11  C   UNL     1      -9.676   5.888  67.660  1.00  0.00    -0.122 A  
HETATM   12  C   UNL     1      -8.642   4.949  67.833  1.00  0.00    -0.103 A  
HETATM   13  C   UNL     1      -8.564   3.832  66.999  1.00  0.00    -0.108 A  
HETATM   14  C   UNL     1      -9.496   3.619  65.989  1.00  0.00    -0.167 A  
HETATM   15  O   UNL     1      -7.564   2.914  67.133  1.00  0.00    -0.068 OA 
HETATM   16  H   UNL     1      -7.511   2.155  66.565  1.00  0.00     0.000 HD 
HETATM   17  C   UNL     1     -10.524   4.539  65.826  1.00  0.00    -0.233 A  
HETATM   18  O   UNL     1     -11.465   4.385  64.851  1.00  0.00    -1.070 OA 
HETATM   19  C   UNL     1     -10.625   5.657  66.648  1.00  0.00    -0.361 A  
HETATM   20  H   UNL     1     -12.168   5.015  64.739  1.00  0.00     0.000 HD 
ENDBRANCH   8  11
ENDBRANCH   7   8
ENDBRANCH   3   7
TORSDOF 3
ENDMDL
MODEL      181
REMARK 921   NORMALIZED FREE ENERGY PREDICTED BY IDOCK:   -3.92 KCAL/MOL
REMARK 922        TOTAL FREE ENERGY PREDICTED BY IDOCK:   -4.90 KCAL/MOL
REMARK 923 INTER-LIGAND FREE ENERGY PREDICTED BY IDOCK:   -4.65 KCAL/MOL
REMARK 924 INTRA-LIGAND FREE ENERGY PREDICTED BY IDOCK:   -0.26 KCAL/MOL
REMARK 927      BINDING AFFINITY PREDICTED BY RF-SCORE:    0.00 PKD
ROOT
HETATM    1  C   UNL     1     -10.620  19.401  67.946  1.00  0.00    -0.501 C  
HETATM    2  C   UNL     1      -9.443  19.336  66.958  1.00  0.00    -0.322 C  
HETATM    3  N   UNL     1      -9.292  18.003  66.342  1.00  0.00    -0.382 NA 
HETATM    4  C   UNL     1      -9.602  20.423  65.881  1.00  0.00    -0.132 C  
HETATM    5  C   UNL     1      -8.147  19.625  67.741  1.00  0.00    -0.336 C  
HETATM    6  H   UNL     1      -9.028  17.315  67.048  1.00  0.00     0.000 HD 
ENDROOT
BRANCH   3   7
HETATM    7  C   UNL     1     -10.466  17.532  65.587  1.00  0.00    -0.149 C  
BRANCH   7   8
HETATM    8  C   UNL     1     -10.882  16.082  65.952  1.00  0.00    -0.207 C  
HETATM    9  H   UNL     1     -10.308  14.268  65.465  1.00  0.00     0.000 HD 
HETATM   10  O   UNL     1     -10.053  15.155  65.241  1.00  0.00    -0.348 OA 
BRANCH   8  11
HETATM   11  C   UNL     1     -10.772  15.865  67.452  1.00  0.00    -0.313 A  
HETATM   12  C   UNL     1      -9.563  15.417  68.013  1.00  0.00    -0.206 A  
HETATM   13  C   UNL     1      -9.484  15.146  69.381  1.00  0.00    -0.183 A  
HETATM   14  C   UNL     1     -10.585  15.312  70.214  1.00  0.00    -0.257 A  
HETATM   15  O   UNL     1      -8.329  14.695  69.950  1.00  0.00    -0.359 OA 
HETATM   16  H   UNL     1      -8.276  14.511  70.880  1.00  0.00     0.000 HD 
HETATM   17  C   UNL     1     -11.776  15.765  69.662  1.00  0.00    -0.355 A  
HETATM   18  O   UNL     1     -12.890  15.944  70.428  1.00  0.00    -0.601 OA 
HETATM   19  C   UNL     1     -11.878  16.047  68.303  1.00  0.00     0.001 A  
HETATM   20  H   UNL     1     -13.706  16.254  70.051  1.00  0.00     0.000 HD 
ENDBRANCH   8  11
ENDBRANCH   7   8
ENDBRANCH   3   7
TORSDOF 3
ENDMDL
MODEL      182
REMARK 921   NORMALIZED FREE ENERGY PREDICTED BY IDOCK:   -3.91 KCAL/MOL
REMARK 922        TOTAL FREE ENERGY PREDICTED BY IDOCK:   -4.89 KCAL/MOL
REMARK 923 INTER-LIGAND FREE ENERGY PREDICTED BY IDOCK:   -4.66 KCAL/MOL
REMARK 924 INTRA-LIGAND FREE ENERGY PREDICTED BY IDOCK:   -0.23 KCAL/MOL
REMARK 927      BINDING AFFINITY PREDICTED BY RF-SCORE:    0.00 PKD
ROOT
HETATM    1  C   UNL     1     -10.581   7.654  73.181  1.00  0.00    -0.438 C  
HETATM    2  C   UNL     1     -10.735   6.921  71.837  1.00  0.00    -0.218 C  
HETATM    3  N   UNL     1     -11.649   7.620  70.912  1.00  0.00    -0.283 NA 
HETATM    4  C   UNL     1      -9.354   6.713  71.192  1.00  0.00    -0.164 C  
HETATM    5  C   UNL     1     -11.345   5.534  72.118  1.00  0.00    -0.214 C  
HETATM    6  H   UNL     1     -12.600   7.612  71.281  1.00  0.00     0.000 HD 
ENDROOT
BRANCH   3   7
HETATM    7  C   UNL     1     -11.250   8.996  70.567  1.00  0.00    -0.260 C  
BRANCH   7   8
HETATM    8  C   UNL     1     -12.332  10.050  70.920  1.00  0.00    -0.341 C  
HETATM    9  H   UNL     1     -12.953  10.969  72.542  1.00  0.00     0.000 HD 
HETATM   10  O   UNL     1     -12.290  10.324  72.325  1.00  0.00    -0.012 OA 
BRANCH   8  11
HETATM   11  C   UNL     1     -12.112  11.321  70.115  1.00  0.00    -0.448 A  
HETATM   12  C   UNL     1     -11.630  11.245  68.796  1.00  0.00    -0.383 A  
HETATM   13  C   UNL     1     -11.357  12.414  68.082  1.00  0.00    -0.291 A  
HETATM   14  C   UNL     1     -11.554  13.668  68.650  1.00  0.00    -0.364 A  
HETATM   15  O   UNL     1     -10.873  12.372  66.808  1.00  0.00    -0.237 OA 
HETATM   16  H   UNL     1     -10.687  13.167  66.323  1.00  0.00     0.000 HD 
HETATM   17  C   UNL     1     -12.041  13.743  69.949  1.00  0.00    -0.348 A  
HETATM   18  O   UNL     1     -12.251  14.944  70.560  1.00  0.00    -0.286 OA 
HETATM   19  C   UNL     1     -12.325  12.592  70.678  1.00  0.00    -0.375 A  
HETATM   20  H   UNL     1     -12.584  14.996  71.448  1.00  0.00     0.000 HD 
ENDBRANCH   8  11
ENDBRANCH   7   8
ENDBRANCH   3   7
TORSDOF 3
ENDMDL
MODEL      183
REMARK 921   NORMALIZED FREE ENERGY PREDICTED BY IDOCK:   -3.90 KCAL/MOL
REMARK 922        TOTAL FREE ENERGY PREDICTED BY IDOCK:   -4.88 KCAL/MOL
REMARK 923 INTER-LIGAND FREE ENERGY PREDICTED BY IDOCK:   -4.79 KCAL/MOL
REMARK 924 INTRA-LIGAND FREE ENERGY PREDICTED BY IDOCK:   -0.09 KCAL/MOL
REMARK 927      BINDING AFFINITY PREDICTED BY RF-SCORE:    0.00 PKD
ROOT
HETATM    1  C   UNL     1      -9.487   6.330  71.417  1.00  0.00    -0.167 C  
HETATM    2  C   UNL     1     -10.497   7.217  72.165  1.00  0.00    -0.206 C  
HETATM    3  N   UNL     1     -10.161   8.653  72.083  1.00  0.00    -0.320 NA 
HETATM    4  C   UNL     1     -11.917   6.955  71.635  1.00  0.00    -0.379 C  
HETATM    5  C   UNL     1     -10.463   6.825  73.655  1.00  0.00    -0.374 C  
HETATM    6  H   UNL     1      -9.289   8.840  72.579  1.00  0.00     0.000 HD 
ENDROOT
BRANCH   3   7
HETATM    7  C   UNL     1     -10.095   9.197  70.716  1.00  0.00    -0.268 C  
BRANCH   7   8
HETATM    8  C   UNL     1     -11.414   9.883  70.271  1.00  0.00    -0.281 C  
HETATM    9  H   UNL     1     -12.653  11.213  71.016  1.00  0.00     0.000 HD 
HETATM   10  O   UNL     1     -11.845  10.793  71.289  1.00  0.00    -0.268 OA 
BRANCH   8  11
HETATM   11  C   UNL     1     -11.211  10.607  68.950  1.00  0.00    -0.333 A  
HETATM   12  C   UNL     1     -11.805  11.864  68.736  1.00  0.00    -0.371 A  
HETATM   13  C   UNL     1     -11.680  12.495  67.495  1.00  0.00    -0.374 A  
HETATM   14  C   UNL     1     -10.973  11.905  66.454  1.00  0.00    -0.337 A  
HETATM   15  O   UNL     1     -12.260  13.706  67.253  1.00  0.00    -0.366 OA 
HETATM   16  H   UNL     1     -12.175  14.134  66.410  1.00  0.00     0.000 HD 
HETATM   17  C   UNL     1     -10.376  10.669  66.669  1.00  0.00    -0.241 A  
HETATM   18  O   UNL     1      -9.672  10.040  65.684  1.00  0.00    -0.230 OA 
HETATM   19  C   UNL     1     -10.482  10.023  67.897  1.00  0.00    -0.276 A  
HETATM   20  H   UNL     1      -9.264   9.195  65.831  1.00  0.00     0.000 HD 
ENDBRANCH   8  11
ENDBRANCH   7   8
ENDBRANCH   3   7
TORSDOF 3
ENDMDL
MODEL      184
REMARK 921   NORMALIZED FREE ENERGY PREDICTED BY IDOCK:   -3.90 KCAL/MOL
REMARK 922        TOTAL FREE ENERGY PREDICTED BY IDOCK:   -4.87 KCAL/MOL
REMARK 923 INTER-LIGAND FREE ENERGY PREDICTED BY IDOCK:   -4.46 KCAL/MOL
REMARK 924 INTRA-LIGAND FREE ENERGY PREDICTED BY IDOCK:   -0.41 KCAL/MOL
REMARK 927      BINDING AFFINITY PREDICTED BY RF-SCORE:    0.00 PKD
ROOT
HETATM    1  C   UNL     1     -10.575   7.061  66.982  1.00  0.00    -0.412 C  
HETATM    2  C   UNL     1      -9.295   7.867  66.704  1.00  0.00    -0.193 C  
HETATM    3  N   UNL     1      -9.509   8.953  65.726  1.00  0.00    -0.379 NA 
HETATM    4  C   UNL     1      -8.727   8.420  68.023  1.00  0.00    -0.139 C  
HETATM    5  C   UNL     1      -8.251   6.909  66.099  1.00  0.00    -0.121 C  
HETATM    6  H   UNL     1      -9.731   8.564  64.810  1.00  0.00     0.000 HD 
ENDROOT
BRANCH   3   7
HETATM    7  C   UNL     1     -10.523   9.947  66.116  1.00  0.00    -0.074 C  
BRANCH   7   8
HETATM    8  C   UNL     1      -9.954  11.387  66.224  1.00  0.00    -0.224 C  
HETATM    9  H   UNL     1      -9.779  12.945  65.041  1.00  0.00     0.000 HD 
HETATM   10  O   UNL     1     -10.128  12.064  64.974  1.00  0.00    -0.260 OA 
BRANCH   8  11
HETATM   11  C   UNL     1     -10.643  12.142  67.349  1.00  0.00    -0.253 A  
HETATM   12  C   UNL     1     -10.915  11.497  68.570  1.00  0.00    -0.268 A  
HETATM   13  C   UNL     1     -11.615  12.168  69.575  1.00  0.00    -0.315 A  
HETATM   14  C   UNL     1     -12.055  13.476  69.399  1.00  0.00    -0.340 A  
HETATM   15  O   UNL     1     -11.907  11.563  70.762  1.00  0.00    -0.417 OA 
HETATM   16  H   UNL     1     -12.383  12.019  71.445  1.00  0.00     0.000 HD 
HETATM   17  C   UNL     1     -11.777  14.117  68.198  1.00  0.00    -0.355 A  
HETATM   18  O   UNL     1     -12.185  15.397  67.966  1.00  0.00    -0.407 OA 
HETATM   19  C   UNL     1     -11.076  13.471  67.183  1.00  0.00    -0.308 A  
HETATM   20  H   UNL     1     -11.995  15.836  67.145  1.00  0.00     0.000 HD 
ENDBRANCH   8  11
ENDBRANCH   7   8
ENDBRANCH   3   7
TORSDOF 3
ENDMDL
MODEL      185
REMARK 921   NORMALIZED FREE ENERGY PREDICTED BY IDOCK:   -3.90 KCAL/MOL
REMARK 922        TOTAL FREE ENERGY PREDICTED BY IDOCK:   -4.87 KCAL/MOL
REMARK 923 INTER-LIGAND FREE ENERGY PREDICTED BY IDOCK:   -4.57 KCAL/MOL
REMARK 924 INTRA-LIGAND FREE ENERGY PREDICTED BY IDOCK:   -0.31 KCAL/MOL
REMARK 927      BINDING AFFINITY PREDICTED BY RF-SCORE:    0.00 PKD
ROOT
HETATM    1  C   UNL     1     -11.436  16.696  68.522  1.00  0.00    -0.043 C  
HETATM    2  C   UNL     1     -11.440  15.407  69.362  1.00  0.00    -0.324 C  
HETATM    3  N   UNL     1     -11.564  14.191  68.534  1.00  0.00    -0.296 NA 
HETATM    4  C   UNL     1     -10.176  15.348  70.237  1.00  0.00    -0.134 C  
HETATM    5  C   UNL     1     -12.665  15.450  70.295  1.00  0.00    -0.338 C  
HETATM    6  H   UNL     1     -12.477  14.164  68.081  1.00  0.00     0.000 HD 
ENDROOT
BRANCH   3   7
HETATM    7  C   UNL     1     -10.496  14.008  67.536  1.00  0.00    -0.252 C  
BRANCH   7   8
HETATM    8  C   UNL     1     -11.038  13.726  66.110  1.00  0.00    -0.296 C  
HETATM    9  H   UNL     1     -11.171  14.709  64.414  1.00  0.00     0.000 HD 
HETATM   10  O   UNL     1     -10.839  14.882  65.287  1.00  0.00    -0.334 OA 
BRANCH   8  11
HETATM   11  C   UNL     1     -10.343  12.512  65.513  1.00  0.00    -0.303 A  
HETATM   12  C   UNL     1      -9.329  11.855  66.234  1.00  0.00    -0.234 A  
HETATM   13  C   UNL     1      -8.640  10.787  65.655  1.00  0.00    -0.180 A  
HETATM   14  C   UNL     1      -8.935  10.349  64.369  1.00  0.00    -0.247 A  
HETATM   15  O   UNL     1      -7.641  10.141  66.323  1.00  0.00    -0.103 OA 
HETATM   16  H   UNL     1      -7.172   9.416  65.930  1.00  0.00     0.000 HD 
HETATM   17  C   UNL     1      -9.944  10.991  63.661  1.00  0.00    -0.361 A  
HETATM   18  O   UNL     1     -10.276  10.608  62.396  1.00  0.00    -0.743 OA 
HETATM   19  C   UNL     1     -10.648  12.054  64.219  1.00  0.00    -0.377 A  
HETATM   20  H   UNL     1     -10.967  11.047  61.912  1.00  0.00     0.000 HD 
ENDBRANCH   8  11
ENDBRANCH   7   8
ENDBRANCH   3   7
TORSDOF 3
ENDMDL
MODEL      186
REMARK 921   NORMALIZED FREE ENERGY PREDICTED BY IDOCK:   -3.89 KCAL/MOL
REMARK 922        TOTAL FREE ENERGY PREDICTED BY IDOCK:   -4.86 KCAL/MOL
REMARK 923 INTER-LIGAND FREE ENERGY PREDICTED BY IDOCK:   -4.53 KCAL/MOL
REMARK 924 INTRA-LIGAND FREE ENERGY PREDICTED BY IDOCK:   -0.33 KCAL/MOL
REMARK 927      BINDING AFFINITY PREDICTED BY RF-SCORE:    0.00 PKD
ROOT
HETATM    1  C   UNL     1     -10.799  15.711  67.583  1.00  0.00    -0.307 C  
HETATM    2  C   UNL     1     -10.112  15.464  66.230  1.00  0.00    -0.292 C  
HETATM    3  N   UNL     1      -9.852  14.032  65.979  1.00  0.00    -0.359 NA 
HETATM    4  C   UNL     1     -10.952  16.075  65.095  1.00  0.00    -0.360 C  
HETATM    5  C   UNL     1      -8.747  16.177  66.251  1.00  0.00    -0.373 C  
HETATM    6  H   UNL     1      -9.167  13.675  66.645  1.00  0.00     0.000 HD 
ENDROOT
BRANCH   3   7
HETATM    7  C   UNL     1     -11.051  13.175  65.975  1.00  0.00    -0.280 C  
BRANCH   7   8
HETATM    8  C   UNL     1     -10.967  12.018  64.945  1.00  0.00    -0.306 C  
HETATM    9  H   UNL     1     -10.126  11.723  63.194  1.00  0.00     0.000 HD 
HETATM   10  O   UNL     1     -10.177  12.432  63.825  1.00  0.00    -0.409 OA 
BRANCH   8  11
HETATM   11  C   UNL     1     -10.376  10.777  65.594  1.00  0.00    -0.297 A  
HETATM   12  C   UNL     1     -10.794  10.387  66.880  1.00  0.00    -0.229 A  
HETATM   13  C   UNL     1     -10.197   9.290  67.507  1.00  0.00    -0.242 A  
HETATM   14  C   UNL     1      -9.188   8.564  66.884  1.00  0.00    -0.197 A  
HETATM   15  O   UNL     1     -10.569   8.899  68.759  1.00  0.00    -0.276 OA 
HETATM   16  H   UNL     1     -10.163   8.154  69.185  1.00  0.00     0.000 HD 
HETATM   17  C   UNL     1      -8.783   8.942  65.610  1.00  0.00    -0.182 A  
HETATM   18  O   UNL     1      -7.797   8.271  64.950  1.00  0.00    -0.110 OA 
HETATM   19  C   UNL     1      -9.367  10.027  64.962  1.00  0.00    -0.314 A  
HETATM   20  H   UNL     1      -7.520   8.529  64.078  1.00  0.00     0.000 HD 
ENDBRANCH   8  11
ENDBRANCH   7   8
ENDBRANCH   3   7
TORSDOF 3
ENDMDL
MODEL      187
REMARK 921   NORMALIZED FREE ENERGY PREDICTED BY IDOCK:   -3.88 KCAL/MOL
REMARK 922        TOTAL FREE ENERGY PREDICTED BY IDOCK:   -4.86 KCAL/MOL
REMARK 923 INTER-LIGAND FREE ENERGY PREDICTED BY IDOCK:   -4.51 KCAL/MOL
REMARK 924 INTRA-LIGAND FREE ENERGY PREDICTED BY IDOCK:   -0.35 KCAL/MOL
REMARK 927      BINDING AFFINITY PREDICTED BY RF-SCORE:    0.00 PKD
ROOT
HETATM    1  C   UNL     1      -9.491   2.636  70.929  1.00  0.00    -0.221 C  
HETATM    2  C   UNL     1      -9.107   3.986  71.558  1.00  0.00    -0.120 C  
HETATM    3  N   UNL     1      -9.142   5.096  70.583  1.00  0.00    -0.138 NA 
HETATM    4  C   UNL     1     -10.020   4.284  72.760  1.00  0.00    -0.206 C  
HETATM    5  C   UNL     1      -7.659   3.878  72.073  1.00  0.00    -0.066 C  
HETATM    6  H   UNL     1      -8.420   4.966  69.875  1.00  0.00     0.000 HD 
ENDROOT
BRANCH   3   7
HETATM    7  C   UNL     1     -10.450   5.317  69.942  1.00  0.00    -0.281 C  
BRANCH   7   8
HETATM    8  C   UNL     1     -10.486   6.594  69.061  1.00  0.00    -0.214 C  
HETATM    9  H   UNL     1     -11.283   7.120  67.344  1.00  0.00     0.000 HD 
HETATM   10  O   UNL     1     -11.261   6.338  67.883  1.00  0.00    -0.323 OA 
BRANCH   8  11
HETATM   11  C   UNL     1     -11.066   7.759  69.846  1.00  0.00    -0.142 A  
HETATM   12  C   UNL     1     -10.780   9.082  69.459  1.00  0.00    -0.215 A  
HETATM   13  C   UNL     1     -11.250  10.152  70.224  1.00  0.00    -0.318 A  
HETATM   14  C   UNL     1     -12.005   9.941  71.373  1.00  0.00    -0.489 A  
HETATM   15  O   UNL     1     -10.975  11.443  69.884  1.00  0.00    -0.460 OA 
HETATM   16  H   UNL     1     -11.295  12.171  70.404  1.00  0.00     0.000 HD 
HETATM   17  C   UNL     1     -12.298   8.635  71.748  1.00  0.00    -0.346 A  
HETATM   18  O   UNL     1     -13.031   8.366  72.865  1.00  0.00    -0.655 OA 
HETATM   19  C   UNL     1     -11.844   7.553  70.999  1.00  0.00    -0.319 A  
HETATM   20  H   UNL     1     -13.231   7.473  73.122  1.00  0.00     0.000 HD 
ENDBRANCH   8  11
ENDBRANCH   7   8
ENDBRANCH   3   7
TORSDOF 3
ENDMDL
MODEL      188
REMARK 921   NORMALIZED FREE ENERGY PREDICTED BY IDOCK:   -3.88 KCAL/MOL
REMARK 922        TOTAL FREE ENERGY PREDICTED BY IDOCK:   -4.86 KCAL/MOL
REMARK 923 INTER-LIGAND FREE ENERGY PREDICTED BY IDOCK:   -4.55 KCAL/MOL
REMARK 924 INTRA-LIGAND FREE ENERGY PREDICTED BY IDOCK:   -0.30 KCAL/MOL
REMARK 927      BINDING AFFINITY PREDICTED BY RF-SCORE:    0.00 PKD
ROOT
HETATM    1  C   UNL     1      -9.506  11.477  68.405  1.00  0.00    -0.195 C  
HETATM    2  C   UNL     1      -8.255  12.119  67.783  1.00  0.00    -0.154 C  
HETATM    3  N   UNL     1      -8.545  13.413  67.132  1.00  0.00    -0.265 NA 
HETATM    4  C   UNL     1      -7.160  12.276  68.852  1.00  0.00    -0.088 C  
HETATM    5  C   UNL     1      -7.724  11.170  66.692  1.00  0.00    -0.155 C  
HETATM    6  H   UNL     1      -9.149  13.273  66.323  1.00  0.00     0.000 HD 
ENDROOT
BRANCH   3   7
HETATM    7  C   UNL     1      -9.115  14.440  68.021  1.00  0.00    -0.188 C  
BRANCH   7   8
HETATM    8  C   UNL     1      -8.337  15.782  67.977  1.00  0.00    -0.152 C  
HETATM    9  H   UNL     1      -6.576  16.390  67.354  1.00  0.00     0.000 HD 
HETATM   10  O   UNL     1      -7.052  15.569  67.381  1.00  0.00    -0.175 OA 
BRANCH   8  11
HETATM   11  C   UNL     1      -9.127  16.823  67.201  1.00  0.00    -0.224 A  
HETATM   12  C   UNL     1      -9.208  18.145  67.677  1.00  0.00    -0.259 A  
HETATM   13  C   UNL     1      -9.995  19.083  67.004  1.00  0.00    -0.342 A  
HETATM   14  C   UNL     1     -10.708  18.740  65.861  1.00  0.00    -0.323 A  
HETATM   15  O   UNL     1     -10.107  20.367  67.451  1.00  0.00    -0.417 OA 
HETATM   16  H   UNL     1     -10.642  21.005  66.994  1.00  0.00     0.000 HD 
HETATM   17  C   UNL     1     -10.618  17.438  65.385  1.00  0.00    -0.034 A  
HETATM   18  O   UNL     1     -11.296  17.042  64.270  1.00  0.00    -1.233 OA 
HETATM   19  C   UNL     1      -9.837  16.487  66.034  1.00  0.00    -0.348 A  
HETATM   20  H   UNL     1     -11.235  16.151  63.944  1.00  0.00     0.000 HD 
ENDBRANCH   8  11
ENDBRANCH   7   8
ENDBRANCH   3   7
TORSDOF 3
ENDMDL
MODEL      189
REMARK 921   NORMALIZED FREE ENERGY PREDICTED BY IDOCK:   -3.87 KCAL/MOL
REMARK 922        TOTAL FREE ENERGY PREDICTED BY IDOCK:   -4.85 KCAL/MOL
REMARK 923 INTER-LIGAND FREE ENERGY PREDICTED BY IDOCK:   -4.52 KCAL/MOL
REMARK 924 INTRA-LIGAND FREE ENERGY PREDICTED BY IDOCK:   -0.33 KCAL/MOL
REMARK 927      BINDING AFFINITY PREDICTED BY RF-SCORE:    0.00 PKD
ROOT
HETATM    1  C   UNL     1     -10.562  13.630  64.473  1.00  0.00    -0.428 C  
HETATM    2  C   UNL     1     -11.704  12.890  65.189  1.00  0.00    -0.349 C  
HETATM    3  N   UNL     1     -11.213  11.865  66.132  1.00  0.00    -0.332 NA 
HETATM    4  C   UNL     1     -12.617  13.901  65.904  1.00  0.00    -0.498 C  
HETATM    5  C   UNL     1     -12.543  12.162  64.121  1.00  0.00    -0.466 C  
HETATM    6  H   UNL     1     -10.744  11.115  65.624  1.00  0.00     0.000 HD 
ENDROOT
BRANCH   3   7
HETATM    7  C   UNL     1     -10.341  12.376  67.204  1.00  0.00    -0.219 C  
BRANCH   7   8
HETATM    8  C   UNL     1     -10.845  12.007  68.625  1.00  0.00    -0.237 C  
HETATM    9  H   UNL     1     -12.549  11.464  69.438  1.00  0.00     0.000 HD 
HETATM   10  O   UNL     1     -12.241  11.690  68.568  1.00  0.00    -0.485 OA 
BRANCH   8  11
HETATM   11  C   UNL     1     -10.048  10.837  69.178  1.00  0.00    -0.224 A  
HETATM   12  C   UNL     1     -10.611  10.002  70.161  1.00  0.00    -0.350 A  
HETATM   13  C   UNL     1      -9.851   8.973  70.723  1.00  0.00    -0.243 A  
HETATM   14  C   UNL     1      -8.536   8.750  70.331  1.00  0.00    -0.176 A  
HETATM   15  O   UNL     1     -10.364   8.159  71.689  1.00  0.00    -0.204 OA 
HETATM   16  H   UNL     1      -9.848   7.460  72.072  1.00  0.00     0.000 HD 
HETATM   17  C   UNL     1      -7.984   9.567  69.352  1.00  0.00    -0.099 A  
HETATM   18  O   UNL     1      -6.699   9.398  68.929  1.00  0.00    -0.051 OA 
HETATM   19  C   UNL     1      -8.722  10.595  68.773  1.00  0.00    -0.157 A  
HETATM   20  H   UNL     1      -6.321   9.957  68.260  1.00  0.00     0.000 HD 
ENDBRANCH   8  11
ENDBRANCH   7   8
ENDBRANCH   3   7
TORSDOF 3
ENDMDL
MODEL      190
REMARK 921   NORMALIZED FREE ENERGY PREDICTED BY IDOCK:   -3.85 KCAL/MOL
REMARK 922        TOTAL FREE ENERGY PREDICTED BY IDOCK:   -4.82 KCAL/MOL
REMARK 923 INTER-LIGAND FREE ENERGY PREDICTED BY IDOCK:   -4.37 KCAL/MOL
REMARK 924 INTRA-LIGAND FREE ENERGY PREDICTED BY IDOCK:   -0.44 KCAL/MOL
REMARK 927      BINDING AFFINITY PREDICTED BY RF-SCORE:    0.00 PKD
ROOT
HETATM    1  C   UNL     1      -7.953   9.261  67.115  1.00  0.00    -0.106 C  
HETATM    2  C   UNL     1      -8.723   8.848  65.849  1.00  0.00    -0.170 C  
HETATM    3  N   UNL     1      -9.465   7.583  66.024  1.00  0.00    -0.409 NA 
HETATM    4  C   UNL     1      -9.669   9.982  65.416  1.00  0.00    -0.368 C  
HETATM    5  C   UNL     1      -7.699   8.623  64.720  1.00  0.00    -0.108 C  
HETATM    6  H   UNL     1      -8.814   6.808  66.153  1.00  0.00     0.000 HD 
ENDROOT
BRANCH   3   7
HETATM    7  C   UNL     1     -10.464   7.594  67.107  1.00  0.00    -0.342 C  
BRANCH   7   8
HETATM    8  C   UNL     1     -10.278   6.431  68.117  1.00  0.00    -0.167 C  
HETATM    9  H   UNL     1      -8.831   5.206  68.633  1.00  0.00     0.000 HD 
HETATM   10  O   UNL     1      -8.945   5.918  68.015  1.00  0.00    -0.119 OA 
BRANCH   8  11
HETATM   11  C   UNL     1     -10.565   6.911  69.531  1.00  0.00    -0.261 A  
HETATM   12  C   UNL     1      -9.644   7.742  70.194  1.00  0.00    -0.168 A  
HETATM   13  C   UNL     1      -9.872   8.122  71.519  1.00  0.00    -0.179 A  
HETATM   14  C   UNL     1     -11.001   7.695  72.208  1.00  0.00    -0.328 A  
HETATM   15  O   UNL     1      -8.988   8.914  72.192  1.00  0.00    -0.381 OA 
HETATM   16  H   UNL     1      -9.143   9.172  73.093  1.00  0.00     0.000 HD 
HETATM   17  C   UNL     1     -11.917   6.884  71.550  1.00  0.00    -0.344 A  
HETATM   18  O   UNL     1     -13.042   6.432  72.174  1.00  0.00    -0.494 OA 
HETATM   19  C   UNL     1     -11.715   6.496  70.228  1.00  0.00    -0.430 A  
HETATM   20  H   UNL     1     -13.668   5.876  71.724  1.00  0.00     0.000 HD 
ENDBRANCH   8  11
ENDBRANCH   7   8
ENDBRANCH   3   7
TORSDOF 3
ENDMDL
MODEL      191
REMARK 921   NORMALIZED FREE ENERGY PREDICTED BY IDOCK:   -3.84 KCAL/MOL
REMARK 922        TOTAL FREE ENERGY PREDICTED BY IDOCK:   -4.81 KCAL/MOL
REMARK 923 INTER-LIGAND FREE ENERGY PREDICTED BY IDOCK:   -4.55 KCAL/MOL
REMARK 924 INTRA-LIGAND FREE ENERGY PREDICTED BY IDOCK:   -0.26 KCAL/MOL
REMARK 927      BINDING AFFINITY PREDICTED BY RF-SCORE:    0.00 PKD
ROOT
HETATM    1  C   UNL     1      -6.559  18.261  69.175  1.00  0.00    -0.265 C  
HETATM    2  C   UNL     1      -6.436  16.738  68.999  1.00  0.00    -0.195 C  
HETATM    3  N   UNL     1      -7.749  16.065  68.941  1.00  0.00    -0.182 NA 
HETATM    4  C   UNL     1      -5.601  16.420  67.746  1.00  0.00    -0.151 C  
HETATM    5  C   UNL     1      -5.689  16.175  70.224  1.00  0.00    -0.149 C  
HETATM    6  H   UNL     1      -8.227  16.147  69.838  1.00  0.00     0.000 HD 
ENDROOT
BRANCH   3   7
HETATM    7  C   UNL     1      -8.630  16.517  67.851  1.00  0.00    -0.183 C  
BRANCH   7   8
HETATM    8  C   UNL     1     -10.122  16.158  68.086  1.00  0.00    -0.237 C  
HETATM    9  H   UNL     1     -11.839  17.110  68.062  1.00  0.00     0.000 HD 
HETATM   10  O   UNL     1     -10.927  17.330  67.918  1.00  0.00    -0.336 OA 
BRANCH   8  11
HETATM   11  C   UNL     1     -10.556  15.062  67.125  1.00  0.00    -0.295 A  
HETATM   12  C   UNL     1     -11.905  14.957  66.740  1.00  0.00    -0.187 A  
HETATM   13  C   UNL     1     -12.318  13.907  65.917  1.00  0.00    -0.483 A  
HETATM   14  C   UNL     1     -11.418  12.950  65.462  1.00  0.00    -0.361 A  
HETATM   15  O   UNL     1     -13.622  13.769  65.541  1.00  0.00    -0.511 OA 
HETATM   16  H   UNL     1     -13.903  13.055  64.982  1.00  0.00     0.000 HD 
HETATM   17  C   UNL     1     -10.083  13.060  65.833  1.00  0.00    -0.288 A  
HETATM   18  O   UNL     1      -9.155  12.151  65.420  1.00  0.00    -0.426 OA 
HETATM   19  C   UNL     1      -9.647  14.101  66.647  1.00  0.00    -0.301 A  
HETATM   20  H   UNL     1      -8.242  12.226  65.674  1.00  0.00     0.000 HD 
ENDBRANCH   8  11
ENDBRANCH   7   8
ENDBRANCH   3   7
TORSDOF 3
ENDMDL
MODEL      192
REMARK 921   NORMALIZED FREE ENERGY PREDICTED BY IDOCK:   -3.83 KCAL/MOL
REMARK 922        TOTAL FREE ENERGY PREDICTED BY IDOCK:   -4.80 KCAL/MOL
REMARK 923 INTER-LIGAND FREE ENERGY PREDICTED BY IDOCK:   -4.43 KCAL/MOL
REMARK 924 INTRA-LIGAND FREE ENERGY PREDICTED BY IDOCK:   -0.37 KCAL/MOL
REMARK 927      BINDING AFFINITY PREDICTED BY RF-SCORE:    0.00 PKD
ROOT
HETATM    1  C   UNL     1      -7.434  10.154  65.738  1.00  0.00    -0.131 C  
HETATM    2  C   UNL     1      -8.966  10.041  65.667  1.00  0.00    -0.172 C  
HETATM    3  N   UNL     1      -9.474   8.814  66.314  1.00  0.00    -0.216 NA 
HETATM    4  C   UNL     1      -9.614  11.293  66.281  1.00  0.00    -0.235 C  
HETATM    5  C   UNL     1      -9.371   9.973  64.182  1.00  0.00    -0.335 C  
HETATM    6  H   UNL     1      -9.165   7.990  65.799  1.00  0.00     0.000 HD 
ENDROOT
BRANCH   3   7
HETATM    7  C   UNL     1      -9.135   8.679  67.741  1.00  0.00    -0.135 C  
BRANCH   7   8
HETATM    8  C   UNL     1     -10.091   7.726  68.506  1.00  0.00    -0.199 C  
HETATM    9  H   UNL     1      -9.930   6.041  69.503  1.00  0.00     0.000 HD 
HETATM   10  O   UNL     1      -9.344   6.625  69.035  1.00  0.00    -0.135 OA 
BRANCH   8  11
HETATM   11  C   UNL     1     -10.805   8.478  69.618  1.00  0.00    -0.157 A  
HETATM   12  C   UNL     1     -11.434   7.769  70.658  1.00  0.00    -0.259 A  
HETATM   13  C   UNL     1     -12.153   8.457  71.638  1.00  0.00    -0.313 A  
HETATM   14  C   UNL     1     -12.263   9.843  71.613  1.00  0.00    -0.482 A  
HETATM   15  O   UNL     1     -12.787   7.796  72.649  1.00  0.00    -0.518 OA 
HETATM   16  H   UNL     1     -13.276   8.263  73.315  1.00  0.00     0.000 HD 
HETATM   17  C   UNL     1     -11.633  10.544  70.593  1.00  0.00    -0.352 A  
HETATM   18  O   UNL     1     -11.708  11.903  70.514  1.00  0.00    -0.508 OA 
HETATM   19  C   UNL     1     -10.906   9.882  69.608  1.00  0.00    -0.281 A  
HETATM   20  H   UNL     1     -11.276  12.383  69.817  1.00  0.00     0.000 HD 
ENDBRANCH   8  11
ENDBRANCH   7   8
ENDBRANCH   3   7
TORSDOF 3
ENDMDL
MODEL      193
REMARK 921   NORMALIZED FREE ENERGY PREDICTED BY IDOCK:   -3.79 KCAL/MOL
REMARK 922        TOTAL FREE ENERGY PREDICTED BY IDOCK:   -4.75 KCAL/MOL
REMARK 923 INTER-LIGAND FREE ENERGY PREDICTED BY IDOCK:   -4.29 KCAL/MOL
REMARK 924 INTRA-LIGAND FREE ENERGY PREDICTED BY IDOCK:   -0.46 KCAL/MOL
REMARK 927      BINDING AFFINITY PREDICTED BY RF-SCORE:    0.00 PKD
ROOT
HETATM    1  C   UNL     1     -10.731   6.007  66.928  1.00  0.00    -0.407 C  
HETATM    2  C   UNL     1      -9.423   6.612  67.464  1.00  0.00    -0.126 C  
HETATM    3  N   UNL     1      -9.435   8.089  67.455  1.00  0.00    -0.146 NA 
HETATM    4  C   UNL     1      -9.137   6.075  68.877  1.00  0.00    -0.121 C  
HETATM    5  C   UNL     1      -8.275   6.161  66.540  1.00  0.00    -0.111 C  
HETATM    6  H   UNL     1      -9.465   8.436  66.496  1.00  0.00     0.000 HD 
ENDROOT
BRANCH   3   7
HETATM    7  C   UNL     1     -10.510   8.706  68.252  1.00  0.00    -0.184 C  
BRANCH   7   8
HETATM    8  C   UNL     1      -9.981   9.492  69.480  1.00  0.00    -0.194 C  
HETATM    9  H   UNL     1     -10.176  11.309  70.203  1.00  0.00     0.000 HD 
HETATM   10  O   UNL     1     -10.499  10.827  69.451  1.00  0.00    -0.218 OA 
BRANCH   8  11
HETATM   11  C   UNL     1     -10.377   8.787  70.767  1.00  0.00    -0.264 A  
HETATM   12  C   UNL     1      -9.470   8.715  71.840  1.00  0.00    -0.369 A  
HETATM   13  C   UNL     1      -9.806   8.003  72.994  1.00  0.00    -0.282 A  
HETATM   14  C   UNL     1     -11.032   7.356  73.112  1.00  0.00    -0.408 A  
HETATM   15  O   UNL     1      -8.941   7.902  74.043  1.00  0.00    -0.331 OA 
HETATM   16  H   UNL     1      -9.169   7.418  74.828  1.00  0.00     0.000 HD 
HETATM   17  C   UNL     1     -11.932   7.436  72.057  1.00  0.00    -0.297 A  
HETATM   18  O   UNL     1     -13.147   6.820  72.113  1.00  0.00    -0.548 OA 
HETATM   19  C   UNL     1     -11.622   8.144  70.899  1.00  0.00    -0.283 A  
HETATM   20  H   UNL     1     -13.763   6.875  71.391  1.00  0.00     0.000 HD 
ENDBRANCH   8  11
ENDBRANCH   7   8
ENDBRANCH   3   7
TORSDOF 3
ENDMDL
MODEL      194
REMARK 921   NORMALIZED FREE ENERGY PREDICTED BY IDOCK:   -3.77 KCAL/MOL
REMARK 922        TOTAL FREE ENERGY PREDICTED BY IDOCK:   -4.73 KCAL/MOL
REMARK 923 INTER-LIGAND FREE ENERGY PREDICTED BY IDOCK:   -4.48 KCAL/MOL
REMARK 924 INTRA-LIGAND FREE ENERGY PREDICTED BY IDOCK:   -0.25 KCAL/MOL
REMARK 927      BINDING AFFINITY PREDICTED BY RF-SCORE:    0.00 PKD
ROOT
HETATM    1  C   UNL     1     -11.690   7.701  72.210  1.00  0.00    -0.371 C  
HETATM    2  C   UNL     1     -10.389   7.108  71.643  1.00  0.00    -0.197 C  
HETATM    3  N   UNL     1     -10.436   6.934  70.177  1.00  0.00    -0.203 NA 
HETATM    4  C   UNL     1      -9.191   7.983  72.053  1.00  0.00    -0.229 C  
HETATM    5  C   UNL     1     -10.192   5.711  72.262  1.00  0.00    -0.241 C  
HETATM    6  H   UNL     1     -11.129   6.229  69.928  1.00  0.00     0.000 HD 
ENDROOT
BRANCH   3   7
HETATM    7  C   UNL     1     -10.671   8.171  69.413  1.00  0.00    -0.156 C  
BRANCH   7   8
HETATM    8  C   UNL     1     -10.089   8.118  67.975  1.00  0.00    -0.197 C  
HETATM    9  H   UNL     1     -10.348   7.012  66.372  1.00  0.00     0.000 HD 
HETATM   10  O   UNL     1     -10.704   7.045  67.252  1.00  0.00    -0.281 OA 
BRANCH   8  11
HETATM   11  C   UNL     1     -10.313   9.444  67.267  1.00  0.00    -0.325 A  
HETATM   12  C   UNL     1      -9.627   9.730  66.073  1.00  0.00    -0.296 A  
HETATM   13  C   UNL     1      -9.776  10.978  65.462  1.00  0.00    -0.229 A  
HETATM   14  C   UNL     1     -10.596  11.957  66.011  1.00  0.00    -0.304 A  
HETATM   15  O   UNL     1      -9.110  11.290  64.313  1.00  0.00    -0.371 OA 
HETATM   16  H   UNL     1      -9.211  12.138  63.898  1.00  0.00     0.000 HD 
HETATM   17  C   UNL     1     -11.283  11.670  67.185  1.00  0.00    -0.309 A  
HETATM   18  O   UNL     1     -12.100  12.591  67.771  1.00  0.00    -0.409 OA 
HETATM   19  C   UNL     1     -11.155  10.433  67.808  1.00  0.00    -0.365 A  
HETATM   20  H   UNL     1     -12.570  12.395  68.574  1.00  0.00     0.000 HD 
ENDBRANCH   8  11
ENDBRANCH   7   8
ENDBRANCH   3   7
TORSDOF 3
ENDMDL
MODEL      195
REMARK 921   NORMALIZED FREE ENERGY PREDICTED BY IDOCK:   -3.75 KCAL/MOL
REMARK 922        TOTAL FREE ENERGY PREDICTED BY IDOCK:   -4.70 KCAL/MOL
REMARK 923 INTER-LIGAND FREE ENERGY PREDICTED BY IDOCK:   -4.30 KCAL/MOL
REMARK 924 INTRA-LIGAND FREE ENERGY PREDICTED BY IDOCK:   -0.40 KCAL/MOL
REMARK 927      BINDING AFFINITY PREDICTED BY RF-SCORE:    0.00 PKD
ROOT
HETATM    1  C   UNL     1     -10.517   6.955  71.623  1.00  0.00    -0.224 C  
HETATM    2  C   UNL     1      -9.232   6.681  70.823  1.00  0.00    -0.155 C  
HETATM    3  N   UNL     1      -9.150   7.487  69.589  1.00  0.00    -0.141 NA 
HETATM    4  C   UNL     1      -8.000   6.914  71.714  1.00  0.00    -0.100 C  
HETATM    5  C   UNL     1      -9.242   5.199  70.400  1.00  0.00    -0.193 C  
HETATM    6  H   UNL     1      -9.883   7.209  68.936  1.00  0.00     0.000 HD 
ENDROOT
BRANCH   3   7
HETATM    7  C   UNL     1      -9.181   8.945  69.797  1.00  0.00    -0.165 C  
BRANCH   7   8
HETATM    8  C   UNL     1     -10.043   9.692  68.745  1.00  0.00    -0.179 C  
HETATM    9  H   UNL     1     -11.250   9.194  67.277  1.00  0.00     0.000 HD 
HETATM   10  O   UNL     1     -10.722   8.737  67.921  1.00  0.00    -0.203 OA 
BRANCH   8  11
HETATM   11  C   UNL     1     -11.036  10.612  69.435  1.00  0.00    -0.304 A  
HETATM   12  C   UNL     1     -11.176  11.945  69.008  1.00  0.00    -0.316 A  
HETATM   13  C   UNL     1     -12.033  12.812  69.690  1.00  0.00    -0.288 A  
HETATM   14  C   UNL     1     -12.762  12.385  70.795  1.00  0.00    -0.208 A  
HETATM   15  O   UNL     1     -12.177  14.114  69.310  1.00  0.00    -0.403 OA 
HETATM   16  H   UNL     1     -12.759  14.703  69.773  1.00  0.00     0.000 HD 
HETATM   17  C   UNL     1     -12.633  11.066  71.210  1.00  0.00    -0.412 A  
HETATM   18  O   UNL     1     -13.319  10.590  72.287  1.00  0.00    -0.601 OA 
HETATM   19  C   UNL     1     -11.789  10.182  70.543  1.00  0.00    -0.408 A  
HETATM   20  H   UNL     1     -13.231   9.687  72.571  1.00  0.00     0.000 HD 
ENDBRANCH   8  11
ENDBRANCH   7   8
ENDBRANCH   3   7
TORSDOF 3
ENDMDL
MODEL      196
REMARK 921   NORMALIZED FREE ENERGY PREDICTED BY IDOCK:   -3.70 KCAL/MOL
REMARK 922        TOTAL FREE ENERGY PREDICTED BY IDOCK:   -4.65 KCAL/MOL
REMARK 923 INTER-LIGAND FREE ENERGY PREDICTED BY IDOCK:   -4.37 KCAL/MOL
REMARK 924 INTRA-LIGAND FREE ENERGY PREDICTED BY IDOCK:   -0.28 KCAL/MOL
REMARK 927      BINDING AFFINITY PREDICTED BY RF-SCORE:    0.00 PKD
ROOT
HETATM    1  C   UNL     1     -13.023   9.766  71.715  1.00  0.00    -0.536 C  
HETATM    2  C   UNL     1     -12.256   8.464  71.429  1.00  0.00    -0.302 C  
HETATM    3  N   UNL     1     -11.702   8.420  70.060  1.00  0.00    -0.402 NA 
HETATM    4  C   UNL     1     -11.146   8.267  72.476  1.00  0.00    -0.439 C  
HETATM    5  C   UNL     1     -13.246   7.290  71.556  1.00  0.00    -0.434 C  
HETATM    6  H   UNL     1     -12.457   8.390  69.375  1.00  0.00     0.000 HD 
ENDROOT
BRANCH   3   7
HETATM    7  C   UNL     1     -10.764   9.509  69.736  1.00  0.00    -0.239 C  
BRANCH   7   8
HETATM    8  C   UNL     1     -10.994  10.110  68.324  1.00  0.00    -0.248 C  
HETATM    9  H   UNL     1     -12.254  11.371  67.498  1.00  0.00     0.000 HD 
HETATM   10  O   UNL     1     -12.113  11.003  68.363  1.00  0.00    -0.594 OA 
BRANCH   8  11
HETATM   11  C   UNL     1      -9.743  10.831  67.848  1.00  0.00    -0.181 A  
HETATM   12  C   UNL     1      -8.853  10.191  66.966  1.00  0.00    -0.144 A  
HETATM   13  C   UNL     1      -7.667  10.824  66.588  1.00  0.00    -0.141 A  
HETATM   14  C   UNL     1      -7.339  12.088  67.066  1.00  0.00    -0.097 A  
HETATM   15  O   UNL     1      -6.777  10.221  65.748  1.00  0.00    -0.106 OA 
HETATM   16  H   UNL     1      -5.970  10.651  65.491  1.00  0.00     0.000 HD 
HETATM   17  C   UNL     1      -8.223  12.725  67.928  1.00  0.00    -0.168 A  
HETATM   18  O   UNL     1      -7.955  13.963  68.432  1.00  0.00    -0.133 OA 
HETATM   19  C   UNL     1      -9.414  12.116  68.315  1.00  0.00    -0.204 A  
HETATM   20  H   UNL     1      -8.560  14.399  69.021  1.00  0.00     0.000 HD 
ENDBRANCH   8  11
ENDBRANCH   7   8
ENDBRANCH   3   7
TORSDOF 3
ENDMDL
MODEL      197
REMARK 921   NORMALIZED FREE ENERGY PREDICTED BY IDOCK:   -3.70 KCAL/MOL
REMARK 922        TOTAL FREE ENERGY PREDICTED BY IDOCK:   -4.64 KCAL/MOL
REMARK 923 INTER-LIGAND FREE ENERGY PREDICTED BY IDOCK:   -4.36 KCAL/MOL
REMARK 924 INTRA-LIGAND FREE ENERGY PREDICTED BY IDOCK:   -0.28 KCAL/MOL
REMARK 927      BINDING AFFINITY PREDICTED BY RF-SCORE:    0.00 PKD
ROOT
HETATM    1  C   UNL     1      -7.913   8.497  70.212  1.00  0.00    -0.103 C  
HETATM    2  C   UNL     1      -9.403   8.386  69.848  1.00  0.00    -0.155 C  
HETATM    3  N   UNL     1      -9.966   9.664  69.368  1.00  0.00    -0.185 NA 
HETATM    4  C   UNL     1      -9.607   7.272  68.807  1.00  0.00    -0.142 C  
HETATM    5  C   UNL     1     -10.177   7.997  71.122  1.00  0.00    -0.225 C  
HETATM    6  H   UNL     1      -9.971  10.352  70.120  1.00  0.00     0.000 HD 
ENDROOT
BRANCH   3   7
HETATM    7  C   UNL     1      -9.309  10.222  68.173  1.00  0.00    -0.139 C  
BRANCH   7   8
HETATM    8  C   UNL     1      -9.056  11.749  68.275  1.00  0.00    -0.187 C  
HETATM    9  H   UNL     1      -7.718  13.022  67.603  1.00  0.00     0.000 HD 
HETATM   10  O   UNL     1      -7.873  12.087  67.541  1.00  0.00    -0.136 OA 
BRANCH   8  11
HETATM   11  C   UNL     1     -10.257  12.518  67.747  1.00  0.00    -0.217 A  
HETATM   12  C   UNL     1     -10.876  12.121  66.548  1.00  0.00    -0.307 A  
HETATM   13  C   UNL     1     -11.932  12.871  66.024  1.00  0.00    -0.446 A  
HETATM   14  C   UNL     1     -12.393  14.014  66.667  1.00  0.00    -0.408 A  
HETATM   15  O   UNL     1     -12.541  12.520  64.855  1.00  0.00    -0.542 OA 
HETATM   16  H   UNL     1     -13.258  13.030  64.499  1.00  0.00     0.000 HD 
HETATM   17  C   UNL     1     -11.789  14.400  67.857  1.00  0.00    -0.349 A  
HETATM   18  O   UNL     1     -12.196  15.513  68.531  1.00  0.00    -0.546 OA 
HETATM   19  C   UNL     1     -10.739  13.666  68.401  1.00  0.00    -0.272 A  
HETATM   20  H   UNL     1     -11.783  15.777  69.345  1.00  0.00     0.000 HD 
ENDBRANCH   8  11
ENDBRANCH   7   8
ENDBRANCH   3   7
TORSDOF 3
ENDMDL
MODEL      198
REMARK 921   NORMALIZED FREE ENERGY PREDICTED BY IDOCK:   -3.69 KCAL/MOL
REMARK 922        TOTAL FREE ENERGY PREDICTED BY IDOCK:   -4.63 KCAL/MOL
REMARK 923 INTER-LIGAND FREE ENERGY PREDICTED BY IDOCK:   -4.19 KCAL/MOL
REMARK 924 INTRA-LIGAND FREE ENERGY PREDICTED BY IDOCK:   -0.44 KCAL/MOL
REMARK 927      BINDING AFFINITY PREDICTED BY RF-SCORE:    0.00 PKD
ROOT
HETATM    1  C   UNL     1     -10.195  13.811  65.246  1.00  0.00    -0.355 C  
HETATM    2  C   UNL     1     -11.388  13.750  66.215  1.00  0.00    -0.321 C  
HETATM    3  N   UNL     1     -11.418  12.499  67.000  1.00  0.00    -0.334 NA 
HETATM    4  C   UNL     1     -11.376  14.978  67.141  1.00  0.00    -0.323 C  
HETATM    5  C   UNL     1     -12.683  13.794  65.380  1.00  0.00    -0.513 C  
HETATM    6  H   UNL     1     -11.588  11.701  66.386  1.00  0.00     0.000 HD 
ENDROOT
BRANCH   3   7
HETATM    7  C   UNL     1     -10.225  12.258  67.829  1.00  0.00    -0.202 C  
BRANCH   7   8
HETATM    8  C   UNL     1      -9.913  10.751  68.023  1.00  0.00    -0.164 C  
HETATM    9  H   UNL     1     -10.938   9.076  68.066  1.00  0.00     0.000 HD 
HETATM   10  O   UNL     1     -11.129   9.998  67.947  1.00  0.00    -0.275 OA 
BRANCH   8  11
HETATM   11  C   UNL     1      -8.920  10.280  66.973  1.00  0.00    -0.147 A  
HETATM   12  C   UNL     1      -7.765  11.037  66.705  1.00  0.00    -0.153 A  
HETATM   13  C   UNL     1      -6.891  10.644  65.688  1.00  0.00    -0.075 A  
HETATM   14  C   UNL     1      -7.136   9.507  64.926  1.00  0.00    -0.107 A  
HETATM   15  O   UNL     1      -5.773  11.367  65.394  1.00  0.00    -0.479 OA 
HETATM   16  H   UNL     1      -5.179  11.100  64.703  1.00  0.00     0.000 HD 
HETATM   17  C   UNL     1      -8.270   8.753  65.198  1.00  0.00    -0.148 A  
HETATM   18  O   UNL     1      -8.564   7.630  64.482  1.00  0.00    -0.374 OA 
HETATM   19  C   UNL     1      -9.153   9.121  66.209  1.00  0.00    -0.222 A  
HETATM   20  H   UNL     1      -9.340   7.114  64.669  1.00  0.00     0.000 HD 
ENDBRANCH   8  11
ENDBRANCH   7   8
ENDBRANCH   3   7
TORSDOF 3
ENDMDL
MODEL      199
REMARK 921   NORMALIZED FREE ENERGY PREDICTED BY IDOCK:   -3.68 KCAL/MOL
REMARK 922        TOTAL FREE ENERGY PREDICTED BY IDOCK:   -4.61 KCAL/MOL
REMARK 923 INTER-LIGAND FREE ENERGY PREDICTED BY IDOCK:   -4.36 KCAL/MOL
REMARK 924 INTRA-LIGAND FREE ENERGY PREDICTED BY IDOCK:   -0.25 KCAL/MOL
REMARK 927      BINDING AFFINITY PREDICTED BY RF-SCORE:    0.00 PKD
ROOT
HETATM    1  C   UNL     1      -9.876  14.911  68.456  1.00  0.00    -0.217 C  
HETATM    2  C   UNL     1      -9.513  15.317  67.018  1.00  0.00    -0.223 C  
HETATM    3  N   UNL     1      -9.431  14.159  66.105  1.00  0.00    -0.467 NA 
HETATM    4  C   UNL     1     -10.520  16.357  66.496  1.00  0.00    -0.282 C  
HETATM    5  C   UNL     1      -8.119  15.974  67.046  1.00  0.00    -0.257 C  
HETATM    6  H   UNL     1      -8.653  13.555  66.370  1.00  0.00     0.000 HD 
ENDROOT
BRANCH   3   7
HETATM    7  C   UNL     1     -10.670  13.371  65.991  1.00  0.00    -0.278 C  
BRANCH   7   8
HETATM    8  C   UNL     1     -10.582  11.993  66.699  1.00  0.00    -0.232 C  
HETATM    9  H   UNL     1     -11.845  10.611  67.295  1.00  0.00     0.000 HD 
HETATM   10  O   UNL     1     -11.899  11.455  66.862  1.00  0.00    -0.489 OA 
BRANCH   8  11
HETATM   11  C   UNL     1      -9.706  11.044  65.897  1.00  0.00    -0.267 A  
HETATM   12  C   UNL     1     -10.038  10.732  64.566  1.00  0.00    -0.415 A  
HETATM   13  C   UNL     1      -9.276   9.803  63.854  1.00  0.00    -0.198 A  
HETATM   14  C   UNL     1      -8.182   9.171  64.434  1.00  0.00    -0.158 A  
HETATM   15  O   UNL     1      -9.585   9.469  62.568  1.00  0.00    -0.566 OA 
HETATM   16  H   UNL     1      -9.067   8.837  62.084  1.00  0.00     0.000 HD 
HETATM   17  C   UNL     1      -7.846   9.487  65.744  1.00  0.00    -0.104 A  
HETATM   18  O   UNL     1      -6.786   8.898  66.367  1.00  0.00    -0.073 OA 
HETATM   19  C   UNL     1      -8.587  10.414  66.473  1.00  0.00    -0.134 A  
HETATM   20  H   UNL     1      -6.557   9.114  67.263  1.00  0.00     0.000 HD 
ENDBRANCH   8  11
ENDBRANCH   7   8
ENDBRANCH   3   7
TORSDOF 3
ENDMDL
MODEL      200
REMARK 921   NORMALIZED FREE ENERGY PREDICTED BY IDOCK:   -3.64 KCAL/MOL
REMARK 922        TOTAL FREE ENERGY PREDICTED BY IDOCK:   -4.57 KCAL/MOL
REMARK 923 INTER-LIGAND FREE ENERGY PREDICTED BY IDOCK:   -4.34 KCAL/MOL
REMARK 924 INTRA-LIGAND FREE ENERGY PREDICTED BY IDOCK:   -0.23 KCAL/MOL
REMARK 927      BINDING AFFINITY PREDICTED BY RF-SCORE:    0.00 PKD
ROOT
HETATM    1  C   UNL     1     -10.768  17.565  65.365  1.00  0.00    -0.008 C  
HETATM    2  C   UNL     1      -9.986  16.683  66.352  1.00  0.00    -0.302 C  
HETATM    3  N   UNL     1      -8.646  17.225  66.658  1.00  0.00    -0.242 NA 
HETATM    4  C   UNL     1     -10.804  16.484  67.640  1.00  0.00    -0.269 C  
HETATM    5  C   UNL     1      -9.780  15.303  65.699  1.00  0.00    -0.360 C  
HETATM    6  H   UNL     1      -8.058  17.203  65.825  1.00  0.00     0.000 HD 
ENDROOT
BRANCH   3   7
HETATM    7  C   UNL     1      -8.643  18.575  67.248  1.00  0.00    -0.262 C  
BRANCH   7   8
HETATM    8  C   UNL     1      -7.224  19.198  67.333  1.00  0.00    -0.209 C  
HETATM    9  H   UNL     1      -6.435  20.984  67.116  1.00  0.00     0.000 HD 
HETATM   10  O   UNL     1      -7.304  20.602  67.064  1.00  0.00    -0.310 OA 
BRANCH   8  11
HETATM   11  C   UNL     1      -6.620  18.944  68.705  1.00  0.00    -0.287 A  
HETATM   12  C   UNL     1      -6.430  20.013  69.600  1.00  0.00    -0.374 A  
HETATM   13  C   UNL     1      -5.806  19.792  70.830  1.00  0.00    -0.247 A  
HETATM   14  C   UNL     1      -5.363  18.526  71.198  1.00  0.00    -0.239 A  
HETATM   15  O   UNL     1      -5.593  20.811  71.711  1.00  0.00    -0.599 OA 
HETATM   16  H   UNL     1      -5.168  20.661  72.547  1.00  0.00     0.000 HD 
HETATM   17  C   UNL     1      -5.561  17.469  70.319  1.00  0.00    -0.236 A  
HETATM   18  O   UNL     1      -5.146  16.206  70.623  1.00  0.00    -0.169 OA 
HETATM   19  C   UNL     1      -6.185  17.663  69.090  1.00  0.00    -0.226 A  
HETATM   20  H   UNL     1      -5.282  15.483  70.022  1.00  0.00     0.000 HD 
ENDBRANCH   8  11
ENDBRANCH   7   8
ENDBRANCH   3   7
TORSDOF 3
ENDMDL
MODEL      201
REMARK 921   NORMALIZED FREE ENERGY PREDICTED BY IDOCK:   -3.61 KCAL/MOL
REMARK 922        TOTAL FREE ENERGY PREDICTED BY IDOCK:   -4.54 KCAL/MOL
REMARK 923 INTER-LIGAND FREE ENERGY PREDICTED BY IDOCK:   -4.27 KCAL/MOL
REMARK 924 INTRA-LIGAND FREE ENERGY PREDICTED BY IDOCK:   -0.26 KCAL/MOL
REMARK 927      BINDING AFFINITY PREDICTED BY RF-SCORE:    0.00 PKD
ROOT
HETATM    1  C   UNL     1     -11.201  15.316  68.528  1.00  0.00    -0.308 C  
HETATM    2  C   UNL     1      -9.752  14.827  68.374  1.00  0.00    -0.214 C  
HETATM    3  N   UNL     1      -9.566  13.442  68.853  1.00  0.00    -0.407 NA 
HETATM    4  C   UNL     1      -9.305  14.965  66.909  1.00  0.00    -0.258 C  
HETATM    5  C   UNL     1      -8.849  15.732  69.236  1.00  0.00    -0.262 C  
HETATM    6  H   UNL     1      -9.711  13.396  69.862  1.00  0.00     0.000 HD 
ENDROOT
BRANCH   3   7
HETATM    7  C   UNL     1     -10.396  12.434  68.173  1.00  0.00    -0.226 C  
BRANCH   7   8
HETATM    8  C   UNL     1     -11.112  11.471  69.156  1.00  0.00    -0.259 C  
HETATM    9  H   UNL     1     -12.969  11.032  69.625  1.00  0.00     0.000 HD 
HETATM   10  O   UNL     1     -12.530  11.621  69.023  1.00  0.00    -0.243 OA 
BRANCH   8  11
HETATM   11  C   UNL     1     -10.693  10.035  68.887  1.00  0.00    -0.243 A  
HETATM   12  C   UNL     1     -10.521   9.588  67.564  1.00  0.00    -0.336 A  
HETATM   13  C   UNL     1     -10.209   8.249  67.313  1.00  0.00    -0.274 A  
HETATM   14  C   UNL     1     -10.060   7.336  68.351  1.00  0.00    -0.188 A  
HETATM   15  O   UNL     1     -10.052   7.783  66.041  1.00  0.00    -0.418 OA 
HETATM   16  H   UNL     1      -9.841   6.873  65.870  1.00  0.00     0.000 HD 
HETATM   17  C   UNL     1     -10.219   7.780  69.658  1.00  0.00    -0.206 A  
HETATM   18  O   UNL     1     -10.088   6.931  70.717  1.00  0.00    -0.194 OA 
HETATM   19  C   UNL     1     -10.525   9.110  69.933  1.00  0.00    -0.239 A  
HETATM   20  H   UNL     1     -10.197   7.235  71.611  1.00  0.00     0.000 HD 
ENDBRANCH   8  11
ENDBRANCH   7   8
ENDBRANCH   3   7
TORSDOF 3
ENDMDL
MODEL      202
REMARK 921   NORMALIZED FREE ENERGY PREDICTED BY IDOCK:   -3.61 KCAL/MOL
REMARK 922        TOTAL FREE ENERGY PREDICTED BY IDOCK:   -4.53 KCAL/MOL
REMARK 923 INTER-LIGAND FREE ENERGY PREDICTED BY IDOCK:   -5.25 KCAL/MOL
REMARK 924 INTRA-LIGAND FREE ENERGY PREDICTED BY IDOCK:    0.71 KCAL/MOL
REMARK 927      BINDING AFFINITY PREDICTED BY RF-SCORE:    0.00 PKD
ROOT
HETATM    1  C   UNL     1      -7.648  17.970  68.181  1.00  0.00    -0.260 C  
HETATM    2  C   UNL     1      -7.590  18.038  66.645  1.00  0.00    -0.233 C  
HETATM    3  N   UNL     1      -8.485  17.057  65.999  1.00  0.00    -0.517 NA 
HETATM    4  C   UNL     1      -7.910  19.467  66.171  1.00  0.00    -0.317 C  
HETATM    5  C   UNL     1      -6.152  17.701  66.207  1.00  0.00    -0.261 C  
HETATM    6  H   UNL     1      -8.166  16.108  66.193  1.00  0.00     0.000 HD 
ENDROOT
BRANCH   3   7
HETATM    7  C   UNL     1      -9.910  17.195  66.346  1.00  0.00    -0.300 C  
BRANCH   7   8
HETATM    8  C   UNL     1     -10.162  17.235  67.877  1.00  0.00    -0.332 C  
HETATM    9  H   UNL     1     -11.103  18.413  69.137  1.00  0.00     0.000 HD 
HETATM   10  O   UNL     1     -10.949  18.388  68.200  1.00  0.00    -0.166 OA 
BRANCH   8  11
HETATM   11  C   UNL     1     -10.858  15.962  68.330  1.00  0.00    -0.315 A  
HETATM   12  C   UNL     1     -11.040  15.707  69.702  1.00  0.00    -0.299 A  
HETATM   13  C   UNL     1     -11.612  14.503  70.120  1.00  0.00    -0.276 A  
HETATM   14  C   UNL     1     -12.012  13.538  69.203  1.00  0.00    -0.378 A  
HETATM   15  O   UNL     1     -11.785  14.222  71.443  1.00  0.00    -0.471 OA 
HETATM   16  H   UNL     1     -12.173  13.403  71.728  1.00  0.00     0.000 HD 
HETATM   17  C   UNL     1     -11.843  13.794  67.848  1.00  0.00    -0.378 A  
HETATM   18  O   UNL     1     -12.214  12.884  66.903  1.00  0.00    -0.407 OA 
HETATM   19  C   UNL     1     -11.281  14.988  67.407  1.00  0.00    -0.337 A  
HETATM   20  H   UNL     1     -12.098  13.059  65.976  1.00  0.00     0.000 HD 
ENDBRANCH   8  11
ENDBRANCH   7   8
ENDBRANCH   3   7
TORSDOF 3
ENDMDL
MODEL      203
REMARK 921   NORMALIZED FREE ENERGY PREDICTED BY IDOCK:   -3.61 KCAL/MOL
REMARK 922        TOTAL FREE ENERGY PREDICTED BY IDOCK:   -4.53 KCAL/MOL
REMARK 923 INTER-LIGAND FREE ENERGY PREDICTED BY IDOCK:   -4.24 KCAL/MOL
REMARK 924 INTRA-LIGAND FREE ENERGY PREDICTED BY IDOCK:   -0.30 KCAL/MOL
REMARK 927      BINDING AFFINITY PREDICTED BY RF-SCORE:    0.00 PKD
ROOT
HETATM    1  C   UNL     1      -9.592  13.990  67.093  1.00  0.00    -0.245 C  
HETATM    2  C   UNL     1     -10.798  13.459  66.299  1.00  0.00    -0.289 C  
HETATM    3  N   UNL     1     -10.735  11.999  66.083  1.00  0.00    -0.265 NA 
HETATM    4  C   UNL     1     -12.106  13.853  67.006  1.00  0.00    -0.451 C  
HETATM    5  C   UNL     1     -10.785  14.126  64.910  1.00  0.00    -0.444 C  
HETATM    6  H   UNL     1      -9.949  11.765  65.477  1.00  0.00     0.000 HD 
ENDROOT
BRANCH   3   7
HETATM    7  C   UNL     1     -10.687  11.191  67.314  1.00  0.00    -0.258 C  
BRANCH   7   8
HETATM    8  C   UNL     1      -9.581  10.103  67.284  1.00  0.00    -0.159 C  
HETATM    9  H   UNL     1      -7.618  10.066  67.223  1.00  0.00     0.000 HD 
HETATM   10  O   UNL     1      -8.295  10.732  67.241  1.00  0.00    -0.122 OA 
BRANCH   8  11
HETATM   11  C   UNL     1      -9.700   9.198  68.500  1.00  0.00    -0.166 A  
HETATM   12  C   UNL     1     -10.503   8.044  68.444  1.00  0.00    -0.205 A  
HETATM   13  C   UNL     1     -10.672   7.254  69.583  1.00  0.00    -0.236 A  
HETATM   14  C   UNL     1     -10.057   7.581  70.786  1.00  0.00    -0.192 A  
HETATM   15  O   UNL     1     -11.458   6.140  69.564  1.00  0.00    -0.429 OA 
HETATM   16  H   UNL     1     -11.573   5.602  70.338  1.00  0.00     0.000 HD 
HETATM   17  C   UNL     1      -9.254   8.714  70.838  1.00  0.00    -0.190 A  
HETATM   18  O   UNL     1      -8.627   9.087  71.990  1.00  0.00    -0.367 OA 
HETATM   19  C   UNL     1      -9.066   9.514  69.715  1.00  0.00    -0.219 A  
HETATM   20  H   UNL     1      -8.078   9.862  72.026  1.00  0.00     0.000 HD 
ENDBRANCH   8  11
ENDBRANCH   7   8
ENDBRANCH   3   7
TORSDOF 3
ENDMDL
MODEL      204
REMARK 921   NORMALIZED FREE ENERGY PREDICTED BY IDOCK:   -3.60 KCAL/MOL
REMARK 922        TOTAL FREE ENERGY PREDICTED BY IDOCK:   -4.53 KCAL/MOL
REMARK 923 INTER-LIGAND FREE ENERGY PREDICTED BY IDOCK:   -4.25 KCAL/MOL
REMARK 924 INTRA-LIGAND FREE ENERGY PREDICTED BY IDOCK:   -0.28 KCAL/MOL
REMARK 927      BINDING AFFINITY PREDICTED BY RF-SCORE:    0.00 PKD
ROOT
HETATM    1  C   UNL     1      -9.111   9.934  64.220  1.00  0.00    -0.297 C  
HETATM    2  C   UNL     1      -9.073  10.134  65.744  1.00  0.00    -0.171 C  
HETATM    3  N   UNL     1      -9.127  11.559  66.131  1.00  0.00    -0.210 NA 
HETATM    4  C   UNL     1     -10.213   9.342  66.407  1.00  0.00    -0.300 C  
HETATM    5  C   UNL     1      -7.736   9.572  66.266  1.00  0.00    -0.101 C  
HETATM    6  H   UNL     1      -8.283  12.041  65.821  1.00  0.00     0.000 HD 
ENDROOT
BRANCH   3   7
HETATM    7  C   UNL     1     -10.325  12.281  65.668  1.00  0.00    -0.257 C  
BRANCH   7   8
HETATM    8  C   UNL     1     -10.123  13.818  65.609  1.00  0.00    -0.298 C  
HETATM    9  H   UNL     1     -10.808  15.307  64.526  1.00  0.00     0.000 HD 
HETATM   10  O   UNL     1     -10.932  14.366  64.562  1.00  0.00    -0.363 OA 
BRANCH   8  11
HETATM   11  C   UNL     1     -10.473  14.447  66.948  1.00  0.00    -0.269 A  
HETATM   12  C   UNL     1      -9.921  15.690  67.310  1.00  0.00    -0.236 A  
HETATM   13  C   UNL     1     -10.184  16.232  68.570  1.00  0.00    -0.247 A  
HETATM   14  C   UNL     1     -10.989  15.567  69.488  1.00  0.00    -0.273 A  
HETATM   15  O   UNL     1      -9.649  17.426  68.955  1.00  0.00    -0.271 OA 
HETATM   16  H   UNL     1      -9.828  17.795  69.811  1.00  0.00     0.000 HD 
HETATM   17  C   UNL     1     -11.544  14.346  69.127  1.00  0.00    -0.307 A  
HETATM   18  O   UNL     1     -12.339  13.646  69.985  1.00  0.00    -0.322 OA 
HETATM   19  C   UNL     1     -11.301  13.788  67.875  1.00  0.00    -0.328 A  
HETATM   20  H   UNL     1     -12.718  12.810  69.739  1.00  0.00     0.000 HD 
ENDBRANCH   8  11
ENDBRANCH   7   8
ENDBRANCH   3   7
TORSDOF 3
ENDMDL
MODEL      205
REMARK 921   NORMALIZED FREE ENERGY PREDICTED BY IDOCK:   -3.60 KCAL/MOL
REMARK 922        TOTAL FREE ENERGY PREDICTED BY IDOCK:   -4.52 KCAL/MOL
REMARK 923 INTER-LIGAND FREE ENERGY PREDICTED BY IDOCK:   -4.06 KCAL/MOL
REMARK 924 INTRA-LIGAND FREE ENERGY PREDICTED BY IDOCK:   -0.46 KCAL/MOL
REMARK 927      BINDING AFFINITY PREDICTED BY RF-SCORE:    0.00 PKD
ROOT
HETATM    1  C   UNL     1      -8.119  10.026  68.722  1.00  0.00    -0.106 C  
HETATM    2  C   UNL     1      -9.653   9.915  68.724  1.00  0.00    -0.160 C  
HETATM    3  N   UNL     1     -10.143   8.807  67.879  1.00  0.00    -0.195 NA 
HETATM    4  C   UNL     1     -10.167   9.771  70.167  1.00  0.00    -0.328 C  
HETATM    5  C   UNL     1     -10.226  11.221  68.141  1.00  0.00    -0.196 C  
HETATM    6  H   UNL     1      -9.934   8.993  66.898  1.00  0.00     0.000 HD 
ENDROOT
BRANCH   3   7
HETATM    7  C   UNL     1      -9.650   7.472  68.260  1.00  0.00    -0.152 C  
BRANCH   7   8
HETATM    8  C   UNL     1     -10.784   6.419  68.385  1.00  0.00    -0.286 C  
HETATM    9  H   UNL     1     -11.077   4.564  67.810  1.00  0.00     0.000 HD 
HETATM   10  O   UNL     1     -10.383   5.208  67.733  1.00  0.00    -0.159 OA 
BRANCH   8  11
HETATM   11  C   UNL     1     -11.106   6.164  69.848  1.00  0.00    -0.481 A  
HETATM   12  C   UNL     1     -12.177   6.839  70.463  1.00  0.00    -0.253 A  
HETATM   13  C   UNL     1     -12.426   6.662  71.826  1.00  0.00    -0.311 A  
HETATM   14  C   UNL     1     -11.633   5.822  72.601  1.00  0.00    -0.304 A  
HETATM   15  O   UNL     1     -13.446   7.315  72.452  1.00  0.00    -0.472 OA 
HETATM   16  H   UNL     1     -13.615   7.195  73.378  1.00  0.00     0.000 HD 
HETATM   17  C   UNL     1     -10.583   5.147  71.992  1.00  0.00    -0.200 A  
HETATM   18  O   UNL     1      -9.770   4.313  72.701  1.00  0.00    -0.133 OA 
HETATM   19  C   UNL     1     -10.318   5.303  70.635  1.00  0.00    -0.324 A  
HETATM   20  H   UNL     1      -9.052   3.850  72.285  1.00  0.00     0.000 HD 
ENDBRANCH   8  11
ENDBRANCH   7   8
ENDBRANCH   3   7
TORSDOF 3
ENDMDL
MODEL      206
REMARK 921   NORMALIZED FREE ENERGY PREDICTED BY IDOCK:   -3.58 KCAL/MOL
REMARK 922        TOTAL FREE ENERGY PREDICTED BY IDOCK:   -4.51 KCAL/MOL
REMARK 923 INTER-LIGAND FREE ENERGY PREDICTED BY IDOCK:   -4.07 KCAL/MOL
REMARK 924 INTRA-LIGAND FREE ENERGY PREDICTED BY IDOCK:   -0.43 KCAL/MOL
REMARK 927      BINDING AFFINITY PREDICTED BY RF-SCORE:    0.00 PKD
ROOT
HETATM    1  C   UNL     1     -10.538  13.444  64.466  1.00  0.00    -0.441 C  
HETATM    2  C   UNL     1     -11.127  14.658  65.204  1.00  0.00    -0.377 C  
HETATM    3  N   UNL     1     -11.593  14.324  66.565  1.00  0.00    -0.364 NA 
HETATM    4  C   UNL     1     -10.096  15.800  65.241  1.00  0.00    -0.257 C  
HETATM    5  C   UNL     1     -12.353  15.149  64.410  1.00  0.00    -0.225 C  
HETATM    6  H   UNL     1     -12.386  13.685  66.519  1.00  0.00     0.000 HD 
ENDROOT
BRANCH   3   7
HETATM    7  C   UNL     1     -10.555  13.785  67.460  1.00  0.00    -0.244 C  
BRANCH   7   8
HETATM    8  C   UNL     1     -10.901  12.377  68.013  1.00  0.00    -0.221 C  
HETATM    9  H   UNL     1     -12.247  10.993  67.651  1.00  0.00     0.000 HD 
HETATM   10  O   UNL     1     -12.035  11.855  67.312  1.00  0.00    -0.605 OA 
BRANCH   8  11
HETATM   11  C   UNL     1      -9.705  11.449  67.874  1.00  0.00    -0.186 A  
HETATM   12  C   UNL     1      -9.523  10.392  68.785  1.00  0.00    -0.175 A  
HETATM   13  C   UNL     1      -8.385   9.585  68.702  1.00  0.00    -0.117 A  
HETATM   14  C   UNL     1      -7.417   9.801  67.728  1.00  0.00    -0.090 A  
HETATM   15  O   UNL     1      -8.173   8.564  69.581  1.00  0.00    -0.111 OA 
HETATM   16  H   UNL     1      -7.400   8.016  69.525  1.00  0.00     0.000 HD 
HETATM   17  C   UNL     1      -7.602  10.838  66.821  1.00  0.00    -0.129 A  
HETATM   18  O   UNL     1      -6.686  11.100  65.846  1.00  0.00    -0.344 OA 
HETATM   19  C   UNL     1      -8.730  11.651  66.880  1.00  0.00    -0.185 A  
HETATM   20  H   UNL     1      -6.813  11.809  65.226  1.00  0.00     0.000 HD 
ENDBRANCH   8  11
ENDBRANCH   7   8
ENDBRANCH   3   7
TORSDOF 3
ENDMDL
MODEL      207
REMARK 921   NORMALIZED FREE ENERGY PREDICTED BY IDOCK:   -3.58 KCAL/MOL
REMARK 922        TOTAL FREE ENERGY PREDICTED BY IDOCK:   -4.51 KCAL/MOL
REMARK 923 INTER-LIGAND FREE ENERGY PREDICTED BY IDOCK:   -4.05 KCAL/MOL
REMARK 924 INTRA-LIGAND FREE ENERGY PREDICTED BY IDOCK:   -0.46 KCAL/MOL
REMARK 927      BINDING AFFINITY PREDICTED BY RF-SCORE:    0.00 PKD
ROOT
HETATM    1  C   UNL     1      -8.581   6.678  72.451  1.00  0.00    -0.124 C  
HETATM    2  C   UNL     1     -10.029   6.956  72.013  1.00  0.00    -0.166 C  
HETATM    3  N   UNL     1     -10.132   8.112  71.099  1.00  0.00    -0.181 NA 
HETATM    4  C   UNL     1     -10.635   5.695  71.374  1.00  0.00    -0.317 C  
HETATM    5  C   UNL     1     -10.850   7.296  73.272  1.00  0.00    -0.404 C  
HETATM    6  H   UNL     1      -9.878   8.971  71.586  1.00  0.00     0.000 HD 
ENDROOT
BRANCH   3   7
HETATM    7  C   UNL     1      -9.360   7.987  69.851  1.00  0.00    -0.156 C  
BRANCH   7   8
HETATM    8  C   UNL     1     -10.253   7.976  68.582  1.00  0.00    -0.206 C  
HETATM    9  H   UNL     1     -10.582   9.171  67.058  1.00  0.00     0.000 HD 
HETATM   10  O   UNL     1     -10.035   9.178  67.835  1.00  0.00    -0.168 OA 
BRANCH   8  11
HETATM   11  C   UNL     1      -9.950   6.751  67.735  1.00  0.00    -0.167 A  
HETATM   12  C   UNL     1     -10.907   6.268  66.824  1.00  0.00    -0.367 A  
HETATM   13  C   UNL     1     -10.658   5.099  66.101  1.00  0.00    -0.236 A  
HETATM   14  C   UNL     1      -9.471   4.392  66.259  1.00  0.00    -0.178 A  
HETATM   15  O   UNL     1     -11.574   4.598  65.224  1.00  0.00    -1.093 OA 
HETATM   16  H   UNL     1     -11.405   3.803  64.733  1.00  0.00     0.000 HD 
HETATM   17  C   UNL     1      -8.520   4.875  67.149  1.00  0.00    -0.105 A  
HETATM   18  O   UNL     1      -7.339   4.224  67.348  1.00  0.00    -0.068 OA 
HETATM   19  C   UNL     1      -8.743   6.040  67.877  1.00  0.00    -0.112 A  
HETATM   20  H   UNL     1      -6.688   4.555  67.957  1.00  0.00     0.000 HD 
ENDBRANCH   8  11
ENDBRANCH   7   8
ENDBRANCH   3   7
TORSDOF 3
ENDMDL
MODEL      208
REMARK 921   NORMALIZED FREE ENERGY PREDICTED BY IDOCK:   -3.57 KCAL/MOL
REMARK 922        TOTAL FREE ENERGY PREDICTED BY IDOCK:   -4.49 KCAL/MOL
REMARK 923 INTER-LIGAND FREE ENERGY PREDICTED BY IDOCK:   -4.24 KCAL/MOL
REMARK 924 INTRA-LIGAND FREE ENERGY PREDICTED BY IDOCK:   -0.25 KCAL/MOL
REMARK 927      BINDING AFFINITY PREDICTED BY RF-SCORE:    0.00 PKD
ROOT
HETATM    1  C   UNL     1      -7.683   8.657  63.806  1.00  0.00    -0.136 C  
HETATM    2  C   UNL     1      -7.609   8.455  65.328  1.00  0.00    -0.090 C  
HETATM    3  N   UNL     1      -7.529   9.732  66.067  1.00  0.00    -0.099 NA 
HETATM    4  C   UNL     1      -8.810   7.620  65.806  1.00  0.00    -0.134 C  
HETATM    5  C   UNL     1      -6.324   7.666  65.642  1.00  0.00    -0.042 C  
HETATM    6  H   UNL     1      -6.648  10.203  65.861  1.00  0.00     0.000 HD 
ENDROOT
BRANCH   3   7
HETATM    7  C   UNL     1      -8.660  10.649  65.845  1.00  0.00    -0.172 C  
BRANCH   7   8
HETATM    8  C   UNL     1      -8.909  11.607  67.040  1.00  0.00    -0.177 C  
HETATM    9  H   UNL     1      -7.893  12.993  67.992  1.00  0.00     0.000 HD 
HETATM   10  O   UNL     1      -7.741  12.406  67.261  1.00  0.00    -0.160 OA 
BRANCH   8  11
HETATM   11  C   UNL     1     -10.120  12.484  66.768  1.00  0.00    -0.233 A  
HETATM   12  C   UNL     1     -10.314  13.667  67.505  1.00  0.00    -0.241 A  
HETATM   13  C   UNL     1     -11.465  14.434  67.307  1.00  0.00    -0.359 A  
HETATM   14  C   UNL     1     -12.436  14.054  66.387  1.00  0.00    -0.395 A  
HETATM   15  O   UNL     1     -11.689  15.575  68.019  1.00  0.00    -0.324 OA 
HETATM   16  H   UNL     1     -12.471  16.096  67.885  1.00  0.00     0.000 HD 
HETATM   17  C   UNL     1     -12.239  12.893  65.650  1.00  0.00    -0.463 A  
HETATM   18  O   UNL     1     -13.156  12.468  64.736  1.00  0.00    -0.853 OA 
HETATM   19  C   UNL     1     -11.098  12.115  65.826  1.00  0.00    -0.362 A  
HETATM   20  H   UNL     1     -13.021  11.674  64.232  1.00  0.00     0.000 HD 
ENDBRANCH   8  11
ENDBRANCH   7   8
ENDBRANCH   3   7
TORSDOF 3
ENDMDL
MODEL      209
REMARK 921   NORMALIZED FREE ENERGY PREDICTED BY IDOCK:   -3.57 KCAL/MOL
REMARK 922        TOTAL FREE ENERGY PREDICTED BY IDOCK:   -4.49 KCAL/MOL
REMARK 923 INTER-LIGAND FREE ENERGY PREDICTED BY IDOCK:   -4.06 KCAL/MOL
REMARK 924 INTRA-LIGAND FREE ENERGY PREDICTED BY IDOCK:   -0.43 KCAL/MOL
REMARK 927      BINDING AFFINITY PREDICTED BY RF-SCORE:    0.00 PKD
ROOT
HETATM    1  C   UNL     1      -7.960   7.322  73.784  1.00  0.00    -0.137 C  
HETATM    2  C   UNL     1      -8.140   6.141  72.815  1.00  0.00    -0.106 C  
HETATM    3  N   UNL     1      -9.558   5.778  72.621  1.00  0.00    -0.153 NA 
HETATM    4  C   UNL     1      -7.466   6.459  71.469  1.00  0.00    -0.090 C  
HETATM    5  C   UNL     1      -7.434   4.914  73.424  1.00  0.00    -0.088 C  
HETATM    6  H   UNL     1      -9.951   5.416  73.490  1.00  0.00     0.000 HD 
ENDROOT
BRANCH   3   7
HETATM    7  C   UNL     1     -10.407   6.857  72.089  1.00  0.00    -0.199 C  
BRANCH   7   8
HETATM    8  C   UNL     1     -11.418   6.363  71.019  1.00  0.00    -0.334 C  
HETATM    9  H   UNL     1     -13.354   6.495  70.718  1.00  0.00     0.000 HD 
HETATM   10  O   UNL     1     -12.736   6.797  71.373  1.00  0.00    -0.346 OA 
BRANCH   8  11
HETATM   11  C   UNL     1     -11.027   6.886  69.646  1.00  0.00    -0.298 A  
HETATM   12  C   UNL     1     -10.587   8.214  69.496  1.00  0.00    -0.215 A  
HETATM   13  C   UNL     1     -10.300   8.716  68.224  1.00  0.00    -0.207 A  
HETATM   14  C   UNL     1     -10.438   7.926  67.088  1.00  0.00    -0.414 A  
HETATM   15  O   UNL     1      -9.887  10.004  68.046  1.00  0.00    -0.139 OA 
HETATM   16  H   UNL     1      -9.692  10.345  67.182  1.00  0.00     0.000 HD 
HETATM   17  C   UNL     1     -10.862   6.612  67.237  1.00  0.00    -0.385 A  
HETATM   18  O   UNL     1     -11.019   5.790  66.160  1.00  0.00    -0.674 OA 
HETATM   19  C   UNL     1     -11.149   6.087  68.494  1.00  0.00    -0.279 A  
HETATM   20  H   UNL     1     -11.309   4.891  66.262  1.00  0.00     0.000 HD 
ENDBRANCH   8  11
ENDBRANCH   7   8
ENDBRANCH   3   7
TORSDOF 3
ENDMDL
MODEL      210
REMARK 921   NORMALIZED FREE ENERGY PREDICTED BY IDOCK:   -3.56 KCAL/MOL
REMARK 922        TOTAL FREE ENERGY PREDICTED BY IDOCK:   -4.48 KCAL/MOL
REMARK 923 INTER-LIGAND FREE ENERGY PREDICTED BY IDOCK:   -4.23 KCAL/MOL
REMARK 924 INTRA-LIGAND FREE ENERGY PREDICTED BY IDOCK:   -0.26 KCAL/MOL
REMARK 927      BINDING AFFINITY PREDICTED BY RF-SCORE:    0.00 PKD
ROOT
HETATM    1  C   UNL     1      -8.522   5.958  68.747  1.00  0.00    -0.111 C  
HETATM    2  C   UNL     1      -8.831   6.535  70.139  1.00  0.00    -0.144 C  
HETATM    3  N   UNL     1      -9.273   7.944  70.084  1.00  0.00    -0.153 NA 
HETATM    4  C   UNL     1      -9.879   5.660  70.849  1.00  0.00    -0.237 C  
HETATM    5  C   UNL     1      -7.534   6.496  70.970  1.00  0.00    -0.085 C  
HETATM    6  H   UNL     1      -8.511   8.539  69.760  1.00  0.00     0.000 HD 
ENDROOT
BRANCH   3   7
HETATM    7  C   UNL     1     -10.483   8.183  69.280  1.00  0.00    -0.214 C  
BRANCH   7   8
HETATM    8  C   UNL     1     -10.213   9.039  68.014  1.00  0.00    -0.212 C  
HETATM    9  H   UNL     1     -10.616   8.915  66.095  1.00  0.00     0.000 HD 
HETATM   10  O   UNL     1     -10.782   8.391  66.870  1.00  0.00    -0.279 OA 
BRANCH   8  11
HETATM   11  C   UNL     1     -10.793  10.434  68.189  1.00  0.00    -0.311 A  
HETATM   12  C   UNL     1     -11.075  10.924  69.477  1.00  0.00    -0.326 A  
HETATM   13  C   UNL     1     -11.676  12.175  69.633  1.00  0.00    -0.325 A  
HETATM   14  C   UNL     1     -12.006  12.960  68.533  1.00  0.00    -0.272 A  
HETATM   15  O   UNL     1     -11.977  12.669  70.868  1.00  0.00    -0.448 OA 
HETATM   16  H   UNL     1     -12.386  13.520  70.974  1.00  0.00     0.000 HD 
HETATM   17  C   UNL     1     -11.717  12.480  67.261  1.00  0.00    -0.362 A  
HETATM   18  O   UNL     1     -12.020  13.203  66.145  1.00  0.00    -0.386 OA 
HETATM   19  C   UNL     1     -11.114  11.240  67.081  1.00  0.00    -0.364 A  
HETATM   20  H   UNL     1     -11.822  12.875  65.275  1.00  0.00     0.000 HD 
ENDBRANCH   8  11
ENDBRANCH   7   8
ENDBRANCH   3   7
TORSDOF 3
ENDMDL
MODEL      211
REMARK 921   NORMALIZED FREE ENERGY PREDICTED BY IDOCK:   -3.56 KCAL/MOL
REMARK 922        TOTAL FREE ENERGY PREDICTED BY IDOCK:   -4.48 KCAL/MOL
REMARK 923 INTER-LIGAND FREE ENERGY PREDICTED BY IDOCK:   -4.16 KCAL/MOL
REMARK 924 INTRA-LIGAND FREE ENERGY PREDICTED BY IDOCK:   -0.32 KCAL/MOL
REMARK 927      BINDING AFFINITY PREDICTED BY RF-SCORE:    0.00 PKD
ROOT
HETATM    1  C   UNL     1     -10.688   7.170  67.290  1.00  0.00    -0.399 C  
HETATM    2  C   UNL     1      -9.270   7.614  66.891  1.00  0.00    -0.145 C  
HETATM    3  N   UNL     1      -9.249   8.379  65.628  1.00  0.00    -0.397 NA 
HETATM    4  C   UNL     1      -8.633   8.424  68.033  1.00  0.00    -0.135 C  
HETATM    5  C   UNL     1      -8.419   6.348  66.671  1.00  0.00    -0.115 C  
HETATM    6  H   UNL     1      -9.524   7.781  64.849  1.00  0.00     0.000 HD 
ENDROOT
BRANCH   3   7
HETATM    7  C   UNL     1     -10.060   9.609  65.635  1.00  0.00    -0.161 C  
BRANCH   7   8
HETATM    8  C   UNL     1      -9.452  10.742  64.765  1.00  0.00    -0.247 C  
HETATM    9  H   UNL     1      -9.633  11.372  62.913  1.00  0.00     0.000 HD 
HETATM   10  O   UNL     1     -10.005  10.678  63.445  1.00  0.00    -0.320 OA 
BRANCH   8  11
HETATM   11  C   UNL     1      -9.725  12.096  65.400  1.00  0.00    -0.178 A  
HETATM   12  C   UNL     1      -9.224  12.388  66.682  1.00  0.00    -0.218 A  
HETATM   13  C   UNL     1      -9.537  13.603  67.296  1.00  0.00    -0.238 A  
HETATM   14  C   UNL     1     -10.341  14.545  66.664  1.00  0.00    -0.274 A  
HETATM   15  O   UNL     1      -9.080  13.906  68.545  1.00  0.00    -0.211 OA 
HETATM   16  H   UNL     1      -9.293  14.731  68.962  1.00  0.00     0.000 HD 
HETATM   17  C   UNL     1     -10.826  14.262  65.393  1.00  0.00    -0.342 A  
HETATM   18  O   UNL     1     -11.621  15.145  64.724  1.00  0.00    -0.398 OA 
HETATM   19  C   UNL     1     -10.523  13.061  64.759  1.00  0.00    -0.382 A  
HETATM   20  H   UNL     1     -11.953  14.952  63.855  1.00  0.00     0.000 HD 
ENDBRANCH   8  11
ENDBRANCH   7   8
ENDBRANCH   3   7
TORSDOF 3
ENDMDL
MODEL      212
REMARK 921   NORMALIZED FREE ENERGY PREDICTED BY IDOCK:   -3.55 KCAL/MOL
REMARK 922        TOTAL FREE ENERGY PREDICTED BY IDOCK:   -4.46 KCAL/MOL
REMARK 923 INTER-LIGAND FREE ENERGY PREDICTED BY IDOCK:   -4.02 KCAL/MOL
REMARK 924 INTRA-LIGAND FREE ENERGY PREDICTED BY IDOCK:   -0.44 KCAL/MOL
REMARK 927      BINDING AFFINITY PREDICTED BY RF-SCORE:    0.00 PKD
ROOT
HETATM    1  C   UNL     1      -9.254  10.097  67.033  1.00  0.00    -0.166 C  
HETATM    2  C   UNL     1      -8.776  10.325  68.477  1.00  0.00    -0.130 C  
HETATM    3  N   UNL     1      -9.860  10.790  69.366  1.00  0.00    -0.407 NA 
HETATM    4  C   UNL     1      -8.130   9.041  69.025  1.00  0.00    -0.107 C  
HETATM    5  C   UNL     1      -7.701  11.429  68.454  1.00  0.00    -0.127 C  
HETATM    6  H   UNL     1     -10.173  11.719  69.084  1.00  0.00     0.000 HD 
ENDROOT
BRANCH   3   7
HETATM    7  C   UNL     1     -11.011   9.876  69.471  1.00  0.00    -0.242 C  
BRANCH   7   8
HETATM    8  C   UNL     1     -11.446   9.613  70.937  1.00  0.00    -0.353 C  
HETATM    9  H   UNL     1     -13.142   9.433  71.911  1.00  0.00     0.000 HD 
HETATM   10  O   UNL     1     -12.876   9.594  71.014  1.00  0.00    -0.317 OA 
BRANCH   8  11
HETATM   11  C   UNL     1     -10.861   8.300  71.432  1.00  0.00    -0.293 A  
HETATM   12  C   UNL     1     -10.685   7.226  70.540  1.00  0.00    -0.249 A  
HETATM   13  C   UNL     1     -10.218   5.996  71.010  1.00  0.00    -0.201 A  
HETATM   14  C   UNL     1      -9.916   5.804  72.354  1.00  0.00    -0.194 A  
HETATM   15  O   UNL     1     -10.054   4.932  70.173  1.00  0.00    -0.241 OA 
HETATM   16  H   UNL     1      -9.737   4.096  70.492  1.00  0.00     0.000 HD 
HETATM   17  C   UNL     1     -10.079   6.868  73.232  1.00  0.00    -0.232 A  
HETATM   18  O   UNL     1      -9.802   6.740  74.561  1.00  0.00    -0.379 OA 
HETATM   19  C   UNL     1     -10.538   8.104  72.787  1.00  0.00    -0.386 A  
HETATM   20  H   UNL     1      -9.913   7.467  75.162  1.00  0.00     0.000 HD 
ENDBRANCH   8  11
ENDBRANCH   7   8
ENDBRANCH   3   7
TORSDOF 3
ENDMDL
MODEL      213
REMARK 921   NORMALIZED FREE ENERGY PREDICTED BY IDOCK:   -3.54 KCAL/MOL
REMARK 922        TOTAL FREE ENERGY PREDICTED BY IDOCK:   -4.46 KCAL/MOL
REMARK 923 INTER-LIGAND FREE ENERGY PREDICTED BY IDOCK:   -4.07 KCAL/MOL
REMARK 924 INTRA-LIGAND FREE ENERGY PREDICTED BY IDOCK:   -0.38 KCAL/MOL
REMARK 927      BINDING AFFINITY PREDICTED BY RF-SCORE:    0.00 PKD
ROOT
HETATM    1  C   UNL     1      -7.856  10.719  67.791  1.00  0.00    -0.109 C  
HETATM    2  C   UNL     1      -8.601   9.491  68.342  1.00  0.00    -0.120 C  
HETATM    3  N   UNL     1      -9.860   9.851  69.026  1.00  0.00    -0.180 NA 
HETATM    4  C   UNL     1      -8.860   8.484  67.209  1.00  0.00    -0.137 C  
HETATM    5  C   UNL     1      -7.693   8.813  69.386  1.00  0.00    -0.093 C  
HETATM    6  H   UNL     1      -9.662  10.389  69.869  1.00  0.00     0.000 HD 
ENDROOT
BRANCH   3   7
HETATM    7  C   UNL     1     -10.839  10.562  68.187  1.00  0.00    -0.253 C  
BRANCH   7   8
HETATM    8  C   UNL     1     -11.917  11.312  69.014  1.00  0.00    -0.325 C  
HETATM    9  H   UNL     1     -12.509  11.348  70.887  1.00  0.00     0.000 HD 
HETATM   10  O   UNL     1     -11.849  10.889  70.380  1.00  0.00    -0.302 OA 
BRANCH   8  11
HETATM   11  C   UNL     1     -11.714  12.815  68.903  1.00  0.00    -0.370 A  
HETATM   12  C   UNL     1     -10.785  13.335  67.984  1.00  0.00    -0.254 A  
HETATM   13  C   UNL     1     -10.544  14.710  67.934  1.00  0.00    -0.244 A  
HETATM   14  C   UNL     1     -11.210  15.590  68.781  1.00  0.00    -0.316 A  
HETATM   15  O   UNL     1      -9.637  15.241  67.066  1.00  0.00    -0.216 OA 
HETATM   16  H   UNL     1      -9.473  16.176  67.032  1.00  0.00     0.000 HD 
HETATM   17  C   UNL     1     -12.136  15.078  69.680  1.00  0.00    -0.300 A  
HETATM   18  O   UNL     1     -12.818  15.891  70.537  1.00  0.00    -0.571 OA 
HETATM   19  C   UNL     1     -12.397  13.712  69.745  1.00  0.00    -0.285 A  
HETATM   20  H   UNL     1     -13.451  15.541  71.152  1.00  0.00     0.000 HD 
ENDBRANCH   8  11
ENDBRANCH   7   8
ENDBRANCH   3   7
TORSDOF 3
ENDMDL
MODEL      214
REMARK 921   NORMALIZED FREE ENERGY PREDICTED BY IDOCK:   -3.53 KCAL/MOL
REMARK 922        TOTAL FREE ENERGY PREDICTED BY IDOCK:   -4.44 KCAL/MOL
REMARK 923 INTER-LIGAND FREE ENERGY PREDICTED BY IDOCK:   -4.60 KCAL/MOL
REMARK 924 INTRA-LIGAND FREE ENERGY PREDICTED BY IDOCK:    0.16 KCAL/MOL
REMARK 927      BINDING AFFINITY PREDICTED BY RF-SCORE:    0.00 PKD
ROOT
HETATM    1  C   UNL     1     -12.150  15.086  64.697  1.00  0.00    -0.330 C  
HETATM    2  C   UNL     1     -11.042  14.327  65.447  1.00  0.00    -0.327 C  
HETATM    3  N   UNL     1     -10.020  15.230  66.013  1.00  0.00    -0.295 NA 
HETATM    4  C   UNL     1     -11.661  13.444  66.543  1.00  0.00    -0.415 C  
HETATM    5  C   UNL     1     -10.328  13.407  64.438  1.00  0.00    -0.347 C  
HETATM    6  H   UNL     1      -9.505  15.694  65.265  1.00  0.00     0.000 HD 
ENDROOT
BRANCH   3   7
HETATM    7  C   UNL     1     -10.533  16.225  66.970  1.00  0.00    -0.306 C  
BRANCH   7   8
HETATM    8  C   UNL     1     -10.217  17.687  66.556  1.00  0.00    -0.355 C  
HETATM    9  H   UNL     1     -10.871  19.478  67.031  1.00  0.00     0.000 HD 
HETATM   10  O   UNL     1     -11.064  18.583  67.285  1.00  0.00    -0.260 OA 
BRANCH   8  11
HETATM   11  C   UNL     1      -8.752  18.002  66.810  1.00  0.00    -0.269 A  
HETATM   12  C   UNL     1      -8.333  19.336  66.958  1.00  0.00    -0.300 A  
HETATM   13  C   UNL     1      -6.976  19.630  67.117  1.00  0.00    -0.206 A  
HETATM   14  C   UNL     1      -6.017  18.624  67.135  1.00  0.00    -0.166 A  
HETATM   15  O   UNL     1      -6.539  20.915  67.246  1.00  0.00    -0.283 OA 
HETATM   16  H   UNL     1      -5.617  21.115  67.354  1.00  0.00     0.000 HD 
HETATM   17  C   UNL     1      -6.432  17.304  67.000  1.00  0.00    -0.176 A  
HETATM   18  O   UNL     1      -5.538  16.275  67.007  1.00  0.00    -0.317 OA 
HETATM   19  C   UNL     1      -7.778  16.987  66.846  1.00  0.00    -0.251 A  
HETATM   20  H   UNL     1      -5.822  15.373  66.916  1.00  0.00     0.000 HD 
ENDBRANCH   8  11
ENDBRANCH   7   8
ENDBRANCH   3   7
TORSDOF 3
ENDMDL
MODEL      215
REMARK 921   NORMALIZED FREE ENERGY PREDICTED BY IDOCK:   -3.52 KCAL/MOL
REMARK 922        TOTAL FREE ENERGY PREDICTED BY IDOCK:   -4.44 KCAL/MOL
REMARK 923 INTER-LIGAND FREE ENERGY PREDICTED BY IDOCK:   -4.05 KCAL/MOL
REMARK 924 INTRA-LIGAND FREE ENERGY PREDICTED BY IDOCK:   -0.39 KCAL/MOL
REMARK 927      BINDING AFFINITY PREDICTED BY RF-SCORE:    0.00 PKD
ROOT
HETATM    1  C   UNL     1     -10.538  13.444  64.466  1.00  0.00    -0.441 C  
HETATM    2  C   UNL     1     -11.127  14.658  65.204  1.00  0.00    -0.377 C  
HETATM    3  N   UNL     1     -11.593  14.324  66.565  1.00  0.00    -0.364 NA 
HETATM    4  C   UNL     1     -10.096  15.800  65.241  1.00  0.00    -0.257 C  
HETATM    5  C   UNL     1     -12.353  15.149  64.410  1.00  0.00    -0.225 C  
HETATM    6  H   UNL     1     -12.386  13.685  66.519  1.00  0.00     0.000 HD 
ENDROOT
BRANCH   3   7
HETATM    7  C   UNL     1     -10.555  13.785  67.460  1.00  0.00    -0.244 C  
BRANCH   7   8
HETATM    8  C   UNL     1     -10.901  12.377  68.013  1.00  0.00    -0.221 C  
HETATM    9  H   UNL     1     -12.247  10.993  67.651  1.00  0.00     0.000 HD 
HETATM   10  O   UNL     1     -12.035  11.855  67.312  1.00  0.00    -0.605 OA 
BRANCH   8  11
HETATM   11  C   UNL     1      -9.705  11.449  67.874  1.00  0.00    -0.186 A  
HETATM   12  C   UNL     1      -8.829  11.586  66.781  1.00  0.00    -0.183 A  
HETATM   13  C   UNL     1      -7.774  10.686  66.613  1.00  0.00    -0.132 A  
HETATM   14  C   UNL     1      -7.564   9.645  67.510  1.00  0.00    -0.095 A  
HETATM   15  O   UNL     1      -6.919  10.785  65.555  1.00  0.00    -0.313 OA 
HETATM   16  H   UNL     1      -6.202  10.173  65.440  1.00  0.00     0.000 HD 
HETATM   17  C   UNL     1      -8.421   9.516  68.595  1.00  0.00    -0.119 A  
HETATM   18  O   UNL     1      -8.267   8.513  69.506  1.00  0.00    -0.112 OA 
HETATM   19  C   UNL     1      -9.476  10.403  68.787  1.00  0.00    -0.175 A  
HETATM   20  H   UNL     1      -8.854   8.425  70.248  1.00  0.00     0.000 HD 
ENDBRANCH   8  11
ENDBRANCH   7   8
ENDBRANCH   3   7
TORSDOF 3
ENDMDL
MODEL      216
REMARK 921   NORMALIZED FREE ENERGY PREDICTED BY IDOCK:   -3.52 KCAL/MOL
REMARK 922        TOTAL FREE ENERGY PREDICTED BY IDOCK:   -4.43 KCAL/MOL
REMARK 923 INTER-LIGAND FREE ENERGY PREDICTED BY IDOCK:   -4.15 KCAL/MOL
REMARK 924 INTRA-LIGAND FREE ENERGY PREDICTED BY IDOCK:   -0.28 KCAL/MOL
REMARK 927      BINDING AFFINITY PREDICTED BY RF-SCORE:    0.00 PKD
ROOT
HETATM    1  C   UNL     1     -11.391   9.236  71.593  1.00  0.00    -0.467 C  
HETATM    2  C   UNL     1     -11.545   7.812  71.032  1.00  0.00    -0.283 C  
HETATM    3  N   UNL     1     -11.379   7.759  69.565  1.00  0.00    -0.437 NA 
HETATM    4  C   UNL     1     -10.556   6.863  71.730  1.00  0.00    -0.235 C  
HETATM    5  C   UNL     1     -12.974   7.328  71.346  1.00  0.00    -0.420 C  
HETATM    6  H   UNL     1     -12.138   8.264  69.106  1.00  0.00     0.000 HD 
ENDROOT
BRANCH   3   7
HETATM    7  C   UNL     1     -10.077   8.239  69.071  1.00  0.00    -0.202 C  
BRANCH   7   8
HETATM    8  C   UNL     1      -9.760   7.759  67.630  1.00  0.00    -0.155 C  
HETATM    9  H   UNL     1     -10.623   6.618  66.283  1.00  0.00     0.000 HD 
HETATM   10  O   UNL     1     -10.817   6.912  67.166  1.00  0.00    -0.329 OA 
BRANCH   8  11
HETATM   11  C   UNL     1      -9.579   8.953  66.706  1.00  0.00    -0.262 A  
HETATM   12  C   UNL     1      -9.282   8.752  65.345  1.00  0.00    -0.155 A  
HETATM   13  C   UNL     1      -9.041   9.848  64.513  1.00  0.00    -0.250 A  
HETATM   14  C   UNL     1      -9.091  11.149  65.001  1.00  0.00    -0.138 A  
HETATM   15  O   UNL     1      -8.735   9.684  63.194  1.00  0.00    -0.199 OA 
HETATM   16  H   UNL     1      -8.571  10.429  62.628  1.00  0.00     0.000 HD 
HETATM   17  C   UNL     1      -9.396  11.348  66.342  1.00  0.00    -0.204 A  
HETATM   18  O   UNL     1      -9.456  12.600  66.878  1.00  0.00    -0.215 OA 
HETATM   19  C   UNL     1      -9.644  10.272  67.189  1.00  0.00    -0.199 A  
HETATM   20  H   UNL     1      -9.664  12.736  67.795  1.00  0.00     0.000 HD 
ENDBRANCH   8  11
ENDBRANCH   7   8
ENDBRANCH   3   7
TORSDOF 3
ENDMDL
MODEL      217
REMARK 921   NORMALIZED FREE ENERGY PREDICTED BY IDOCK:   -3.52 KCAL/MOL
REMARK 922        TOTAL FREE ENERGY PREDICTED BY IDOCK:   -4.43 KCAL/MOL
REMARK 923 INTER-LIGAND FREE ENERGY PREDICTED BY IDOCK:   -4.10 KCAL/MOL
REMARK 924 INTRA-LIGAND FREE ENERGY PREDICTED BY IDOCK:   -0.33 KCAL/MOL
REMARK 927      BINDING AFFINITY PREDICTED BY RF-SCORE:    0.00 PKD
ROOT
HETATM    1  C   UNL     1      -9.289  13.770  67.726  1.00  0.00    -0.213 C  
HETATM    2  C   UNL     1     -10.346  13.279  66.722  1.00  0.00    -0.257 C  
HETATM    3  N   UNL     1      -9.756  12.505  65.611  1.00  0.00    -0.401 NA 
HETATM    4  C   UNL     1     -11.422  12.458  67.452  1.00  0.00    -0.418 C  
HETATM    5  C   UNL     1     -11.026  14.516  66.104  1.00  0.00    -0.322 C  
HETATM    6  H   UNL     1      -9.165  13.106  65.036  1.00  0.00     0.000 HD 
ENDROOT
BRANCH   3   7
HETATM    7  C   UNL     1      -9.013  11.301  66.020  1.00  0.00    -0.200 C  
BRANCH   7   8
HETATM    8  C   UNL     1      -9.046  10.174  64.953  1.00  0.00    -0.215 C  
HETATM    9  H   UNL     1      -7.876   9.545  63.506  1.00  0.00     0.000 HD 
HETATM   10  O   UNL     1      -7.856  10.235  64.159  1.00  0.00    -0.153 OA 
BRANCH   8  11
HETATM   11  C   UNL     1      -9.179   8.817  65.625  1.00  0.00    -0.244 A  
HETATM   12  C   UNL     1      -8.356   7.748  65.224  1.00  0.00    -0.128 A  
HETATM   13  C   UNL     1      -8.529   6.482  65.788  1.00  0.00    -0.148 A  
HETATM   14  C   UNL     1      -9.505   6.249  66.751  1.00  0.00    -0.167 A  
HETATM   15  O   UNL     1      -7.759   5.424  65.407  1.00  0.00    -0.087 OA 
HETATM   16  H   UNL     1      -7.876   4.563  65.790  1.00  0.00     0.000 HD 
HETATM   17  C   UNL     1     -10.310   7.307  67.155  1.00  0.00    -0.297 A  
HETATM   18  O   UNL     1     -11.286   7.138  68.093  1.00  0.00    -0.485 OA 
HETATM   19  C   UNL     1     -10.153   8.578  66.611  1.00  0.00    -0.364 A  
HETATM   20  H   UNL     1     -11.836   7.861  68.370  1.00  0.00     0.000 HD 
ENDBRANCH   8  11
ENDBRANCH   7   8
ENDBRANCH   3   7
TORSDOF 3
ENDMDL
MODEL      218
REMARK 921   NORMALIZED FREE ENERGY PREDICTED BY IDOCK:   -3.50 KCAL/MOL
REMARK 922        TOTAL FREE ENERGY PREDICTED BY IDOCK:   -4.40 KCAL/MOL
REMARK 923 INTER-LIGAND FREE ENERGY PREDICTED BY IDOCK:   -4.10 KCAL/MOL
REMARK 924 INTRA-LIGAND FREE ENERGY PREDICTED BY IDOCK:   -0.31 KCAL/MOL
REMARK 927      BINDING AFFINITY PREDICTED BY RF-SCORE:    0.00 PKD
ROOT
HETATM    1  C   UNL     1      -6.973  10.442  67.199  1.00  0.00    -0.088 C  
HETATM    2  C   UNL     1      -8.484  10.669  67.021  1.00  0.00    -0.129 C  
HETATM    3  N   UNL     1      -9.283   9.483  67.391  1.00  0.00    -0.133 NA 
HETATM    4  C   UNL     1      -8.928  11.902  67.825  1.00  0.00    -0.173 C  
HETATM    5  C   UNL     1      -8.751  10.950  65.529  1.00  0.00    -0.178 C  
HETATM    6  H   UNL     1      -9.095   8.715  66.746  1.00  0.00     0.000 HD 
ENDROOT
BRANCH   3   7
HETATM    7  C   UNL     1      -9.114   9.031  68.783  1.00  0.00    -0.137 C  
BRANCH   7   8
HETATM    8  C   UNL     1      -9.906   7.736  69.102  1.00  0.00    -0.173 C  
HETATM    9  H   UNL     1      -9.494   5.948  69.805  1.00  0.00     0.000 HD 
HETATM   10  O   UNL     1      -9.009   6.741  69.609  1.00  0.00    -0.142 OA 
BRANCH   8  11
HETATM   11  C   UNL     1     -11.011   8.028  70.104  1.00  0.00    -0.226 A  
HETATM   12  C   UNL     1     -11.373   9.358  70.388  1.00  0.00    -0.295 A  
HETATM   13  C   UNL     1     -12.336   9.628  71.363  1.00  0.00    -0.378 A  
HETATM   14  C   UNL     1     -12.956   8.603  72.068  1.00  0.00    -0.419 A  
HETATM   15  O   UNL     1     -12.694  10.908  71.671  1.00  0.00    -0.405 OA 
HETATM   16  H   UNL     1     -13.348  11.092  72.334  1.00  0.00     0.000 HD 
HETATM   17  C   UNL     1     -12.608   7.289  71.780  1.00  0.00    -0.341 A  
HETATM   18  O   UNL     1     -13.180   6.243  72.441  1.00  0.00    -0.498 OA 
HETATM   19  C   UNL     1     -11.655   6.995  70.809  1.00  0.00    -0.381 A  
HETATM   20  H   UNL     1     -12.942   5.344  72.244  1.00  0.00     0.000 HD 
ENDBRANCH   8  11
ENDBRANCH   7   8
ENDBRANCH   3   7
TORSDOF 3
ENDMDL
MODEL      219
REMARK 921   NORMALIZED FREE ENERGY PREDICTED BY IDOCK:   -3.49 KCAL/MOL
REMARK 922        TOTAL FREE ENERGY PREDICTED BY IDOCK:   -4.40 KCAL/MOL
REMARK 923 INTER-LIGAND FREE ENERGY PREDICTED BY IDOCK:   -3.98 KCAL/MOL
REMARK 924 INTRA-LIGAND FREE ENERGY PREDICTED BY IDOCK:   -0.42 KCAL/MOL
REMARK 927      BINDING AFFINITY PREDICTED BY RF-SCORE:    0.00 PKD
ROOT
HETATM    1  C   UNL     1     -11.566  15.046  65.454  1.00  0.00    -0.229 C  
HETATM    2  C   UNL     1     -11.498  13.512  65.360  1.00  0.00    -0.302 C  
HETATM    3  N   UNL     1     -10.116  12.999  65.450  1.00  0.00    -0.391 NA 
HETATM    4  C   UNL     1     -12.389  12.881  66.444  1.00  0.00    -0.145 C  
HETATM    5  C   UNL     1     -12.051  13.094  63.984  1.00  0.00    -0.511 C  
HETATM    6  H   UNL     1      -9.576  13.296  64.637  1.00  0.00     0.000 HD 
ENDROOT
BRANCH   3   7
HETATM    7  C   UNL     1      -9.404  13.349  66.690  1.00  0.00    -0.241 C  
BRANCH   7   8
HETATM    8  C   UNL     1      -8.386  12.265  67.133  1.00  0.00    -0.183 C  
HETATM    9  H   UNL     1      -7.404  11.816  68.775  1.00  0.00     0.000 HD 
HETATM   10  O   UNL     1      -8.027  12.480  68.503  1.00  0.00    -0.142 OA 
BRANCH   8  11
HETATM   11  C   UNL     1      -8.977  10.878  66.940  1.00  0.00    -0.158 A  
HETATM   12  C   UNL     1      -9.962  10.401  67.825  1.00  0.00    -0.203 A  
HETATM   13  C   UNL     1     -10.450   9.100  67.693  1.00  0.00    -0.261 A  
HETATM   14  C   UNL     1      -9.983   8.251  66.695  1.00  0.00    -0.348 A  
HETATM   15  O   UNL     1     -11.392   8.605  68.546  1.00  0.00    -0.192 OA 
HETATM   16  H   UNL     1     -11.724   7.720  68.456  1.00  0.00     0.000 HD 
HETATM   17  C   UNL     1      -9.019   8.726  65.814  1.00  0.00    -0.206 A  
HETATM   18  O   UNL     1      -8.521   7.940  64.817  1.00  0.00    -0.328 OA 
HETATM   19  C   UNL     1      -8.521  10.020  65.922  1.00  0.00    -0.139 A  
HETATM   20  H   UNL     1      -7.862   8.264  64.214  1.00  0.00     0.000 HD 
ENDBRANCH   8  11
ENDBRANCH   7   8
ENDBRANCH   3   7
TORSDOF 3
ENDMDL
MODEL      220
REMARK 921   NORMALIZED FREE ENERGY PREDICTED BY IDOCK:   -3.49 KCAL/MOL
REMARK 922        TOTAL FREE ENERGY PREDICTED BY IDOCK:   -4.39 KCAL/MOL
REMARK 923 INTER-LIGAND FREE ENERGY PREDICTED BY IDOCK:   -4.10 KCAL/MOL
REMARK 924 INTRA-LIGAND FREE ENERGY PREDICTED BY IDOCK:   -0.30 KCAL/MOL
REMARK 927      BINDING AFFINITY PREDICTED BY RF-SCORE:    0.00 PKD
ROOT
HETATM    1  C   UNL     1      -6.850   6.182  70.084  1.00  0.00    -0.057 C  
HETATM    2  C   UNL     1      -7.311   5.388  71.317  1.00  0.00    -0.084 C  
HETATM    3  N   UNL     1      -8.317   6.117  72.117  1.00  0.00    -0.110 NA 
HETATM    4  C   UNL     1      -7.847   4.012  70.885  1.00  0.00    -0.055 C  
HETATM    5  C   UNL     1      -6.086   5.161  72.223  1.00  0.00    -0.030 C  
HETATM    6  H   UNL     1      -7.901   6.951  72.532  1.00  0.00     0.000 HD 
ENDROOT
BRANCH   3   7
HETATM    7  C   UNL     1      -9.549   6.470  71.392  1.00  0.00    -0.165 C  
BRANCH   7   8
HETATM    8  C   UNL     1      -9.836   7.995  71.387  1.00  0.00    -0.171 C  
HETATM    9  H   UNL     1      -9.561   9.494  70.148  1.00  0.00     0.000 HD 
HETATM   10  O   UNL     1      -9.385   8.560  70.151  1.00  0.00    -0.156 OA 
BRANCH   8  11
HETATM   11  C   UNL     1     -11.321   8.251  71.589  1.00  0.00    -0.329 A  
HETATM   12  C   UNL     1     -11.805   9.570  71.662  1.00  0.00    -0.468 A  
HETATM   13  C   UNL     1     -13.157   9.806  71.922  1.00  0.00    -0.446 A  
HETATM   14  C   UNL     1     -14.049   8.757  72.112  1.00  0.00    -0.519 A  
HETATM   15  O   UNL     1     -13.651  11.074  72.016  1.00  0.00    -0.380 OA 
HETATM   16  H   UNL     1     -14.570  11.234  72.193  1.00  0.00     0.000 HD 
HETATM   17  C   UNL     1     -13.574   7.454  72.028  1.00  0.00    -0.119 A  
HETATM   18  O   UNL     1     -14.400   6.384  72.208  1.00  0.00    -0.627 OA 
HETATM   19  C   UNL     1     -12.232   7.194  71.765  1.00  0.00    -0.379 A  
HETATM   20  H   UNL     1     -14.075   5.493  72.150  1.00  0.00     0.000 HD 
ENDBRANCH   8  11
ENDBRANCH   7   8
ENDBRANCH   3   7
TORSDOF 3
ENDMDL
MODEL      221
REMARK 921   NORMALIZED FREE ENERGY PREDICTED BY IDOCK:   -3.47 KCAL/MOL
REMARK 922        TOTAL FREE ENERGY PREDICTED BY IDOCK:   -4.38 KCAL/MOL
REMARK 923 INTER-LIGAND FREE ENERGY PREDICTED BY IDOCK:   -4.12 KCAL/MOL
REMARK 924 INTRA-LIGAND FREE ENERGY PREDICTED BY IDOCK:   -0.26 KCAL/MOL
REMARK 927      BINDING AFFINITY PREDICTED BY RF-SCORE:    0.00 PKD
ROOT
HETATM    1  C   UNL     1      -7.683   8.657  63.806  1.00  0.00    -0.136 C  
HETATM    2  C   UNL     1      -7.609   8.455  65.328  1.00  0.00    -0.090 C  
HETATM    3  N   UNL     1      -7.529   9.732  66.067  1.00  0.00    -0.099 NA 
HETATM    4  C   UNL     1      -8.810   7.620  65.806  1.00  0.00    -0.134 C  
HETATM    5  C   UNL     1      -6.324   7.666  65.642  1.00  0.00    -0.042 C  
HETATM    6  H   UNL     1      -6.648  10.203  65.861  1.00  0.00     0.000 HD 
ENDROOT
BRANCH   3   7
HETATM    7  C   UNL     1      -8.660  10.649  65.845  1.00  0.00    -0.172 C  
BRANCH   7   8
HETATM    8  C   UNL     1      -8.909  11.607  67.040  1.00  0.00    -0.177 C  
HETATM    9  H   UNL     1      -7.893  12.993  67.992  1.00  0.00     0.000 HD 
HETATM   10  O   UNL     1      -7.741  12.406  67.261  1.00  0.00    -0.160 OA 
BRANCH   8  11
HETATM   11  C   UNL     1     -10.120  12.484  66.768  1.00  0.00    -0.233 A  
HETATM   12  C   UNL     1     -10.821  12.362  65.554  1.00  0.00    -0.316 A  
HETATM   13  C   UNL     1     -11.888  13.219  65.273  1.00  0.00    -0.357 A  
HETATM   14  C   UNL     1     -12.281  14.202  66.174  1.00  0.00    -0.465 A  
HETATM   15  O   UNL     1     -12.575  13.135  64.097  1.00  0.00    -0.621 OA 
HETATM   16  H   UNL     1     -13.299  13.718  63.906  1.00  0.00     0.000 HD 
HETATM   17  C   UNL     1     -11.597  14.315  67.378  1.00  0.00    -0.369 A  
HETATM   18  O   UNL     1     -11.935  15.261  68.300  1.00  0.00    -0.513 OA 
HETATM   19  C   UNL     1     -10.534  13.470  67.683  1.00  0.00    -0.239 A  
HETATM   20  H   UNL     1     -11.467  15.339  69.123  1.00  0.00     0.000 HD 
ENDBRANCH   8  11
ENDBRANCH   7   8
ENDBRANCH   3   7
TORSDOF 3
ENDMDL
MODEL      222
REMARK 921   NORMALIZED FREE ENERGY PREDICTED BY IDOCK:   -3.44 KCAL/MOL
REMARK 922        TOTAL FREE ENERGY PREDICTED BY IDOCK:   -4.34 KCAL/MOL
REMARK 923 INTER-LIGAND FREE ENERGY PREDICTED BY IDOCK:   -4.01 KCAL/MOL
REMARK 924 INTRA-LIGAND FREE ENERGY PREDICTED BY IDOCK:   -0.33 KCAL/MOL
REMARK 927      BINDING AFFINITY PREDICTED BY RF-SCORE:    0.00 PKD
ROOT
HETATM    1  C   UNL     1      -9.879  14.730  68.423  1.00  0.00    -0.220 C  
HETATM    2  C   UNL     1      -9.755  14.903  66.900  1.00  0.00    -0.240 C  
HETATM    3  N   UNL     1      -9.619  13.614  66.192  1.00  0.00    -0.432 NA 
HETATM    4  C   UNL     1     -10.957  15.700  66.363  1.00  0.00    -0.197 C  
HETATM    5  C   UNL     1      -8.478  15.716  66.615  1.00  0.00    -0.323 C  
HETATM    6  H   UNL     1      -8.736  13.168  66.438  1.00  0.00     0.000 HD 
ENDROOT
BRANCH   3   7
HETATM    7  C   UNL     1     -10.737  12.676  66.392  1.00  0.00    -0.255 C  
BRANCH   7   8
HETATM    8  C   UNL     1     -10.300  11.343  67.057  1.00  0.00    -0.223 C  
HETATM    9  H   UNL     1     -11.191   9.733  67.745  1.00  0.00     0.000 HD 
HETATM   10  O   UNL     1     -11.458  10.549  67.338  1.00  0.00    -0.405 OA 
BRANCH   8  11
HETATM   11  C   UNL     1      -9.338  10.594  66.151  1.00  0.00    -0.207 A  
HETATM   12  C   UNL     1      -8.001  10.402  66.546  1.00  0.00    -0.123 A  
HETATM   13  C   UNL     1      -7.098   9.779  65.681  1.00  0.00    -0.105 A  
HETATM   14  C   UNL     1      -7.492   9.336  64.423  1.00  0.00    -0.106 A  
HETATM   15  O   UNL     1      -5.792   9.596  66.030  1.00  0.00    -0.058 OA 
HETATM   16  H   UNL     1      -5.178   9.173  65.442  1.00  0.00     0.000 HD 
HETATM   17  C   UNL     1      -8.815   9.514  64.038  1.00  0.00    -0.212 A  
HETATM   18  O   UNL     1      -9.259   9.102  62.816  1.00  0.00    -0.509 OA 
HETATM   19  C   UNL     1      -9.734  10.127  64.884  1.00  0.00    -0.392 A  
HETATM   20  H   UNL     1     -10.164   9.224  62.552  1.00  0.00     0.000 HD 
ENDBRANCH   8  11
ENDBRANCH   7   8
ENDBRANCH   3   7
TORSDOF 3
ENDMDL
MODEL      223
REMARK 921   NORMALIZED FREE ENERGY PREDICTED BY IDOCK:   -3.43 KCAL/MOL
REMARK 922        TOTAL FREE ENERGY PREDICTED BY IDOCK:   -4.32 KCAL/MOL
REMARK 923 INTER-LIGAND FREE ENERGY PREDICTED BY IDOCK:   -4.04 KCAL/MOL
REMARK 924 INTRA-LIGAND FREE ENERGY PREDICTED BY IDOCK:   -0.28 KCAL/MOL
REMARK 927      BINDING AFFINITY PREDICTED BY RF-SCORE:    0.00 PKD
ROOT
HETATM    1  C   UNL     1      -8.509   6.148  72.561  1.00  0.00    -0.118 C  
HETATM    2  C   UNL     1      -8.465   5.185  71.363  1.00  0.00    -0.124 C  
HETATM    3  N   UNL     1      -9.315   5.636  70.242  1.00  0.00    -0.149 NA 
HETATM    4  C   UNL     1      -7.010   4.987  70.902  1.00  0.00    -0.048 C  
HETATM    5  C   UNL     1      -9.009   3.821  71.827  1.00  0.00    -0.151 C  
HETATM    6  H   UNL     1     -10.298   5.610  70.512  1.00  0.00     0.000 HD 
ENDROOT
BRANCH   3   7
HETATM    7  C   UNL     1      -8.971   6.960  69.696  1.00  0.00    -0.144 C  
BRANCH   7   8
HETATM    8  C   UNL     1     -10.155   7.639  68.958  1.00  0.00    -0.198 C  
HETATM    9  H   UNL     1     -11.641   7.062  67.809  1.00  0.00     0.000 HD 
HETATM   10  O   UNL     1     -10.916   6.646  68.261  1.00  0.00    -0.262 OA 
BRANCH   8  11
HETATM   11  C   UNL     1     -11.029   8.393  69.947  1.00  0.00    -0.166 A  
HETATM   12  C   UNL     1     -11.891   7.688  70.807  1.00  0.00    -0.227 A  
HETATM   13  C   UNL     1     -12.748   8.383  71.664  1.00  0.00    -0.331 A  
HETATM   14  C   UNL     1     -12.770   9.773  71.690  1.00  0.00    -0.517 A  
HETATM   15  O   UNL     1     -13.606   7.727  72.496  1.00  0.00    -0.493 OA 
HETATM   16  H   UNL     1     -14.189   8.199  73.078  1.00  0.00     0.000 HD 
HETATM   17  C   UNL     1     -11.911  10.470  70.849  1.00  0.00    -0.355 A  
HETATM   18  O   UNL     1     -11.889  11.833  70.829  1.00  0.00    -0.442 OA 
HETATM   19  C   UNL     1     -11.044   9.799  69.991  1.00  0.00    -0.311 A  
HETATM   20  H   UNL     1     -11.301  12.310  70.254  1.00  0.00     0.000 HD 
ENDBRANCH   8  11
ENDBRANCH   7   8
ENDBRANCH   3   7
TORSDOF 3
ENDMDL
MODEL      224
REMARK 921   NORMALIZED FREE ENERGY PREDICTED BY IDOCK:   -3.42 KCAL/MOL
REMARK 922        TOTAL FREE ENERGY PREDICTED BY IDOCK:   -4.31 KCAL/MOL
REMARK 923 INTER-LIGAND FREE ENERGY PREDICTED BY IDOCK:   -4.02 KCAL/MOL
REMARK 924 INTRA-LIGAND FREE ENERGY PREDICTED BY IDOCK:   -0.29 KCAL/MOL
REMARK 927      BINDING AFFINITY PREDICTED BY RF-SCORE:    0.00 PKD
ROOT
HETATM    1  C   UNL     1      -9.594  19.545  68.838  1.00  0.00    -0.460 C  
HETATM    2  C   UNL     1      -8.606  18.989  67.799  1.00  0.00    -0.298 C  
HETATM    3  N   UNL     1      -8.488  17.517  67.860  1.00  0.00    -0.225 NA 
HETATM    4  C   UNL     1      -9.013  19.449  66.389  1.00  0.00    -0.395 C  
HETATM    5  C   UNL     1      -7.213  19.570  68.108  1.00  0.00    -0.330 C  
HETATM    6  H   UNL     1      -8.066  17.233  68.744  1.00  0.00     0.000 HD 
ENDROOT
BRANCH   3   7
HETATM    7  C   UNL     1      -9.746  16.785  67.638  1.00  0.00    -0.251 C  
BRANCH   7   8
HETATM    8  C   UNL     1     -10.093  15.809  68.793  1.00  0.00    -0.215 C  
HETATM    9  H   UNL     1     -11.681  15.375  69.866  1.00  0.00     0.000 HD 
HETATM   10  O   UNL     1     -11.469  15.973  69.159  1.00  0.00    -0.339 OA 
BRANCH   8  11
HETATM   11  C   UNL     1      -9.813  14.375  68.373  1.00  0.00    -0.234 A  
HETATM   12  C   UNL     1      -8.565  13.789  68.653  1.00  0.00    -0.057 A  
HETATM   13  C   UNL     1      -8.281  12.498  68.202  1.00  0.00    -0.170 A  
HETATM   14  C   UNL     1      -9.213  11.767  67.474  1.00  0.00    -0.175 A  
HETATM   15  O   UNL     1      -7.074  11.911  68.444  1.00  0.00    -0.074 OA 
HETATM   16  H   UNL     1      -6.881  11.033  68.136  1.00  0.00     0.000 HD 
HETATM   17  C   UNL     1     -10.450  12.341  67.207  1.00  0.00    -0.218 A  
HETATM   18  O   UNL     1     -11.403  11.674  66.496  1.00  0.00    -0.328 OA 
HETATM   19  C   UNL     1     -10.758  13.623  67.651  1.00  0.00    -0.253 A  
HETATM   20  H   UNL     1     -12.249  12.066  66.313  1.00  0.00     0.000 HD 
ENDBRANCH   8  11
ENDBRANCH   7   8
ENDBRANCH   3   7
TORSDOF 3
ENDMDL
MODEL      225
REMARK 921   NORMALIZED FREE ENERGY PREDICTED BY IDOCK:   -3.41 KCAL/MOL
REMARK 922        TOTAL FREE ENERGY PREDICTED BY IDOCK:   -4.31 KCAL/MOL
REMARK 923 INTER-LIGAND FREE ENERGY PREDICTED BY IDOCK:   -4.02 KCAL/MOL
REMARK 924 INTRA-LIGAND FREE ENERGY PREDICTED BY IDOCK:   -0.29 KCAL/MOL
REMARK 927      BINDING AFFINITY PREDICTED BY RF-SCORE:    0.00 PKD
ROOT
HETATM    1  C   UNL     1     -11.461  14.993  65.479  1.00  0.00    -0.265 C  
HETATM    2  C   UNL     1     -11.275  13.481  65.266  1.00  0.00    -0.292 C  
HETATM    3  N   UNL     1      -9.857  13.071  65.318  1.00  0.00    -0.493 NA 
HETATM    4  C   UNL     1     -12.110  12.700  66.295  1.00  0.00    -0.358 C  
HETATM    5  C   UNL     1     -11.799  13.130  63.860  1.00  0.00    -0.533 C  
HETATM    6  H   UNL     1      -9.345  13.472  64.532  1.00  0.00     0.000 HD 
ENDROOT
BRANCH   3   7
HETATM    7  C   UNL     1      -9.168  13.378  66.584  1.00  0.00    -0.214 C  
BRANCH   7   8
HETATM    8  C   UNL     1      -7.938  12.469  66.843  1.00  0.00    -0.008 C  
HETATM    9  H   UNL     1      -6.151  12.678  67.631  1.00  0.00     0.000 HD 
HETATM   10  O   UNL     1      -6.904  13.234  67.473  1.00  0.00    -0.157 OA 
BRANCH   8  11
HETATM   11  C   UNL     1      -8.333  11.281  67.706  1.00  0.00    -0.125 A  
HETATM   12  C   UNL     1      -9.369  10.424  67.293  1.00  0.00    -0.164 A  
HETATM   13  C   UNL     1      -9.782   9.377  68.120  1.00  0.00    -0.145 A  
HETATM   14  C   UNL     1      -9.187   9.157  69.357  1.00  0.00    -0.156 A  
HETATM   15  O   UNL     1     -10.795   8.540  67.754  1.00  0.00    -0.473 OA 
HETATM   16  H   UNL     1     -11.076   7.829  68.317  1.00  0.00     0.000 HD 
HETATM   17  C   UNL     1      -8.156   9.997  69.760  1.00  0.00    -0.177 A  
HETATM   18  O   UNL     1      -7.536   9.832  70.963  1.00  0.00    -0.318 OA 
HETATM   19  C   UNL     1      -7.723  11.043  68.951  1.00  0.00    -0.140 A  
HETATM   20  H   UNL     1      -6.830  10.406  71.239  1.00  0.00     0.000 HD 
ENDBRANCH   8  11
ENDBRANCH   7   8
ENDBRANCH   3   7
TORSDOF 3
ENDMDL
MODEL      226
REMARK 921   NORMALIZED FREE ENERGY PREDICTED BY IDOCK:   -3.40 KCAL/MOL
REMARK 922        TOTAL FREE ENERGY PREDICTED BY IDOCK:   -4.30 KCAL/MOL
REMARK 923 INTER-LIGAND FREE ENERGY PREDICTED BY IDOCK:   -3.83 KCAL/MOL
REMARK 924 INTRA-LIGAND FREE ENERGY PREDICTED BY IDOCK:   -0.47 KCAL/MOL
REMARK 927      BINDING AFFINITY PREDICTED BY RF-SCORE:    0.00 PKD
ROOT
HETATM    1  C   UNL     1      -9.126   9.817  66.713  1.00  0.00    -0.169 C  
HETATM    2  C   UNL     1      -8.521   9.924  68.123  1.00  0.00    -0.114 C  
HETATM    3  N   UNL     1      -9.433  10.574  69.084  1.00  0.00    -0.236 NA 
HETATM    4  C   UNL     1      -8.102   8.530  68.621  1.00  0.00    -0.121 C  
HETATM    5  C   UNL     1      -7.255  10.798  68.033  1.00  0.00    -0.086 C  
HETATM    6  H   UNL     1      -9.577  11.551  68.829  1.00  0.00     0.000 HD 
ENDROOT
BRANCH   3   7
HETATM    7  C   UNL     1     -10.730   9.899  69.263  1.00  0.00    -0.224 C  
BRANCH   7   8
HETATM    8  C   UNL     1     -11.201   9.867  70.741  1.00  0.00    -0.353 C  
HETATM    9  H   UNL     1     -12.864  10.241  71.717  1.00  0.00     0.000 HD 
HETATM   10  O   UNL     1     -12.576  10.261  70.812  1.00  0.00    -0.325 OA 
BRANCH   8  11
HETATM   11  C   UNL     1     -11.005   8.478  71.326  1.00  0.00    -0.316 A  
HETATM   12  C   UNL     1     -10.638   8.326  72.676  1.00  0.00    -0.378 A  
HETATM   13  C   UNL     1     -10.386   7.053  73.193  1.00  0.00    -0.281 A  
HETATM   14  C   UNL     1     -10.492   5.917  72.399  1.00  0.00    -0.246 A  
HETATM   15  O   UNL     1     -10.011   6.876  74.493  1.00  0.00    -0.462 OA 
HETATM   16  H   UNL     1      -9.839   6.011  74.845  1.00  0.00     0.000 HD 
HETATM   17  C   UNL     1     -10.866   6.066  71.069  1.00  0.00    -0.282 A  
HETATM   18  O   UNL     1     -10.984   4.989  70.240  1.00  0.00     0.054 OA 
HETATM   19  C   UNL     1     -11.127   7.323  70.532  1.00  0.00    -0.290 A  
HETATM   20  H   UNL     1     -11.240   5.091  69.331  1.00  0.00     0.000 HD 
ENDBRANCH   8  11
ENDBRANCH   7   8
ENDBRANCH   3   7
TORSDOF 3
ENDMDL
MODEL      227
REMARK 921   NORMALIZED FREE ENERGY PREDICTED BY IDOCK:   -3.39 KCAL/MOL
REMARK 922        TOTAL FREE ENERGY PREDICTED BY IDOCK:   -4.28 KCAL/MOL
REMARK 923 INTER-LIGAND FREE ENERGY PREDICTED BY IDOCK:   -4.25 KCAL/MOL
REMARK 924 INTRA-LIGAND FREE ENERGY PREDICTED BY IDOCK:   -0.03 KCAL/MOL
REMARK 927      BINDING AFFINITY PREDICTED BY RF-SCORE:    0.00 PKD
ROOT
HETATM    1  C   UNL     1     -12.849  13.898  65.273  1.00  0.00    -0.437 C  
HETATM    2  C   UNL     1     -11.455  13.570  65.836  1.00  0.00    -0.320 C  
HETATM    3  N   UNL     1     -10.875  14.692  66.602  1.00  0.00    -0.306 NA 
HETATM    4  C   UNL     1     -11.522  12.296  66.695  1.00  0.00    -0.431 C  
HETATM    5  C   UNL     1     -10.514  13.296  64.647  1.00  0.00    -0.420 C  
HETATM    6  H   UNL     1     -10.687  15.481  65.984  1.00  0.00     0.000 HD 
ENDROOT
BRANCH   3   7
HETATM    7  C   UNL     1     -11.674  15.131  67.759  1.00  0.00    -0.232 C  
BRANCH   7   8
HETATM    8  C   UNL     1     -10.810  15.715  68.908  1.00  0.00    -0.252 C  
HETATM    9  H   UNL     1     -10.164  15.104  70.660  1.00  0.00     0.000 HD 
HETATM   10  O   UNL     1     -10.693  14.747  69.956  1.00  0.00    -0.184 OA 
BRANCH   8  11
HETATM   11  C   UNL     1      -9.439  16.114  68.385  1.00  0.00    -0.210 A  
HETATM   12  C   UNL     1      -9.215  17.422  67.918  1.00  0.00    -0.256 A  
HETATM   13  C   UNL     1      -7.978  17.767  67.368  1.00  0.00    -0.211 A  
HETATM   14  C   UNL     1      -6.947  16.838  67.272  1.00  0.00    -0.210 A  
HETATM   15  O   UNL     1      -7.738  19.022  66.892  1.00  0.00    -0.233 OA 
HETATM   16  H   UNL     1      -6.897  19.256  66.518  1.00  0.00     0.000 HD 
HETATM   17  C   UNL     1      -7.164  15.550  67.744  1.00  0.00    -0.157 A  
HETATM   18  O   UNL     1      -6.193  14.595  67.674  1.00  0.00    -0.237 OA 
HETATM   19  C   UNL     1      -8.387  15.184  68.300  1.00  0.00    -0.149 A  
HETATM   20  H   UNL     1      -6.341  13.714  67.997  1.00  0.00     0.000 HD 
ENDBRANCH   8  11
ENDBRANCH   7   8
ENDBRANCH   3   7
TORSDOF 3
ENDMDL
MODEL      228
REMARK 921   NORMALIZED FREE ENERGY PREDICTED BY IDOCK:   -3.39 KCAL/MOL
REMARK 922        TOTAL FREE ENERGY PREDICTED BY IDOCK:   -4.28 KCAL/MOL
REMARK 923 INTER-LIGAND FREE ENERGY PREDICTED BY IDOCK:   -3.92 KCAL/MOL
REMARK 924 INTRA-LIGAND FREE ENERGY PREDICTED BY IDOCK:   -0.35 KCAL/MOL
REMARK 927      BINDING AFFINITY PREDICTED BY RF-SCORE:    0.00 PKD
ROOT
HETATM    1  C   UNL     1      -8.402   5.737  70.718  1.00  0.00    -0.124 C  
HETATM    2  C   UNL     1      -8.400   5.003  69.367  1.00  0.00    -0.085 C  
HETATM    3  N   UNL     1      -9.272   5.653  68.367  1.00  0.00    -0.117 NA 
HETATM    4  C   UNL     1      -6.960   4.878  68.840  1.00  0.00    -0.052 C  
HETATM    5  C   UNL     1      -8.950   3.582  69.595  1.00  0.00    -0.174 C  
HETATM    6  H   UNL     1     -10.248   5.588  68.654  1.00  0.00     0.000 HD 
ENDROOT
BRANCH   3   7
HETATM    7  C   UNL     1      -8.925   7.050  68.056  1.00  0.00    -0.126 C  
BRANCH   7   8
HETATM    8  C   UNL     1     -10.061   7.810  67.320  1.00  0.00    -0.238 C  
HETATM    9  H   UNL     1     -11.826   7.368  66.581  1.00  0.00     0.000 HD 
HETATM   10  O   UNL     1     -11.131   6.903  67.031  1.00  0.00    -0.389 OA 
BRANCH   8  11
HETATM   11  C   UNL     1     -10.552   8.972  68.168  1.00  0.00    -0.225 A  
HETATM   12  C   UNL     1     -10.589   8.857  69.570  1.00  0.00    -0.233 A  
HETATM   13  C   UNL     1     -11.110   9.896  70.344  1.00  0.00    -0.319 A  
HETATM   14  C   UNL     1     -11.597  11.059  69.757  1.00  0.00    -0.401 A  
HETATM   15  O   UNL     1     -11.174   9.806  71.703  1.00  0.00    -0.331 OA 
HETATM   16  H   UNL     1     -11.529  10.512  72.229  1.00  0.00     0.000 HD 
HETATM   17  C   UNL     1     -11.550  11.178  68.374  1.00  0.00    -0.306 A  
HETATM   18  O   UNL     1     -12.016  12.292  67.741  1.00  0.00    -0.474 OA 
HETATM   19  C   UNL     1     -11.031  10.158  67.581  1.00  0.00    -0.331 A  
HETATM   20  H   UNL     1     -11.983  12.374  66.795  1.00  0.00     0.000 HD 
ENDBRANCH   8  11
ENDBRANCH   7   8
ENDBRANCH   3   7
TORSDOF 3
ENDMDL
MODEL      229
REMARK 921   NORMALIZED FREE ENERGY PREDICTED BY IDOCK:   -3.37 KCAL/MOL
REMARK 922        TOTAL FREE ENERGY PREDICTED BY IDOCK:   -4.26 KCAL/MOL
REMARK 923 INTER-LIGAND FREE ENERGY PREDICTED BY IDOCK:   -4.25 KCAL/MOL
REMARK 924 INTRA-LIGAND FREE ENERGY PREDICTED BY IDOCK:   -0.01 KCAL/MOL
REMARK 927      BINDING AFFINITY PREDICTED BY RF-SCORE:    0.00 PKD
ROOT
HETATM    1  C   UNL     1     -10.245  14.270  66.040  1.00  0.00    -0.327 C  
HETATM    2  C   UNL     1     -11.394  13.485  66.694  1.00  0.00    -0.322 C  
HETATM    3  N   UNL     1     -11.181  12.024  66.648  1.00  0.00    -0.310 NA 
HETATM    4  C   UNL     1     -11.600  13.963  68.141  1.00  0.00    -0.370 C  
HETATM    5  C   UNL     1     -12.684  13.781  65.904  1.00  0.00    -0.452 C  
HETATM    6  H   UNL     1     -11.205  11.694  65.683  1.00  0.00     0.000 HD 
ENDROOT
BRANCH   3   7
HETATM    7  C   UNL     1      -9.954  11.555  67.315  1.00  0.00    -0.191 C  
BRANCH   7   8
HETATM    8  C   UNL     1      -9.696  10.038  67.117  1.00  0.00    -0.174 C  
HETATM    9  H   UNL     1     -10.737   8.380  67.283  1.00  0.00     0.000 HD 
HETATM   10  O   UNL     1     -10.895   9.309  67.404  1.00  0.00    -0.255 OA 
BRANCH   8  11
HETATM   11  C   UNL     1      -9.225   9.765  65.697  1.00  0.00    -0.252 A  
HETATM   12  C   UNL     1      -8.761   8.485  65.342  1.00  0.00    -0.194 A  
HETATM   13  C   UNL     1      -8.258   8.254  64.059  1.00  0.00    -0.096 A  
HETATM   14  C   UNL     1      -8.206   9.270  63.111  1.00  0.00    -0.178 A  
HETATM   15  O   UNL     1      -7.786   7.029  63.692  1.00  0.00    -0.103 OA 
HETATM   16  H   UNL     1      -7.444   6.872  62.820  1.00  0.00     0.000 HD 
HETATM   17  C   UNL     1      -8.675  10.531  63.458  1.00  0.00    -0.185 A  
HETATM   18  O   UNL     1      -8.647  11.567  62.572  1.00  0.00    -0.595 OA 
HETATM   19  C   UNL     1      -9.185  10.784  64.728  1.00  0.00    -0.245 A  
HETATM   20  H   UNL     1      -8.968  12.430  62.809  1.00  0.00     0.000 HD 
ENDBRANCH   8  11
ENDBRANCH   7   8
ENDBRANCH   3   7
TORSDOF 3
ENDMDL
MODEL      230
REMARK 921   NORMALIZED FREE ENERGY PREDICTED BY IDOCK:   -3.36 KCAL/MOL
REMARK 922        TOTAL FREE ENERGY PREDICTED BY IDOCK:   -4.25 KCAL/MOL
REMARK 923 INTER-LIGAND FREE ENERGY PREDICTED BY IDOCK:   -3.97 KCAL/MOL
REMARK 924 INTRA-LIGAND FREE ENERGY PREDICTED BY IDOCK:   -0.27 KCAL/MOL
REMARK 927      BINDING AFFINITY PREDICTED BY RF-SCORE:    0.00 PKD
ROOT
HETATM    1  C   UNL     1     -10.165  14.161  66.610  1.00  0.00    -0.270 C  
HETATM    2  C   UNL     1     -11.534  13.462  66.661  1.00  0.00    -0.344 C  
HETATM    3  N   UNL     1     -11.481  12.075  66.154  1.00  0.00    -0.373 NA 
HETATM    4  C   UNL     1     -12.090  13.501  68.094  1.00  0.00    -0.290 C  
HETATM    5  C   UNL     1     -12.501  14.243  65.751  1.00  0.00    -0.421 C  
HETATM    6  H   UNL     1     -11.266  12.072  65.157  1.00  0.00     0.000 HD 
ENDROOT
BRANCH   3   7
HETATM    7  C   UNL     1     -10.557  11.185  66.878  1.00  0.00    -0.258 C  
BRANCH   7   8
HETATM    8  C   UNL     1      -9.965  10.065  65.982  1.00  0.00    -0.267 C  
HETATM    9  H   UNL     1      -8.293   9.760  64.998  1.00  0.00     0.000 HD 
HETATM   10  O   UNL     1      -8.655  10.446  65.546  1.00  0.00    -0.156 OA 
BRANCH   8  11
HETATM   11  C   UNL     1      -9.921   8.750  66.744  1.00  0.00    -0.338 A  
HETATM   12  C   UNL     1     -10.667   8.595  67.927  1.00  0.00    -0.158 A  
HETATM   13  C   UNL     1     -10.567   7.414  68.667  1.00  0.00    -0.154 A  
HETATM   14  C   UNL     1      -9.740   6.374  68.258  1.00  0.00    -0.127 A  
HETATM   15  O   UNL     1     -11.265   7.242  69.826  1.00  0.00    -0.396 OA 
HETATM   16  H   UNL     1     -11.197   6.440  70.329  1.00  0.00     0.000 HD 
HETATM   17  C   UNL     1      -9.012   6.522  67.084  1.00  0.00    -0.113 A  
HETATM   18  O   UNL     1      -8.183   5.538  66.634  1.00  0.00    -0.105 OA 
HETATM   19  C   UNL     1      -9.099   7.687  66.327  1.00  0.00    -0.204 A  
HETATM   20  H   UNL     1      -7.685   5.640  65.831  1.00  0.00     0.000 HD 
ENDBRANCH   8  11
ENDBRANCH   7   8
ENDBRANCH   3   7
TORSDOF 3
ENDMDL
MODEL      231
REMARK 921   NORMALIZED FREE ENERGY PREDICTED BY IDOCK:   -3.35 KCAL/MOL
REMARK 922        TOTAL FREE ENERGY PREDICTED BY IDOCK:   -4.23 KCAL/MOL
REMARK 923 INTER-LIGAND FREE ENERGY PREDICTED BY IDOCK:   -3.92 KCAL/MOL
REMARK 924 INTRA-LIGAND FREE ENERGY PREDICTED BY IDOCK:   -0.32 KCAL/MOL
REMARK 927      BINDING AFFINITY PREDICTED BY RF-SCORE:    0.00 PKD
ROOT
HETATM    1  C   UNL     1      -5.431  11.635  69.351  1.00  0.00    -0.054 C  
HETATM    2  C   UNL     1      -6.853  11.104  69.107  1.00  0.00    -0.102 C  
HETATM    3  N   UNL     1      -7.853  12.186  69.006  1.00  0.00    -0.340 NA 
HETATM    4  C   UNL     1      -6.874  10.220  67.848  1.00  0.00    -0.074 C  
HETATM    5  C   UNL     1      -7.249  10.229  70.312  1.00  0.00    -0.077 C  
HETATM    6  H   UNL     1      -7.945  12.666  69.902  1.00  0.00     0.000 HD 
ENDROOT
BRANCH   3   7
HETATM    7  C   UNL     1      -7.606  13.161  67.930  1.00  0.00    -0.147 C  
BRANCH   7   8
HETATM    8  C   UNL     1      -7.800  14.632  68.385  1.00  0.00    -0.131 C  
HETATM    9  H   UNL     1      -7.328  16.411  67.699  1.00  0.00     0.000 HD 
HETATM   10  O   UNL     1      -7.210  15.511  67.420  1.00  0.00    -0.176 OA 
BRANCH   8  11
HETATM   11  C   UNL     1      -9.278  14.938  68.561  1.00  0.00    -0.192 A  
HETATM   12  C   UNL     1      -9.732  15.574  69.731  1.00  0.00    -0.247 A  
HETATM   13  C   UNL     1     -11.099  15.787  69.926  1.00  0.00    -0.331 A  
HETATM   14  C   UNL     1     -12.035  15.383  68.980  1.00  0.00    -0.313 A  
HETATM   15  O   UNL     1     -11.569  16.386  71.058  1.00  0.00    -0.584 OA 
HETATM   16  H   UNL     1     -12.498  16.531  71.191  1.00  0.00     0.000 HD 
HETATM   17  C   UNL     1     -11.586  14.766  67.820  1.00  0.00    -0.357 A  
HETATM   18  O   UNL     1     -12.456  14.345  66.858  1.00  0.00    -0.568 OA 
HETATM   19  C   UNL     1     -10.229  14.547  67.600  1.00  0.00    -0.225 A  
HETATM   20  H   UNL     1     -12.149  13.923  66.063  1.00  0.00     0.000 HD 
ENDBRANCH   8  11
ENDBRANCH   7   8
ENDBRANCH   3   7
TORSDOF 3
ENDMDL
MODEL      232
REMARK 921   NORMALIZED FREE ENERGY PREDICTED BY IDOCK:   -3.35 KCAL/MOL
REMARK 922        TOTAL FREE ENERGY PREDICTED BY IDOCK:   -4.23 KCAL/MOL
REMARK 923 INTER-LIGAND FREE ENERGY PREDICTED BY IDOCK:   -3.88 KCAL/MOL
REMARK 924 INTRA-LIGAND FREE ENERGY PREDICTED BY IDOCK:   -0.35 KCAL/MOL
REMARK 927      BINDING AFFINITY PREDICTED BY RF-SCORE:    0.00 PKD
ROOT
HETATM    1  C   UNL     1      -8.509   6.053  66.902  1.00  0.00    -0.109 C  
HETATM    2  C   UNL     1      -9.134   6.383  68.268  1.00  0.00    -0.114 C  
HETATM    3  N   UNL     1      -9.129   7.830  68.560  1.00  0.00    -0.133 NA 
HETATM    4  C   UNL     1     -10.561   5.813  68.343  1.00  0.00    -0.289 C  
HETATM    5  C   UNL     1      -8.288   5.696  69.358  1.00  0.00    -0.107 C  
HETATM    6  H   UNL     1      -8.172   8.165  68.666  1.00  0.00     0.000 HD 
ENDROOT
BRANCH   3   7
HETATM    7  C   UNL     1      -9.854   8.662  67.584  1.00  0.00    -0.180 C  
BRANCH   7   8
HETATM    8  C   UNL     1      -9.253  10.085  67.433  1.00  0.00    -0.137 C  
HETATM    9  H   UNL     1      -7.506  10.935  67.725  1.00  0.00     0.000 HD 
HETATM   10  O   UNL     1      -7.874  10.064  67.817  1.00  0.00    -0.094 OA 
BRANCH   8  11
HETATM   11  C   UNL     1      -9.408  10.572  66.001  1.00  0.00    -0.215 A  
HETATM   12  C   UNL     1      -9.659  11.932  65.742  1.00  0.00    -0.241 A  
HETATM   13  C   UNL     1      -9.875  12.366  64.432  1.00  0.00    -0.090 A  
HETATM   14  C   UNL     1      -9.846  11.477  63.363  1.00  0.00    -0.422 A  
HETATM   15  O   UNL     1     -10.138  13.675  64.152  1.00  0.00    -0.757 OA 
HETATM   16  H   UNL     1     -10.285  13.970  63.262  1.00  0.00     0.000 HD 
HETATM   17  C   UNL     1      -9.586  10.136  63.617  1.00  0.00    -0.207 A  
HETATM   18  O   UNL     1      -9.547   9.218  62.611  1.00  0.00    -0.481 OA 
HETATM   19  C   UNL     1      -9.362   9.681  64.913  1.00  0.00    -0.306 A  
HETATM   20  H   UNL     1      -9.369   8.300  62.784  1.00  0.00     0.000 HD 
ENDBRANCH   8  11
ENDBRANCH   7   8
ENDBRANCH   3   7
TORSDOF 3
ENDMDL
MODEL      233
REMARK 921   NORMALIZED FREE ENERGY PREDICTED BY IDOCK:   -3.33 KCAL/MOL
REMARK 922        TOTAL FREE ENERGY PREDICTED BY IDOCK:   -4.21 KCAL/MOL
REMARK 923 INTER-LIGAND FREE ENERGY PREDICTED BY IDOCK:   -3.92 KCAL/MOL
REMARK 924 INTRA-LIGAND FREE ENERGY PREDICTED BY IDOCK:   -0.29 KCAL/MOL
REMARK 927      BINDING AFFINITY PREDICTED BY RF-SCORE:    0.00 PKD
ROOT
HETATM    1  C   UNL     1      -9.065   5.482  71.868  1.00  0.00    -0.149 C  
HETATM    2  C   UNL     1      -9.955   6.550  72.526  1.00  0.00    -0.170 C  
HETATM    3  N   UNL     1      -9.686   7.908  72.010  1.00  0.00    -0.175 NA 
HETATM    4  C   UNL     1     -11.437   6.180  72.351  1.00  0.00    -0.349 C  
HETATM    5  C   UNL     1      -9.642   6.567  74.035  1.00  0.00    -0.239 C  
HETATM    6  H   UNL     1      -8.747   8.206  72.274  1.00  0.00     0.000 HD 
ENDROOT
BRANCH   3   7
HETATM    7  C   UNL     1      -9.884   8.071  70.560  1.00  0.00    -0.182 C  
BRANCH   7   8
HETATM    8  C   UNL     1     -10.961   9.131  70.208  1.00  0.00    -0.245 C  
HETATM    9  H   UNL     1     -11.723  10.728  71.062  1.00  0.00     0.000 HD 
HETATM   10  O   UNL     1     -11.064  10.079  71.277  1.00  0.00    -0.309 OA 
BRANCH   8  11
HETATM   11  C   UNL     1     -10.609   9.825  68.902  1.00  0.00    -0.240 A  
HETATM   12  C   UNL     1      -9.318   9.694  68.359  1.00  0.00    -0.136 A  
HETATM   13  C   UNL     1      -8.972  10.391  67.200  1.00  0.00    -0.139 A  
HETATM   14  C   UNL     1      -9.884  11.223  66.559  1.00  0.00    -0.239 A  
HETATM   15  O   UNL     1      -7.723  10.297  66.660  1.00  0.00    -0.107 OA 
HETATM   16  H   UNL     1      -7.487  10.771  65.872  1.00  0.00     0.000 HD 
HETATM   17  C   UNL     1     -11.162  11.344  67.088  1.00  0.00    -0.296 A  
HETATM   18  O   UNL     1     -12.099  12.146  66.505  1.00  0.00    -0.627 OA 
HETATM   19  C   UNL     1     -11.532  10.655  68.239  1.00  0.00    -0.318 A  
HETATM   20  H   UNL     1     -12.973  12.229  66.867  1.00  0.00     0.000 HD 
ENDBRANCH   8  11
ENDBRANCH   7   8
ENDBRANCH   3   7
TORSDOF 3
ENDMDL
MODEL      234
REMARK 921   NORMALIZED FREE ENERGY PREDICTED BY IDOCK:   -3.33 KCAL/MOL
REMARK 922        TOTAL FREE ENERGY PREDICTED BY IDOCK:   -4.21 KCAL/MOL
REMARK 923 INTER-LIGAND FREE ENERGY PREDICTED BY IDOCK:   -3.73 KCAL/MOL
REMARK 924 INTRA-LIGAND FREE ENERGY PREDICTED BY IDOCK:   -0.48 KCAL/MOL
REMARK 927      BINDING AFFINITY PREDICTED BY RF-SCORE:    0.00 PKD
ROOT
HETATM    1  C   UNL     1     -11.161   6.043  66.870  1.00  0.00    -0.090 C  
HETATM    2  C   UNL     1      -9.723   6.498  67.167  1.00  0.00    -0.143 C  
HETATM    3  N   UNL     1      -9.608   7.965  67.297  1.00  0.00    -0.149 NA 
HETATM    4  C   UNL     1      -9.199   5.794  68.431  1.00  0.00    -0.121 C  
HETATM    5  C   UNL     1      -8.834   6.075  65.982  1.00  0.00    -0.159 C  
HETATM    6  H   UNL     1      -9.804   8.415  66.402  1.00  0.00     0.000 HD 
ENDROOT
BRANCH   3   7
HETATM    7  C   UNL     1     -10.437   8.561  68.358  1.00  0.00    -0.171 C  
BRANCH   7   8
HETATM    8  C   UNL     1      -9.599   9.231  69.480  1.00  0.00    -0.173 C  
HETATM    9  H   UNL     1      -9.351  11.049  70.182  1.00  0.00     0.000 HD 
HETATM   10  O   UNL     1      -9.864  10.639  69.495  1.00  0.00    -0.187 OA 
BRANCH   8  11
HETATM   11  C   UNL     1      -9.925   8.605  70.826  1.00  0.00    -0.241 A  
HETATM   12  C   UNL     1     -11.102   7.850  70.986  1.00  0.00    -0.268 A  
HETATM   13  C   UNL     1     -11.439   7.338  72.241  1.00  0.00    -0.278 A  
HETATM   14  C   UNL     1     -10.630   7.557  73.351  1.00  0.00    -0.409 A  
HETATM   15  O   UNL     1     -12.581   6.617  72.430  1.00  0.00    -0.530 OA 
HETATM   16  H   UNL     1     -12.811   6.270  73.283  1.00  0.00     0.000 HD 
HETATM   17  C   UNL     1      -9.462   8.292  73.190  1.00  0.00    -0.193 A  
HETATM   18  O   UNL     1      -8.631   8.542  74.242  1.00  0.00    -0.326 OA 
HETATM   19  C   UNL     1      -9.103   8.808  71.949  1.00  0.00    -0.291 A  
HETATM   20  H   UNL     1      -7.832   9.045  74.132  1.00  0.00     0.000 HD 
ENDBRANCH   8  11
ENDBRANCH   7   8
ENDBRANCH   3   7
TORSDOF 3
ENDMDL
MODEL      235
REMARK 921   NORMALIZED FREE ENERGY PREDICTED BY IDOCK:   -3.31 KCAL/MOL
REMARK 922        TOTAL FREE ENERGY PREDICTED BY IDOCK:   -4.19 KCAL/MOL
REMARK 923 INTER-LIGAND FREE ENERGY PREDICTED BY IDOCK:   -4.34 KCAL/MOL
REMARK 924 INTRA-LIGAND FREE ENERGY PREDICTED BY IDOCK:    0.16 KCAL/MOL
REMARK 927      BINDING AFFINITY PREDICTED BY RF-SCORE:    0.00 PKD
ROOT
HETATM    1  C   UNL     1     -10.490   6.970  69.229  1.00  0.00    -0.223 C  
HETATM    2  C   UNL     1      -9.915   7.430  67.878  1.00  0.00    -0.165 C  
HETATM    3  N   UNL     1     -10.442   8.743  67.455  1.00  0.00    -0.312 NA 
HETATM    4  C   UNL     1      -8.378   7.451  67.943  1.00  0.00    -0.119 C  
HETATM    5  C   UNL     1     -10.335   6.404  66.808  1.00  0.00    -0.279 C  
HETATM    6  H   UNL     1     -11.441   8.676  67.261  1.00  0.00     0.000 HD 
ENDROOT
BRANCH   3   7
HETATM    7  C   UNL     1     -10.179   9.849  68.392  1.00  0.00    -0.178 C  
BRANCH   7   8
HETATM    8  C   UNL     1     -10.375  11.249  67.752  1.00  0.00    -0.182 C  
HETATM    9  H   UNL     1      -9.554  13.025  67.926  1.00  0.00     0.000 HD 
HETATM   10  O   UNL     1      -9.433  12.168  68.318  1.00  0.00    -0.202 OA 
BRANCH   8  11
HETATM   11  C   UNL     1     -10.210  11.165  66.243  1.00  0.00    -0.286 A  
HETATM   12  C   UNL     1     -11.174  11.741  65.395  1.00  0.00    -0.310 A  
HETATM   13  C   UNL     1     -11.061  11.599  64.010  1.00  0.00    -0.384 A  
HETATM   14  C   UNL     1     -10.005  10.897  63.440  1.00  0.00    -0.414 A  
HETATM   15  O   UNL     1     -11.989  12.131  63.164  1.00  0.00    -0.710 OA 
HETATM   16  H   UNL     1     -11.912  12.035  62.223  1.00  0.00     0.000 HD 
HETATM   17  C   UNL     1      -9.046  10.339  64.277  1.00  0.00    -0.243 A  
HETATM   18  O   UNL     1      -7.990   9.637  63.777  1.00  0.00    -0.127 OA 
HETATM   19  C   UNL     1      -9.135  10.470  65.660  1.00  0.00    -0.209 A  
HETATM   20  H   UNL     1      -7.334   9.255  64.349  1.00  0.00     0.000 HD 
ENDBRANCH   8  11
ENDBRANCH   7   8
ENDBRANCH   3   7
TORSDOF 3
ENDMDL
MODEL      236
REMARK 921   NORMALIZED FREE ENERGY PREDICTED BY IDOCK:   -3.30 KCAL/MOL
REMARK 922        TOTAL FREE ENERGY PREDICTED BY IDOCK:   -4.17 KCAL/MOL
REMARK 923 INTER-LIGAND FREE ENERGY PREDICTED BY IDOCK:   -3.65 KCAL/MOL
REMARK 924 INTRA-LIGAND FREE ENERGY PREDICTED BY IDOCK:   -0.52 KCAL/MOL
REMARK 927      BINDING AFFINITY PREDICTED BY RF-SCORE:    0.00 PKD
ROOT
HETATM    1  C   UNL     1      -9.955   5.259  73.279  1.00  0.00    -0.185 C  
HETATM    2  C   UNL     1     -10.193   6.423  72.302  1.00  0.00    -0.185 C  
HETATM    3  N   UNL     1      -8.945   6.896  71.668  1.00  0.00    -0.136 NA 
HETATM    4  C   UNL     1     -11.226   6.012  71.238  1.00  0.00    -0.323 C  
HETATM    5  C   UNL     1     -10.774   7.605  73.101  1.00  0.00    -0.445 C  
HETATM    6  H   UNL     1      -8.331   7.314  72.367  1.00  0.00     0.000 HD 
ENDROOT
BRANCH   3   7
HETATM    7  C   UNL     1      -8.217   5.875  70.895  1.00  0.00    -0.125 C  
BRANCH   7   8
HETATM    8  C   UNL     1      -7.609   6.428  69.579  1.00  0.00    -0.095 C  
HETATM    9  H   UNL     1      -6.509   5.727  68.110  1.00  0.00     0.000 HD 
HETATM   10  O   UNL     1      -6.881   5.388  68.916  1.00  0.00    -0.051 OA 
BRANCH   8  11
HETATM   11  C   UNL     1      -8.708   6.975  68.681  1.00  0.00    -0.123 A  
HETATM   12  C   UNL     1      -9.509   6.094  67.931  1.00  0.00    -0.115 A  
HETATM   13  C   UNL     1     -10.468   6.600  67.050  1.00  0.00    -0.298 A  
HETATM   14  C   UNL     1     -10.655   7.969  66.895  1.00  0.00    -0.324 A  
HETATM   15  O   UNL     1     -11.247   5.771  66.298  1.00  0.00    -0.756 OA 
HETATM   16  H   UNL     1     -11.899   6.114  65.698  1.00  0.00     0.000 HD 
HETATM   17  C   UNL     1      -9.873   8.838  67.644  1.00  0.00    -0.180 A  
HETATM   18  O   UNL     1     -10.008  10.190  67.533  1.00  0.00    -0.177 OA 
HETATM   19  C   UNL     1      -8.914   8.358  68.532  1.00  0.00    -0.136 A  
HETATM   20  H   UNL     1      -9.473  10.785  68.045  1.00  0.00     0.000 HD 
ENDBRANCH   8  11
ENDBRANCH   7   8
ENDBRANCH   3   7
TORSDOF 3
ENDMDL
MODEL      237
REMARK 921   NORMALIZED FREE ENERGY PREDICTED BY IDOCK:   -3.28 KCAL/MOL
REMARK 922        TOTAL FREE ENERGY PREDICTED BY IDOCK:   -4.15 KCAL/MOL
REMARK 923 INTER-LIGAND FREE ENERGY PREDICTED BY IDOCK:   -3.74 KCAL/MOL
REMARK 924 INTRA-LIGAND FREE ENERGY PREDICTED BY IDOCK:   -0.42 KCAL/MOL
REMARK 927      BINDING AFFINITY PREDICTED BY RF-SCORE:    0.00 PKD
ROOT
HETATM    1  C   UNL     1     -10.101   9.018  71.038  1.00  0.00    -0.352 C  
HETATM    2  C   UNL     1     -11.516   8.542  71.407  1.00  0.00    -0.287 C  
HETATM    3  N   UNL     1     -12.079   7.608  70.411  1.00  0.00    -0.489 NA 
HETATM    4  C   UNL     1     -11.507   7.908  72.809  1.00  0.00    -0.428 C  
HETATM    5  C   UNL     1     -12.438   9.776  71.447  1.00  0.00    -0.482 C  
HETATM    6  H   UNL     1     -12.229   8.088  69.523  1.00  0.00     0.000 HD 
ENDROOT
BRANCH   3   7
HETATM    7  C   UNL     1     -11.293   6.381  70.198  1.00  0.00    -0.420 C  
BRANCH   7   8
HETATM    8  C   UNL     1     -11.003   6.096  68.701  1.00  0.00    -0.336 C  
HETATM    9  H   UNL     1     -10.837   7.154  67.054  1.00  0.00     0.000 HD 
HETATM   10  O   UNL     1     -11.015   7.328  67.970  1.00  0.00    -0.127 OA 
BRANCH   8  11
HETATM   11  C   UNL     1      -9.664   5.391  68.549  1.00  0.00    -0.183 A  
HETATM   12  C   UNL     1      -8.474   6.054  68.902  1.00  0.00    -0.116 A  
HETATM   13  C   UNL     1      -7.240   5.435  68.693  1.00  0.00    -0.066 A  
HETATM   14  C   UNL     1      -7.156   4.162  68.139  1.00  0.00    -0.059 A  
HETATM   15  O   UNL     1      -6.070   6.059  69.010  1.00  0.00    -0.028 OA 
HETATM   16  H   UNL     1      -5.230   5.639  68.867  1.00  0.00     0.000 HD 
HETATM   17  C   UNL     1      -8.331   3.503  67.800  1.00  0.00    -0.089 A  
HETATM   18  O   UNL     1      -8.312   2.256  67.251  1.00  0.00    -0.074 OA 
HETATM   19  C   UNL     1      -9.573   4.097  68.004  1.00  0.00    -0.200 A  
HETATM   20  H   UNL     1      -9.116   1.804  67.019  1.00  0.00     0.000 HD 
ENDBRANCH   8  11
ENDBRANCH   7   8
ENDBRANCH   3   7
TORSDOF 3
ENDMDL
MODEL      238
REMARK 921   NORMALIZED FREE ENERGY PREDICTED BY IDOCK:   -3.27 KCAL/MOL
REMARK 922        TOTAL FREE ENERGY PREDICTED BY IDOCK:   -4.14 KCAL/MOL
REMARK 923 INTER-LIGAND FREE ENERGY PREDICTED BY IDOCK:   -3.85 KCAL/MOL
REMARK 924 INTRA-LIGAND FREE ENERGY PREDICTED BY IDOCK:   -0.29 KCAL/MOL
REMARK 927      BINDING AFFINITY PREDICTED BY RF-SCORE:    0.00 PKD
ROOT
HETATM    1  C   UNL     1      -7.972  15.790  68.949  1.00  0.00    -0.197 C  
HETATM    2  C   UNL     1      -7.355  15.800  67.541  1.00  0.00    -0.178 C  
HETATM    3  N   UNL     1      -6.905  14.462  67.108  1.00  0.00    -0.373 NA 
HETATM    4  C   UNL     1      -8.355  16.395  66.534  1.00  0.00    -0.337 C  
HETATM    5  C   UNL     1      -6.111  16.710  67.572  1.00  0.00    -0.180 C  
HETATM    6  H   UNL     1      -6.129  14.145  67.689  1.00  0.00     0.000 HD 
ENDROOT
BRANCH   3   7
HETATM    7  C   UNL     1      -7.962  13.436  67.068  1.00  0.00     0.042 C  
BRANCH   7   8
HETATM    8  C   UNL     1      -7.477  12.044  67.554  1.00  0.00    -0.140 C  
HETATM    9  H   UNL     1      -6.784  11.279  69.226  1.00  0.00     0.000 HD 
HETATM   10  O   UNL     1      -7.081  12.131  68.928  1.00  0.00    -0.107 OA 
BRANCH   8  11
HETATM   11  C   UNL     1      -8.577  11.011  67.374  1.00  0.00    -0.132 A  
HETATM   12  C   UNL     1      -8.345   9.862  66.596  1.00  0.00    -0.125 A  
HETATM   13  C   UNL     1      -9.378   8.950  66.368  1.00  0.00    -0.204 A  
HETATM   14  C   UNL     1     -10.648   9.151  66.900  1.00  0.00    -0.237 A  
HETATM   15  O   UNL     1      -9.188   7.837  65.604  1.00  0.00    -0.390 OA 
HETATM   16  H   UNL     1      -9.890   7.217  65.449  1.00  0.00     0.000 HD 
HETATM   17  C   UNL     1     -10.874  10.279  67.678  1.00  0.00    -0.307 A  
HETATM   18  O   UNL     1     -12.098  10.531  68.223  1.00  0.00    -0.797 OA 
HETATM   19  C   UNL     1      -9.859  11.199  67.923  1.00  0.00    -0.187 A  
HETATM   20  H   UNL     1     -12.253  11.303  68.756  1.00  0.00     0.000 HD 
ENDBRANCH   8  11
ENDBRANCH   7   8
ENDBRANCH   3   7
TORSDOF 3
ENDMDL
MODEL      239
REMARK 921   NORMALIZED FREE ENERGY PREDICTED BY IDOCK:   -3.27 KCAL/MOL
REMARK 922        TOTAL FREE ENERGY PREDICTED BY IDOCK:   -4.14 KCAL/MOL
REMARK 923 INTER-LIGAND FREE ENERGY PREDICTED BY IDOCK:   -4.17 KCAL/MOL
REMARK 924 INTRA-LIGAND FREE ENERGY PREDICTED BY IDOCK:    0.03 KCAL/MOL
REMARK 927      BINDING AFFINITY PREDICTED BY RF-SCORE:    0.00 PKD
ROOT
HETATM    1  C   UNL     1     -10.686   7.574  73.075  1.00  0.00    -0.438 C  
HETATM    2  C   UNL     1     -10.837   6.286  72.250  1.00  0.00    -0.240 C  
HETATM    3  N   UNL     1     -11.878   6.399  71.208  1.00  0.00    -0.316 NA 
HETATM    4  C   UNL     1      -9.483   5.895  71.633  1.00  0.00    -0.166 C  
HETATM    5  C   UNL     1     -11.271   5.156  73.205  1.00  0.00    -0.398 C  
HETATM    6  H   UNL     1     -12.798   6.499  71.637  1.00  0.00     0.000 HD 
ENDROOT
BRANCH   3   7
HETATM    7  C   UNL     1     -11.656   7.473  70.224  1.00  0.00    -0.091 C  
BRANCH   7   8
HETATM    8  C   UNL     1     -10.724   7.046  69.058  1.00  0.00    -0.210 C  
HETATM    9  H   UNL     1     -10.822   5.814  67.532  1.00  0.00     0.000 HD 
HETATM   10  O   UNL     1     -11.392   6.075  68.245  1.00  0.00    -0.178 OA 
BRANCH   8  11
HETATM   11  C   UNL     1     -10.326   8.259  68.233  1.00  0.00    -0.242 A  
HETATM   12  C   UNL     1     -10.206   9.520  68.845  1.00  0.00    -0.213 A  
HETATM   13  C   UNL     1      -9.912  10.647  68.074  1.00  0.00    -0.160 A  
HETATM   14  C   UNL     1      -9.732  10.553  66.698  1.00  0.00    -0.232 A  
HETATM   15  O   UNL     1      -9.807  11.885  68.637  1.00  0.00    -0.280 OA 
HETATM   16  H   UNL     1      -9.608  12.651  68.113  1.00  0.00     0.000 HD 
HETATM   17  C   UNL     1      -9.839   9.306  66.095  1.00  0.00    -0.293 A  
HETATM   18  O   UNL     1      -9.675   9.152  64.750  1.00  0.00    -0.349 OA 
HETATM   19  C   UNL     1     -10.125   8.168  66.843  1.00  0.00    -0.367 A  
HETATM   20  H   UNL     1      -9.748   8.299  64.338  1.00  0.00     0.000 HD 
ENDBRANCH   8  11
ENDBRANCH   7   8
ENDBRANCH   3   7
TORSDOF 3
ENDMDL
MODEL      240
REMARK 921   NORMALIZED FREE ENERGY PREDICTED BY IDOCK:   -3.25 KCAL/MOL
REMARK 922        TOTAL FREE ENERGY PREDICTED BY IDOCK:   -4.11 KCAL/MOL
REMARK 923 INTER-LIGAND FREE ENERGY PREDICTED BY IDOCK:   -5.18 KCAL/MOL
REMARK 924 INTRA-LIGAND FREE ENERGY PREDICTED BY IDOCK:    1.06 KCAL/MOL
REMARK 927      BINDING AFFINITY PREDICTED BY RF-SCORE:    0.00 PKD
ROOT
HETATM    1  C   UNL     1      -9.091   9.463  66.422  1.00  0.00    -0.199 C  
HETATM    2  C   UNL     1      -9.535  10.453  67.512  1.00  0.00    -0.149 C  
HETATM    3  N   UNL     1     -10.194   9.784  68.652  1.00  0.00    -0.183 NA 
HETATM    4  C   UNL     1      -8.331  11.285  67.986  1.00  0.00    -0.136 C  
HETATM    5  C   UNL     1     -10.566  11.416  66.891  1.00  0.00    -0.292 C  
HETATM    6  H   UNL     1     -11.077   9.369  68.355  1.00  0.00     0.000 HD 
ENDROOT
BRANCH   3   7
HETATM    7  C   UNL     1      -9.367   8.780  69.344  1.00  0.00    -0.157 C  
BRANCH   7   8
HETATM    8  C   UNL     1      -9.941   8.368  70.725  1.00  0.00    -0.189 C  
HETATM    9  H   UNL     1      -9.261   8.203  72.561  1.00  0.00     0.000 HD 
HETATM   10  O   UNL     1      -8.910   8.455  71.715  1.00  0.00    -0.157 OA 
BRANCH   8  11
HETATM   11  C   UNL     1     -11.119   9.256  71.092  1.00  0.00    -0.411 A  
HETATM   12  C   UNL     1     -12.174   8.743  71.870  1.00  0.00    -0.429 A  
HETATM   13  C   UNL     1     -13.290   9.536  72.144  1.00  0.00    -0.461 A  
HETATM   14  C   UNL     1     -13.387  10.838  71.663  1.00  0.00    -0.390 A  
HETATM   15  O   UNL     1     -14.335   9.061  72.880  1.00  0.00    -1.047 OA 
HETATM   16  H   UNL     1     -15.095   9.600  73.067  1.00  0.00     0.000 HD 
HETATM   17  C   UNL     1     -12.340  11.348  70.906  1.00  0.00    -0.381 A  
HETATM   18  O   UNL     1     -12.380  12.616  70.405  1.00  0.00    -0.312 OA 
HETATM   19  C   UNL     1     -11.215  10.579  70.624  1.00  0.00    -0.283 A  
HETATM   20  H   UNL     1     -11.664  12.965  69.886  1.00  0.00     0.000 HD 
ENDBRANCH   8  11
ENDBRANCH   7   8
ENDBRANCH   3   7
TORSDOF 3
ENDMDL
MODEL      241
REMARK 921   NORMALIZED FREE ENERGY PREDICTED BY IDOCK:   -3.24 KCAL/MOL
REMARK 922        TOTAL FREE ENERGY PREDICTED BY IDOCK:   -4.10 KCAL/MOL
REMARK 923 INTER-LIGAND FREE ENERGY PREDICTED BY IDOCK:   -3.64 KCAL/MOL
REMARK 924 INTRA-LIGAND FREE ENERGY PREDICTED BY IDOCK:   -0.45 KCAL/MOL
REMARK 927      BINDING AFFINITY PREDICTED BY RF-SCORE:    0.00 PKD
ROOT
HETATM    1  C   UNL     1      -8.678   2.340  69.983  1.00  0.00    -0.117 C  
HETATM    2  C   UNL     1      -7.907   3.557  69.445  1.00  0.00    -0.050 C  
HETATM    3  N   UNL     1      -8.519   4.122  68.226  1.00  0.00    -0.092 NA 
HETATM    4  C   UNL     1      -7.783   4.627  70.544  1.00  0.00    -0.054 C  
HETATM    5  C   UNL     1      -6.486   3.093  69.069  1.00  0.00    -0.030 C  
HETATM    6  H   UNL     1      -8.450   3.457  67.456  1.00  0.00     0.000 HD 
ENDROOT
BRANCH   3   7
HETATM    7  C   UNL     1      -9.911   4.577  68.384  1.00  0.00    -0.084 C  
BRANCH   7   8
HETATM    8  C   UNL     1     -10.125   6.047  67.938  1.00  0.00    -0.155 C  
HETATM    9  H   UNL     1     -11.154   6.981  66.548  1.00  0.00     0.000 HD 
HETATM   10  O   UNL     1     -11.023   6.081  66.822  1.00  0.00    -0.316 OA 
BRANCH   8  11
HETATM   11  C   UNL     1     -10.668   6.874  69.092  1.00  0.00    -0.262 A  
HETATM   12  C   UNL     1     -11.492   6.275  70.062  1.00  0.00    -0.460 A  
HETATM   13  C   UNL     1     -12.052   7.050  71.081  1.00  0.00    -0.369 A  
HETATM   14  C   UNL     1     -11.809   8.417  71.163  1.00  0.00    -0.314 A  
HETATM   15  O   UNL     1     -12.868   6.500  72.024  1.00  0.00    -0.499 OA 
HETATM   16  H   UNL     1     -13.249   7.027  72.717  1.00  0.00     0.000 HD 
HETATM   17  C   UNL     1     -10.986   9.007  70.212  1.00  0.00    -0.244 A  
HETATM   18  O   UNL     1     -10.714  10.342  70.239  1.00  0.00    -0.381 OA 
HETATM   19  C   UNL     1     -10.413   8.254  69.191  1.00  0.00    -0.217 A  
HETATM   20  H   UNL     1     -10.151  10.746  69.589  1.00  0.00     0.000 HD 
ENDBRANCH   8  11
ENDBRANCH   7   8
ENDBRANCH   3   7
TORSDOF 3
ENDMDL
MODEL      242
REMARK 921   NORMALIZED FREE ENERGY PREDICTED BY IDOCK:   -3.23 KCAL/MOL
REMARK 922        TOTAL FREE ENERGY PREDICTED BY IDOCK:   -4.09 KCAL/MOL
REMARK 923 INTER-LIGAND FREE ENERGY PREDICTED BY IDOCK:   -3.97 KCAL/MOL
REMARK 924 INTRA-LIGAND FREE ENERGY PREDICTED BY IDOCK:   -0.12 KCAL/MOL
REMARK 927      BINDING AFFINITY PREDICTED BY RF-SCORE:    0.00 PKD
ROOT
HETATM    1  C   UNL     1     -12.528  14.128  66.202  1.00  0.00    -0.426 C  
HETATM    2  C   UNL     1     -11.047  13.724  66.292  1.00  0.00    -0.302 C  
HETATM    3  N   UNL     1     -10.827  12.300  65.966  1.00  0.00    -0.265 NA 
HETATM    4  C   UNL     1     -10.199  14.631  65.383  1.00  0.00    -0.415 C  
HETATM    5  C   UNL     1     -10.582  13.936  67.745  1.00  0.00    -0.248 C  
HETATM    6  H   UNL     1     -11.263  11.706  66.671  1.00  0.00     0.000 HD 
ENDROOT
BRANCH   3   7
HETATM    7  C   UNL     1     -11.264  11.897  64.618  1.00  0.00    -0.305 C  
BRANCH   7   8
HETATM    8  C   UNL     1     -10.240  10.985  63.894  1.00  0.00    -0.364 C  
HETATM    9  H   UNL     1      -8.808  11.219  62.569  1.00  0.00     0.000 HD 
HETATM   10  O   UNL     1      -9.435  11.777  63.013  1.00  0.00    -0.344 OA 
BRANCH   8  11
HETATM   11  C   UNL     1      -9.374  10.256  64.909  1.00  0.00    -0.306 A  
HETATM   12  C   UNL     1      -7.977  10.429  64.897  1.00  0.00    -0.115 A  
HETATM   13  C   UNL     1      -7.175   9.702  65.780  1.00  0.00    -0.100 A  
HETATM   14  C   UNL     1      -7.729   8.803  66.684  1.00  0.00    -0.093 A  
HETATM   15  O   UNL     1      -5.818   9.836  65.780  1.00  0.00    -0.056 OA 
HETATM   16  H   UNL     1      -5.273   9.342  66.380  1.00  0.00     0.000 HD 
HETATM   17  C   UNL     1      -9.109   8.641  66.704  1.00  0.00    -0.165 A  
HETATM   18  O   UNL     1      -9.709   7.771  67.566  1.00  0.00    -0.145 OA 
HETATM   19  C   UNL     1      -9.929   9.357  65.837  1.00  0.00    -0.327 A  
HETATM   20  H   UNL     1     -10.653   7.661  67.580  1.00  0.00     0.000 HD 
ENDBRANCH   8  11
ENDBRANCH   7   8
ENDBRANCH   3   7
TORSDOF 3
ENDMDL
MODEL      243
REMARK 921   NORMALIZED FREE ENERGY PREDICTED BY IDOCK:   -3.22 KCAL/MOL
REMARK 922        TOTAL FREE ENERGY PREDICTED BY IDOCK:   -4.08 KCAL/MOL
REMARK 923 INTER-LIGAND FREE ENERGY PREDICTED BY IDOCK:   -3.80 KCAL/MOL
REMARK 924 INTRA-LIGAND FREE ENERGY PREDICTED BY IDOCK:   -0.29 KCAL/MOL
REMARK 927      BINDING AFFINITY PREDICTED BY RF-SCORE:    0.00 PKD
ROOT
HETATM    1  C   UNL     1     -11.064  15.262  68.505  1.00  0.00    -0.284 C  
HETATM    2  C   UNL     1      -9.643  14.732  68.248  1.00  0.00    -0.215 C  
HETATM    3  N   UNL     1      -9.462  13.344  68.719  1.00  0.00    -0.408 NA 
HETATM    4  C   UNL     1      -9.300  14.854  66.753  1.00  0.00    -0.270 C  
HETATM    5  C   UNL     1      -8.656  15.613  69.037  1.00  0.00    -0.232 C  
HETATM    6  H   UNL     1      -9.534  13.304  69.735  1.00  0.00     0.000 HD 
ENDROOT
BRANCH   3   7
HETATM    7  C   UNL     1     -10.367  12.358  68.104  1.00  0.00    -0.226 C  
BRANCH   7   8
HETATM    8  C   UNL     1     -11.107  11.479  69.148  1.00  0.00    -0.259 C  
HETATM    9  H   UNL     1     -12.974  11.042  69.577  1.00  0.00     0.000 HD 
HETATM   10  O   UNL     1     -12.521  11.579  68.938  1.00  0.00    -0.331 OA 
BRANCH   8  11
HETATM   11  C   UNL     1     -10.646  10.035  69.041  1.00  0.00    -0.235 A  
HETATM   12  C   UNL     1     -10.861   9.145  70.110  1.00  0.00    -0.269 A  
HETATM   13  C   UNL     1     -10.371   7.839  70.043  1.00  0.00    -0.221 A  
HETATM   14  C   UNL     1      -9.669   7.388  68.930  1.00  0.00    -0.150 A  
HETATM   15  O   UNL     1     -10.549   6.960  71.070  1.00  0.00    -0.217 OA 
HETATM   16  H   UNL     1     -10.216   6.072  71.025  1.00  0.00     0.000 HD 
HETATM   17  C   UNL     1      -9.467   8.263  67.870  1.00  0.00    -0.146 A  
HETATM   18  O   UNL     1      -8.784   7.879  66.754  1.00  0.00    -0.125 OA 
HETATM   19  C   UNL     1      -9.950   9.567  67.912  1.00  0.00    -0.209 A  
HETATM   20  H   UNL     1      -8.646   8.476  66.028  1.00  0.00     0.000 HD 
ENDBRANCH   8  11
ENDBRANCH   7   8
ENDBRANCH   3   7
TORSDOF 3
ENDMDL
MODEL      244
REMARK 921   NORMALIZED FREE ENERGY PREDICTED BY IDOCK:   -3.18 KCAL/MOL
REMARK 922        TOTAL FREE ENERGY PREDICTED BY IDOCK:   -4.03 KCAL/MOL
REMARK 923 INTER-LIGAND FREE ENERGY PREDICTED BY IDOCK:   -4.12 KCAL/MOL
REMARK 924 INTRA-LIGAND FREE ENERGY PREDICTED BY IDOCK:    0.09 KCAL/MOL
REMARK 927      BINDING AFFINITY PREDICTED BY RF-SCORE:    0.00 PKD
ROOT
HETATM    1  C   UNL     1     -12.326  15.220  69.714  1.00  0.00    -0.288 C  
HETATM    2  C   UNL     1     -11.232  14.659  68.789  1.00  0.00    -0.267 C  
HETATM    3  N   UNL     1     -10.636  13.411  69.307  1.00  0.00    -0.444 NA 
HETATM    4  C   UNL     1     -11.799  14.451  67.374  1.00  0.00    -0.430 C  
HETATM    5  C   UNL     1     -10.102  15.703  68.702  1.00  0.00    -0.210 C  
HETATM    6  H   UNL     1     -10.125  13.596  70.170  1.00  0.00     0.000 HD 
ENDROOT
BRANCH   3   7
HETATM    7  C   UNL     1     -11.588  12.305  69.506  1.00  0.00    -0.298 C  
BRANCH   7   8
HETATM    8  C   UNL     1     -10.895  10.963  69.860  1.00  0.00    -0.141 C  
HETATM    9  H   UNL     1     -11.462   9.174  70.443  1.00  0.00     0.000 HD 
HETATM   10  O   UNL     1     -11.886   9.996  70.226  1.00  0.00    -0.252 OA 
BRANCH   8  11
HETATM   11  C   UNL     1     -10.069  10.470  68.683  1.00  0.00    -0.190 A  
HETATM   12  C   UNL     1      -8.954  11.209  68.246  1.00  0.00    -0.166 A  
HETATM   13  C   UNL     1      -8.240  10.796  67.118  1.00  0.00    -0.123 A  
HETATM   14  C   UNL     1      -8.607   9.658  66.408  1.00  0.00    -0.136 A  
HETATM   15  O   UNL     1      -7.165  11.501  66.662  1.00  0.00    -0.238 OA 
HETATM   16  H   UNL     1      -6.680  11.221  65.895  1.00  0.00     0.000 HD 
HETATM   17  C   UNL     1      -9.701   8.923  66.846  1.00  0.00    -0.202 A  
HETATM   18  O   UNL     1     -10.110   7.800  66.189  1.00  0.00    -0.461 OA 
HETATM   19  C   UNL     1     -10.425   9.311  67.970  1.00  0.00    -0.275 A  
HETATM   20  H   UNL     1     -10.858   7.297  66.489  1.00  0.00     0.000 HD 
ENDBRANCH   8  11
ENDBRANCH   7   8
ENDBRANCH   3   7
TORSDOF 3
ENDMDL
MODEL      245
REMARK 921   NORMALIZED FREE ENERGY PREDICTED BY IDOCK:   -3.18 KCAL/MOL
REMARK 922        TOTAL FREE ENERGY PREDICTED BY IDOCK:   -4.03 KCAL/MOL
REMARK 923 INTER-LIGAND FREE ENERGY PREDICTED BY IDOCK:   -3.73 KCAL/MOL
REMARK 924 INTRA-LIGAND FREE ENERGY PREDICTED BY IDOCK:   -0.30 KCAL/MOL
REMARK 927      BINDING AFFINITY PREDICTED BY RF-SCORE:    0.00 PKD
ROOT
HETATM    1  C   UNL     1      -6.354  15.960  67.967  1.00  0.00    -0.144 C  
HETATM    2  C   UNL     1      -7.752  15.516  67.504  1.00  0.00    -0.171 C  
HETATM    3  N   UNL     1      -7.797  14.089  67.126  1.00  0.00    -0.361 NA 
HETATM    4  C   UNL     1      -8.790  15.826  68.597  1.00  0.00    -0.199 C  
HETATM    5  C   UNL     1      -8.120  16.331  66.250  1.00  0.00    -0.267 C  
HETATM    6  H   UNL     1      -7.225  13.925  66.297  1.00  0.00     0.000 HD 
ENDROOT
BRANCH   3   7
HETATM    7  C   UNL     1      -7.420  13.151  68.197  1.00  0.00    -0.131 C  
BRANCH   7   8
HETATM    8  C   UNL     1      -7.480  11.665  67.754  1.00  0.00    -0.111 C  
HETATM    9  H   UNL     1      -6.282  10.109  67.812  1.00  0.00     0.000 HD 
HETATM   10  O   UNL     1      -6.246  11.019  68.084  1.00  0.00    -0.049 OA 
BRANCH   8  11
HETATM   11  C   UNL     1      -8.652  10.963  68.421  1.00  0.00    -0.146 A  
HETATM   12  C   UNL     1      -9.970  11.265  68.030  1.00  0.00    -0.191 A  
HETATM   13  C   UNL     1     -11.049  10.676  68.694  1.00  0.00    -0.263 A  
HETATM   14  C   UNL     1     -10.851   9.787  69.745  1.00  0.00    -0.285 A  
HETATM   15  O   UNL     1     -12.337  10.962  68.349  1.00  0.00    -0.803 OA 
HETATM   16  H   UNL     1     -13.070  10.562  68.800  1.00  0.00     0.000 HD 
HETATM   17  C   UNL     1      -9.550   9.480  70.123  1.00  0.00    -0.248 A  
HETATM   18  O   UNL     1      -9.294   8.617  71.147  1.00  0.00    -0.176 OA 
HETATM   19  C   UNL     1      -8.459  10.049  69.473  1.00  0.00    -0.186 A  
HETATM   20  H   UNL     1      -8.404   8.407  71.406  1.00  0.00     0.000 HD 
ENDBRANCH   8  11
ENDBRANCH   7   8
ENDBRANCH   3   7
TORSDOF 3
ENDMDL
MODEL      246
REMARK 921   NORMALIZED FREE ENERGY PREDICTED BY IDOCK:   -3.17 KCAL/MOL
REMARK 922        TOTAL FREE ENERGY PREDICTED BY IDOCK:   -4.02 KCAL/MOL
REMARK 923 INTER-LIGAND FREE ENERGY PREDICTED BY IDOCK:   -3.56 KCAL/MOL
REMARK 924 INTRA-LIGAND FREE ENERGY PREDICTED BY IDOCK:   -0.46 KCAL/MOL
REMARK 927      BINDING AFFINITY PREDICTED BY RF-SCORE:    0.00 PKD
ROOT
HETATM    1  C   UNL     1     -11.842  12.492  65.680  1.00  0.00    -0.493 C  
HETATM    2  C   UNL     1     -10.495  11.943  65.179  1.00  0.00    -0.287 C  
HETATM    3  N   UNL     1      -9.341  12.672  65.743  1.00  0.00    -0.456 NA 
HETATM    4  C   UNL     1     -10.396  10.439  65.484  1.00  0.00    -0.265 C  
HETATM    5  C   UNL     1     -10.445  12.125  63.650  1.00  0.00    -0.495 C  
HETATM    6  H   UNL     1      -9.330  13.634  65.403  1.00  0.00     0.000 HD 
ENDROOT
BRANCH   3   7
HETATM    7  C   UNL     1      -9.252  12.652  67.213  1.00  0.00    -0.195 C  
BRANCH   7   8
HETATM    8  C   UNL     1      -7.957  11.976  67.735  1.00  0.00    -0.147 C  
HETATM    9  H   UNL     1      -6.568  12.387  69.062  1.00  0.00     0.000 HD 
HETATM   10  O   UNL     1      -7.361  12.801  68.743  1.00  0.00    -0.109 OA 
BRANCH   8  11
HETATM   11  C   UNL     1      -8.268  10.593  68.283  1.00  0.00    -0.120 A  
HETATM   12  C   UNL     1      -9.272  10.430  69.256  1.00  0.00    -0.198 A  
HETATM   13  C   UNL     1      -9.508   9.171  69.814  1.00  0.00    -0.182 A  
HETATM   14  C   UNL     1      -8.766   8.060  69.427  1.00  0.00    -0.137 A  
HETATM   15  O   UNL     1     -10.462   8.986  70.770  1.00  0.00    -0.209 OA 
HETATM   16  H   UNL     1     -10.622   8.130  71.150  1.00  0.00     0.000 HD 
HETATM   17  C   UNL     1      -7.783   8.219  68.459  1.00  0.00    -0.112 A  
HETATM   18  O   UNL     1      -7.022   7.167  68.041  1.00  0.00    -0.074 OA 
HETATM   19  C   UNL     1      -7.534   9.461  67.884  1.00  0.00    -0.084 A  
HETATM   20  H   UNL     1      -6.350   7.275  67.379  1.00  0.00     0.000 HD 
ENDBRANCH   8  11
ENDBRANCH   7   8
ENDBRANCH   3   7
TORSDOF 3
ENDMDL
MODEL      247
REMARK 921   NORMALIZED FREE ENERGY PREDICTED BY IDOCK:   -3.17 KCAL/MOL
REMARK 922        TOTAL FREE ENERGY PREDICTED BY IDOCK:   -4.02 KCAL/MOL
REMARK 923 INTER-LIGAND FREE ENERGY PREDICTED BY IDOCK:   -3.79 KCAL/MOL
REMARK 924 INTRA-LIGAND FREE ENERGY PREDICTED BY IDOCK:   -0.23 KCAL/MOL
REMARK 927      BINDING AFFINITY PREDICTED BY RF-SCORE:    0.00 PKD
ROOT
HETATM    1  C   UNL     1      -5.723  14.952  67.762  1.00  0.00    -0.098 C  
HETATM    2  C   UNL     1      -6.399  15.245  69.112  1.00  0.00    -0.118 C  
HETATM    3  N   UNL     1      -7.647  16.023  68.965  1.00  0.00    -0.197 NA 
HETATM    4  C   UNL     1      -6.659  13.929  69.865  1.00  0.00    -0.028 C  
HETATM    5  C   UNL     1      -5.430  16.095  69.956  1.00  0.00    -0.161 C  
HETATM    6  H   UNL     1      -7.440  16.957  68.611  1.00  0.00     0.000 HD 
ENDROOT
BRANCH   3   7
HETATM    7  C   UNL     1      -8.682  15.382  68.136  1.00  0.00    -0.161 C  
BRANCH   7   8
HETATM    8  C   UNL     1      -8.703  15.906  66.676  1.00  0.00    -0.289 C  
HETATM    9  H   UNL     1      -9.772  15.584  65.059  1.00  0.00     0.000 HD 
HETATM   10  O   UNL     1      -9.760  15.263  65.954  1.00  0.00    -0.310 OA 
BRANCH   8  11
HETATM   11  C   UNL     1      -8.878  17.416  66.660  1.00  0.00    -0.278 A  
HETATM   12  C   UNL     1      -7.875  18.237  66.112  1.00  0.00    -0.239 A  
HETATM   13  C   UNL     1      -8.002  19.627  66.166  1.00  0.00    -0.343 A  
HETATM   14  C   UNL     1      -9.110  20.228  66.753  1.00  0.00    -0.424 A  
HETATM   15  O   UNL     1      -7.038  20.447  65.658  1.00  0.00    -0.408 OA 
HETATM   16  H   UNL     1      -7.124  21.392  65.695  1.00  0.00     0.000 HD 
HETATM   17  C   UNL     1     -10.106  19.418  67.283  1.00  0.00    -0.390 A  
HETATM   18  O   UNL     1     -11.214  19.950  67.874  1.00  0.00    -0.018 OA 
HETATM   19  C   UNL     1     -10.004  18.030  67.237  1.00  0.00    -0.324 A  
HETATM   20  H   UNL     1     -11.895  19.395  68.237  1.00  0.00     0.000 HD 
ENDBRANCH   8  11
ENDBRANCH   7   8
ENDBRANCH   3   7
TORSDOF 3
ENDMDL
MODEL      248
REMARK 921   NORMALIZED FREE ENERGY PREDICTED BY IDOCK:   -3.16 KCAL/MOL
REMARK 922        TOTAL FREE ENERGY PREDICTED BY IDOCK:   -4.01 KCAL/MOL
REMARK 923 INTER-LIGAND FREE ENERGY PREDICTED BY IDOCK:   -3.51 KCAL/MOL
REMARK 924 INTRA-LIGAND FREE ENERGY PREDICTED BY IDOCK:   -0.50 KCAL/MOL
REMARK 927      BINDING AFFINITY PREDICTED BY RF-SCORE:    0.00 PKD
ROOT
HETATM    1  C   UNL     1      -8.727   6.523  72.023  1.00  0.00    -0.132 C  
HETATM    2  C   UNL     1      -9.396   6.960  73.337  1.00  0.00    -0.152 C  
HETATM    3  N   UNL     1     -10.508   7.908  73.120  1.00  0.00    -0.339 NA 
HETATM    4  C   UNL     1      -9.875   5.724  74.119  1.00  0.00    -0.208 C  
HETATM    5  C   UNL     1      -8.339   7.686  74.192  1.00  0.00    -0.272 C  
HETATM    6  H   UNL     1     -10.152   8.788  72.747  1.00  0.00     0.000 HD 
ENDROOT
BRANCH   3   7
HETATM    7  C   UNL     1     -11.600   7.400  72.272  1.00  0.00    -0.292 C  
BRANCH   7   8
HETATM    8  C   UNL     1     -12.206   8.486  71.345  1.00  0.00    -0.304 C  
HETATM    9  H   UNL     1     -12.805  10.348  71.531  1.00  0.00     0.000 HD 
HETATM   10  O   UNL     1     -12.434   9.683  72.098  1.00  0.00    -0.350 OA 
BRANCH   8  11
HETATM   11  C   UNL     1     -11.278   8.755  70.172  1.00  0.00    -0.162 A  
HETATM   12  C   UNL     1     -10.854  10.067  69.894  1.00  0.00    -0.328 A  
HETATM   13  C   UNL     1     -10.062  10.324  68.772  1.00  0.00    -0.187 A  
HETATM   14  C   UNL     1      -9.675   9.302  67.913  1.00  0.00    -0.180 A  
HETATM   15  O   UNL     1      -9.650  11.588  68.468  1.00  0.00    -0.184 OA 
HETATM   16  H   UNL     1      -9.112  11.763  67.706  1.00  0.00     0.000 HD 
HETATM   17  C   UNL     1     -10.083   8.004  68.193  1.00  0.00    -0.197 A  
HETATM   18  O   UNL     1      -9.738   6.961  67.386  1.00  0.00    -0.130 OA 
HETATM   19  C   UNL     1     -10.869   7.723  69.308  1.00  0.00    -0.091 A  
HETATM   20  H   UNL     1     -10.017   6.073  67.578  1.00  0.00     0.000 HD 
ENDBRANCH   8  11
ENDBRANCH   7   8
ENDBRANCH   3   7
TORSDOF 3
ENDMDL
MODEL      249
REMARK 921   NORMALIZED FREE ENERGY PREDICTED BY IDOCK:   -3.15 KCAL/MOL
REMARK 922        TOTAL FREE ENERGY PREDICTED BY IDOCK:   -4.00 KCAL/MOL
REMARK 923 INTER-LIGAND FREE ENERGY PREDICTED BY IDOCK:   -3.57 KCAL/MOL
REMARK 924 INTRA-LIGAND FREE ENERGY PREDICTED BY IDOCK:   -0.44 KCAL/MOL
REMARK 927      BINDING AFFINITY PREDICTED BY RF-SCORE:    0.00 PKD
ROOT
HETATM    1  C   UNL     1      -7.385   9.788  66.916  1.00  0.00    -0.091 C  
HETATM    2  C   UNL     1      -7.918   8.555  67.666  1.00  0.00    -0.107 C  
HETATM    3  N   UNL     1      -9.120   8.856  68.469  1.00  0.00    -0.137 NA 
HETATM    4  C   UNL     1      -8.193   7.414  66.672  1.00  0.00    -0.125 C  
HETATM    5  C   UNL     1      -6.824   8.084  68.643  1.00  0.00    -0.067 C  
HETATM    6  H   UNL     1      -8.887   9.496  69.228  1.00  0.00     0.000 HD 
ENDROOT
BRANCH   3   7
HETATM    7  C   UNL     1     -10.265   9.374  67.701  1.00  0.00    -0.227 C  
BRANCH   7   8
HETATM    8  C   UNL     1     -10.999  10.540  68.415  1.00  0.00    -0.261 C  
HETATM    9  H   UNL     1     -10.940  11.393  70.184  1.00  0.00     0.000 HD 
HETATM   10  O   UNL     1     -10.491  10.679  69.747  1.00  0.00    -0.222 OA 
BRANCH   8  11
HETATM   11  C   UNL     1     -10.821  11.831  67.632  1.00  0.00    -0.263 A  
HETATM   12  C   UNL     1      -9.916  12.810  68.082  1.00  0.00    -0.229 A  
HETATM   13  C   UNL     1      -9.807  14.027  67.404  1.00  0.00    -0.240 A  
HETATM   14  C   UNL     1     -10.580  14.299  66.281  1.00  0.00    -0.291 A  
HETATM   15  O   UNL     1      -8.952  15.001  67.827  1.00  0.00    -0.174 OA 
HETATM   16  H   UNL     1      -8.878  15.828  67.367  1.00  0.00     0.000 HD 
HETATM   17  C   UNL     1     -11.465  13.328  65.829  1.00  0.00    -0.323 A  
HETATM   18  O   UNL     1     -12.251  13.538  64.735  1.00  0.00    -0.384 OA 
HETATM   19  C   UNL     1     -11.587  12.106  66.484  1.00  0.00    -0.425 A  
HETATM   20  H   UNL     1     -12.857  12.874  64.426  1.00  0.00     0.000 HD 
ENDBRANCH   8  11
ENDBRANCH   7   8
ENDBRANCH   3   7
TORSDOF 3
ENDMDL
MODEL      250
REMARK 921   NORMALIZED FREE ENERGY PREDICTED BY IDOCK:   -3.14 KCAL/MOL
REMARK 922        TOTAL FREE ENERGY PREDICTED BY IDOCK:   -3.99 KCAL/MOL
REMARK 923 INTER-LIGAND FREE ENERGY PREDICTED BY IDOCK:   -3.70 KCAL/MOL
REMARK 924 INTRA-LIGAND FREE ENERGY PREDICTED BY IDOCK:   -0.29 KCAL/MOL
REMARK 927      BINDING AFFINITY PREDICTED BY RF-SCORE:    0.00 PKD
ROOT
HETATM    1  C   UNL     1      -8.727   2.719  72.403  1.00  0.00    -0.093 C  
HETATM    2  C   UNL     1      -7.899   3.941  72.835  1.00  0.00    -0.075 C  
HETATM    3  N   UNL     1      -8.501   5.217  72.397  1.00  0.00    -0.121 NA 
HETATM    4  C   UNL     1      -7.696   3.926  74.359  1.00  0.00    -0.078 C  
HETATM    5  C   UNL     1      -6.514   3.839  72.167  1.00  0.00    -0.014 C  
HETATM    6  H   UNL     1      -8.483   5.285  71.379  1.00  0.00     0.000 HD 
ENDROOT
BRANCH   3   7
HETATM    7  C   UNL     1      -9.862   5.466  72.900  1.00  0.00    -0.159 C  
BRANCH   7   8
HETATM    8  C   UNL     1      -9.995   6.817  73.653  1.00  0.00    -0.266 C  
HETATM    9  H   UNL     1      -8.791   8.044  74.605  1.00  0.00     0.000 HD 
HETATM   10  O   UNL     1      -8.710   7.217  74.144  1.00  0.00    -0.181 OA 
BRANCH   8  11
HETATM   11  C   UNL     1     -10.577   7.877  72.733  1.00  0.00    -0.418 A  
HETATM   12  C   UNL     1      -9.789   8.429  71.706  1.00  0.00    -0.313 A  
HETATM   13  C   UNL     1     -10.299   9.456  70.908  1.00  0.00    -0.310 A  
HETATM   14  C   UNL     1     -11.582   9.953  71.105  1.00  0.00    -0.468 A  
HETATM   15  O   UNL     1      -9.553  10.021  69.916  1.00  0.00    -0.254 OA 
HETATM   16  H   UNL     1      -9.899  10.720  69.374  1.00  0.00     0.000 HD 
HETATM   17  C   UNL     1     -12.364   9.401  72.112  1.00  0.00    -0.298 A  
HETATM   18  O   UNL     1     -13.629   9.849  72.354  1.00  0.00    -0.623 OA 
HETATM   19  C   UNL     1     -11.881   8.373  72.916  1.00  0.00    -0.030 A  
HETATM   20  H   UNL     1     -14.164   9.471  73.043  1.00  0.00     0.000 HD 
ENDBRANCH   8  11
ENDBRANCH   7   8
ENDBRANCH   3   7
TORSDOF 3
ENDMDL
MODEL      251
REMARK 921   NORMALIZED FREE ENERGY PREDICTED BY IDOCK:   -3.14 KCAL/MOL
REMARK 922        TOTAL FREE ENERGY PREDICTED BY IDOCK:   -3.98 KCAL/MOL
REMARK 923 INTER-LIGAND FREE ENERGY PREDICTED BY IDOCK:   -3.82 KCAL/MOL
REMARK 924 INTRA-LIGAND FREE ENERGY PREDICTED BY IDOCK:   -0.16 KCAL/MOL
REMARK 927      BINDING AFFINITY PREDICTED BY RF-SCORE:    0.00 PKD
ROOT
HETATM    1  C   UNL     1      -6.678  17.912  69.674  1.00  0.00    -0.005 C  
HETATM    2  C   UNL     1      -6.518  16.982  68.459  1.00  0.00    -0.164 C  
HETATM    3  N   UNL     1      -6.750  17.679  67.177  1.00  0.00    -0.159 NA 
HETATM    4  C   UNL     1      -5.128  16.323  68.482  1.00  0.00    -0.102 C  
HETATM    5  C   UNL     1      -7.577  15.867  68.569  1.00  0.00    -0.145 C  
HETATM    6  H   UNL     1      -7.724  17.972  67.107  1.00  0.00     0.000 HD 
ENDROOT
BRANCH   3   7
HETATM    7  C   UNL     1      -5.854  18.819  66.921  1.00  0.00    -0.158 C  
BRANCH   7   8
HETATM    8  C   UNL     1      -6.618  20.138  66.627  1.00  0.00    -0.216 C  
HETATM    9  H   UNL     1      -6.802  21.372  65.109  1.00  0.00     0.000 HD 
HETATM   10  O   UNL     1      -6.334  20.564  65.289  1.00  0.00    -0.238 OA 
BRANCH   8  11
HETATM   11  C   UNL     1      -8.112  19.936  66.824  1.00  0.00    -0.349 A  
HETATM   12  C   UNL     1      -8.924  19.571  65.735  1.00  0.00     0.126 A  
HETATM   13  C   UNL     1     -10.307  19.459  65.900  1.00  0.00    -0.451 A  
HETATM   14  C   UNL     1     -10.908  19.701  67.130  1.00  0.00    -0.526 A  
HETATM   15  O   UNL     1     -11.121  19.122  64.860  1.00  0.00    -0.303 OA 
HETATM   16  H   UNL     1     -12.061  19.046  64.972  1.00  0.00     0.000 HD 
HETATM   17  C   UNL     1     -10.105  20.050  68.209  1.00  0.00    -0.400 A  
HETATM   18  O   UNL     1     -10.638  20.302  69.438  1.00  0.00    -0.514 OA 
HETATM   19  C   UNL     1      -8.725  20.163  68.070  1.00  0.00    -0.218 A  
HETATM   20  H   UNL     1     -10.089  20.542  70.176  1.00  0.00     0.000 HD 
ENDBRANCH   8  11
ENDBRANCH   7   8
ENDBRANCH   3   7
TORSDOF 3
ENDMDL
MODEL      252
REMARK 921   NORMALIZED FREE ENERGY PREDICTED BY IDOCK:   -3.11 KCAL/MOL
REMARK 922        TOTAL FREE ENERGY PREDICTED BY IDOCK:   -3.95 KCAL/MOL
REMARK 923 INTER-LIGAND FREE ENERGY PREDICTED BY IDOCK:   -3.66 KCAL/MOL
REMARK 924 INTRA-LIGAND FREE ENERGY PREDICTED BY IDOCK:   -0.29 KCAL/MOL
REMARK 927      BINDING AFFINITY PREDICTED BY RF-SCORE:    0.00 PKD
ROOT
HETATM    1  C   UNL     1     -13.847  15.143  70.957  1.00  0.00    -0.423 C  
HETATM    2  C   UNL     1     -12.702  14.410  71.676  1.00  0.00    -0.344 C  
HETATM    3  N   UNL     1     -11.931  13.534  70.770  1.00  0.00    -0.516 NA 
HETATM    4  C   UNL     1     -11.781  15.428  72.370  1.00  0.00    -0.565 C  
HETATM    5  C   UNL     1     -13.322  13.509  72.762  1.00  0.00    -0.401 C  
HETATM    6  H   UNL     1     -12.516  12.766  70.440  1.00  0.00     0.000 HD 
ENDROOT
BRANCH   3   7
HETATM    7  C   UNL     1     -11.302  14.222  69.630  1.00  0.00    -0.243 C  
BRANCH   7   8
HETATM    8  C   UNL     1     -10.319  13.317  68.841  1.00  0.00    -0.060 C  
HETATM    9  H   UNL     1     -10.221  12.553  67.034  1.00  0.00     0.000 HD 
HETATM   10  O   UNL     1     -10.823  13.107  67.517  1.00  0.00    -0.248 OA 
BRANCH   8  11
HETATM   11  C   UNL     1      -8.938  13.952  68.799  1.00  0.00     0.004 A  
HETATM   12  C   UNL     1      -7.791  13.140  68.724  1.00  0.00     0.018 A  
HETATM   13  C   UNL     1      -6.521  13.719  68.761  1.00  0.00    -0.096 A  
HETATM   14  C   UNL     1      -6.358  15.096  68.870  1.00  0.00    -0.090 A  
HETATM   15  O   UNL     1      -5.391  12.957  68.706  1.00  0.00    -0.068 OA 
HETATM   16  H   UNL     1      -4.527  13.351  68.732  1.00  0.00     0.000 HD 
HETATM   17  C   UNL     1      -7.491  15.898  68.933  1.00  0.00    -0.178 A  
HETATM   18  O   UNL     1      -7.394  17.254  69.044  1.00  0.00    -0.245 OA 
HETATM   19  C   UNL     1      -8.767  15.345  68.893  1.00  0.00    -0.208 A  
HETATM   20  H   UNL     1      -8.169  17.803  69.087  1.00  0.00     0.000 HD 
ENDBRANCH   8  11
ENDBRANCH   7   8
ENDBRANCH   3   7
TORSDOF 3
ENDMDL
MODEL      253
REMARK 921   NORMALIZED FREE ENERGY PREDICTED BY IDOCK:   -3.09 KCAL/MOL
REMARK 922        TOTAL FREE ENERGY PREDICTED BY IDOCK:   -3.93 KCAL/MOL
REMARK 923 INTER-LIGAND FREE ENERGY PREDICTED BY IDOCK:   -3.68 KCAL/MOL
REMARK 924 INTRA-LIGAND FREE ENERGY PREDICTED BY IDOCK:   -0.25 KCAL/MOL
REMARK 927      BINDING AFFINITY PREDICTED BY RF-SCORE:    0.00 PKD
ROOT
HETATM    1  C   UNL     1      -6.683   7.445  73.749  1.00  0.00    -0.080 C  
HETATM    2  C   UNL     1      -7.583   6.407  73.056  1.00  0.00    -0.095 C  
HETATM    3  N   UNL     1      -8.993   6.504  73.483  1.00  0.00    -0.124 NA 
HETATM    4  C   UNL     1      -7.461   6.543  71.529  1.00  0.00    -0.089 C  
HETATM    5  C   UNL     1      -7.082   5.004  73.452  1.00  0.00    -0.077 C  
HETATM    6  H   UNL     1      -9.082   6.254  74.468  1.00  0.00     0.000 HD 
ENDROOT
BRANCH   3   7
HETATM    7  C   UNL     1      -9.630   7.808  73.229  1.00  0.00    -0.283 C  
BRANCH   7   8
HETATM    8  C   UNL     1     -10.757   7.737  72.166  1.00  0.00    -0.248 C  
HETATM    9  H   UNL     1     -12.719   7.847  72.156  1.00  0.00     0.000 HD 
HETATM   10  O   UNL     1     -12.029   7.890  72.807  1.00  0.00    -0.301 OA 
BRANCH   8  11
HETATM   11  C   UNL     1     -10.552   8.811  71.110  1.00  0.00    -0.310 A  
HETATM   12  C   UNL     1     -11.663   9.401  70.479  1.00  0.00    -0.254 A  
HETATM   13  C   UNL     1     -11.474  10.334  69.456  1.00  0.00    -0.210 A  
HETATM   14  C   UNL     1     -10.198  10.700  69.041  1.00  0.00    -0.231 A  
HETATM   15  O   UNL     1     -12.531  10.909  68.815  1.00  0.00    -0.767 OA 
HETATM   16  H   UNL     1     -12.402  11.543  68.120  1.00  0.00     0.000 HD 
HETATM   17  C   UNL     1      -9.101  10.127  69.672  1.00  0.00    -0.174 A  
HETATM   18  O   UNL     1      -7.827  10.445  69.307  1.00  0.00    -0.122 OA 
HETATM   19  C   UNL     1      -9.265   9.200  70.697  1.00  0.00    -0.310 A  
HETATM   20  H   UNL     1      -7.076  10.053  69.739  1.00  0.00     0.000 HD 
ENDBRANCH   8  11
ENDBRANCH   7   8
ENDBRANCH   3   7
TORSDOF 3
ENDMDL
MODEL      254
REMARK 921   NORMALIZED FREE ENERGY PREDICTED BY IDOCK:   -3.07 KCAL/MOL
REMARK 922        TOTAL FREE ENERGY PREDICTED BY IDOCK:   -3.91 KCAL/MOL
REMARK 923 INTER-LIGAND FREE ENERGY PREDICTED BY IDOCK:   -3.62 KCAL/MOL
REMARK 924 INTRA-LIGAND FREE ENERGY PREDICTED BY IDOCK:   -0.28 KCAL/MOL
REMARK 927      BINDING AFFINITY PREDICTED BY RF-SCORE:    0.00 PKD
ROOT
HETATM    1  C   UNL     1     -10.012   3.046  71.962  1.00  0.00    -0.224 C  
HETATM    2  C   UNL     1      -9.874   4.166  73.007  1.00  0.00    -0.133 C  
HETATM    3  N   UNL     1      -9.481   5.457  72.405  1.00  0.00    -0.143 NA 
HETATM    4  C   UNL     1     -11.183   4.308  73.802  1.00  0.00    -0.265 C  
HETATM    5  C   UNL     1      -8.759   3.765  73.991  1.00  0.00    -0.089 C  
HETATM    6  H   UNL     1      -8.539   5.394  72.019  1.00  0.00     0.000 HD 
ENDROOT
BRANCH   3   7
HETATM    7  C   UNL     1     -10.413   5.978  71.391  1.00  0.00    -0.231 C  
BRANCH   7   8
HETATM    8  C   UNL     1      -9.729   6.266  70.028  1.00  0.00    -0.168 C  
HETATM    9  H   UNL     1     -10.023   5.768  68.150  1.00  0.00     0.000 HD 
HETATM   10  O   UNL     1     -10.442   5.592  68.985  1.00  0.00    -0.229 OA 
BRANCH   8  11
HETATM   11  C   UNL     1      -9.681   7.763  69.769  1.00  0.00    -0.176 A  
HETATM   12  C   UNL     1     -10.706   8.385  69.032  1.00  0.00    -0.101 A  
HETATM   13  C   UNL     1     -10.624   9.746  68.731  1.00  0.00    -0.219 A  
HETATM   14  C   UNL     1      -9.542  10.514  69.148  1.00  0.00    -0.214 A  
HETATM   15  O   UNL     1     -11.593  10.372  68.004  1.00  0.00    -0.663 OA 
HETATM   16  H   UNL     1     -11.538  11.297  67.799  1.00  0.00     0.000 HD 
HETATM   17  C   UNL     1      -8.536   9.903  69.885  1.00  0.00    -0.191 A  
HETATM   18  O   UNL     1      -7.449  10.603  70.319  1.00  0.00    -0.447 OA 
HETATM   19  C   UNL     1      -8.597   8.549  70.203  1.00  0.00    -0.132 A  
HETATM   20  H   UNL     1      -6.760  10.185  70.824  1.00  0.00     0.000 HD 
ENDBRANCH   8  11
ENDBRANCH   7   8
ENDBRANCH   3   7
TORSDOF 3
ENDMDL
MODEL      255
REMARK 921   NORMALIZED FREE ENERGY PREDICTED BY IDOCK:   -3.07 KCAL/MOL
REMARK 922        TOTAL FREE ENERGY PREDICTED BY IDOCK:   -3.90 KCAL/MOL
REMARK 923 INTER-LIGAND FREE ENERGY PREDICTED BY IDOCK:   -3.62 KCAL/MOL
REMARK 924 INTRA-LIGAND FREE ENERGY PREDICTED BY IDOCK:   -0.29 KCAL/MOL
REMARK 927      BINDING AFFINITY PREDICTED BY RF-SCORE:    0.00 PKD
ROOT
HETATM    1  C   UNL     1      -6.543  16.289  67.899  1.00  0.00    -0.150 C  
HETATM    2  C   UNL     1      -7.880  15.629  67.522  1.00  0.00    -0.161 C  
HETATM    3  N   UNL     1      -7.714  14.241  67.047  1.00  0.00    -0.336 NA 
HETATM    4  C   UNL     1      -8.848  15.688  68.717  1.00  0.00    -0.208 C  
HETATM    5  C   UNL     1      -8.500  16.436  66.365  1.00  0.00    -0.364 C  
HETATM    6  H   UNL     1      -7.203  14.229  66.164  1.00  0.00     0.000 HD 
ENDROOT
BRANCH   3   7
HETATM    7  C   UNL     1      -7.082  13.326  68.013  1.00  0.00    -0.122 C  
BRANCH   7   8
HETATM    8  C   UNL     1      -7.202  11.834  67.605  1.00  0.00    -0.111 C  
HETATM    9  H   UNL     1      -7.004  10.092  68.492  1.00  0.00     0.000 HD 
HETATM   10  O   UNL     1      -6.931  11.005  68.742  1.00  0.00    -0.068 OA 
BRANCH   8  11
HETATM   11  C   UNL     1      -8.587  11.550  67.047  1.00  0.00    -0.161 A  
HETATM   12  C   UNL     1      -9.722  11.714  67.862  1.00  0.00    -0.181 A  
HETATM   13  C   UNL     1     -10.988  11.382  67.374  1.00  0.00    -0.273 A  
HETATM   14  C   UNL     1     -11.157  10.888  66.085  1.00  0.00    -0.009 A  
HETATM   15  O   UNL     1     -12.104  11.514  68.146  1.00  0.00    -0.604 OA 
HETATM   16  H   UNL     1     -12.965  11.288  67.814  1.00  0.00     0.000 HD 
HETATM   17  C   UNL     1     -10.038  10.737  65.276  1.00  0.00    -0.290 A  
HETATM   18  O   UNL     1     -10.141  10.255  64.005  1.00  0.00    -0.397 OA 
HETATM   19  C   UNL     1      -8.767  11.066  65.738  1.00  0.00    -0.179 A  
HETATM   20  H   UNL     1      -9.375  10.151  63.451  1.00  0.00     0.000 HD 
ENDBRANCH   8  11
ENDBRANCH   7   8
ENDBRANCH   3   7
TORSDOF 3
ENDMDL
MODEL      256
REMARK 921   NORMALIZED FREE ENERGY PREDICTED BY IDOCK:   -3.06 KCAL/MOL
REMARK 922        TOTAL FREE ENERGY PREDICTED BY IDOCK:   -3.90 KCAL/MOL
REMARK 923 INTER-LIGAND FREE ENERGY PREDICTED BY IDOCK:   -3.60 KCAL/MOL
REMARK 924 INTRA-LIGAND FREE ENERGY PREDICTED BY IDOCK:   -0.30 KCAL/MOL
REMARK 927      BINDING AFFINITY PREDICTED BY RF-SCORE:    0.00 PKD
ROOT
HETATM    1  C   UNL     1     -10.076   3.076  71.870  1.00  0.00    -0.152 C  
HETATM    2  C   UNL     1     -10.006   4.381  72.680  1.00  0.00    -0.164 C  
HETATM    3  N   UNL     1      -9.559   5.531  71.867  1.00  0.00    -0.155 NA 
HETATM    4  C   UNL     1     -11.370   4.668  73.331  1.00  0.00    -0.394 C  
HETATM    5  C   UNL     1      -8.971   4.190  73.805  1.00  0.00    -0.092 C  
HETATM    6  H   UNL     1      -8.592   5.399  71.573  1.00  0.00     0.000 HD 
ENDROOT
BRANCH   3   7
HETATM    7  C   UNL     1     -10.409   5.835  70.703  1.00  0.00    -0.245 C  
BRANCH   7   8
HETATM    8  C   UNL     1      -9.595   6.105  69.410  1.00  0.00    -0.137 C  
HETATM    9  H   UNL     1      -9.404   5.269  67.642  1.00  0.00     0.000 HD 
HETATM   10  O   UNL     1      -9.903   5.103  68.434  1.00  0.00    -0.140 OA 
BRANCH   8  11
HETATM   11  C   UNL     1      -9.903   7.494  68.874  1.00  0.00    -0.159 A  
HETATM   12  C   UNL     1     -10.284   8.521  69.757  1.00  0.00    -0.206 A  
HETATM   13  C   UNL     1     -10.640   9.776  69.257  1.00  0.00    -0.221 A  
HETATM   14  C   UNL     1     -10.626  10.040  67.892  1.00  0.00    -0.298 A  
HETATM   15  O   UNL     1     -11.030  10.786  70.087  1.00  0.00    -0.409 OA 
HETATM   16  H   UNL     1     -11.272  11.639  69.748  1.00  0.00     0.000 HD 
HETATM   17  C   UNL     1     -10.238   9.029  67.021  1.00  0.00    -0.266 A  
HETATM   18  O   UNL     1     -10.207   9.228  65.673  1.00  0.00    -0.343 OA 
HETATM   19  C   UNL     1      -9.875   7.773  67.496  1.00  0.00    -0.221 A  
HETATM   20  H   UNL     1      -9.943   8.537  65.077  1.00  0.00     0.000 HD 
ENDBRANCH   8  11
ENDBRANCH   7   8
ENDBRANCH   3   7
TORSDOF 3
ENDMDL
MODEL      257
REMARK 921   NORMALIZED FREE ENERGY PREDICTED BY IDOCK:   -3.03 KCAL/MOL
REMARK 922        TOTAL FREE ENERGY PREDICTED BY IDOCK:   -3.85 KCAL/MOL
REMARK 923 INTER-LIGAND FREE ENERGY PREDICTED BY IDOCK:   -3.58 KCAL/MOL
REMARK 924 INTRA-LIGAND FREE ENERGY PREDICTED BY IDOCK:   -0.27 KCAL/MOL
REMARK 927      BINDING AFFINITY PREDICTED BY RF-SCORE:    0.00 PKD
ROOT
HETATM    1  C   UNL     1      -7.902   9.901  70.196  1.00  0.00    -0.186 C  
HETATM    2  C   UNL     1      -6.426  10.094  69.808  1.00  0.00    -0.072 C  
HETATM    3  N   UNL     1      -6.143   9.660  68.425  1.00  0.00    -0.043 NA 
HETATM    4  C   UNL     1      -6.015  11.561  70.018  1.00  0.00    -0.143 C  
HETATM    5  C   UNL     1      -5.570   9.219  70.744  1.00  0.00    -0.039 C  
HETATM    6  H   UNL     1      -6.267   8.652  68.339  1.00  0.00     0.000 HD 
ENDROOT
BRANCH   3   7
HETATM    7  C   UNL     1      -6.918  10.359  67.385  1.00  0.00    -0.085 C  
BRANCH   7   8
HETATM    8  C   UNL     1      -7.854   9.413  66.586  1.00  0.00    -0.104 C  
HETATM    9  H   UNL     1      -8.809   7.730  66.926  1.00  0.00     0.000 HD 
HETATM   10  O   UNL     1      -8.235   8.309  67.415  1.00  0.00    -0.119 OA 
BRANCH   8  11
HETATM   11  C   UNL     1      -9.079  10.172  66.101  1.00  0.00    -0.184 A  
HETATM   12  C   UNL     1      -9.213  10.496  64.738  1.00  0.00    -0.266 A  
HETATM   13  C   UNL     1     -10.300  11.258  64.304  1.00  0.00    -0.340 A  
HETATM   14  C   UNL     1     -11.267  11.709  65.196  1.00  0.00    -0.262 A  
HETATM   15  O   UNL     1     -10.448  11.602  62.993  1.00  0.00    -0.633 OA 
HETATM   16  H   UNL     1     -11.186  12.120  62.697  1.00  0.00     0.000 HD 
HETATM   17  C   UNL     1     -11.141  11.379  66.539  1.00  0.00    -0.251 A  
HETATM   18  O   UNL     1     -12.056  11.795  67.461  1.00  0.00    -0.599 OA 
HETATM   19  C   UNL     1     -10.070  10.617  66.995  1.00  0.00    -0.255 A  
HETATM   20  H   UNL     1     -11.970  11.569  68.380  1.00  0.00     0.000 HD 
ENDBRANCH   8  11
ENDBRANCH   7   8
ENDBRANCH   3   7
TORSDOF 3
ENDMDL
MODEL      258
REMARK 921   NORMALIZED FREE ENERGY PREDICTED BY IDOCK:   -3.01 KCAL/MOL
REMARK 922        TOTAL FREE ENERGY PREDICTED BY IDOCK:   -3.84 KCAL/MOL
REMARK 923 INTER-LIGAND FREE ENERGY PREDICTED BY IDOCK:   -3.57 KCAL/MOL
REMARK 924 INTRA-LIGAND FREE ENERGY PREDICTED BY IDOCK:   -0.26 KCAL/MOL
REMARK 927      BINDING AFFINITY PREDICTED BY RF-SCORE:    0.00 PKD
ROOT
HETATM    1  C   UNL     1     -12.657   6.899  71.570  1.00  0.00    -0.412 C  
HETATM    2  C   UNL     1     -11.201   7.170  71.986  1.00  0.00    -0.251 C  
HETATM    3  N   UNL     1     -10.225   6.651  71.007  1.00  0.00    -0.191 NA 
HETATM    4  C   UNL     1     -10.995   8.677  72.220  1.00  0.00    -0.392 C  
HETATM    5  C   UNL     1     -10.942   6.440  73.318  1.00  0.00    -0.218 C  
HETATM    6  H   UNL     1     -10.262   5.632  70.978  1.00  0.00     0.000 HD 
ENDROOT
BRANCH   3   7
HETATM    7  C   UNL     1     -10.356   7.204  69.648  1.00  0.00    -0.215 C  
BRANCH   7   8
HETATM    8  C   UNL     1      -9.026   7.173  68.848  1.00  0.00    -0.129 C  
HETATM    9  H   UNL     1      -7.132   6.831  69.242  1.00  0.00     0.000 HD 
HETATM   10  O   UNL     1      -7.946   6.849  69.731  1.00  0.00    -0.119 OA 
BRANCH   8  11
HETATM   11  C   UNL     1      -9.117   6.165  67.714  1.00  0.00    -0.117 A  
HETATM   12  C   UNL     1      -9.411   4.818  67.990  1.00  0.00    -0.182 A  
HETATM   13  C   UNL     1      -9.421   3.878  66.957  1.00  0.00    -0.200 A  
HETATM   14  C   UNL     1      -9.146   4.245  65.644  1.00  0.00    -0.136 A  
HETATM   15  O   UNL     1      -9.686   2.562  67.197  1.00  0.00    -0.400 OA 
HETATM   16  H   UNL     1      -9.693   1.922  66.494  1.00  0.00     0.000 HD 
HETATM   17  C   UNL     1      -8.867   5.578  65.369  1.00  0.00    -0.127 A  
HETATM   18  O   UNL     1      -8.587   5.998  64.103  1.00  0.00    -0.336 OA 
HETATM   19  C   UNL     1      -8.857   6.534  66.381  1.00  0.00    -0.149 A  
HETATM   20  H   UNL     1      -8.396   6.910  63.915  1.00  0.00     0.000 HD 
ENDBRANCH   8  11
ENDBRANCH   7   8
ENDBRANCH   3   7
TORSDOF 3
ENDMDL
MODEL      259
REMARK 921   NORMALIZED FREE ENERGY PREDICTED BY IDOCK:   -3.01 KCAL/MOL
REMARK 922        TOTAL FREE ENERGY PREDICTED BY IDOCK:   -3.83 KCAL/MOL
REMARK 923 INTER-LIGAND FREE ENERGY PREDICTED BY IDOCK:   -3.39 KCAL/MOL
REMARK 924 INTRA-LIGAND FREE ENERGY PREDICTED BY IDOCK:   -0.44 KCAL/MOL
REMARK 927      BINDING AFFINITY PREDICTED BY RF-SCORE:    0.00 PKD
ROOT
HETATM    1  C   UNL     1     -10.146   8.899  71.030  1.00  0.00    -0.324 C  
HETATM    2  C   UNL     1     -11.565   8.354  71.265  1.00  0.00    -0.283 C  
HETATM    3  N   UNL     1     -11.986   7.401  70.218  1.00  0.00    -0.527 NA 
HETATM    4  C   UNL     1     -11.657   7.713  72.660  1.00  0.00    -0.371 C  
HETATM    5  C   UNL     1     -12.545   9.542  71.219  1.00  0.00    -0.425 C  
HETATM    6  H   UNL     1     -12.076   7.878  69.321  1.00  0.00     0.000 HD 
ENDROOT
BRANCH   3   7
HETATM    7  C   UNL     1     -11.126   6.213  70.079  1.00  0.00    -0.392 C  
BRANCH   7   8
HETATM    8  C   UNL     1     -10.804   5.865  68.601  1.00  0.00    -0.261 C  
HETATM    9  H   UNL     1     -10.960   6.759  66.859  1.00  0.00     0.000 HD 
HETATM   10  O   UNL     1     -11.157   6.972  67.763  1.00  0.00    -0.182 OA 
BRANCH   8  11
HETATM   11  C   UNL     1      -9.331   5.522  68.450  1.00  0.00    -0.130 A  
HETATM   12  C   UNL     1      -8.910   4.655  67.425  1.00  0.00    -0.110 A  
HETATM   13  C   UNL     1      -7.568   4.280  67.332  1.00  0.00    -0.077 A  
HETATM   14  C   UNL     1      -6.623   4.749  68.238  1.00  0.00    -0.042 A  
HETATM   15  O   UNL     1      -7.134   3.428  66.360  1.00  0.00    -0.060 OA 
HETATM   16  H   UNL     1      -6.222   3.173  66.297  1.00  0.00     0.000 HD 
HETATM   17  C   UNL     1      -7.036   5.615  69.244  1.00  0.00    -0.065 A  
HETATM   18  O   UNL     1      -6.157   6.106  70.163  1.00  0.00    -0.028 OA 
HETATM   19  C   UNL     1      -8.367   6.007  69.354  1.00  0.00    -0.115 A  
HETATM   20  H   UNL     1      -6.439   6.698  70.851  1.00  0.00     0.000 HD 
ENDBRANCH   8  11
ENDBRANCH   7   8
ENDBRANCH   3   7
TORSDOF 3
ENDMDL
MODEL      260
REMARK 921   NORMALIZED FREE ENERGY PREDICTED BY IDOCK:   -3.01 KCAL/MOL
REMARK 922        TOTAL FREE ENERGY PREDICTED BY IDOCK:   -3.83 KCAL/MOL
REMARK 923 INTER-LIGAND FREE ENERGY PREDICTED BY IDOCK:   -4.36 KCAL/MOL
REMARK 924 INTRA-LIGAND FREE ENERGY PREDICTED BY IDOCK:    0.53 KCAL/MOL
REMARK 927      BINDING AFFINITY PREDICTED BY RF-SCORE:    0.00 PKD
ROOT
HETATM    1  C   UNL     1      -7.800   7.462  74.085  1.00  0.00    -0.164 C  
HETATM    2  C   UNL     1      -9.007   7.063  73.219  1.00  0.00    -0.133 C  
HETATM    3  N   UNL     1      -9.526   8.188  72.415  1.00  0.00    -0.223 NA 
HETATM    4  C   UNL     1      -8.636   5.871  72.320  1.00  0.00    -0.124 C  
HETATM    5  C   UNL     1     -10.141   6.616  74.161  1.00  0.00    -0.390 C  
HETATM    6  H   UNL     1      -9.916   8.907  73.025  1.00  0.00     0.000 HD 
ENDROOT
BRANCH   3   7
HETATM    7  C   UNL     1      -8.553   8.784  71.483  1.00  0.00    -0.186 C  
BRANCH   7   8
HETATM    8  C   UNL     1      -9.157   9.089  70.087  1.00  0.00    -0.188 C  
HETATM    9  H   UNL     1      -9.843   8.045  68.570  1.00  0.00     0.000 HD 
HETATM   10  O   UNL     1      -9.473   7.859  69.425  1.00  0.00    -0.156 OA 
BRANCH   8  11
HETATM   11  C   UNL     1     -10.395   9.960  70.228  1.00  0.00    -0.339 A  
HETATM   12  C   UNL     1     -11.322   9.707  71.255  1.00  0.00    -0.458 A  
HETATM   13  C   UNL     1     -12.496  10.460  71.339  1.00  0.00    -0.415 A  
HETATM   14  C   UNL     1     -12.774  11.467  70.422  1.00  0.00    -0.138 A  
HETATM   15  O   UNL     1     -13.421  10.226  72.313  1.00  0.00    -0.588 OA 
HETATM   16  H   UNL     1     -14.220  10.737  72.370  1.00  0.00     0.000 HD 
HETATM   17  C   UNL     1     -11.853  11.726  69.414  1.00  0.00    -0.334 A  
HETATM   18  O   UNL     1     -12.072  12.699  68.485  1.00  0.00    -0.263 OA 
HETATM   19  C   UNL     1     -10.674  10.993  69.313  1.00  0.00    -0.263 A  
HETATM   20  H   UNL     1     -11.442  12.876  67.796  1.00  0.00     0.000 HD 
ENDBRANCH   8  11
ENDBRANCH   7   8
ENDBRANCH   3   7
TORSDOF 3
ENDMDL
MODEL      261
REMARK 921   NORMALIZED FREE ENERGY PREDICTED BY IDOCK:   -3.01 KCAL/MOL
REMARK 922        TOTAL FREE ENERGY PREDICTED BY IDOCK:   -3.83 KCAL/MOL
REMARK 923 INTER-LIGAND FREE ENERGY PREDICTED BY IDOCK:   -3.55 KCAL/MOL
REMARK 924 INTRA-LIGAND FREE ENERGY PREDICTED BY IDOCK:   -0.28 KCAL/MOL
REMARK 927      BINDING AFFINITY PREDICTED BY RF-SCORE:    0.00 PKD
ROOT
HETATM    1  C   UNL     1      -5.197  11.628  69.432  1.00  0.00    -0.052 C  
HETATM    2  C   UNL     1      -6.469  10.795  69.200  1.00  0.00    -0.059 C  
HETATM    3  N   UNL     1      -7.650  11.633  68.907  1.00  0.00    -0.243 NA 
HETATM    4  C   UNL     1      -6.229   9.773  68.075  1.00  0.00    -0.055 C  
HETATM    5  C   UNL     1      -6.772  10.017  70.495  1.00  0.00    -0.118 C  
HETATM    6  H   UNL     1      -7.896  12.193  69.723  1.00  0.00     0.000 HD 
ENDROOT
BRANCH   3   7
HETATM    7  C   UNL     1      -7.520  12.494  67.719  1.00  0.00    -0.130 C  
BRANCH   7   8
HETATM    8  C   UNL     1      -7.640  14.006  68.048  1.00  0.00    -0.143 C  
HETATM    9  H   UNL     1      -6.646  15.644  67.613  1.00  0.00     0.000 HD 
HETATM   10  O   UNL     1      -6.573  14.718  67.412  1.00  0.00    -0.280 OA 
BRANCH   8  11
HETATM   11  C   UNL     1      -8.990  14.537  67.594  1.00  0.00    -0.193 A  
HETATM   12  C   UNL     1      -9.058  15.540  66.609  1.00  0.00    -0.310 A  
HETATM   13  C   UNL     1     -10.294  16.081  66.246  1.00  0.00    -0.321 A  
HETATM   14  C   UNL     1     -11.474  15.647  66.839  1.00  0.00     0.081 A  
HETATM   15  O   UNL     1     -10.390  17.065  65.306  1.00  0.00    -0.626 OA 
HETATM   16  H   UNL     1     -11.229  17.433  65.060  1.00  0.00     0.000 HD 
HETATM   17  C   UNL     1     -11.408  14.649  67.804  1.00  0.00    -0.322 A  
HETATM   18  O   UNL     1     -12.531  14.185  68.423  1.00  0.00    -0.532 OA 
HETATM   19  C   UNL     1     -10.190  14.091  68.178  1.00  0.00    -0.243 A  
HETATM   20  H   UNL     1     -12.486  13.503  69.082  1.00  0.00     0.000 HD 
ENDBRANCH   8  11
ENDBRANCH   7   8
ENDBRANCH   3   7
TORSDOF 3
ENDMDL
MODEL      262
REMARK 921   NORMALIZED FREE ENERGY PREDICTED BY IDOCK:   -3.00 KCAL/MOL
REMARK 922        TOTAL FREE ENERGY PREDICTED BY IDOCK:   -3.82 KCAL/MOL
REMARK 923 INTER-LIGAND FREE ENERGY PREDICTED BY IDOCK:   -3.43 KCAL/MOL
REMARK 924 INTRA-LIGAND FREE ENERGY PREDICTED BY IDOCK:   -0.39 KCAL/MOL
REMARK 927      BINDING AFFINITY PREDICTED BY RF-SCORE:    0.00 PKD
ROOT
HETATM    1  C   UNL     1      -8.645   1.887  71.075  1.00  0.00    -0.089 C  
HETATM    2  C   UNL     1      -7.856   3.066  70.480  1.00  0.00    -0.043 C  
HETATM    3  N   UNL     1      -8.553   3.699  69.342  1.00  0.00    -0.065 NA 
HETATM    4  C   UNL     1      -7.549   4.099  71.578  1.00  0.00    -0.064 C  
HETATM    5  C   UNL     1      -6.516   2.522  69.948  1.00  0.00    -0.029 C  
HETATM    6  H   UNL     1      -8.610   3.049  68.558  1.00  0.00     0.000 HD 
ENDROOT
BRANCH   3   7
HETATM    7  C   UNL     1      -9.889   4.236  69.655  1.00  0.00    -0.174 C  
BRANCH   7   8
HETATM    8  C   UNL     1     -10.055   5.725  69.250  1.00  0.00    -0.205 C  
HETATM    9  H   UNL     1     -10.926   6.720  67.796  1.00  0.00     0.000 HD 
HETATM   10  O   UNL     1     -10.824   5.808  68.044  1.00  0.00    -0.242 OA 
BRANCH   8  11
HETATM   11  C   UNL     1     -10.722   6.504  70.371  1.00  0.00    -0.306 A  
HETATM   12  C   UNL     1      -9.999   6.826  71.535  1.00  0.00    -0.189 A  
HETATM   13  C   UNL     1     -10.633   7.476  72.596  1.00  0.00    -0.286 A  
HETATM   14  C   UNL     1     -11.979   7.820  72.531  1.00  0.00    -0.304 A  
HETATM   15  O   UNL     1      -9.962   7.785  73.742  1.00  0.00    -0.340 OA 
HETATM   16  H   UNL     1     -10.393   8.226  74.464  1.00  0.00     0.000 HD 
HETATM   17  C   UNL     1     -12.691   7.513  71.378  1.00  0.00    -0.348 A  
HETATM   18  O   UNL     1     -14.013   7.822  71.257  1.00  0.00    -0.568 OA 
HETATM   19  C   UNL     1     -12.079   6.870  70.305  1.00  0.00    -0.182 A  
HETATM   20  H   UNL     1     -14.500   7.613  70.468  1.00  0.00     0.000 HD 
ENDBRANCH   8  11
ENDBRANCH   7   8
ENDBRANCH   3   7
TORSDOF 3
ENDMDL
MODEL      263
REMARK 921   NORMALIZED FREE ENERGY PREDICTED BY IDOCK:   -2.97 KCAL/MOL
REMARK 922        TOTAL FREE ENERGY PREDICTED BY IDOCK:   -3.78 KCAL/MOL
REMARK 923 INTER-LIGAND FREE ENERGY PREDICTED BY IDOCK:   -3.29 KCAL/MOL
REMARK 924 INTRA-LIGAND FREE ENERGY PREDICTED BY IDOCK:   -0.49 KCAL/MOL
REMARK 927      BINDING AFFINITY PREDICTED BY RF-SCORE:    0.00 PKD
ROOT
HETATM    1  C   UNL     1      -7.470   9.161  66.126  1.00  0.00    -0.095 C  
HETATM    2  C   UNL     1      -8.091   7.844  66.620  1.00  0.00    -0.107 C  
HETATM    3  N   UNL     1      -8.936   8.030  67.817  1.00  0.00    -0.132 NA 
HETATM    4  C   UNL     1      -8.889   7.182  65.483  1.00  0.00     0.017 C  
HETATM    5  C   UNL     1      -6.944   6.894  67.014  1.00  0.00    -0.070 C  
HETATM    6  H   UNL     1      -8.364   8.318  68.611  1.00  0.00     0.000 HD 
ENDROOT
BRANCH   3   7
HETATM    7  C   UNL     1     -10.067   8.957  67.641  1.00  0.00    -0.218 C  
BRANCH   7   8
HETATM    8  C   UNL     1     -10.082  10.103  68.687  1.00  0.00    -0.172 C  
HETATM    9  H   UNL     1      -8.969  10.662  70.207  1.00  0.00     0.000 HD 
HETATM   10  O   UNL     1      -8.960   9.961  69.567  1.00  0.00    -0.182 OA 
BRANCH   8  11
HETATM   11  C   UNL     1     -10.053  11.453  67.990  1.00  0.00    -0.193 A  
HETATM   12  C   UNL     1     -11.225  11.972  67.409  1.00  0.00    -0.368 A  
HETATM   13  C   UNL     1     -11.182  13.177  66.703  1.00  0.00    -0.304 A  
HETATM   14  C   UNL     1      -9.995  13.887  66.559  1.00  0.00    -0.288 A  
HETATM   15  O   UNL     1     -12.298  13.695  66.115  1.00  0.00    -0.431 OA 
HETATM   16  H   UNL     1     -12.269  14.514  65.635  1.00  0.00     0.000 HD 
HETATM   17  C   UNL     1      -8.840  13.381  67.143  1.00  0.00    -0.222 A  
HETATM   18  O   UNL     1      -7.647  14.031  67.034  1.00  0.00    -0.348 OA 
HETATM   19  C   UNL     1      -8.859  12.185  67.855  1.00  0.00    -0.177 A  
HETATM   20  H   UNL     1      -6.857  13.685  67.433  1.00  0.00     0.000 HD 
ENDBRANCH   8  11
ENDBRANCH   7   8
ENDBRANCH   3   7
TORSDOF 3
ENDMDL
MODEL      264
REMARK 921   NORMALIZED FREE ENERGY PREDICTED BY IDOCK:   -2.96 KCAL/MOL
REMARK 922        TOTAL FREE ENERGY PREDICTED BY IDOCK:   -3.77 KCAL/MOL
REMARK 923 INTER-LIGAND FREE ENERGY PREDICTED BY IDOCK:   -3.37 KCAL/MOL
REMARK 924 INTRA-LIGAND FREE ENERGY PREDICTED BY IDOCK:   -0.40 KCAL/MOL
REMARK 927      BINDING AFFINITY PREDICTED BY RF-SCORE:    0.00 PKD
ROOT
HETATM    1  C   UNL     1      -6.146   7.476  74.287  1.00  0.00    -0.077 C  
HETATM    2  C   UNL     1      -7.085   6.362  73.793  1.00  0.00    -0.082 C  
HETATM    3  N   UNL     1      -8.502   6.632  74.110  1.00  0.00    -0.130 NA 
HETATM    4  C   UNL     1      -6.892   6.146  72.282  1.00  0.00    -0.073 C  
HETATM    5  C   UNL     1      -6.697   5.057  74.515  1.00  0.00    -0.072 C  
HETATM    6  H   UNL     1      -8.647   6.614  75.119  1.00  0.00     0.000 HD 
ENDROOT
BRANCH   3   7
HETATM    7  C   UNL     1      -9.038   7.880  73.540  1.00  0.00    -0.282 C  
BRANCH   7   8
HETATM    8  C   UNL     1     -10.238   7.646  72.585  1.00  0.00    -0.265 C  
HETATM    9  H   UNL     1     -12.198   7.661  72.726  1.00  0.00     0.000 HD 
HETATM   10  O   UNL     1     -11.463   7.804  73.311  1.00  0.00    -0.295 OA 
BRANCH   8  11
HETATM   11  C   UNL     1     -10.175   8.614  71.414  1.00  0.00    -0.324 A  
HETATM   12  C   UNL     1      -9.014   8.690  70.624  1.00  0.00    -0.199 A  
HETATM   13  C   UNL     1      -8.928   9.631  69.595  1.00  0.00    -0.203 A  
HETATM   14  C   UNL     1      -9.976  10.505  69.327  1.00  0.00    -0.233 A  
HETATM   15  O   UNL     1      -7.808   9.740  68.824  1.00  0.00    -0.079 OA 
HETATM   16  H   UNL     1      -7.749  10.380  68.125  1.00  0.00     0.000 HD 
HETATM   17  C   UNL     1     -11.128  10.421  70.099  1.00  0.00    -0.314 A  
HETATM   18  O   UNL     1     -12.187  11.253  69.885  1.00  0.00    -0.299 OA 
HETATM   19  C   UNL     1     -11.239   9.489  71.126  1.00  0.00    -0.446 A  
HETATM   20  H   UNL     1     -12.975  11.196  70.413  1.00  0.00     0.000 HD 
ENDBRANCH   8  11
ENDBRANCH   7   8
ENDBRANCH   3   7
TORSDOF 3
ENDMDL
MODEL      265
REMARK 921   NORMALIZED FREE ENERGY PREDICTED BY IDOCK:   -2.95 KCAL/MOL
REMARK 922        TOTAL FREE ENERGY PREDICTED BY IDOCK:   -3.76 KCAL/MOL
REMARK 923 INTER-LIGAND FREE ENERGY PREDICTED BY IDOCK:   -3.35 KCAL/MOL
REMARK 924 INTRA-LIGAND FREE ENERGY PREDICTED BY IDOCK:   -0.40 KCAL/MOL
REMARK 927      BINDING AFFINITY PREDICTED BY RF-SCORE:    0.00 PKD
ROOT
HETATM    1  C   UNL     1     -10.231   7.005  71.200  1.00  0.00    -0.208 C  
HETATM    2  C   UNL     1      -9.165   5.898  71.127  1.00  0.00    -0.150 C  
HETATM    3  N   UNL     1      -8.553   5.788  69.787  1.00  0.00    -0.125 NA 
HETATM    4  C   UNL     1      -8.091   6.133  72.203  1.00  0.00    -0.110 C  
HETATM    5  C   UNL     1      -9.854   4.553  71.425  1.00  0.00    -0.264 C  
HETATM    6  H   UNL     1      -9.247   5.475  69.107  1.00  0.00     0.000 HD 
ENDROOT
BRANCH   3   7
HETATM    7  C   UNL     1      -7.886   7.010  69.307  1.00  0.00    -0.114 C  
BRANCH   7   8
HETATM    8  C   UNL     1      -8.021   7.215  67.775  1.00  0.00    -0.114 C  
HETATM    9  H   UNL     1      -8.874   6.270  66.279  1.00  0.00     0.000 HD 
HETATM   10  O   UNL     1      -8.792   6.145  67.217  1.00  0.00    -0.109 OA 
BRANCH   8  11
HETATM   11  C   UNL     1      -8.668   8.559  67.479  1.00  0.00    -0.135 A  
HETATM   12  C   UNL     1      -7.934   9.567  66.829  1.00  0.00    -0.109 A  
HETATM   13  C   UNL     1      -8.503  10.826  66.623  1.00  0.00    -0.142 A  
HETATM   14  C   UNL     1      -9.796  11.111  67.050  1.00  0.00    -0.212 A  
HETATM   15  O   UNL     1      -7.809  11.828  66.011  1.00  0.00    -0.357 OA 
HETATM   16  H   UNL     1      -8.196  12.684  65.872  1.00  0.00     0.000 HD 
HETATM   17  C   UNL     1     -10.525  10.112  67.682  1.00  0.00    -0.245 A  
HETATM   18  O   UNL     1     -11.796  10.333  68.124  1.00  0.00    -0.737 OA 
HETATM   19  C   UNL     1      -9.981   8.848  67.893  1.00  0.00    -0.223 A  
HETATM   20  H   UNL     1     -12.295   9.650  68.556  1.00  0.00     0.000 HD 
ENDBRANCH   8  11
ENDBRANCH   7   8
ENDBRANCH   3   7
TORSDOF 3
ENDMDL
MODEL      266
REMARK 921   NORMALIZED FREE ENERGY PREDICTED BY IDOCK:   -2.94 KCAL/MOL
REMARK 922        TOTAL FREE ENERGY PREDICTED BY IDOCK:   -3.75 KCAL/MOL
REMARK 923 INTER-LIGAND FREE ENERGY PREDICTED BY IDOCK:   -3.65 KCAL/MOL
REMARK 924 INTRA-LIGAND FREE ENERGY PREDICTED BY IDOCK:   -0.11 KCAL/MOL
REMARK 927      BINDING AFFINITY PREDICTED BY RF-SCORE:    0.00 PKD
ROOT
HETATM    1  C   UNL     1     -12.038   7.957  72.012  1.00  0.00    -0.363 C  
HETATM    2  C   UNL     1     -10.550   7.631  71.800  1.00  0.00    -0.214 C  
HETATM    3  N   UNL     1     -10.152   7.695  70.379  1.00  0.00    -0.189 NA 
HETATM    4  C   UNL     1      -9.681   8.569  72.655  1.00  0.00    -0.285 C  
HETATM    5  C   UNL     1     -10.306   6.187  72.277  1.00  0.00    -0.221 C  
HETATM    6  H   UNL     1     -10.619   6.959  69.849  1.00  0.00     0.000 HD 
ENDROOT
BRANCH   3   7
HETATM    7  C   UNL     1     -10.365   9.001  69.733  1.00  0.00    -0.211 C  
BRANCH   7   8
HETATM    8  C   UNL     1      -9.717   9.097  68.326  1.00  0.00    -0.154 C  
HETATM    9  H   UNL     1      -8.074   9.856  67.561  1.00  0.00     0.000 HD 
HETATM   10  O   UNL     1      -8.471   9.797  68.422  1.00  0.00    -0.112 OA 
BRANCH   8  11
HETATM   11  C   UNL     1      -9.512   7.707  67.746  1.00  0.00    -0.160 A  
HETATM   12  C   UNL     1      -8.231   7.125  67.745  1.00  0.00    -0.115 A  
HETATM   13  C   UNL     1      -8.028   5.880  67.145  1.00  0.00    -0.102 A  
HETATM   14  C   UNL     1      -9.074   5.191  66.541  1.00  0.00    -0.127 A  
HETATM   15  O   UNL     1      -6.795   5.299  67.114  1.00  0.00    -0.057 OA 
HETATM   16  H   UNL     1      -6.657   4.453  66.706  1.00  0.00     0.000 HD 
HETATM   17  C   UNL     1     -10.342   5.760  66.552  1.00  0.00    -0.209 A  
HETATM   18  O   UNL     1     -11.406   5.134  65.974  1.00  0.00    -0.714 OA 
HETATM   19  C   UNL     1     -10.569   6.997  67.148  1.00  0.00    -0.412 A  
HETATM   20  H   UNL     1     -12.273   5.523  65.981  1.00  0.00     0.000 HD 
ENDBRANCH   8  11
ENDBRANCH   7   8
ENDBRANCH   3   7
TORSDOF 3
ENDMDL
MODEL      267
REMARK 921   NORMALIZED FREE ENERGY PREDICTED BY IDOCK:   -2.93 KCAL/MOL
REMARK 922        TOTAL FREE ENERGY PREDICTED BY IDOCK:   -3.73 KCAL/MOL
REMARK 923 INTER-LIGAND FREE ENERGY PREDICTED BY IDOCK:   -3.45 KCAL/MOL
REMARK 924 INTRA-LIGAND FREE ENERGY PREDICTED BY IDOCK:   -0.28 KCAL/MOL
REMARK 927      BINDING AFFINITY PREDICTED BY RF-SCORE:    0.00 PKD
ROOT
HETATM    1  C   UNL     1     -11.153   6.269  67.473  1.00  0.00    -0.379 C  
HETATM    2  C   UNL     1      -9.638   6.508  67.584  1.00  0.00    -0.122 C  
HETATM    3  N   UNL     1      -9.257   7.896  67.255  1.00  0.00    -0.139 NA 
HETATM    4  C   UNL     1      -9.147   6.123  68.991  1.00  0.00    -0.124 C  
HETATM    5  C   UNL     1      -8.935   5.589  66.566  1.00  0.00    -0.123 C  
HETATM    6  H   UNL     1      -9.441   8.089  66.271  1.00  0.00     0.000 HD 
ENDROOT
BRANCH   3   7
HETATM    7  C   UNL     1      -9.881   8.928  68.101  1.00  0.00    -0.167 C  
BRANCH   7   8
HETATM    8  C   UNL     1     -10.387  10.152  67.294  1.00  0.00    -0.237 C  
HETATM    9  H   UNL     1     -12.029  11.227  67.212  1.00  0.00     0.000 HD 
HETATM   10  O   UNL     1     -11.719  10.478  67.707  1.00  0.00    -0.438 OA 
BRANCH   8  11
HETATM   11  C   UNL     1      -9.455  11.336  67.493  1.00  0.00    -0.177 A  
HETATM   12  C   UNL     1      -8.431  11.273  68.456  1.00  0.00    -0.156 A  
HETATM   13  C   UNL     1      -7.623  12.388  68.691  1.00  0.00    -0.082 A  
HETATM   14  C   UNL     1      -7.805  13.573  67.987  1.00  0.00    -0.147 A  
HETATM   15  O   UNL     1      -6.634  12.362  69.630  1.00  0.00    -0.266 OA 
HETATM   16  H   UNL     1      -6.084  13.120  69.790  1.00  0.00     0.000 HD 
HETATM   17  C   UNL     1      -8.808  13.631  67.028  1.00  0.00    -0.223 A  
HETATM   18  O   UNL     1      -9.036  14.767  66.308  1.00  0.00    -0.444 OA 
HETATM   19  C   UNL     1      -9.623  12.533  66.772  1.00  0.00    -0.231 A  
HETATM   20  H   UNL     1      -9.722  14.807  65.651  1.00  0.00     0.000 HD 
ENDBRANCH   8  11
ENDBRANCH   7   8
ENDBRANCH   3   7
TORSDOF 3
ENDMDL
MODEL      268
REMARK 921   NORMALIZED FREE ENERGY PREDICTED BY IDOCK:   -2.92 KCAL/MOL
REMARK 922        TOTAL FREE ENERGY PREDICTED BY IDOCK:   -3.73 KCAL/MOL
REMARK 923 INTER-LIGAND FREE ENERGY PREDICTED BY IDOCK:   -3.21 KCAL/MOL
REMARK 924 INTRA-LIGAND FREE ENERGY PREDICTED BY IDOCK:   -0.52 KCAL/MOL
REMARK 927      BINDING AFFINITY PREDICTED BY RF-SCORE:    0.00 PKD
ROOT
HETATM    1  C   UNL     1      -9.349   6.299  70.325  1.00  0.00    -0.170 C  
HETATM    2  C   UNL     1      -8.750   4.958  69.869  1.00  0.00    -0.093 C  
HETATM    3  N   UNL     1      -8.976   4.695  68.433  1.00  0.00    -0.109 NA 
HETATM    4  C   UNL     1      -7.249   4.913  70.205  1.00  0.00    -0.051 C  
HETATM    5  C   UNL     1      -9.449   3.832  70.654  1.00  0.00    -0.240 C  
HETATM    6  H   UNL     1      -9.972   4.568  68.251  1.00  0.00     0.000 HD 
ENDROOT
BRANCH   3   7
HETATM    7  C   UNL     1      -8.416   5.707  67.521  1.00  0.00    -0.102 C  
BRANCH   7   8
HETATM    8  C   UNL     1      -9.498   6.423  66.670  1.00  0.00    -0.161 C  
HETATM    9  H   UNL     1     -11.433   6.245  66.379  1.00  0.00     0.000 HD 
HETATM   10  O   UNL     1     -10.771   5.807  66.900  1.00  0.00    -0.285 OA 
BRANCH   8  11
HETATM   11  C   UNL     1      -9.545   7.903  67.015  1.00  0.00    -0.247 A  
HETATM   12  C   UNL     1     -10.762   8.503  67.386  1.00  0.00    -0.215 A  
HETATM   13  C   UNL     1     -10.819   9.877  67.630  1.00  0.00    -0.257 A  
HETATM   14  C   UNL     1      -9.688  10.678  67.516  1.00  0.00    -0.189 A  
HETATM   15  O   UNL     1     -11.988  10.489  67.975  1.00  0.00    -0.758 OA 
HETATM   16  H   UNL     1     -12.028  11.423  68.140  1.00  0.00     0.000 HD 
HETATM   17  C   UNL     1      -8.483  10.084  67.161  1.00  0.00    -0.125 A  
HETATM   18  O   UNL     1      -7.342  10.817  67.031  1.00  0.00    -0.099 OA 
HETATM   19  C   UNL     1      -8.400   8.716  66.918  1.00  0.00    -0.108 A  
HETATM   20  H   UNL     1      -6.518  10.411  66.789  1.00  0.00     0.000 HD 
ENDBRANCH   8  11
ENDBRANCH   7   8
ENDBRANCH   3   7
TORSDOF 3
ENDMDL
MODEL      269
REMARK 921   NORMALIZED FREE ENERGY PREDICTED BY IDOCK:   -2.90 KCAL/MOL
REMARK 922        TOTAL FREE ENERGY PREDICTED BY IDOCK:   -3.70 KCAL/MOL
REMARK 923 INTER-LIGAND FREE ENERGY PREDICTED BY IDOCK:   -3.40 KCAL/MOL
REMARK 924 INTRA-LIGAND FREE ENERGY PREDICTED BY IDOCK:   -0.30 KCAL/MOL
REMARK 927      BINDING AFFINITY PREDICTED BY RF-SCORE:    0.00 PKD
ROOT
HETATM    1  C   UNL     1     -13.667  15.243  70.895  1.00  0.00    -0.363 C  
HETATM    2  C   UNL     1     -12.510  14.519  71.604  1.00  0.00    -0.352 C  
HETATM    3  N   UNL     1     -11.663  13.752  70.668  1.00  0.00    -0.527 NA 
HETATM    4  C   UNL     1     -11.668  15.530  72.402  1.00  0.00    -0.570 C  
HETATM    5  C   UNL     1     -13.116  13.511  72.599  1.00  0.00    -0.399 C  
HETATM    6  H   UNL     1     -12.193  12.981  70.262  1.00  0.00     0.000 HD 
ENDROOT
BRANCH   3   7
HETATM    7  C   UNL     1     -11.033  14.552  69.603  1.00  0.00    -0.193 C  
BRANCH   7   8
HETATM    8  C   UNL     1     -10.051  13.732  68.726  1.00  0.00    -0.136 C  
HETATM    9  H   UNL     1      -9.763  13.430  66.806  1.00  0.00     0.000 HD 
HETATM   10  O   UNL     1     -10.364  13.933  67.343  1.00  0.00    -0.249 OA 
BRANCH   8  11
HETATM   11  C   UNL     1      -8.616  14.141  69.020  1.00  0.00     0.109 A  
HETATM   12  C   UNL     1      -8.315  15.477  69.341  1.00  0.00    -0.249 A  
HETATM   13  C   UNL     1      -6.989  15.868  69.537  1.00  0.00    -0.189 A  
HETATM   14  C   UNL     1      -5.944  14.958  69.424  1.00  0.00    -0.105 A  
HETATM   15  O   UNL     1      -6.666  17.159  69.833  1.00  0.00    -0.045 OA 
HETATM   16  H   UNL     1      -5.764  17.426  69.966  1.00  0.00     0.000 HD 
HETATM   17  C   UNL     1      -6.242  13.635  69.118  1.00  0.00    -0.098 A  
HETATM   18  O   UNL     1      -5.259  12.698  68.991  1.00  0.00    -0.066 OA 
HETATM   19  C   UNL     1      -7.556  13.221  68.923  1.00  0.00     0.032 A  
HETATM   20  H   UNL     1      -5.463  11.794  68.782  1.00  0.00     0.000 HD 
ENDBRANCH   8  11
ENDBRANCH   7   8
ENDBRANCH   3   7
TORSDOF 3
ENDMDL
MODEL      270
REMARK 921   NORMALIZED FREE ENERGY PREDICTED BY IDOCK:   -2.90 KCAL/MOL
REMARK 922        TOTAL FREE ENERGY PREDICTED BY IDOCK:   -3.70 KCAL/MOL
REMARK 923 INTER-LIGAND FREE ENERGY PREDICTED BY IDOCK:   -3.58 KCAL/MOL
REMARK 924 INTRA-LIGAND FREE ENERGY PREDICTED BY IDOCK:   -0.12 KCAL/MOL
REMARK 927      BINDING AFFINITY PREDICTED BY RF-SCORE:    0.00 PKD
ROOT
HETATM    1  C   UNL     1      -6.820  13.275  67.331  1.00  0.00    -0.098 C  
HETATM    2  C   UNL     1      -6.949  12.264  68.483  1.00  0.00    -0.092 C  
HETATM    3  N   UNL     1      -8.299  11.670  68.568  1.00  0.00    -0.194 NA 
HETATM    4  C   UNL     1      -5.876  11.171  68.345  1.00  0.00    -0.042 C  
HETATM    5  C   UNL     1      -6.699  13.015  69.806  1.00  0.00     0.158 C  
HETATM    6  H   UNL     1      -8.983  12.383  68.819  1.00  0.00     0.000 HD 
ENDROOT
BRANCH   3   7
HETATM    7  C   UNL     1      -8.735  10.948  67.360  1.00  0.00    -0.130 C  
BRANCH   7   8
HETATM    8  C   UNL     1     -10.273  10.974  67.159  1.00  0.00    -0.206 C  
HETATM    9  H   UNL     1     -11.733   9.659  67.150  1.00  0.00     0.000 HD 
HETATM   10  O   UNL     1     -10.791   9.644  67.273  1.00  0.00    -0.254 OA 
BRANCH   8  11
HETATM   11  C   UNL     1     -10.922  11.896  68.179  1.00  0.00    -0.272 A  
HETATM   12  C   UNL     1     -11.375  11.381  69.407  1.00  0.00    -0.365 A  
HETATM   13  C   UNL     1     -12.038  12.212  70.312  1.00  0.00    -0.302 A  
HETATM   14  C   UNL     1     -12.264  13.555  70.028  1.00  0.00    -0.381 A  
HETATM   15  O   UNL     1     -12.504  11.737  71.503  1.00  0.00    -0.234 OA 
HETATM   16  H   UNL     1     -12.955  12.302  72.119  1.00  0.00     0.000 HD 
HETATM   17  C   UNL     1     -11.806  14.066  68.820  1.00  0.00    -0.361 A  
HETATM   18  O   UNL     1     -12.000  15.373  68.484  1.00  0.00    -0.517 OA 
HETATM   19  C   UNL     1     -11.138  13.259  67.904  1.00  0.00    -0.287 A  
HETATM   20  H   UNL     1     -11.687  15.723  67.658  1.00  0.00     0.000 HD 
ENDBRANCH   8  11
ENDBRANCH   7   8
ENDBRANCH   3   7
TORSDOF 3
ENDMDL
MODEL      271
REMARK 921   NORMALIZED FREE ENERGY PREDICTED BY IDOCK:   -2.89 KCAL/MOL
REMARK 922        TOTAL FREE ENERGY PREDICTED BY IDOCK:   -3.69 KCAL/MOL
REMARK 923 INTER-LIGAND FREE ENERGY PREDICTED BY IDOCK:   -3.45 KCAL/MOL
REMARK 924 INTRA-LIGAND FREE ENERGY PREDICTED BY IDOCK:   -0.24 KCAL/MOL
REMARK 927      BINDING AFFINITY PREDICTED BY RF-SCORE:    0.00 PKD
ROOT
HETATM    1  C   UNL     1     -11.990  14.634  69.281  1.00  0.00    -0.337 C  
HETATM    2  C   UNL     1     -11.097  15.125  68.130  1.00  0.00    -0.304 C  
HETATM    3  N   UNL     1      -9.771  14.475  68.124  1.00  0.00    -0.214 NA 
HETATM    4  C   UNL     1     -11.815  14.920  66.785  1.00  0.00    -0.187 C  
HETATM    5  C   UNL     1     -10.862  16.636  68.321  1.00  0.00    -0.356 C  
HETATM    6  H   UNL     1      -9.240  14.748  68.951  1.00  0.00     0.000 HD 
ENDROOT
BRANCH   3   7
HETATM    7  C   UNL     1      -9.801  13.007  68.001  1.00  0.00    -0.224 C  
BRANCH   7   8
HETATM    8  C   UNL     1      -8.428  12.402  67.602  1.00  0.00    -0.169 C  
HETATM    9  H   UNL     1      -6.720  12.029  68.496  1.00  0.00     0.000 HD 
HETATM   10  O   UNL     1      -7.560  12.399  68.741  1.00  0.00    -0.106 OA 
BRANCH   8  11
HETATM   11  C   UNL     1      -8.612  10.995  67.057  1.00  0.00    -0.140 A  
HETATM   12  C   UNL     1      -8.937  10.800  65.703  1.00  0.00    -0.205 A  
HETATM   13  C   UNL     1      -9.179   9.511  65.220  1.00  0.00    -0.247 A  
HETATM   14  C   UNL     1      -9.104   8.402  66.055  1.00  0.00    -0.235 A  
HETATM   15  O   UNL     1      -9.513   9.293  63.916  1.00  0.00    -0.354 OA 
HETATM   16  H   UNL     1      -9.678   8.417  63.588  1.00  0.00     0.000 HD 
HETATM   17  C   UNL     1      -8.771   8.593  67.390  1.00  0.00    -0.134 A  
HETATM   18  O   UNL     1      -8.684   7.545  68.257  1.00  0.00    -0.124 OA 
HETATM   19  C   UNL     1      -8.520   9.867  67.893  1.00  0.00    -0.121 A  
HETATM   20  H   UNL     1      -8.456   7.675  69.170  1.00  0.00     0.000 HD 
ENDBRANCH   8  11
ENDBRANCH   7   8
ENDBRANCH   3   7
TORSDOF 3
ENDMDL
MODEL      272
REMARK 921   NORMALIZED FREE ENERGY PREDICTED BY IDOCK:   -2.89 KCAL/MOL
REMARK 922        TOTAL FREE ENERGY PREDICTED BY IDOCK:   -3.69 KCAL/MOL
REMARK 923 INTER-LIGAND FREE ENERGY PREDICTED BY IDOCK:   -3.40 KCAL/MOL
REMARK 924 INTRA-LIGAND FREE ENERGY PREDICTED BY IDOCK:   -0.28 KCAL/MOL
REMARK 927      BINDING AFFINITY PREDICTED BY RF-SCORE:    0.00 PKD
ROOT
HETATM    1  C   UNL     1     -11.131   9.421  71.498  1.00  0.00    -0.446 C  
HETATM    2  C   UNL     1     -11.455   7.991  71.036  1.00  0.00    -0.279 C  
HETATM    3  N   UNL     1     -11.183   7.784  69.599  1.00  0.00    -0.449 NA 
HETATM    4  C   UNL     1     -10.680   6.975  71.892  1.00  0.00    -0.244 C  
HETATM    5  C   UNL     1     -12.961   7.749  71.253  1.00  0.00    -0.257 C  
HETATM    6  H   UNL     1     -11.817   8.350  69.035  1.00  0.00     0.000 HD 
ENDROOT
BRANCH   3   7
HETATM    7  C   UNL     1      -9.788   8.024  69.191  1.00  0.00    -0.178 C  
BRANCH   7   8
HETATM    8  C   UNL     1      -9.275   6.998  68.145  1.00  0.00    -0.130 C  
HETATM    9  H   UNL     1     -10.012   5.454  67.182  1.00  0.00     0.000 HD 
HETATM   10  O   UNL     1     -10.326   6.082  67.821  1.00  0.00    -0.160 OA 
BRANCH   8  11
HETATM   11  C   UNL     1      -8.782   7.718  66.900  1.00  0.00    -0.136 A  
HETATM   12  C   UNL     1      -7.414   7.705  66.573  1.00  0.00    -0.092 A  
HETATM   13  C   UNL     1      -6.951   8.428  65.471  1.00  0.00    -0.070 A  
HETATM   14  C   UNL     1      -7.820   9.168  64.677  1.00  0.00    -0.118 A  
HETATM   15  O   UNL     1      -5.628   8.449  65.141  1.00  0.00    -0.042 OA 
HETATM   16  H   UNL     1      -5.313   8.940  64.392  1.00  0.00     0.000 HD 
HETATM   17  C   UNL     1      -9.173   9.171  64.992  1.00  0.00    -0.114 A  
HETATM   18  O   UNL     1     -10.073   9.879  64.252  1.00  0.00    -0.443 OA 
HETATM   19  C   UNL     1      -9.659   8.454  66.082  1.00  0.00    -0.246 A  
HETATM   20  H   UNL     1     -10.998   9.881  64.468  1.00  0.00     0.000 HD 
ENDBRANCH   8  11
ENDBRANCH   7   8
ENDBRANCH   3   7
TORSDOF 3
ENDMDL
MODEL      273
REMARK 921   NORMALIZED FREE ENERGY PREDICTED BY IDOCK:   -2.88 KCAL/MOL
REMARK 922        TOTAL FREE ENERGY PREDICTED BY IDOCK:   -3.68 KCAL/MOL
REMARK 923 INTER-LIGAND FREE ENERGY PREDICTED BY IDOCK:   -3.43 KCAL/MOL
REMARK 924 INTRA-LIGAND FREE ENERGY PREDICTED BY IDOCK:   -0.25 KCAL/MOL
REMARK 927      BINDING AFFINITY PREDICTED BY RF-SCORE:    0.00 PKD
ROOT
HETATM    1  C   UNL     1      -9.343   9.290  66.459  1.00  0.00    -0.231 C  
HETATM    2  C   UNL     1     -10.196  10.234  67.322  1.00  0.00    -0.218 C  
HETATM    3  N   UNL     1     -11.003   9.512  68.325  1.00  0.00    -0.469 NA 
HETATM    4  C   UNL     1      -9.297  11.286  67.995  1.00  0.00    -0.166 C  
HETATM    5  C   UNL     1     -11.179  10.972  66.392  1.00  0.00    -0.041 C  
HETATM    6  H   UNL     1     -11.707   8.935  67.864  1.00  0.00     0.000 HD 
ENDROOT
BRANCH   3   7
HETATM    7  C   UNL     1     -10.227   8.701  69.279  1.00  0.00    -0.211 C  
BRANCH   7   8
HETATM    8  C   UNL     1     -10.756   8.802  70.735  1.00  0.00    -0.228 C  
HETATM    9  H   UNL     1     -12.501   9.036  71.605  1.00  0.00     0.000 HD 
HETATM   10  O   UNL     1     -12.177   8.975  70.714  1.00  0.00    -0.215 OA 
BRANCH   8  11
HETATM   11  C   UNL     1     -10.374   7.558  71.520  1.00  0.00    -0.216 A  
HETATM   12  C   UNL     1      -9.074   7.031  71.419  1.00  0.00    -0.147 A  
HETATM   13  C   UNL     1      -8.745   5.846  72.081  1.00  0.00    -0.136 A  
HETATM   14  C   UNL     1      -9.682   5.166  72.851  1.00  0.00    -0.169 A  
HETATM   15  O   UNL     1      -7.498   5.302  71.988  1.00  0.00    -0.091 OA 
HETATM   16  H   UNL     1      -7.274   4.497  72.438  1.00  0.00     0.000 HD 
HETATM   17  C   UNL     1     -10.963   5.692  72.961  1.00  0.00    -0.284 A  
HETATM   18  O   UNL     1     -11.926   5.069  73.699  1.00  0.00    -0.300 OA 
HETATM   19  C   UNL     1     -11.313   6.874  72.314  1.00  0.00    -0.306 A  
HETATM   20  H   UNL     1     -12.802   5.428  73.774  1.00  0.00     0.000 HD 
ENDBRANCH   8  11
ENDBRANCH   7   8
ENDBRANCH   3   7
TORSDOF 3
ENDMDL
MODEL      274
REMARK 921   NORMALIZED FREE ENERGY PREDICTED BY IDOCK:   -2.86 KCAL/MOL
REMARK 922        TOTAL FREE ENERGY PREDICTED BY IDOCK:   -3.65 KCAL/MOL
REMARK 923 INTER-LIGAND FREE ENERGY PREDICTED BY IDOCK:   -3.43 KCAL/MOL
REMARK 924 INTRA-LIGAND FREE ENERGY PREDICTED BY IDOCK:   -0.23 KCAL/MOL
REMARK 927      BINDING AFFINITY PREDICTED BY RF-SCORE:    0.00 PKD
ROOT
HETATM    1  C   UNL     1      -5.510  11.459  69.145  1.00  0.00    -0.043 C  
HETATM    2  C   UNL     1      -6.910  10.866  68.912  1.00  0.00    -0.076 C  
HETATM    3  N   UNL     1      -7.959  11.902  68.833  1.00  0.00    -0.338 NA 
HETATM    4  C   UNL     1      -6.905   9.992  67.646  1.00  0.00    -0.084 C  
HETATM    5  C   UNL     1      -7.252   9.964  70.114  1.00  0.00    -0.159 C  
HETATM    6  H   UNL     1      -8.063  12.370  69.733  1.00  0.00     0.000 HD 
ENDROOT
BRANCH   3   7
HETATM    7  C   UNL     1      -7.770  12.896  67.762  1.00  0.00    -0.151 C  
BRANCH   7   8
HETATM    8  C   UNL     1      -9.003  13.816  67.560  1.00  0.00    -0.201 C  
HETATM    9  H   UNL     1      -9.319  15.697  67.091  1.00  0.00     0.000 HD 
HETATM   10  O   UNL     1      -8.564  15.134  67.215  1.00  0.00    -0.172 OA 
BRANCH   8  11
HETATM   11  C   UNL     1      -9.911  13.249  66.481  1.00  0.00    -0.280 A  
HETATM   12  C   UNL     1     -10.773  14.100  65.765  1.00  0.00    -0.301 A  
HETATM   13  C   UNL     1     -11.660  13.569  64.826  1.00  0.00    -0.349 A  
HETATM   14  C   UNL     1     -11.713  12.202  64.576  1.00  0.00    -0.410 A  
HETATM   15  O   UNL     1     -12.519  14.367  64.130  1.00  0.00    -0.676 OA 
HETATM   16  H   UNL     1     -13.123  14.006  63.492  1.00  0.00     0.000 HD 
HETATM   17  C   UNL     1     -10.854  11.362  65.274  1.00  0.00    -0.233 A  
HETATM   18  O   UNL     1     -10.861  10.014  65.073  1.00  0.00     0.289 OA 
HETATM   19  C   UNL     1      -9.957  11.869  66.210  1.00  0.00    -0.245 A  
HETATM   20  H   UNL     1     -10.274   9.439  65.550  1.00  0.00     0.000 HD 
ENDBRANCH   8  11
ENDBRANCH   7   8
ENDBRANCH   3   7
TORSDOF 3
ENDMDL
MODEL      275
REMARK 921   NORMALIZED FREE ENERGY PREDICTED BY IDOCK:   -2.85 KCAL/MOL
REMARK 922        TOTAL FREE ENERGY PREDICTED BY IDOCK:   -3.65 KCAL/MOL
REMARK 923 INTER-LIGAND FREE ENERGY PREDICTED BY IDOCK:   -3.34 KCAL/MOL
REMARK 924 INTRA-LIGAND FREE ENERGY PREDICTED BY IDOCK:   -0.30 KCAL/MOL
REMARK 927      BINDING AFFINITY PREDICTED BY RF-SCORE:    0.00 PKD
ROOT
HETATM    1  C   UNL     1      -8.318   5.248  66.582  1.00  0.00    -0.108 C  
HETATM    2  C   UNL     1      -8.260   4.012  67.495  1.00  0.00    -0.094 C  
HETATM    3  N   UNL     1      -8.660   4.314  68.885  1.00  0.00    -0.082 NA 
HETATM    4  C   UNL     1      -9.127   2.885  66.908  1.00  0.00    -0.181 C  
HETATM    5  C   UNL     1      -6.801   3.519  67.538  1.00  0.00    -0.050 C  
HETATM    6  H   UNL     1      -7.983   4.942  69.317  1.00  0.00     0.000 HD 
ENDROOT
BRANCH   3   7
HETATM    7  C   UNL     1     -10.023   4.851  69.035  1.00  0.00    -0.167 C  
BRANCH   7   8
HETATM    8  C   UNL     1     -10.384   5.191  70.506  1.00  0.00    -0.243 C  
HETATM    9  H   UNL     1      -9.511   5.041  72.260  1.00  0.00     0.000 HD 
HETATM   10  O   UNL     1      -9.290   4.833  71.359  1.00  0.00    -0.137 OA 
BRANCH   8  11
HETATM   11  C   UNL     1     -10.713   6.669  70.639  1.00  0.00    -0.286 A  
HETATM   12  C   UNL     1     -11.803   7.080  71.427  1.00  0.00    -0.359 A  
HETATM   13  C   UNL     1     -12.151   8.431  71.489  1.00  0.00    -0.301 A  
HETATM   14  C   UNL     1     -11.437   9.394  70.785  1.00  0.00    -0.364 A  
HETATM   15  O   UNL     1     -13.213   8.858  72.231  1.00  0.00    -0.393 OA 
HETATM   16  H   UNL     1     -13.450   9.776  72.273  1.00  0.00     0.000 HD 
HETATM   17  C   UNL     1     -10.352   8.989  70.016  1.00  0.00    -0.206 A  
HETATM   18  O   UNL     1      -9.616   9.886  69.301  1.00  0.00    -0.181 OA 
HETATM   19  C   UNL     1      -9.983   7.649  69.942  1.00  0.00    -0.190 A  
HETATM   20  H   UNL     1      -8.874   9.610  68.775  1.00  0.00     0.000 HD 
ENDBRANCH   8  11
ENDBRANCH   7   8
ENDBRANCH   3   7
TORSDOF 3
ENDMDL
MODEL      276
REMARK 921   NORMALIZED FREE ENERGY PREDICTED BY IDOCK:   -2.85 KCAL/MOL
REMARK 922        TOTAL FREE ENERGY PREDICTED BY IDOCK:   -3.64 KCAL/MOL
REMARK 923 INTER-LIGAND FREE ENERGY PREDICTED BY IDOCK:   -3.99 KCAL/MOL
REMARK 924 INTRA-LIGAND FREE ENERGY PREDICTED BY IDOCK:    0.35 KCAL/MOL
REMARK 927      BINDING AFFINITY PREDICTED BY RF-SCORE:    0.00 PKD
ROOT
HETATM    1  C   UNL     1      -7.478   9.731  66.190  1.00  0.00    -0.101 C  
HETATM    2  C   UNL     1      -8.299   8.726  65.365  1.00  0.00    -0.151 C  
HETATM    3  N   UNL     1      -9.353   8.065  66.162  1.00  0.00    -0.337 NA 
HETATM    4  C   UNL     1      -8.900   9.425  64.134  1.00  0.00    -0.216 C  
HETATM    5  C   UNL     1      -7.344   7.623  64.869  1.00  0.00    -0.075 C  
HETATM    6  H   UNL     1      -8.934   7.474  66.880  1.00  0.00     0.000 HD 
ENDROOT
BRANCH   3   7
HETATM    7  C   UNL     1     -10.339   8.978  66.765  1.00  0.00    -0.240 C  
BRANCH   7   8
HETATM    8  C   UNL     1      -9.803   9.704  68.028  1.00  0.00    -0.150 C  
HETATM    9  H   UNL     1      -9.533  11.564  68.597  1.00  0.00     0.000 HD 
HETATM   10  O   UNL     1      -9.862  11.120  67.824  1.00  0.00    -0.168 OA 
BRANCH   8  11
HETATM   11  C   UNL     1     -10.611   9.299  69.250  1.00  0.00    -0.234 A  
HETATM   12  C   UNL     1     -10.643   7.954  69.661  1.00  0.00    -0.234 A  
HETATM   13  C   UNL     1     -11.445   7.570  70.739  1.00  0.00    -0.284 A  
HETATM   14  C   UNL     1     -12.221   8.497  71.426  1.00  0.00    -0.343 A  
HETATM   15  O   UNL     1     -11.509   6.271  71.149  1.00  0.00    -0.310 OA 
HETATM   16  H   UNL     1     -12.054   6.010  71.881  1.00  0.00     0.000 HD 
HETATM   17  C   UNL     1     -12.181   9.827  71.028  1.00  0.00    -0.347 A  
HETATM   18  O   UNL     1     -12.922  10.780  71.661  1.00  0.00    -0.430 OA 
HETATM   19  C   UNL     1     -11.386  10.234  69.960  1.00  0.00    -0.370 A  
HETATM   20  H   UNL     1     -12.895  11.690  71.389  1.00  0.00     0.000 HD 
ENDBRANCH   8  11
ENDBRANCH   7   8
ENDBRANCH   3   7
TORSDOF 3
ENDMDL
MODEL      277
REMARK 921   NORMALIZED FREE ENERGY PREDICTED BY IDOCK:   -2.84 KCAL/MOL
REMARK 922        TOTAL FREE ENERGY PREDICTED BY IDOCK:   -3.63 KCAL/MOL
REMARK 923 INTER-LIGAND FREE ENERGY PREDICTED BY IDOCK:   -3.33 KCAL/MOL
REMARK 924 INTRA-LIGAND FREE ENERGY PREDICTED BY IDOCK:   -0.30 KCAL/MOL
REMARK 927      BINDING AFFINITY PREDICTED BY RF-SCORE:    0.00 PKD
ROOT
HETATM    1  C   UNL     1      -9.320   3.379  69.462  1.00  0.00    -0.240 C  
HETATM    2  C   UNL     1      -9.017   4.368  70.600  1.00  0.00    -0.107 C  
HETATM    3  N   UNL     1      -9.022   5.774  70.146  1.00  0.00    -0.139 NA 
HETATM    4  C   UNL     1     -10.014   4.162  71.754  1.00  0.00    -0.246 C  
HETATM    5  C   UNL     1      -7.603   4.066  71.130  1.00  0.00    -0.051 C  
HETATM    6  H   UNL     1      -8.252   5.937  69.497  1.00  0.00     0.000 HD 
ENDROOT
BRANCH   3   7
HETATM    7  C   UNL     1     -10.291   6.231  69.554  1.00  0.00    -0.212 C  
BRANCH   7   8
HETATM    8  C   UNL     1     -10.114   6.863  68.148  1.00  0.00    -0.166 C  
HETATM    9  H   UNL     1     -11.078   6.829  66.437  1.00  0.00     0.000 HD 
HETATM   10  O   UNL     1     -11.187   6.442  67.298  1.00  0.00    -0.364 OA 
BRANCH   8  11
HETATM   11  C   UNL     1     -10.072   8.379  68.254  1.00  0.00    -0.232 A  
HETATM   12  C   UNL     1      -9.396   9.136  67.279  1.00  0.00    -0.166 A  
HETATM   13  C   UNL     1      -9.294  10.522  67.417  1.00  0.00    -0.142 A  
HETATM   14  C   UNL     1      -9.851  11.182  68.506  1.00  0.00    -0.199 A  
HETATM   15  O   UNL     1      -8.631  11.279  66.497  1.00  0.00    -0.161 OA 
HETATM   16  H   UNL     1      -8.561  12.222  66.590  1.00  0.00     0.000 HD 
HETATM   17  C   UNL     1     -10.528  10.437  69.463  1.00  0.00    -0.247 A  
HETATM   18  O   UNL     1     -11.093  11.028  70.554  1.00  0.00    -0.429 OA 
HETATM   19  C   UNL     1     -10.648   9.055  69.345  1.00  0.00    -0.231 A  
HETATM   20  H   UNL     1     -11.556  10.518  71.209  1.00  0.00     0.000 HD 
ENDBRANCH   8  11
ENDBRANCH   7   8
ENDBRANCH   3   7
TORSDOF 3
ENDMDL
MODEL      278
REMARK 921   NORMALIZED FREE ENERGY PREDICTED BY IDOCK:   -2.83 KCAL/MOL
REMARK 922        TOTAL FREE ENERGY PREDICTED BY IDOCK:   -3.63 KCAL/MOL
REMARK 923 INTER-LIGAND FREE ENERGY PREDICTED BY IDOCK:   -3.19 KCAL/MOL
REMARK 924 INTRA-LIGAND FREE ENERGY PREDICTED BY IDOCK:   -0.44 KCAL/MOL
REMARK 927      BINDING AFFINITY PREDICTED BY RF-SCORE:    0.00 PKD
ROOT
HETATM    1  C   UNL     1      -6.733   6.442  69.868  1.00  0.00    -0.053 C  
HETATM    2  C   UNL     1      -7.515   5.809  71.031  1.00  0.00    -0.090 C  
HETATM    3  N   UNL     1      -8.391   6.778  71.720  1.00  0.00    -0.110 NA 
HETATM    4  C   UNL     1      -8.324   4.602  70.525  1.00  0.00    -0.096 C  
HETATM    5  C   UNL     1      -6.496   5.298  72.069  1.00  0.00    -0.043 C  
HETATM    6  H   UNL     1      -7.830   7.489  72.190  1.00  0.00     0.000 HD 
ENDROOT
BRANCH   3   7
HETATM    7  C   UNL     1      -9.406   7.414  70.864  1.00  0.00    -0.155 C  
BRANCH   7   8
HETATM    8  C   UNL     1      -9.328   8.964  70.877  1.00  0.00    -0.238 C  
HETATM    9  H   UNL     1      -7.962  10.321  71.269  1.00  0.00     0.000 HD 
HETATM   10  O   UNL     1      -8.009   9.372  71.261  1.00  0.00    -0.328 OA 
BRANCH   8  11
HETATM   11  C   UNL     1      -9.688   9.521  69.509  1.00  0.00    -0.201 A  
HETATM   12  C   UNL     1     -10.719  10.470  69.383  1.00  0.00    -0.277 A  
HETATM   13  C   UNL     1     -11.100  10.926  68.119  1.00  0.00    -0.280 A  
HETATM   14  C   UNL     1     -10.478  10.460  66.966  1.00  0.00    -0.309 A  
HETATM   15  O   UNL     1     -12.107  11.833  67.965  1.00  0.00    -0.572 OA 
HETATM   16  H   UNL     1     -12.367  12.142  67.106  1.00  0.00     0.000 HD 
HETATM   17  C   UNL     1      -9.452   9.531  67.091  1.00  0.00    -0.149 A  
HETATM   18  O   UNL     1      -8.807   9.036  65.997  1.00  0.00    -0.153 OA 
HETATM   19  C   UNL     1      -9.051   9.066  68.340  1.00  0.00    -0.133 A  
HETATM   20  H   UNL     1      -8.105   8.401  66.082  1.00  0.00     0.000 HD 
ENDBRANCH   8  11
ENDBRANCH   7   8
ENDBRANCH   3   7
TORSDOF 3
ENDMDL
MODEL      279
REMARK 921   NORMALIZED FREE ENERGY PREDICTED BY IDOCK:   -2.82 KCAL/MOL
REMARK 922        TOTAL FREE ENERGY PREDICTED BY IDOCK:   -3.61 KCAL/MOL
REMARK 923 INTER-LIGAND FREE ENERGY PREDICTED BY IDOCK:   -3.27 KCAL/MOL
REMARK 924 INTRA-LIGAND FREE ENERGY PREDICTED BY IDOCK:   -0.34 KCAL/MOL
REMARK 927      BINDING AFFINITY PREDICTED BY RF-SCORE:    0.00 PKD
ROOT
HETATM    1  C   UNL     1      -8.339  10.426  65.381  1.00  0.00    -0.166 C  
HETATM    2  C   UNL     1      -9.389  10.883  66.408  1.00  0.00    -0.176 C  
HETATM    3  N   UNL     1     -10.359   9.819  66.738  1.00  0.00    -0.232 NA 
HETATM    4  C   UNL     1      -8.691  11.401  67.677  1.00  0.00    -0.136 C  
HETATM    5  C   UNL     1     -10.184  12.049  65.789  1.00  0.00    -0.274 C  
HETATM    6  H   UNL     1     -10.928   9.595  65.921  1.00  0.00     0.000 HD 
ENDROOT
BRANCH   3   7
HETATM    7  C   UNL     1      -9.768   8.592  67.299  1.00  0.00    -0.185 C  
BRANCH   7   8
HETATM    8  C   UNL     1     -10.830   7.586  67.816  1.00  0.00    -0.086 C  
HETATM    9  H   UNL     1     -11.223   5.676  67.576  1.00  0.00     0.000 HD 
HETATM   10  O   UNL     1     -10.572   6.292  67.260  1.00  0.00    -0.220 OA 
BRANCH   8  11
HETATM   11  C   UNL     1     -10.811   7.535  69.335  1.00  0.00    -0.161 A  
HETATM   12  C   UNL     1     -10.022   8.446  70.062  1.00  0.00    -0.188 A  
HETATM   13  C   UNL     1      -9.945   8.351  71.453  1.00  0.00    -0.213 A  
HETATM   14  C   UNL     1     -10.640   7.367  72.148  1.00  0.00    -0.256 A  
HETATM   15  O   UNL     1      -9.175   9.208  72.182  1.00  0.00    -0.302 OA 
HETATM   16  H   UNL     1      -9.123   9.144  73.128  1.00  0.00     0.000 HD 
HETATM   17  C   UNL     1     -11.429   6.475  71.432  1.00  0.00    -0.309 A  
HETATM   18  O   UNL     1     -12.131   5.488  72.059  1.00  0.00     0.112 OA 
HETATM   19  C   UNL     1     -11.525   6.553  70.046  1.00  0.00    -0.476 A  
HETATM   20  H   UNL     1     -12.670   4.878  71.569  1.00  0.00     0.000 HD 
ENDBRANCH   8  11
ENDBRANCH   7   8
ENDBRANCH   3   7
TORSDOF 3
ENDMDL
MODEL      280
REMARK 921   NORMALIZED FREE ENERGY PREDICTED BY IDOCK:   -2.81 KCAL/MOL
REMARK 922        TOTAL FREE ENERGY PREDICTED BY IDOCK:   -3.60 KCAL/MOL
REMARK 923 INTER-LIGAND FREE ENERGY PREDICTED BY IDOCK:   -3.32 KCAL/MOL
REMARK 924 INTRA-LIGAND FREE ENERGY PREDICTED BY IDOCK:   -0.27 KCAL/MOL
REMARK 927      BINDING AFFINITY PREDICTED BY RF-SCORE:    0.00 PKD
ROOT
HETATM    1  C   UNL     1      -5.682  10.040  67.709  1.00  0.00    -0.042 C  
HETATM    2  C   UNL     1      -6.365  10.579  68.977  1.00  0.00    -0.045 C  
HETATM    3  N   UNL     1      -7.824  10.737  68.813  1.00  0.00    -0.120 NA 
HETATM    4  C   UNL     1      -6.043   9.667  70.174  1.00  0.00    -0.053 C  
HETATM    5  C   UNL     1      -5.786  11.977  69.273  1.00  0.00    -0.074 C  
HETATM    6  H   UNL     1      -8.025  11.463  68.125  1.00  0.00     0.000 HD 
ENDROOT
BRANCH   3   7
HETATM    7  C   UNL     1      -8.547   9.500  68.472  1.00  0.00    -0.119 C  
BRANCH   7   8
HETATM    8  C   UNL     1     -10.083   9.625  68.648  1.00  0.00    -0.179 C  
HETATM    9  H   UNL     1     -11.663   9.559  67.483  1.00  0.00     0.000 HD 
HETATM   10  O   UNL     1     -10.723   9.482  67.375  1.00  0.00    -0.279 OA 
BRANCH   8  11
HETATM   11  C   UNL     1     -10.588   8.576  69.627  1.00  0.00    -0.221 A  
HETATM   12  C   UNL     1     -10.170   7.238  69.504  1.00  0.00    -0.200 A  
HETATM   13  C   UNL     1     -10.691   6.262  70.356  1.00  0.00    -0.271 A  
HETATM   14  C   UNL     1     -11.624   6.582  71.336  1.00  0.00    -0.371 A  
HETATM   15  O   UNL     1     -10.318   4.954  70.249  1.00  0.00    -0.254 OA 
HETATM   16  H   UNL     1     -10.673   4.290  70.828  1.00  0.00     0.000 HD 
HETATM   17  C   UNL     1     -12.028   7.906  71.465  1.00  0.00    -0.301 A  
HETATM   18  O   UNL     1     -12.941   8.280  72.406  1.00  0.00    -0.515 OA 
HETATM   19  C   UNL     1     -11.519   8.897  70.632  1.00  0.00    -0.280 A  
HETATM   20  H   UNL     1     -13.217   9.185  72.494  1.00  0.00     0.000 HD 
ENDBRANCH   8  11
ENDBRANCH   7   8
ENDBRANCH   3   7
TORSDOF 3
ENDMDL
MODEL      281
REMARK 921   NORMALIZED FREE ENERGY PREDICTED BY IDOCK:   -2.80 KCAL/MOL
REMARK 922        TOTAL FREE ENERGY PREDICTED BY IDOCK:   -3.59 KCAL/MOL
REMARK 923 INTER-LIGAND FREE ENERGY PREDICTED BY IDOCK:   -3.55 KCAL/MOL
REMARK 924 INTRA-LIGAND FREE ENERGY PREDICTED BY IDOCK:   -0.05 KCAL/MOL
REMARK 927      BINDING AFFINITY PREDICTED BY RF-SCORE:    0.00 PKD
ROOT
HETATM    1  C   UNL     1      -5.480  12.018  69.710  1.00  0.00    -0.089 C  
HETATM    2  C   UNL     1      -6.673  12.259  68.770  1.00  0.00    -0.089 C  
HETATM    3  N   UNL     1      -7.316  13.569  68.994  1.00  0.00    -0.267 NA 
HETATM    4  C   UNL     1      -6.225  12.111  67.306  1.00  0.00    -0.152 C  
HETATM    5  C   UNL     1      -7.731  11.176  69.057  1.00  0.00    -0.114 C  
HETATM    6  H   UNL     1      -7.750  13.595  69.917  1.00  0.00     0.000 HD 
ENDROOT
BRANCH   3   7
HETATM    7  C   UNL     1      -6.432  14.733  68.815  1.00  0.00    -0.087 C  
BRANCH   7   8
HETATM    8  C   UNL     1      -6.857  15.958  69.668  1.00  0.00    -0.160 C  
HETATM    9  H   UNL     1      -6.050  17.661  70.220  1.00  0.00     0.000 HD 
HETATM   10  O   UNL     1      -5.790  16.912  69.698  1.00  0.00    -0.185 OA 
BRANCH   8  11
HETATM   11  C   UNL     1      -8.123  16.580  69.100  1.00  0.00    -0.170 A  
HETATM   12  C   UNL     1      -8.060  17.813  68.424  1.00  0.00    -0.297 A  
HETATM   13  C   UNL     1      -9.232  18.421  67.968  1.00  0.00    -0.293 A  
HETATM   14  C   UNL     1     -10.475  17.831  68.167  1.00  0.00    -0.382 A  
HETATM   15  O   UNL     1      -9.204  19.623  67.325  1.00  0.00    -0.307 OA 
HETATM   16  H   UNL     1     -10.000  20.037  67.015  1.00  0.00     0.000 HD 
HETATM   17  C   UNL     1     -10.536  16.609  68.824  1.00  0.00    -0.340 A  
HETATM   18  O   UNL     1     -11.727  15.983  69.050  1.00  0.00    -0.370 OA 
HETATM   19  C   UNL     1      -9.382  15.981  69.282  1.00  0.00    -0.244 A  
HETATM   20  H   UNL     1     -11.769  15.147  69.499  1.00  0.00     0.000 HD 
ENDBRANCH   8  11
ENDBRANCH   7   8
ENDBRANCH   3   7
TORSDOF 3
ENDMDL
MODEL      282
REMARK 921   NORMALIZED FREE ENERGY PREDICTED BY IDOCK:   -2.80 KCAL/MOL
REMARK 922        TOTAL FREE ENERGY PREDICTED BY IDOCK:   -3.59 KCAL/MOL
REMARK 923 INTER-LIGAND FREE ENERGY PREDICTED BY IDOCK:   -3.34 KCAL/MOL
REMARK 924 INTRA-LIGAND FREE ENERGY PREDICTED BY IDOCK:   -0.25 KCAL/MOL
REMARK 927      BINDING AFFINITY PREDICTED BY RF-SCORE:    0.00 PKD
ROOT
HETATM    1  C   UNL     1      -5.575   8.648  73.564  1.00  0.00    -0.097 C  
HETATM    2  C   UNL     1      -6.848   7.879  73.171  1.00  0.00    -0.090 C  
HETATM    3  N   UNL     1      -7.808   8.715  72.423  1.00  0.00    -0.353 NA 
HETATM    4  C   UNL     1      -6.474   6.621  72.368  1.00  0.00    -0.058 C  
HETATM    5  C   UNL     1      -7.550   7.427  74.466  1.00  0.00    -0.164 C  
HETATM    6  H   UNL     1      -8.172   9.456  73.021  1.00  0.00     0.000 HD 
ENDROOT
BRANCH   3   7
HETATM    7  C   UNL     1      -7.288   9.284  71.167  1.00  0.00    -0.023 C  
BRANCH   7   8
HETATM    8  C   UNL     1      -8.386   9.478  70.087  1.00  0.00    -0.192 C  
HETATM    9  H   UNL     1      -8.491   9.386  68.128  1.00  0.00     0.000 HD 
HETATM   10  O   UNL     1      -7.820   9.267  68.789  1.00  0.00    -0.086 OA 
BRANCH   8  11
HETATM   11  C   UNL     1      -9.542   8.523  70.335  1.00  0.00    -0.189 A  
HETATM   12  C   UNL     1      -9.380   7.145  70.104  1.00  0.00    -0.158 A  
HETATM   13  C   UNL     1     -10.464   6.277  70.259  1.00  0.00    -0.221 A  
HETATM   14  C   UNL     1     -11.715   6.747  70.643  1.00  0.00    -0.440 A  
HETATM   15  O   UNL     1     -10.341   4.939  70.026  1.00  0.00    -0.268 OA 
HETATM   16  H   UNL     1     -11.078   4.349  70.131  1.00  0.00     0.000 HD 
HETATM   17  C   UNL     1     -11.872   8.106  70.882  1.00  0.00    -0.218 A  
HETATM   18  O   UNL     1     -13.076   8.626  71.258  1.00  0.00    -0.470 OA 
HETATM   19  C   UNL     1     -10.806   8.989  70.739  1.00  0.00    -0.310 A  
HETATM   20  H   UNL     1     -13.183   9.556  71.422  1.00  0.00     0.000 HD 
ENDBRANCH   8  11
ENDBRANCH   7   8
ENDBRANCH   3   7
TORSDOF 3
ENDMDL
MODEL      283
REMARK 921   NORMALIZED FREE ENERGY PREDICTED BY IDOCK:   -2.80 KCAL/MOL
REMARK 922        TOTAL FREE ENERGY PREDICTED BY IDOCK:   -3.59 KCAL/MOL
REMARK 923 INTER-LIGAND FREE ENERGY PREDICTED BY IDOCK:   -3.29 KCAL/MOL
REMARK 924 INTRA-LIGAND FREE ENERGY PREDICTED BY IDOCK:   -0.30 KCAL/MOL
REMARK 927      BINDING AFFINITY PREDICTED BY RF-SCORE:    0.00 PKD
ROOT
HETATM    1  C   UNL     1      -6.302   5.463  69.656  1.00  0.00    -0.030 C  
HETATM    2  C   UNL     1      -7.629   4.959  70.249  1.00  0.00    -0.062 C  
HETATM    3  N   UNL     1      -8.506   6.060  70.694  1.00  0.00    -0.131 NA 
HETATM    4  C   UNL     1      -8.351   4.060  69.230  1.00  0.00    -0.081 C  
HETATM    5  C   UNL     1      -7.302   4.106  71.490  1.00  0.00    -0.055 C  
HETATM    6  H   UNL     1      -8.082   6.552  71.481  1.00  0.00     0.000 HD 
ENDROOT
BRANCH   3   7
HETATM    7  C   UNL     1      -8.884   7.017  69.640  1.00  0.00    -0.141 C  
BRANCH   7   8
HETATM    8  C   UNL     1      -8.470   8.477  69.966  1.00  0.00    -0.125 C  
HETATM    9  H   UNL     1      -7.346   9.860  69.139  1.00  0.00     0.000 HD 
HETATM   10  O   UNL     1      -7.600   8.966  68.939  1.00  0.00    -0.084 OA 
BRANCH   8  11
HETATM   11  C   UNL     1      -9.703   9.357  70.095  1.00  0.00    -0.274 A  
HETATM   12  C   UNL     1     -10.605   9.157  71.156  1.00  0.00    -0.379 A  
HETATM   13  C   UNL     1     -11.775   9.915  71.232  1.00  0.00    -0.392 A  
HETATM   14  C   UNL     1     -12.075  10.878  70.274  1.00  0.00    -0.440 A  
HETATM   15  O   UNL     1     -12.676   9.732  72.240  1.00  0.00    -0.342 OA 
HETATM   16  H   UNL     1     -13.471  10.247  72.292  1.00  0.00     0.000 HD 
HETATM   17  C   UNL     1     -11.179  11.084  69.233  1.00  0.00    -0.257 A  
HETATM   18  O   UNL     1     -11.420  12.011  68.263  1.00  0.00    -0.256 OA 
HETATM   19  C   UNL     1     -10.004  10.344  69.138  1.00  0.00    -0.237 A  
HETATM   20  H   UNL     1     -10.807  12.152  67.550  1.00  0.00     0.000 HD 
ENDBRANCH   8  11
ENDBRANCH   7   8
ENDBRANCH   3   7
TORSDOF 3
ENDMDL
MODEL      284
REMARK 921   NORMALIZED FREE ENERGY PREDICTED BY IDOCK:   -2.80 KCAL/MOL
REMARK 922        TOTAL FREE ENERGY PREDICTED BY IDOCK:   -3.58 KCAL/MOL
REMARK 923 INTER-LIGAND FREE ENERGY PREDICTED BY IDOCK:   -3.35 KCAL/MOL
REMARK 924 INTRA-LIGAND FREE ENERGY PREDICTED BY IDOCK:   -0.23 KCAL/MOL
REMARK 927      BINDING AFFINITY PREDICTED BY RF-SCORE:    0.00 PKD
ROOT
HETATM    1  C   UNL     1     -11.365  15.712  69.210  1.00  0.00    -0.348 C  
HETATM    2  C   UNL     1     -10.384  14.876  68.372  1.00  0.00    -0.233 C  
HETATM    3  N   UNL     1      -9.988  13.622  69.045  1.00  0.00    -0.427 NA 
HETATM    4  C   UNL     1     -10.990  14.586  66.988  1.00  0.00    -0.312 C  
HETATM    5  C   UNL     1      -9.103  15.707  68.167  1.00  0.00    -0.181 C  
HETATM    6  H   UNL     1      -9.445  13.829  69.884  1.00  0.00     0.000 HD 
ENDROOT
BRANCH   3   7
HETATM    7  C   UNL     1     -11.102  12.715  69.370  1.00  0.00    -0.065 C  
BRANCH   7   8
HETATM    8  C   UNL     1     -10.716  11.215  69.258  1.00  0.00    -0.199 C  
HETATM    9  H   UNL     1     -11.554   9.575  68.575  1.00  0.00     0.000 HD 
HETATM   10  O   UNL     1     -11.789  10.493  68.643  1.00  0.00    -0.318 OA 
BRANCH   8  11
HETATM   11  C   UNL     1      -9.433  11.060  68.459  1.00  0.00    -0.188 A  
HETATM   12  C   UNL     1      -9.459  11.160  67.056  1.00  0.00    -0.193 A  
HETATM   13  C   UNL     1      -8.294  10.943  66.317  1.00  0.00    -0.164 A  
HETATM   14  C   UNL     1      -7.092  10.629  66.941  1.00  0.00    -0.109 A  
HETATM   15  O   UNL     1      -8.293  11.016  64.955  1.00  0.00    -0.373 OA 
HETATM   16  H   UNL     1      -7.501  10.868  64.452  1.00  0.00     0.000 HD 
HETATM   17  C   UNL     1      -7.063  10.543  68.327  1.00  0.00    -0.081 A  
HETATM   18  O   UNL     1      -5.914  10.235  68.995  1.00  0.00    -0.038 OA 
HETATM   19  C   UNL     1      -8.209  10.759  69.085  1.00  0.00    -0.124 A  
HETATM   20  H   UNL     1      -5.894  10.176  69.943  1.00  0.00     0.000 HD 
ENDBRANCH   8  11
ENDBRANCH   7   8
ENDBRANCH   3   7
TORSDOF 3
ENDMDL
MODEL      285
REMARK 921   NORMALIZED FREE ENERGY PREDICTED BY IDOCK:   -2.79 KCAL/MOL
REMARK 922        TOTAL FREE ENERGY PREDICTED BY IDOCK:   -3.57 KCAL/MOL
REMARK 923 INTER-LIGAND FREE ENERGY PREDICTED BY IDOCK:   -3.11 KCAL/MOL
REMARK 924 INTRA-LIGAND FREE ENERGY PREDICTED BY IDOCK:   -0.46 KCAL/MOL
REMARK 927      BINDING AFFINITY PREDICTED BY RF-SCORE:    0.00 PKD
ROOT
HETATM    1  C   UNL     1      -9.523   7.984  71.204  1.00  0.00    -0.181 C  
HETATM    2  C   UNL     1      -8.811   7.355  72.413  1.00  0.00    -0.124 C  
HETATM    3  N   UNL     1      -8.686   5.888  72.297  1.00  0.00    -0.128 NA 
HETATM    4  C   UNL     1      -7.433   8.009  72.609  1.00  0.00    -0.141 C  
HETATM    5  C   UNL     1      -9.659   7.641  73.667  1.00  0.00    -0.333 C  
HETATM    6  H   UNL     1      -9.607   5.451  72.328  1.00  0.00     0.000 HD 
ENDROOT
BRANCH   3   7
HETATM    7  C   UNL     1      -7.942   5.420  71.115  1.00  0.00    -0.109 C  
BRANCH   7   8
HETATM    8  C   UNL     1      -8.716   4.359  70.289  1.00  0.00    -0.081 C  
HETATM    9  H   UNL     1     -10.415   3.387  70.452  1.00  0.00     0.000 HD 
HETATM   10  O   UNL     1      -9.941   4.037  70.957  1.00  0.00    -0.179 OA 
BRANCH   8  11
HETATM   11  C   UNL     1      -8.985   4.876  68.886  1.00  0.00    -0.136 A  
HETATM   12  C   UNL     1     -10.190   5.545  68.599  1.00  0.00    -0.261 A  
HETATM   13  C   UNL     1     -10.469   5.954  67.294  1.00  0.00    -0.262 A  
HETATM   14  C   UNL     1      -9.575   5.717  66.256  1.00  0.00    -0.166 A  
HETATM   15  O   UNL     1     -11.636   6.589  66.983  1.00  0.00    -0.729 OA 
HETATM   16  H   UNL     1     -11.826   6.867  66.095  1.00  0.00     0.000 HD 
HETATM   17  C   UNL     1      -8.380   5.067  66.540  1.00  0.00    -0.107 A  
HETATM   18  O   UNL     1      -7.466   4.804  65.564  1.00  0.00    -0.078 OA 
HETATM   19  C   UNL     1      -8.077   4.655  67.834  1.00  0.00    -0.092 A  
HETATM   20  H   UNL     1      -6.648   4.360  65.758  1.00  0.00     0.000 HD 
ENDBRANCH   8  11
ENDBRANCH   7   8
ENDBRANCH   3   7
TORSDOF 3
ENDMDL
MODEL      286
REMARK 921   NORMALIZED FREE ENERGY PREDICTED BY IDOCK:   -2.77 KCAL/MOL
REMARK 922        TOTAL FREE ENERGY PREDICTED BY IDOCK:   -3.55 KCAL/MOL
REMARK 923 INTER-LIGAND FREE ENERGY PREDICTED BY IDOCK:   -3.23 KCAL/MOL
REMARK 924 INTRA-LIGAND FREE ENERGY PREDICTED BY IDOCK:   -0.31 KCAL/MOL
REMARK 927      BINDING AFFINITY PREDICTED BY RF-SCORE:    0.00 PKD
ROOT
HETATM    1  C   UNL     1      -8.822   6.412  72.822  1.00  0.00    -0.124 C  
HETATM    2  C   UNL     1     -10.202   6.618  72.177  1.00  0.00    -0.190 C  
HETATM    3  N   UNL     1     -10.111   7.030  70.761  1.00  0.00    -0.194 NA 
HETATM    4  C   UNL     1     -11.047   5.341  72.323  1.00  0.00    -0.219 C  
HETATM    5  C   UNL     1     -10.918   7.753  72.935  1.00  0.00    -0.467 C  
HETATM    6  H   UNL     1      -9.690   7.956  70.689  1.00  0.00     0.000 HD 
ENDROOT
BRANCH   3   7
HETATM    7  C   UNL     1      -9.404   6.081  69.884  1.00  0.00    -0.148 C  
BRANCH   7   8
HETATM    8  C   UNL     1      -9.890   6.136  68.411  1.00  0.00    -0.126 C  
HETATM    9  H   UNL     1     -11.613   6.306  67.483  1.00  0.00     0.000 HD 
HETATM   10  O   UNL     1     -11.316   6.272  68.384  1.00  0.00    -0.298 OA 
BRANCH   8  11
HETATM   11  C   UNL     1      -9.223   7.290  67.680  1.00  0.00    -0.130 A  
HETATM   12  C   UNL     1      -9.891   7.935  66.622  1.00  0.00    -0.311 A  
HETATM   13  C   UNL     1      -9.249   8.945  65.902  1.00  0.00    -0.229 A  
HETATM   14  C   UNL     1      -7.951   9.337  66.209  1.00  0.00    -0.107 A  
HETATM   15  O   UNL     1      -9.865   9.576  64.862  1.00  0.00    -0.434 OA 
HETATM   16  H   UNL     1      -9.428  10.263  64.372  1.00  0.00     0.000 HD 
HETATM   17  C   UNL     1      -7.296   8.709  67.261  1.00  0.00    -0.088 A  
HETATM   18  O   UNL     1      -6.021   9.048  67.607  1.00  0.00    -0.045 OA 
HETATM   19  C   UNL     1      -7.916   7.703  67.997  1.00  0.00    -0.122 A  
HETATM   20  H   UNL     1      -5.573   8.618  68.327  1.00  0.00     0.000 HD 
ENDBRANCH   8  11
ENDBRANCH   7   8
ENDBRANCH   3   7
TORSDOF 3
ENDMDL
MODEL      287
REMARK 921   NORMALIZED FREE ENERGY PREDICTED BY IDOCK:   -2.74 KCAL/MOL
REMARK 922        TOTAL FREE ENERGY PREDICTED BY IDOCK:   -3.52 KCAL/MOL
REMARK 923 INTER-LIGAND FREE ENERGY PREDICTED BY IDOCK:   -3.25 KCAL/MOL
REMARK 924 INTRA-LIGAND FREE ENERGY PREDICTED BY IDOCK:   -0.27 KCAL/MOL
REMARK 927      BINDING AFFINITY PREDICTED BY RF-SCORE:    0.00 PKD
ROOT
HETATM    1  C   UNL     1      -9.398   5.200  73.271  1.00  0.00    -0.139 C  
HETATM    2  C   UNL     1      -9.644   3.870  72.538  1.00  0.00    -0.133 C  
HETATM    3  N   UNL     1      -9.894   4.055  71.094  1.00  0.00    -0.183 NA 
HETATM    4  C   UNL     1      -8.460   2.916  72.772  1.00  0.00    -0.072 C  
HETATM    5  C   UNL     1     -10.906   3.221  73.139  1.00  0.00    -0.241 C  
HETATM    6  H   UNL     1     -10.771   4.555  70.950  1.00  0.00     0.000 HD 
ENDROOT
BRANCH   3   7
HETATM    7  C   UNL     1      -8.804   4.716  70.356  1.00  0.00    -0.098 C  
BRANCH   7   8
HETATM    8  C   UNL     1      -9.311   5.774  69.341  1.00  0.00    -0.126 C  
HETATM    9  H   UNL     1      -8.818   7.603  68.819  1.00  0.00     0.000 HD 
HETATM   10  O   UNL     1      -8.507   6.955  69.441  1.00  0.00    -0.131 OA 
BRANCH   8  11
HETATM   11  C   UNL     1      -9.270   5.211  67.929  1.00  0.00    -0.128 A  
HETATM   12  C   UNL     1     -10.439   5.184  67.146  1.00  0.00    -0.224 A  
HETATM   13  C   UNL     1     -10.419   4.599  65.878  1.00  0.00    -0.268 A  
HETATM   14  C   UNL     1      -9.257   4.036  65.362  1.00  0.00    -0.150 A  
HETATM   15  O   UNL     1     -11.540   4.544  65.104  1.00  0.00    -1.102 OA 
HETATM   16  H   UNL     1     -11.526   4.145  64.242  1.00  0.00     0.000 HD 
HETATM   17  C   UNL     1      -8.100   4.072  66.130  1.00  0.00    -0.098 A  
HETATM   18  O   UNL     1      -6.931   3.534  65.678  1.00  0.00    -0.055 OA 
HETATM   19  C   UNL     1      -8.094   4.655  67.394  1.00  0.00    -0.101 A  
HETATM   20  H   UNL     1      -6.140   3.559  66.204  1.00  0.00     0.000 HD 
ENDBRANCH   8  11
ENDBRANCH   7   8
ENDBRANCH   3   7
TORSDOF 3
ENDMDL
MODEL      288
REMARK 921   NORMALIZED FREE ENERGY PREDICTED BY IDOCK:   -2.73 KCAL/MOL
REMARK 922        TOTAL FREE ENERGY PREDICTED BY IDOCK:   -3.50 KCAL/MOL
REMARK 923 INTER-LIGAND FREE ENERGY PREDICTED BY IDOCK:   -3.13 KCAL/MOL
REMARK 924 INTRA-LIGAND FREE ENERGY PREDICTED BY IDOCK:   -0.37 KCAL/MOL
REMARK 927      BINDING AFFINITY PREDICTED BY RF-SCORE:    0.00 PKD
ROOT
HETATM    1  C   UNL     1     -10.353   9.033  66.476  1.00  0.00    -0.263 C  
HETATM    2  C   UNL     1      -9.254   8.018  66.835  1.00  0.00    -0.154 C  
HETATM    3  N   UNL     1      -8.576   8.343  68.107  1.00  0.00    -0.138 NA 
HETATM    4  C   UNL     1      -9.845   6.598  66.876  1.00  0.00    -0.222 C  
HETATM    5  C   UNL     1      -8.186   8.060  65.726  1.00  0.00    -0.132 C  
HETATM    6  H   UNL     1      -8.054   9.214  68.016  1.00  0.00     0.000 HD 
ENDROOT
BRANCH   3   7
HETATM    7  C   UNL     1      -9.460   8.400  69.284  1.00  0.00    -0.155 C  
BRANCH   7   8
HETATM    8  C   UNL     1      -8.707   8.165  70.621  1.00  0.00    -0.135 C  
HETATM    9  H   UNL     1      -8.414   9.164  72.287  1.00  0.00     0.000 HD 
HETATM   10  O   UNL     1      -8.874   9.307  71.469  1.00  0.00    -0.317 OA 
BRANCH   8  11
HETATM   11  C   UNL     1      -9.223   6.907  71.301  1.00  0.00    -0.157 A  
HETATM   12  C   UNL     1      -9.096   5.659  70.666  1.00  0.00    -0.168 A  
HETATM   13  C   UNL     1      -9.636   4.514  71.256  1.00  0.00    -0.172 A  
HETATM   14  C   UNL     1     -10.305   4.578  72.474  1.00  0.00    -0.257 A  
HETATM   15  O   UNL     1      -9.543   3.293  70.656  1.00  0.00    -0.167 OA 
HETATM   16  H   UNL     1      -9.910   2.515  71.057  1.00  0.00     0.000 HD 
HETATM   17  C   UNL     1     -10.421   5.809  73.108  1.00  0.00    -0.226 A  
HETATM   18  O   UNL     1     -11.067   5.934  74.301  1.00  0.00    -0.296 OA 
HETATM   19  C   UNL     1      -9.886   6.962  72.541  1.00  0.00    -0.174 A  
HETATM   20  H   UNL     1     -11.147   6.776  74.735  1.00  0.00     0.000 HD 
ENDBRANCH   8  11
ENDBRANCH   7   8
ENDBRANCH   3   7
TORSDOF 3
ENDMDL
MODEL      289
REMARK 921   NORMALIZED FREE ENERGY PREDICTED BY IDOCK:   -2.72 KCAL/MOL
REMARK 922        TOTAL FREE ENERGY PREDICTED BY IDOCK:   -3.49 KCAL/MOL
REMARK 923 INTER-LIGAND FREE ENERGY PREDICTED BY IDOCK:   -3.21 KCAL/MOL
REMARK 924 INTRA-LIGAND FREE ENERGY PREDICTED BY IDOCK:   -0.27 KCAL/MOL
REMARK 927      BINDING AFFINITY PREDICTED BY RF-SCORE:    0.00 PKD
ROOT
HETATM    1  C   UNL     1      -9.063   9.712  70.105  1.00  0.00    -0.280 C  
HETATM    2  C   UNL     1      -8.060   9.074  69.129  1.00  0.00    -0.109 C  
HETATM    3  N   UNL     1      -8.022   7.601  69.237  1.00  0.00    -0.124 NA 
HETATM    4  C   UNL     1      -8.379   9.510  67.689  1.00  0.00    -0.125 C  
HETATM    5  C   UNL     1      -6.653   9.593  69.484  1.00  0.00    -0.049 C  
HETATM    6  H   UNL     1      -7.655   7.324  70.148  1.00  0.00     0.000 HD 
ENDROOT
BRANCH   3   7
HETATM    7  C   UNL     1      -9.306   6.927  68.979  1.00  0.00    -0.135 C  
BRANCH   7   8
HETATM    8  C   UNL     1      -9.205   5.380  69.047  1.00  0.00    -0.120 C  
HETATM    9  H   UNL     1     -10.206   3.921  69.900  1.00  0.00     0.000 HD 
HETATM   10  O   UNL     1     -10.268   4.868  69.859  1.00  0.00    -0.257 OA 
BRANCH   8  11
HETATM   11  C   UNL     1      -9.260   4.788  67.648  1.00  0.00    -0.144 A  
HETATM   12  C   UNL     1     -10.393   4.993  66.840  1.00  0.00    -0.267 A  
HETATM   13  C   UNL     1     -10.475   4.386  65.584  1.00  0.00    -0.193 A  
HETATM   14  C   UNL     1      -9.452   3.576  65.105  1.00  0.00    -0.158 A  
HETATM   15  O   UNL     1     -11.568   4.553  64.785  1.00  0.00    -0.988 OA 
HETATM   16  H   UNL     1     -11.625   4.140  63.932  1.00  0.00     0.000 HD 
HETATM   17  C   UNL     1      -8.328   3.383  65.899  1.00  0.00    -0.103 A  
HETATM   18  O   UNL     1      -7.294   2.597  65.485  1.00  0.00    -0.064 OA 
HETATM   19  C   UNL     1      -8.220   3.980  67.151  1.00  0.00    -0.099 A  
HETATM   20  H   UNL     1      -6.524   2.465  66.027  1.00  0.00     0.000 HD 
ENDBRANCH   8  11
ENDBRANCH   7   8
ENDBRANCH   3   7
TORSDOF 3
ENDMDL
MODEL      290
REMARK 921   NORMALIZED FREE ENERGY PREDICTED BY IDOCK:   -2.71 KCAL/MOL
REMARK 922        TOTAL FREE ENERGY PREDICTED BY IDOCK:   -3.48 KCAL/MOL
REMARK 923 INTER-LIGAND FREE ENERGY PREDICTED BY IDOCK:   -3.20 KCAL/MOL
REMARK 924 INTRA-LIGAND FREE ENERGY PREDICTED BY IDOCK:   -0.28 KCAL/MOL
REMARK 927      BINDING AFFINITY PREDICTED BY RF-SCORE:    0.00 PKD
ROOT
HETATM    1  C   UNL     1      -9.065   9.712  70.107  1.00  0.00    -0.280 C  
HETATM    2  C   UNL     1      -8.083   9.078  69.106  1.00  0.00    -0.109 C  
HETATM    3  N   UNL     1      -8.045   7.605  69.204  1.00  0.00    -0.124 NA 
HETATM    4  C   UNL     1      -8.432   9.523  67.676  1.00  0.00    -0.122 C  
HETATM    5  C   UNL     1      -6.669   9.593  69.435  1.00  0.00    -0.053 C  
HETATM    6  H   UNL     1      -7.660   7.321  70.105  1.00  0.00     0.000 HD 
ENDROOT
BRANCH   3   7
HETATM    7  C   UNL     1      -9.336   6.934  68.969  1.00  0.00    -0.135 C  
BRANCH   7   8
HETATM    8  C   UNL     1      -9.236   5.387  69.023  1.00  0.00    -0.120 C  
HETATM    9  H   UNL     1     -10.267   3.918  69.822  1.00  0.00     0.000 HD 
HETATM   10  O   UNL     1     -10.328   4.865  69.789  1.00  0.00    -0.260 OA 
BRANCH   8  11
HETATM   11  C   UNL     1      -9.237   4.809  67.617  1.00  0.00    -0.144 A  
HETATM   12  C   UNL     1      -8.048   4.299  67.063  1.00  0.00    -0.101 A  
HETATM   13  C   UNL     1      -8.032   3.837  65.745  1.00  0.00    -0.093 A  
HETATM   14  C   UNL     1      -9.177   3.868  64.956  1.00  0.00    -0.150 A  
HETATM   15  O   UNL     1      -6.891   3.353  65.176  1.00  0.00    -0.043 OA 
HETATM   16  H   UNL     1      -6.880   3.040  64.280  1.00  0.00     0.000 HD 
HETATM   17  C   UNL     1     -10.353   4.360  65.507  1.00  0.00    -0.224 A  
HETATM   18  O   UNL     1     -11.507   4.417  64.781  1.00  0.00    -1.011 OA 
HETATM   19  C   UNL     1     -10.395   4.821  66.819  1.00  0.00    -0.229 A  
HETATM   20  H   UNL     1     -12.312   4.754  65.158  1.00  0.00     0.000 HD 
ENDBRANCH   8  11
ENDBRANCH   7   8
ENDBRANCH   3   7
TORSDOF 3
ENDMDL
MODEL      291
REMARK 921   NORMALIZED FREE ENERGY PREDICTED BY IDOCK:   -2.70 KCAL/MOL
REMARK 922        TOTAL FREE ENERGY PREDICTED BY IDOCK:   -3.47 KCAL/MOL
REMARK 923 INTER-LIGAND FREE ENERGY PREDICTED BY IDOCK:   -3.03 KCAL/MOL
REMARK 924 INTRA-LIGAND FREE ENERGY PREDICTED BY IDOCK:   -0.43 KCAL/MOL
REMARK 927      BINDING AFFINITY PREDICTED BY RF-SCORE:    0.00 PKD
ROOT
HETATM    1  C   UNL     1      -6.673   6.650  69.890  1.00  0.00    -0.050 C  
HETATM    2  C   UNL     1      -7.265   6.450  71.295  1.00  0.00    -0.079 C  
HETATM    3  N   UNL     1      -7.955   7.656  71.797  1.00  0.00    -0.092 NA 
HETATM    4  C   UNL     1      -8.211   5.236  71.297  1.00  0.00    -0.119 C  
HETATM    5  C   UNL     1      -6.105   6.153  72.264  1.00  0.00    -0.042 C  
HETATM    6  H   UNL     1      -7.284   8.410  71.943  1.00  0.00     0.000 HD 
ENDROOT
BRANCH   3   7
HETATM    7  C   UNL     1      -9.074   8.124  70.961  1.00  0.00    -0.152 C  
BRANCH   7   8
HETATM    8  C   UNL     1      -8.954   9.620  70.567  1.00  0.00    -0.128 C  
HETATM    9  H   UNL     1      -7.506  10.934  70.377  1.00  0.00     0.000 HD 
HETATM   10  O   UNL     1      -7.579  10.018  70.618  1.00  0.00    -0.286 OA 
BRANCH   8  11
HETATM   11  C   UNL     1      -9.532   9.847  69.180  1.00  0.00    -0.201 A  
HETATM   12  C   UNL     1      -8.937   9.237  68.060  1.00  0.00    -0.128 A  
HETATM   13  C   UNL     1      -9.422   9.505  66.777  1.00  0.00    -0.167 A  
HETATM   14  C   UNL     1     -10.492  10.369  66.577  1.00  0.00    -0.262 A  
HETATM   15  O   UNL     1      -8.855   8.942  65.672  1.00  0.00    -0.169 OA 
HETATM   16  H   UNL     1      -9.184   9.125  64.800  1.00  0.00     0.000 HD 
HETATM   17  C   UNL     1     -11.087  10.963  67.683  1.00  0.00    -0.313 A  
HETATM   18  O   UNL     1     -12.138  11.821  67.549  1.00  0.00    -0.599 OA 
HETATM   19  C   UNL     1     -10.625  10.707  68.971  1.00  0.00    -0.249 A  
HETATM   20  H   UNL     1     -12.545  12.227  68.306  1.00  0.00     0.000 HD 
ENDBRANCH   8  11
ENDBRANCH   7   8
ENDBRANCH   3   7
TORSDOF 3
ENDMDL
MODEL      292
REMARK 921   NORMALIZED FREE ENERGY PREDICTED BY IDOCK:   -2.63 KCAL/MOL
REMARK 922        TOTAL FREE ENERGY PREDICTED BY IDOCK:   -3.39 KCAL/MOL
REMARK 923 INTER-LIGAND FREE ENERGY PREDICTED BY IDOCK:   -2.89 KCAL/MOL
REMARK 924 INTRA-LIGAND FREE ENERGY PREDICTED BY IDOCK:   -0.50 KCAL/MOL
REMARK 927      BINDING AFFINITY PREDICTED BY RF-SCORE:    0.00 PKD
ROOT
HETATM    1  C   UNL     1      -8.552   2.890  69.789  1.00  0.00    -0.115 C  
HETATM    2  C   UNL     1      -7.082   3.218  69.480  1.00  0.00    -0.041 C  
HETATM    3  N   UNL     1      -6.730   4.614  69.809  1.00  0.00    -0.036 NA 
HETATM    4  C   UNL     1      -6.159   2.232  70.218  1.00  0.00    -0.023 C  
HETATM    5  C   UNL     1      -6.861   3.037  67.966  1.00  0.00    -0.049 C  
HETATM    6  H   UNL     1      -7.234   5.258  69.199  1.00  0.00     0.000 HD 
ENDROOT
BRANCH   3   7
HETATM    7  C   UNL     1      -6.929   4.988  71.219  1.00  0.00    -0.048 C  
BRANCH   7   8
HETATM    8  C   UNL     1      -7.501   6.420  71.394  1.00  0.00    -0.089 C  
HETATM    9  H   UNL     1      -7.191   8.187  70.594  1.00  0.00     0.000 HD 
HETATM   10  O   UNL     1      -6.841   7.311  70.487  1.00  0.00    -0.051 OA 
BRANCH   8  11
HETATM   11  C   UNL     1      -9.002   6.420  71.154  1.00  0.00    -0.146 A  
HETATM   12  C   UNL     1      -9.885   6.149  72.215  1.00  0.00    -0.175 A  
HETATM   13  C   UNL     1     -11.260   6.075  71.980  1.00  0.00    -0.288 A  
HETATM   14  C   UNL     1     -11.786   6.267  70.707  1.00  0.00    -0.289 A  
HETATM   15  O   UNL     1     -12.139   5.796  72.985  1.00  0.00    -0.504 OA 
HETATM   16  H   UNL     1     -13.074   5.746  72.825  1.00  0.00     0.000 HD 
HETATM   17  C   UNL     1     -10.915   6.547  69.661  1.00  0.00    -0.336 A  
HETATM   18  O   UNL     1     -11.370   6.742  68.391  1.00  0.00    -0.538 OA 
HETATM   19  C   UNL     1      -9.541   6.631  69.872  1.00  0.00    -0.161 A  
HETATM   20  H   UNL     1     -10.775   6.933  67.676  1.00  0.00     0.000 HD 
ENDBRANCH   8  11
ENDBRANCH   7   8
ENDBRANCH   3   7
TORSDOF 3
ENDMDL
MODEL      293
REMARK 921   NORMALIZED FREE ENERGY PREDICTED BY IDOCK:   -2.62 KCAL/MOL
REMARK 922        TOTAL FREE ENERGY PREDICTED BY IDOCK:   -3.38 KCAL/MOL
REMARK 923 INTER-LIGAND FREE ENERGY PREDICTED BY IDOCK:   -3.16 KCAL/MOL
REMARK 924 INTRA-LIGAND FREE ENERGY PREDICTED BY IDOCK:   -0.22 KCAL/MOL
REMARK 927      BINDING AFFINITY PREDICTED BY RF-SCORE:    0.00 PKD
ROOT
HETATM    1  C   UNL     1      -9.089   9.807  63.109  1.00  0.00    -0.270 C  
HETATM    2  C   UNL     1      -8.405   9.904  64.483  1.00  0.00    -0.166 C  
HETATM    3  N   UNL     1      -8.648  11.200  65.148  1.00  0.00    -0.384 NA 
HETATM    4  C   UNL     1      -8.855   8.735  65.377  1.00  0.00    -0.221 C  
HETATM    5  C   UNL     1      -6.884   9.781  64.267  1.00  0.00    -0.120 C  
HETATM    6  H   UNL     1      -8.204  11.954  64.624  1.00  0.00     0.000 HD 
ENDROOT
BRANCH   3   7
HETATM    7  C   UNL     1     -10.066  11.515  65.391  1.00  0.00    -0.260 C  
BRANCH   7   8
HETATM    8  C   UNL     1     -10.302  12.266  66.728  1.00  0.00    -0.217 C  
HETATM    9  H   UNL     1     -10.635  11.774  68.601  1.00  0.00     0.000 HD 
HETATM   10  O   UNL     1     -10.491  11.314  67.782  1.00  0.00    -0.176 OA 
BRANCH   8  11
HETATM   11  C   UNL     1      -9.127  13.181  67.032  1.00  0.00    -0.231 A  
HETATM   12  C   UNL     1      -8.133  12.776  67.941  1.00  0.00    -0.159 A  
HETATM   13  C   UNL     1      -7.093  13.646  68.277  1.00  0.00    -0.110 A  
HETATM   14  C   UNL     1      -7.014  14.921  67.726  1.00  0.00    -0.193 A  
HETATM   15  O   UNL     1      -6.126  13.287  69.168  1.00  0.00    -0.082 OA 
HETATM   16  H   UNL     1      -5.419  13.879  69.396  1.00  0.00     0.000 HD 
HETATM   17  C   UNL     1      -7.988  15.317  66.819  1.00  0.00    -0.068 A  
HETATM   18  O   UNL     1      -7.965  16.555  66.248  1.00  0.00    -0.308 OA 
HETATM   19  C   UNL     1      -9.031  14.466  66.465  1.00  0.00    -0.191 A  
HETATM   20  H   UNL     1      -8.631  16.827  65.627  1.00  0.00     0.000 HD 
ENDBRANCH   8  11
ENDBRANCH   7   8
ENDBRANCH   3   7
TORSDOF 3
ENDMDL
MODEL      294
REMARK 921   NORMALIZED FREE ENERGY PREDICTED BY IDOCK:   -2.61 KCAL/MOL
REMARK 922        TOTAL FREE ENERGY PREDICTED BY IDOCK:   -3.36 KCAL/MOL
REMARK 923 INTER-LIGAND FREE ENERGY PREDICTED BY IDOCK:   -3.44 KCAL/MOL
REMARK 924 INTRA-LIGAND FREE ENERGY PREDICTED BY IDOCK:    0.08 KCAL/MOL
REMARK 927      BINDING AFFINITY PREDICTED BY RF-SCORE:    0.00 PKD
ROOT
HETATM    1  C   UNL     1      -7.899  14.076  67.448  1.00  0.00    -0.188 C  
HETATM    2  C   UNL     1      -7.034  13.284  68.442  1.00  0.00    -0.105 C  
HETATM    3  N   UNL     1      -7.647  11.996  68.827  1.00  0.00    -0.228 NA 
HETATM    4  C   UNL     1      -5.627  13.068  67.858  1.00  0.00    -0.123 C  
HETATM    5  C   UNL     1      -6.894  14.123  69.727  1.00  0.00    -0.019 C  
HETATM    6  H   UNL     1      -8.504  12.158  69.357  1.00  0.00     0.000 HD 
ENDROOT
BRANCH   3   7
HETATM    7  C   UNL     1      -7.906  11.074  67.709  1.00  0.00    -0.110 C  
BRANCH   7   8
HETATM    8  C   UNL     1      -9.399  10.667  67.590  1.00  0.00    -0.146 C  
HETATM    9  H   UNL     1     -10.428   9.269  66.668  1.00  0.00     0.000 HD 
HETATM   10  O   UNL     1      -9.514   9.519  66.741  1.00  0.00    -0.152 OA 
BRANCH   8  11
HETATM   11  C   UNL     1      -9.978  10.381  68.966  1.00  0.00    -0.224 A  
HETATM   12  C   UNL     1      -9.195   9.735  69.940  1.00  0.00    -0.263 A  
HETATM   13  C   UNL     1      -9.751   9.405  71.178  1.00  0.00    -0.187 A  
HETATM   14  C   UNL     1     -11.075   9.706  71.478  1.00  0.00    -0.335 A  
HETATM   15  O   UNL     1      -9.022   8.764  72.136  1.00  0.00    -0.336 OA 
HETATM   16  H   UNL     1      -9.400   8.540  72.978  1.00  0.00     0.000 HD 
HETATM   17  C   UNL     1     -11.845  10.354  70.521  1.00  0.00    -0.337 A  
HETATM   18  O   UNL     1     -13.150  10.672  70.755  1.00  0.00    -0.341 OA 
HETATM   19  C   UNL     1     -11.312  10.697  69.281  1.00  0.00    -0.346 A  
HETATM   20  H   UNL     1     -13.677  11.116  70.101  1.00  0.00     0.000 HD 
ENDBRANCH   8  11
ENDBRANCH   7   8
ENDBRANCH   3   7
TORSDOF 3
ENDMDL
MODEL      295
REMARK 921   NORMALIZED FREE ENERGY PREDICTED BY IDOCK:   -2.59 KCAL/MOL
REMARK 922        TOTAL FREE ENERGY PREDICTED BY IDOCK:   -3.34 KCAL/MOL
REMARK 923 INTER-LIGAND FREE ENERGY PREDICTED BY IDOCK:   -2.86 KCAL/MOL
REMARK 924 INTRA-LIGAND FREE ENERGY PREDICTED BY IDOCK:   -0.48 KCAL/MOL
REMARK 927      BINDING AFFINITY PREDICTED BY RF-SCORE:    0.00 PKD
ROOT
HETATM    1  C   UNL     1     -10.695   5.433  70.580  1.00  0.00    -0.257 C  
HETATM    2  C   UNL     1     -11.090   6.129  71.893  1.00  0.00    -0.274 C  
HETATM    3  N   UNL     1     -10.038   7.037  72.393  1.00  0.00    -0.172 NA 
HETATM    4  C   UNL     1     -12.420   6.880  71.709  1.00  0.00    -0.397 C  
HETATM    5  C   UNL     1     -11.300   5.042  72.965  1.00  0.00    -0.374 C  
HETATM    6  H   UNL     1      -9.212   6.505  72.663  1.00  0.00     0.000 HD 
ENDROOT
BRANCH   3   7
HETATM    7  C   UNL     1      -9.665   8.122  71.469  1.00  0.00    -0.176 C  
BRANCH   7   8
HETATM    8  C   UNL     1      -8.182   8.051  71.016  1.00  0.00    -0.104 C  
HETATM    9  H   UNL     1      -6.644   6.874  71.345  1.00  0.00     0.000 HD 
HETATM   10  O   UNL     1      -7.552   6.917  71.622  1.00  0.00    -0.088 OA 
BRANCH   8  11
HETATM   11  C   UNL     1      -8.098   7.969  69.500  1.00  0.00    -0.120 A  
HETATM   12  C   UNL     1      -6.845   7.883  68.867  1.00  0.00    -0.058 A  
HETATM   13  C   UNL     1      -6.764   7.883  67.472  1.00  0.00    -0.069 A  
HETATM   14  C   UNL     1      -7.906   7.965  66.683  1.00  0.00    -0.102 A  
HETATM   15  O   UNL     1      -5.562   7.817  66.831  1.00  0.00    -0.030 OA 
HETATM   16  H   UNL     1      -5.507   7.818  65.883  1.00  0.00     0.000 HD 
HETATM   17  C   UNL     1      -9.145   8.039  67.308  1.00  0.00    -0.135 A  
HETATM   18  O   UNL     1     -10.299   8.124  66.588  1.00  0.00    -0.363 OA 
HETATM   19  C   UNL     1      -9.251   8.035  68.696  1.00  0.00    -0.143 A  
HETATM   20  H   UNL     1     -11.147   8.174  67.015  1.00  0.00     0.000 HD 
ENDBRANCH   8  11
ENDBRANCH   7   8
ENDBRANCH   3   7
TORSDOF 3
ENDMDL
MODEL      296
REMARK 921   NORMALIZED FREE ENERGY PREDICTED BY IDOCK:   -2.58 KCAL/MOL
REMARK 922        TOTAL FREE ENERGY PREDICTED BY IDOCK:   -3.32 KCAL/MOL
REMARK 923 INTER-LIGAND FREE ENERGY PREDICTED BY IDOCK:   -3.04 KCAL/MOL
REMARK 924 INTRA-LIGAND FREE ENERGY PREDICTED BY IDOCK:   -0.29 KCAL/MOL
REMARK 927      BINDING AFFINITY PREDICTED BY RF-SCORE:    0.00 PKD
ROOT
HETATM    1  C   UNL     1     -11.172   5.441  73.172  1.00  0.00    -0.355 C  
HETATM    2  C   UNL     1      -9.819   5.086  72.532  1.00  0.00    -0.159 C  
HETATM    3  N   UNL     1      -9.546   5.870  71.311  1.00  0.00    -0.167 NA 
HETATM    4  C   UNL     1      -8.689   5.262  73.561  1.00  0.00    -0.114 C  
HETATM    5  C   UNL     1      -9.862   3.602  72.120  1.00  0.00    -0.240 C  
HETATM    6  H   UNL     1     -10.211   5.625  70.578  1.00  0.00     0.000 HD 
ENDROOT
BRANCH   3   7
HETATM    7  C   UNL     1      -9.518   7.330  71.505  1.00  0.00    -0.152 C  
BRANCH   7   8
HETATM    8  C   UNL     1     -10.429   8.094  70.507  1.00  0.00    -0.214 C  
HETATM    9  H   UNL     1     -11.587   9.680  70.558  1.00  0.00     0.000 HD 
HETATM   10  O   UNL     1     -11.029   9.213  71.169  1.00  0.00    -0.265 OA 
BRANCH   8  11
HETATM   11  C   UNL     1      -9.622   8.549  69.301  1.00  0.00    -0.170 A  
HETATM   12  C   UNL     1      -8.606   9.510  69.455  1.00  0.00    -0.159 A  
HETATM   13  C   UNL     1      -7.916   9.983  68.336  1.00  0.00    -0.097 A  
HETATM   14  C   UNL     1      -8.210   9.521  67.058  1.00  0.00    -0.113 A  
HETATM   15  O   UNL     1      -6.938  10.927  68.452  1.00  0.00    -0.066 OA 
HETATM   16  H   UNL     1      -6.469  11.249  67.692  1.00  0.00     0.000 HD 
HETATM   17  C   UNL     1      -9.205   8.563  66.908  1.00  0.00    -0.158 A  
HETATM   18  O   UNL     1      -9.539   8.074  65.680  1.00  0.00    -0.412 OA 
HETATM   19  C   UNL     1      -9.903   8.073  68.007  1.00  0.00    -0.198 A  
HETATM   20  H   UNL     1     -10.219   7.419  65.577  1.00  0.00     0.000 HD 
ENDBRANCH   8  11
ENDBRANCH   7   8
ENDBRANCH   3   7
TORSDOF 3
ENDMDL
MODEL      297
REMARK 921   NORMALIZED FREE ENERGY PREDICTED BY IDOCK:   -2.54 KCAL/MOL
REMARK 922        TOTAL FREE ENERGY PREDICTED BY IDOCK:   -3.28 KCAL/MOL
REMARK 923 INTER-LIGAND FREE ENERGY PREDICTED BY IDOCK:   -3.04 KCAL/MOL
REMARK 924 INTRA-LIGAND FREE ENERGY PREDICTED BY IDOCK:   -0.24 KCAL/MOL
REMARK 927      BINDING AFFINITY PREDICTED BY RF-SCORE:    0.00 PKD
ROOT
HETATM    1  C   UNL     1     -11.128  10.317  70.051  1.00  0.00    -0.373 C  
HETATM    2  C   UNL     1     -10.165   9.402  69.277  1.00  0.00    -0.202 C  
HETATM    3  N   UNL     1      -9.790   8.195  70.042  1.00  0.00    -0.181 NA 
HETATM    4  C   UNL     1     -10.779   9.021  67.919  1.00  0.00    -0.200 C  
HETATM    5  C   UNL     1      -8.869  10.192  69.010  1.00  0.00    -0.166 C  
HETATM    6  H   UNL     1      -9.242   8.453  70.862  1.00  0.00     0.000 HD 
ENDROOT
BRANCH   3   7
HETATM    7  C   UNL     1     -10.920   7.335  70.435  1.00  0.00    -0.252 C  
BRANCH   7   8
HETATM    8  C   UNL     1     -11.121   7.260  71.972  1.00  0.00    -0.244 C  
HETATM    9  H   UNL     1     -12.644   7.145  73.207  1.00  0.00     0.000 HD 
HETATM   10  O   UNL     1     -12.521   7.191  72.266  1.00  0.00    -0.196 OA 
BRANCH   8  11
HETATM   11  C   UNL     1     -10.389   6.055  72.540  1.00  0.00    -0.222 A  
HETATM   12  C   UNL     1      -9.003   6.118  72.774  1.00  0.00    -0.126 A  
HETATM   13  C   UNL     1      -8.318   4.987  73.225  1.00  0.00    -0.107 A  
HETATM   14  C   UNL     1      -8.980   3.786  73.455  1.00  0.00    -0.096 A  
HETATM   15  O   UNL     1      -6.972   5.013  73.444  1.00  0.00    -0.072 OA 
HETATM   16  H   UNL     1      -6.506   4.245  73.750  1.00  0.00     0.000 HD 
HETATM   17  C   UNL     1     -10.350   3.728  73.236  1.00  0.00    -0.167 A  
HETATM   18  O   UNL     1     -11.053   2.577  73.441  1.00  0.00    -0.183 OA 
HETATM   19  C   UNL     1     -11.056   4.842  72.791  1.00  0.00    -0.248 A  
HETATM   20  H   UNL     1     -11.991   2.537  73.292  1.00  0.00     0.000 HD 
ENDBRANCH   8  11
ENDBRANCH   7   8
ENDBRANCH   3   7
TORSDOF 3
ENDMDL
MODEL      298
REMARK 921   NORMALIZED FREE ENERGY PREDICTED BY IDOCK:   -2.54 KCAL/MOL
REMARK 922        TOTAL FREE ENERGY PREDICTED BY IDOCK:   -3.27 KCAL/MOL
REMARK 923 INTER-LIGAND FREE ENERGY PREDICTED BY IDOCK:   -2.98 KCAL/MOL
REMARK 924 INTRA-LIGAND FREE ENERGY PREDICTED BY IDOCK:   -0.29 KCAL/MOL
REMARK 927      BINDING AFFINITY PREDICTED BY RF-SCORE:    0.00 PKD
ROOT
HETATM    1  C   UNL     1      -9.024   6.508  72.788  1.00  0.00    -0.127 C  
HETATM    2  C   UNL     1      -9.997   5.633  71.980  1.00  0.00    -0.177 C  
HETATM    3  N   UNL     1      -9.687   5.626  70.536  1.00  0.00    -0.173 NA 
HETATM    4  C   UNL     1     -10.009   4.203  72.545  1.00  0.00    -0.222 C  
HETATM    5  C   UNL     1     -11.412   6.222  72.139  1.00  0.00    -0.354 C  
HETATM    6  H   UNL     1      -9.837   6.553  70.138  1.00  0.00     0.000 HD 
ENDROOT
BRANCH   3   7
HETATM    7  C   UNL     1      -8.340   5.138  70.193  1.00  0.00    -0.093 C  
BRANCH   7   8
HETATM    8  C   UNL     1      -8.357   3.978  69.163  1.00  0.00    -0.072 C  
HETATM    9  H   UNL     1      -9.393   2.332  68.886  1.00  0.00     0.000 HD 
HETATM   10  O   UNL     1      -9.382   3.042  69.517  1.00  0.00    -0.143 OA 
BRANCH   8  11
HETATM   11  C   UNL     1      -8.583   4.522  67.761  1.00  0.00    -0.107 A  
HETATM   12  C   UNL     1      -7.553   5.216  67.100  1.00  0.00    -0.092 A  
HETATM   13  C   UNL     1      -7.784   5.780  65.843  1.00  0.00    -0.092 A  
HETATM   14  C   UNL     1      -9.022   5.671  65.220  1.00  0.00    -0.039 A  
HETATM   15  O   UNL     1      -6.810   6.472  65.186  1.00  0.00    -0.045 OA 
HETATM   16  H   UNL     1      -6.967   6.856  64.332  1.00  0.00     0.000 HD 
HETATM   17  C   UNL     1     -10.035   4.975  65.867  1.00  0.00    -0.167 A  
HETATM   18  O   UNL     1     -11.271   4.837  65.307  1.00  0.00    -0.862 OA 
HETATM   19  C   UNL     1      -9.828   4.400  67.118  1.00  0.00    -0.217 A  
HETATM   20  H   UNL     1     -11.964   4.362  65.750  1.00  0.00     0.000 HD 
ENDBRANCH   8  11
ENDBRANCH   7   8
ENDBRANCH   3   7
TORSDOF 3
ENDMDL
MODEL      299
REMARK 921   NORMALIZED FREE ENERGY PREDICTED BY IDOCK:   -2.53 KCAL/MOL
REMARK 922        TOTAL FREE ENERGY PREDICTED BY IDOCK:   -3.27 KCAL/MOL
REMARK 923 INTER-LIGAND FREE ENERGY PREDICTED BY IDOCK:   -2.93 KCAL/MOL
REMARK 924 INTRA-LIGAND FREE ENERGY PREDICTED BY IDOCK:   -0.34 KCAL/MOL
REMARK 927      BINDING AFFINITY PREDICTED BY RF-SCORE:    0.00 PKD
ROOT
HETATM    1  C   UNL     1      -8.728   6.403  73.366  1.00  0.00    -0.129 C  
HETATM    2  C   UNL     1      -9.712   5.327  72.877  1.00  0.00    -0.144 C  
HETATM    3  N   UNL     1      -9.693   5.167  71.409  1.00  0.00    -0.161 NA 
HETATM    4  C   UNL     1      -9.418   3.990  73.579  1.00  0.00    -0.121 C  
HETATM    5  C   UNL     1     -11.135   5.769  73.269  1.00  0.00    -0.252 C  
HETATM    6  H   UNL     1     -10.044   6.012  70.958  1.00  0.00     0.000 HD 
ENDROOT
BRANCH   3   7
HETATM    7  C   UNL     1      -8.386   4.792  70.843  1.00  0.00    -0.098 C  
BRANCH   7   8
HETATM    8  C   UNL     1      -8.505   3.922  69.563  1.00  0.00    -0.060 C  
HETATM    9  H   UNL     1      -9.522   2.336  69.006  1.00  0.00     0.000 HD 
HETATM   10  O   UNL     1      -9.449   2.869  69.789  1.00  0.00    -0.149 OA 
BRANCH   8  11
HETATM   11  C   UNL     1      -8.925   4.779  68.380  1.00  0.00    -0.134 A  
HETATM   12  C   UNL     1      -9.873   4.296  67.460  1.00  0.00    -0.162 A  
HETATM   13  C   UNL     1     -10.204   5.052  66.333  1.00  0.00    -0.273 A  
HETATM   14  C   UNL     1      -9.613   6.288  66.095  1.00  0.00    -0.059 A  
HETATM   15  O   UNL     1     -11.106   4.601  65.416  1.00  0.00    -0.854 OA 
HETATM   16  H   UNL     1     -11.331   5.115  64.649  1.00  0.00     0.000 HD 
HETATM   17  C   UNL     1      -8.685   6.771  67.009  1.00  0.00    -0.114 A  
HETATM   18  O   UNL     1      -8.070   7.974  66.828  1.00  0.00    -0.104 OA 
HETATM   19  C   UNL     1      -8.343   6.038  68.142  1.00  0.00    -0.113 A  
HETATM   20  H   UNL     1      -7.435   8.305  67.454  1.00  0.00     0.000 HD 
ENDBRANCH   8  11
ENDBRANCH   7   8
ENDBRANCH   3   7
TORSDOF 3
ENDMDL
MODEL      300
REMARK 921   NORMALIZED FREE ENERGY PREDICTED BY IDOCK:   -2.52 KCAL/MOL
REMARK 922        TOTAL FREE ENERGY PREDICTED BY IDOCK:   -3.26 KCAL/MOL
REMARK 923 INTER-LIGAND FREE ENERGY PREDICTED BY IDOCK:   -3.20 KCAL/MOL
REMARK 924 INTRA-LIGAND FREE ENERGY PREDICTED BY IDOCK:   -0.06 KCAL/MOL
REMARK 927      BINDING AFFINITY PREDICTED BY RF-SCORE:    0.00 PKD
ROOT
HETATM    1  C   UNL     1      -5.945   8.528  73.376  1.00  0.00    -0.104 C  
HETATM    2  C   UNL     1      -7.077   7.633  72.843  1.00  0.00    -0.076 C  
HETATM    3  N   UNL     1      -8.202   8.412  72.288  1.00  0.00    -0.220 NA 
HETATM    4  C   UNL     1      -6.521   6.651  71.797  1.00  0.00    -0.049 C  
HETATM    5  C   UNL     1      -7.630   6.811  74.023  1.00  0.00    -0.101 C  
HETATM    6  H   UNL     1      -8.665   8.940  73.028  1.00  0.00     0.000 HD 
ENDROOT
BRANCH   3   7
HETATM    7  C   UNL     1      -7.847   9.305  71.171  1.00  0.00     0.002 C  
BRANCH   7   8
HETATM    8  C   UNL     1      -9.073   9.732  70.321  1.00  0.00    -0.157 C  
HETATM    9  H   UNL     1      -9.502   9.877  68.409  1.00  0.00     0.000 HD 
HETATM   10  O   UNL     1      -8.752   9.616  68.930  1.00  0.00    -0.124 OA 
BRANCH   8  11
HETATM   11  C   UNL     1     -10.280   8.876  70.670  1.00  0.00    -0.267 A  
HETATM   12  C   UNL     1     -11.225   9.337  71.605  1.00  0.00    -0.449 A  
HETATM   13  C   UNL     1     -12.293   8.519  71.981  1.00  0.00    -0.365 A  
HETATM   14  C   UNL     1     -12.449   7.245  71.447  1.00  0.00    -0.418 A  
HETATM   15  O   UNL     1     -13.215   8.933  72.898  1.00  0.00    -0.696 OA 
HETATM   16  H   UNL     1     -13.940   8.377  73.154  1.00  0.00     0.000 HD 
HETATM   17  C   UNL     1     -11.523   6.794  70.515  1.00  0.00    -0.360 A  
HETATM   18  O   UNL     1     -11.622   5.553  69.959  1.00  0.00     0.415 OA 
HETATM   19  C   UNL     1     -10.453   7.592  70.120  1.00  0.00    -0.227 A  
HETATM   20  H   UNL     1     -10.989   5.245  69.321  1.00  0.00     0.000 HD 
ENDBRANCH   8  11
ENDBRANCH   7   8
ENDBRANCH   3   7
TORSDOF 3
ENDMDL
MODEL      301
REMARK 921   NORMALIZED FREE ENERGY PREDICTED BY IDOCK:   -2.52 KCAL/MOL
REMARK 922        TOTAL FREE ENERGY PREDICTED BY IDOCK:   -3.25 KCAL/MOL
REMARK 923 INTER-LIGAND FREE ENERGY PREDICTED BY IDOCK:   -3.00 KCAL/MOL
REMARK 924 INTRA-LIGAND FREE ENERGY PREDICTED BY IDOCK:   -0.25 KCAL/MOL
REMARK 927      BINDING AFFINITY PREDICTED BY RF-SCORE:    0.00 PKD
ROOT
HETATM    1  C   UNL     1     -10.306   4.880  71.669  1.00  0.00    -0.241 C  
HETATM    2  C   UNL     1      -9.075   5.305  72.487  1.00  0.00    -0.136 C  
HETATM    3  N   UNL     1      -8.472   6.560  71.993  1.00  0.00    -0.115 NA 
HETATM    4  C   UNL     1      -9.448   5.424  73.974  1.00  0.00    -0.136 C  
HETATM    5  C   UNL     1      -8.007   4.202  72.348  1.00  0.00    -0.087 C  
HETATM    6  H   UNL     1      -8.084   6.422  71.060  1.00  0.00     0.000 HD 
ENDROOT
BRANCH   3   7
HETATM    7  C   UNL     1      -9.373   7.726  72.002  1.00  0.00    -0.152 C  
BRANCH   7   8
HETATM    8  C   UNL     1      -8.854   8.901  71.132  1.00  0.00    -0.237 C  
HETATM    9  H   UNL     1      -7.106   9.591  70.562  1.00  0.00     0.000 HD 
HETATM   10  O   UNL     1      -7.423   8.872  71.094  1.00  0.00    -0.095 OA 
BRANCH   8  11
HETATM   11  C   UNL     1      -9.434   8.813  69.729  1.00  0.00    -0.168 A  
HETATM   12  C   UNL     1     -10.096   9.921  69.169  1.00  0.00    -0.210 A  
HETATM   13  C   UNL     1     -10.693   9.816  67.911  1.00  0.00    -0.258 A  
HETATM   14  C   UNL     1     -10.648   8.630  67.187  1.00  0.00    -0.304 A  
HETATM   15  O   UNL     1     -11.357  10.868  67.350  1.00  0.00    -0.412 OA 
HETATM   16  H   UNL     1     -11.763  10.797  66.495  1.00  0.00     0.000 HD 
HETATM   17  C   UNL     1      -9.984   7.540  67.735  1.00  0.00    -0.171 A  
HETATM   18  O   UNL     1      -9.908   6.349  67.074  1.00  0.00    -0.139 OA 
HETATM   19  C   UNL     1      -9.377   7.621  68.985  1.00  0.00    -0.146 A  
HETATM   20  H   UNL     1      -9.454   5.603  67.448  1.00  0.00     0.000 HD 
ENDBRANCH   8  11
ENDBRANCH   7   8
ENDBRANCH   3   7
TORSDOF 3
ENDMDL
MODEL      302
REMARK 921   NORMALIZED FREE ENERGY PREDICTED BY IDOCK:   -2.52 KCAL/MOL
REMARK 922        TOTAL FREE ENERGY PREDICTED BY IDOCK:   -3.25 KCAL/MOL
REMARK 923 INTER-LIGAND FREE ENERGY PREDICTED BY IDOCK:   -2.91 KCAL/MOL
REMARK 924 INTRA-LIGAND FREE ENERGY PREDICTED BY IDOCK:   -0.34 KCAL/MOL
REMARK 927      BINDING AFFINITY PREDICTED BY RF-SCORE:    0.00 PKD
ROOT
HETATM    1  C   UNL     1      -7.216   5.603  72.329  1.00  0.00    -0.089 C  
HETATM    2  C   UNL     1      -7.693   7.058  72.478  1.00  0.00    -0.093 C  
HETATM    3  N   UNL     1      -8.592   7.475  71.383  1.00  0.00    -0.119 NA 
HETATM    4  C   UNL     1      -8.370   7.250  73.846  1.00  0.00    -0.185 C  
HETATM    5  C   UNL     1      -6.455   7.974  72.425  1.00  0.00    -0.068 C  
HETATM    6  H   UNL     1      -8.084   7.496  70.499  1.00  0.00     0.000 HD 
ENDROOT
BRANCH   3   7
HETATM    7  C   UNL     1      -9.818   6.670  71.246  1.00  0.00    -0.177 C  
BRANCH   7   8
HETATM    8  C   UNL     1     -10.787   7.217  70.164  1.00  0.00    -0.257 C  
HETATM    9  H   UNL     1     -11.451   8.978  69.602  1.00  0.00     0.000 HD 
HETATM   10  O   UNL     1     -10.858   8.644  70.265  1.00  0.00    -0.230 OA 
BRANCH   8  11
HETATM   11  C   UNL     1     -10.321   6.795  68.779  1.00  0.00    -0.211 A  
HETATM   12  C   UNL     1      -9.962   5.458  68.533  1.00  0.00    -0.223 A  
HETATM   13  C   UNL     1      -9.463   5.086  67.282  1.00  0.00    -0.136 A  
HETATM   14  C   UNL     1      -9.313   6.017  66.260  1.00  0.00    -0.165 A  
HETATM   15  O   UNL     1      -9.091   3.801  67.020  1.00  0.00    -0.136 OA 
HETATM   16  H   UNL     1      -8.752   3.548  66.170  1.00  0.00     0.000 HD 
HETATM   17  C   UNL     1      -9.678   7.335  66.499  1.00  0.00    -0.140 A  
HETATM   18  O   UNL     1      -9.550   8.293  65.537  1.00  0.00    -0.413 OA 
HETATM   19  C   UNL     1     -10.182   7.729  67.736  1.00  0.00    -0.271 A  
HETATM   20  H   UNL     1      -9.800   9.195  65.701  1.00  0.00     0.000 HD 
ENDBRANCH   8  11
ENDBRANCH   7   8
ENDBRANCH   3   7
TORSDOF 3
ENDMDL
MODEL      303
REMARK 921   NORMALIZED FREE ENERGY PREDICTED BY IDOCK:   -2.51 KCAL/MOL
REMARK 922        TOTAL FREE ENERGY PREDICTED BY IDOCK:   -3.24 KCAL/MOL
REMARK 923 INTER-LIGAND FREE ENERGY PREDICTED BY IDOCK:   -3.00 KCAL/MOL
REMARK 924 INTRA-LIGAND FREE ENERGY PREDICTED BY IDOCK:   -0.25 KCAL/MOL
REMARK 927      BINDING AFFINITY PREDICTED BY RF-SCORE:    0.00 PKD
ROOT
HETATM    1  C   UNL     1      -6.663  13.334  67.495  1.00  0.00    -0.156 C  
HETATM    2  C   UNL     1      -6.511  12.765  68.915  1.00  0.00    -0.091 C  
HETATM    3  N   UNL     1      -7.667  11.940  69.323  1.00  0.00    -0.337 NA 
HETATM    4  C   UNL     1      -5.201  11.966  69.023  1.00  0.00    -0.050 C  
HETATM    5  C   UNL     1      -6.430  13.951  69.897  1.00  0.00    -0.077 C  
HETATM    6  H   UNL     1      -8.503  12.518  69.402  1.00  0.00     0.000 HD 
ENDROOT
BRANCH   3   7
HETATM    7  C   UNL     1      -7.933  10.776  68.460  1.00  0.00    -0.130 C  
BRANCH   7   8
HETATM    8  C   UNL     1      -9.445  10.462  68.311  1.00  0.00    -0.148 C  
HETATM    9  H   UNL     1     -10.882  10.926  67.054  1.00  0.00     0.000 HD 
HETATM   10  O   UNL     1      -9.956  11.118  67.145  1.00  0.00    -0.181 OA 
BRANCH   8  11
HETATM   11  C   UNL     1      -9.665   8.961  68.227  1.00  0.00    -0.174 A  
HETATM   12  C   UNL     1      -9.451   8.283  67.012  1.00  0.00    -0.226 A  
HETATM   13  C   UNL     1      -9.724   6.917  66.915  1.00  0.00    -0.171 A  
HETATM   14  C   UNL     1     -10.208   6.199  68.003  1.00  0.00    -0.210 A  
HETATM   15  O   UNL     1      -9.543   6.238  65.747  1.00  0.00    -0.383 OA 
HETATM   16  H   UNL     1      -9.729   5.309  65.680  1.00  0.00     0.000 HD 
HETATM   17  C   UNL     1     -10.409   6.865  69.206  1.00  0.00    -0.198 A  
HETATM   18  O   UNL     1     -10.884   6.215  70.306  1.00  0.00    -0.264 OA 
HETATM   19  C   UNL     1     -10.138   8.225  69.329  1.00  0.00    -0.199 A  
HETATM   20  H   UNL     1     -11.021   6.670  71.129  1.00  0.00     0.000 HD 
ENDBRANCH   8  11
ENDBRANCH   7   8
ENDBRANCH   3   7
TORSDOF 3
ENDMDL
MODEL      304
REMARK 921   NORMALIZED FREE ENERGY PREDICTED BY IDOCK:   -2.51 KCAL/MOL
REMARK 922        TOTAL FREE ENERGY PREDICTED BY IDOCK:   -3.24 KCAL/MOL
REMARK 923 INTER-LIGAND FREE ENERGY PREDICTED BY IDOCK:   -2.78 KCAL/MOL
REMARK 924 INTRA-LIGAND FREE ENERGY PREDICTED BY IDOCK:   -0.46 KCAL/MOL
REMARK 927      BINDING AFFINITY PREDICTED BY RF-SCORE:    0.00 PKD
ROOT
HETATM    1  C   UNL     1      -7.520   6.003  72.400  1.00  0.00    -0.099 C  
HETATM    2  C   UNL     1      -8.619   6.366  73.413  1.00  0.00    -0.124 C  
HETATM    3  N   UNL     1      -9.684   7.200  72.820  1.00  0.00    -0.152 NA 
HETATM    4  C   UNL     1      -9.205   5.086  74.033  1.00  0.00    -0.117 C  
HETATM    5  C   UNL     1      -7.971   7.190  74.543  1.00  0.00    -0.182 C  
HETATM    6  H   UNL     1      -9.313   8.113  72.557  1.00  0.00     0.000 HD 
ENDROOT
BRANCH   3   7
HETATM    7  C   UNL     1     -10.387   6.589  71.679  1.00  0.00    -0.207 C  
BRANCH   7   8
HETATM    8  C   UNL     1     -10.994   7.635  70.707  1.00  0.00    -0.252 C  
HETATM    9  H   UNL     1     -12.045   9.288  70.864  1.00  0.00     0.000 HD 
HETATM   10  O   UNL     1     -11.674   8.647  71.459  1.00  0.00    -0.273 OA 
BRANCH   8  11
HETATM   11  C   UNL     1      -9.902   8.246  69.844  1.00  0.00    -0.186 A  
HETATM   12  C   UNL     1      -8.998   7.415  69.156  1.00  0.00    -0.135 A  
HETATM   13  C   UNL     1      -7.950   7.976  68.424  1.00  0.00    -0.120 A  
HETATM   14  C   UNL     1      -7.774   9.353  68.354  1.00  0.00    -0.086 A  
HETATM   15  O   UNL     1      -7.049   7.195  67.761  1.00  0.00    -0.080 OA 
HETATM   16  H   UNL     1      -6.336   7.576  67.263  1.00  0.00     0.000 HD 
HETATM   17  C   UNL     1      -8.673  10.175  69.023  1.00  0.00    -0.161 A  
HETATM   18  O   UNL     1      -8.551  11.532  68.993  1.00  0.00    -0.363 OA 
HETATM   19  C   UNL     1      -9.729   9.639  69.755  1.00  0.00    -0.247 A  
HETATM   20  H   UNL     1      -9.165  12.095  69.451  1.00  0.00     0.000 HD 
ENDBRANCH   8  11
ENDBRANCH   7   8
ENDBRANCH   3   7
TORSDOF 3
ENDMDL
MODEL      305
REMARK 921   NORMALIZED FREE ENERGY PREDICTED BY IDOCK:   -2.50 KCAL/MOL
REMARK 922        TOTAL FREE ENERGY PREDICTED BY IDOCK:   -3.24 KCAL/MOL
REMARK 923 INTER-LIGAND FREE ENERGY PREDICTED BY IDOCK:   -3.05 KCAL/MOL
REMARK 924 INTRA-LIGAND FREE ENERGY PREDICTED BY IDOCK:   -0.19 KCAL/MOL
REMARK 927      BINDING AFFINITY PREDICTED BY RF-SCORE:    0.00 PKD
ROOT
HETATM    1  C   UNL     1      -8.150   9.337  67.244  1.00  0.00    -0.113 C  
HETATM    2  C   UNL     1      -7.027   9.176  68.282  1.00  0.00    -0.076 C  
HETATM    3  N   UNL     1      -7.416   9.667  69.620  1.00  0.00    -0.088 NA 
HETATM    4  C   UNL     1      -6.579   7.706  68.346  1.00  0.00    -0.054 C  
HETATM    5  C   UNL     1      -5.825  10.022  67.818  1.00  0.00    -0.042 C  
HETATM    6  H   UNL     1      -7.556  10.677  69.598  1.00  0.00     0.000 HD 
ENDROOT
BRANCH   3   7
HETATM    7  C   UNL     1      -8.592   9.002  70.207  1.00  0.00    -0.178 C  
BRANCH   7   8
HETATM    8  C   UNL     1      -8.230   8.041  71.370  1.00  0.00    -0.112 C  
HETATM    9  H   UNL     1      -7.425   8.202  73.155  1.00  0.00     0.000 HD 
HETATM   10  O   UNL     1      -7.647   8.790  72.443  1.00  0.00    -0.335 OA 
BRANCH   8  11
HETATM   11  C   UNL     1      -9.468   7.296  71.842  1.00  0.00    -0.163 A  
HETATM   12  C   UNL     1      -9.392   5.924  72.144  1.00  0.00    -0.155 A  
HETATM   13  C   UNL     1     -10.545   5.223  72.506  1.00  0.00    -0.224 A  
HETATM   14  C   UNL     1     -11.782   5.855  72.577  1.00  0.00    -0.288 A  
HETATM   15  O   UNL     1     -10.506   3.889  72.788  1.00  0.00    -0.169 OA 
HETATM   16  H   UNL     1     -11.290   3.412  73.033  1.00  0.00     0.000 HD 
HETATM   17  C   UNL     1     -11.854   7.212  72.290  1.00  0.00    -0.239 A  
HETATM   18  O   UNL     1     -13.039   7.886  72.340  1.00  0.00    -0.519 OA 
HETATM   19  C   UNL     1     -10.719   7.933  71.933  1.00  0.00    -0.290 A  
HETATM   20  H   UNL     1     -13.089   8.814  72.144  1.00  0.00     0.000 HD 
ENDBRANCH   8  11
ENDBRANCH   7   8
ENDBRANCH   3   7
TORSDOF 3
ENDMDL
MODEL      306
REMARK 921   NORMALIZED FREE ENERGY PREDICTED BY IDOCK:   -2.44 KCAL/MOL
REMARK 922        TOTAL FREE ENERGY PREDICTED BY IDOCK:   -3.17 KCAL/MOL
REMARK 923 INTER-LIGAND FREE ENERGY PREDICTED BY IDOCK:   -2.89 KCAL/MOL
REMARK 924 INTRA-LIGAND FREE ENERGY PREDICTED BY IDOCK:   -0.27 KCAL/MOL
REMARK 927      BINDING AFFINITY PREDICTED BY RF-SCORE:    0.00 PKD
ROOT
HETATM    1  C   UNL     1      -8.851   4.741  72.767  1.00  0.00    -0.120 C  
HETATM    2  C   UNL     1      -9.046   3.332  72.184  1.00  0.00    -0.102 C  
HETATM    3  N   UNL     1      -9.429   3.356  70.758  1.00  0.00    -0.160 NA 
HETATM    4  C   UNL     1      -7.771   2.496  72.395  1.00  0.00    -0.053 C  
HETATM    5  C   UNL     1     -10.195   2.652  72.953  1.00  0.00    -0.230 C  
HETATM    6  H   UNL     1     -10.354   3.772  70.648  1.00  0.00     0.000 HD 
ENDROOT
BRANCH   3   7
HETATM    7  C   UNL     1      -8.463   4.021  69.867  1.00  0.00    -0.060 C  
BRANCH   7   8
HETATM    8  C   UNL     1      -9.119   5.074  68.935  1.00  0.00    -0.109 C  
HETATM    9  H   UNL     1      -8.747   6.924  68.388  1.00  0.00     0.000 HD 
HETATM   10  O   UNL     1      -8.345   6.279  68.958  1.00  0.00    -0.115 OA 
BRANCH   8  11
HETATM   11  C   UNL     1      -9.229   4.529  67.520  1.00  0.00    -0.156 A  
HETATM   12  C   UNL     1      -8.139   3.859  66.936  1.00  0.00    -0.096 A  
HETATM   13  C   UNL     1      -8.214   3.425  65.610  1.00  0.00    -0.097 A  
HETATM   14  C   UNL     1      -9.354   3.639  64.844  1.00  0.00    -0.154 A  
HETATM   15  O   UNL     1      -7.167   2.788  65.012  1.00  0.00    -0.056 OA 
HETATM   16  H   UNL     1      -7.217   2.494  64.110  1.00  0.00     0.000 HD 
HETATM   17  C   UNL     1     -10.435   4.290  65.425  1.00  0.00    -0.168 A  
HETATM   18  O   UNL     1     -11.579   4.531  64.723  1.00  0.00    -0.988 OA 
HETATM   19  C   UNL     1     -10.387   4.727  66.745  1.00  0.00    -0.229 A  
HETATM   20  H   UNL     1     -12.319   4.976  65.120  1.00  0.00     0.000 HD 
ENDBRANCH   8  11
ENDBRANCH   7   8
ENDBRANCH   3   7
TORSDOF 3
ENDMDL
MODEL      307
REMARK 921   NORMALIZED FREE ENERGY PREDICTED BY IDOCK:   -2.44 KCAL/MOL
REMARK 922        TOTAL FREE ENERGY PREDICTED BY IDOCK:   -3.16 KCAL/MOL
REMARK 923 INTER-LIGAND FREE ENERGY PREDICTED BY IDOCK:   -2.72 KCAL/MOL
REMARK 924 INTRA-LIGAND FREE ENERGY PREDICTED BY IDOCK:   -0.44 KCAL/MOL
REMARK 927      BINDING AFFINITY PREDICTED BY RF-SCORE:    0.00 PKD
ROOT
HETATM    1  C   UNL     1      -7.857   5.558  71.340  1.00  0.00    -0.110 C  
HETATM    2  C   UNL     1      -7.464   4.516  70.278  1.00  0.00    -0.050 C  
HETATM    3  N   UNL     1      -8.050   4.808  68.954  1.00  0.00    -0.082 NA 
HETATM    4  C   UNL     1      -5.932   4.410  70.189  1.00  0.00    -0.018 C  
HETATM    5  C   UNL     1      -8.013   3.148  70.727  1.00  0.00    -0.054 C  
HETATM    6  H   UNL     1      -9.065   4.718  68.989  1.00  0.00     0.000 HD 
ENDROOT
BRANCH   3   7
HETATM    7  C   UNL     1      -7.674   6.113  68.383  1.00  0.00    -0.103 C  
BRANCH   7   8
HETATM    8  C   UNL     1      -8.819   6.774  67.571  1.00  0.00    -0.117 C  
HETATM    9  H   UNL     1     -10.470   6.179  66.688  1.00  0.00     0.000 HD 
HETATM   10  O   UNL     1      -9.769   5.774  67.186  1.00  0.00    -0.123 OA 
BRANCH   8  11
HETATM   11  C   UNL     1      -9.485   7.865  68.394  1.00  0.00    -0.150 A  
HETATM   12  C   UNL     1      -8.968   9.173  68.382  1.00  0.00    -0.133 A  
HETATM   13  C   UNL     1      -9.535  10.157  69.195  1.00  0.00    -0.206 A  
HETATM   14  C   UNL     1     -10.613   9.873  70.026  1.00  0.00    -0.335 A  
HETATM   15  O   UNL     1      -9.044  11.429  69.217  1.00  0.00    -0.389 OA 
HETATM   16  H   UNL     1      -9.429  12.098  69.771  1.00  0.00     0.000 HD 
HETATM   17  C   UNL     1     -11.132   8.585  70.029  1.00  0.00    -0.151 A  
HETATM   18  O   UNL     1     -12.186   8.246  70.825  1.00  0.00    -0.488 OA 
HETATM   19  C   UNL     1     -10.587   7.589  69.224  1.00  0.00    -0.215 A  
HETATM   20  H   UNL     1     -12.541   7.364  70.827  1.00  0.00     0.000 HD 
ENDBRANCH   8  11
ENDBRANCH   7   8
ENDBRANCH   3   7
TORSDOF 3
ENDMDL
MODEL      308
REMARK 921   NORMALIZED FREE ENERGY PREDICTED BY IDOCK:   -2.43 KCAL/MOL
REMARK 922        TOTAL FREE ENERGY PREDICTED BY IDOCK:   -3.15 KCAL/MOL
REMARK 923 INTER-LIGAND FREE ENERGY PREDICTED BY IDOCK:   -2.78 KCAL/MOL
REMARK 924 INTRA-LIGAND FREE ENERGY PREDICTED BY IDOCK:   -0.37 KCAL/MOL
REMARK 927      BINDING AFFINITY PREDICTED BY RF-SCORE:    0.00 PKD
ROOT
HETATM    1  C   UNL     1      -9.789   5.012  71.855  1.00  0.00    -0.236 C  
HETATM    2  C   UNL     1      -8.921   5.630  72.965  1.00  0.00    -0.122 C  
HETATM    3  N   UNL     1      -8.381   6.953  72.592  1.00  0.00    -0.110 NA 
HETATM    4  C   UNL     1      -9.725   5.715  74.274  1.00  0.00    -0.189 C  
HETATM    5  C   UNL     1      -7.718   4.697  73.203  1.00  0.00    -0.088 C  
HETATM    6  H   UNL     1      -7.722   6.860  71.819  1.00  0.00     0.000 HD 
ENDROOT
BRANCH   3   7
HETATM    7  C   UNL     1      -9.397   7.970  72.274  1.00  0.00    -0.197 C  
BRANCH   7   8
HETATM    8  C   UNL     1      -8.859   9.103  71.360  1.00  0.00    -0.045 C  
HETATM    9  H   UNL     1      -7.114   9.648  70.640  1.00  0.00     0.000 HD 
HETATM   10  O   UNL     1      -7.444   8.954  71.200  1.00  0.00    -0.095 OA 
BRANCH   8  11
HETATM   11  C   UNL     1      -9.562   9.071  70.013  1.00  0.00    -0.203 A  
HETATM   12  C   UNL     1      -9.524   7.905  69.226  1.00  0.00    -0.152 A  
HETATM   13  C   UNL     1     -10.106   7.899  67.956  1.00  0.00    -0.192 A  
HETATM   14  C   UNL     1     -10.731   9.031  67.443  1.00  0.00    -0.231 A  
HETATM   15  O   UNL     1     -10.070   6.790  67.164  1.00  0.00    -0.156 OA 
HETATM   16  H   UNL     1     -10.465   6.786  66.300  1.00  0.00     0.000 HD 
HETATM   17  C   UNL     1     -10.778  10.178  68.224  1.00  0.00    -0.238 A  
HETATM   18  O   UNL     1     -11.374  11.319  67.775  1.00  0.00    -0.265 OA 
HETATM   19  C   UNL     1     -10.210  10.207  69.495  1.00  0.00    -0.258 A  
HETATM   20  H   UNL     1     -11.407  12.104  68.309  1.00  0.00     0.000 HD 
ENDBRANCH   8  11
ENDBRANCH   7   8
ENDBRANCH   3   7
TORSDOF 3
ENDMDL
MODEL      309
REMARK 921   NORMALIZED FREE ENERGY PREDICTED BY IDOCK:   -2.42 KCAL/MOL
REMARK 922        TOTAL FREE ENERGY PREDICTED BY IDOCK:   -3.14 KCAL/MOL
REMARK 923 INTER-LIGAND FREE ENERGY PREDICTED BY IDOCK:   -2.86 KCAL/MOL
REMARK 924 INTRA-LIGAND FREE ENERGY PREDICTED BY IDOCK:   -0.27 KCAL/MOL
REMARK 927      BINDING AFFINITY PREDICTED BY RF-SCORE:    0.00 PKD
ROOT
HETATM    1  C   UNL     1      -7.515   9.440  70.463  1.00  0.00    -0.154 C  
HETATM    2  C   UNL     1      -6.039   9.632  70.074  1.00  0.00    -0.049 C  
HETATM    3  N   UNL     1      -5.755   9.198  68.691  1.00  0.00    -0.041 NA 
HETATM    4  C   UNL     1      -5.628  11.099  70.284  1.00  0.00    -0.115 C  
HETATM    5  C   UNL     1      -5.182   8.757  71.010  1.00  0.00    -0.028 C  
HETATM    6  H   UNL     1      -5.879   8.190  68.605  1.00  0.00     0.000 HD 
ENDROOT
BRANCH   3   7
HETATM    7  C   UNL     1      -6.530   9.897  67.651  1.00  0.00    -0.064 C  
BRANCH   7   8
HETATM    8  C   UNL     1      -7.467   8.951  66.853  1.00  0.00    -0.083 C  
HETATM    9  H   UNL     1      -8.421   7.268  67.192  1.00  0.00     0.000 HD 
HETATM   10  O   UNL     1      -7.848   7.847  67.681  1.00  0.00    -0.117 OA 
BRANCH   8  11
HETATM   11  C   UNL     1      -8.691   9.710  66.367  1.00  0.00    -0.148 A  
HETATM   12  C   UNL     1      -9.684  10.107  67.282  1.00  0.00    -0.203 A  
HETATM   13  C   UNL     1     -10.843  10.738  66.826  1.00  0.00    -0.194 A  
HETATM   14  C   UNL     1     -11.044  10.989  65.473  1.00  0.00     0.001 A  
HETATM   15  O   UNL     1     -11.830  11.118  67.688  1.00  0.00    -0.612 OA 
HETATM   16  H   UNL     1     -12.619  11.547  67.378  1.00  0.00     0.000 HD 
HETATM   17  C   UNL     1     -10.059  10.608  64.571  1.00  0.00    -0.353 A  
HETATM   18  O   UNL     1     -10.200  10.825  63.233  1.00  0.00    -0.491 OA 
HETATM   19  C   UNL     1      -8.892   9.983  65.002  1.00  0.00    -0.213 A  
HETATM   20  H   UNL     1      -9.527  10.565  62.615  1.00  0.00     0.000 HD 
ENDBRANCH   8  11
ENDBRANCH   7   8
ENDBRANCH   3   7
TORSDOF 3
ENDMDL
MODEL      310
REMARK 921   NORMALIZED FREE ENERGY PREDICTED BY IDOCK:   -2.39 KCAL/MOL
REMARK 922        TOTAL FREE ENERGY PREDICTED BY IDOCK:   -3.10 KCAL/MOL
REMARK 923 INTER-LIGAND FREE ENERGY PREDICTED BY IDOCK:   -2.78 KCAL/MOL
REMARK 924 INTRA-LIGAND FREE ENERGY PREDICTED BY IDOCK:   -0.32 KCAL/MOL
REMARK 927      BINDING AFFINITY PREDICTED BY RF-SCORE:    0.00 PKD
ROOT
HETATM    1  C   UNL     1      -5.494   8.545  73.285  1.00  0.00    -0.066 C  
HETATM    2  C   UNL     1      -6.821   7.784  73.445  1.00  0.00    -0.088 C  
HETATM    3  N   UNL     1      -7.624   7.777  72.205  1.00  0.00    -0.078 NA 
HETATM    4  C   UNL     1      -6.548   6.349  73.929  1.00  0.00    -0.070 C  
HETATM    5  C   UNL     1      -7.655   8.501  74.524  1.00  0.00    -0.230 C  
HETATM    6  H   UNL     1      -7.935   8.722  71.981  1.00  0.00     0.000 HD 
ENDROOT
BRANCH   3   7
HETATM    7  C   UNL     1      -6.959   7.170  71.039  1.00  0.00    -0.061 C  
BRANCH   7   8
HETATM    8  C   UNL     1      -6.804   8.152  69.848  1.00  0.00    -0.044 C  
HETATM    9  H   UNL     1      -6.007   8.103  68.053  1.00  0.00     0.000 HD 
HETATM   10  O   UNL     1      -6.102   7.502  68.782  1.00  0.00    -0.029 OA 
BRANCH   8  11
HETATM   11  C   UNL     1      -8.168   8.634  69.382  1.00  0.00    -0.113 A  
HETATM   12  C   UNL     1      -9.002   7.780  68.637  1.00  0.00    -0.133 A  
HETATM   13  C   UNL     1     -10.223   8.247  68.146  1.00  0.00    -0.210 A  
HETATM   14  C   UNL     1     -10.642   9.553  68.377  1.00  0.00    -0.261 A  
HETATM   15  O   UNL     1     -11.043   7.447  67.407  1.00  0.00    -0.544 OA 
HETATM   16  H   UNL     1     -11.873   7.765  67.072  1.00  0.00     0.000 HD 
HETATM   17  C   UNL     1      -9.824  10.393  69.123  1.00  0.00    -0.223 A  
HETATM   18  O   UNL     1     -10.181  11.684  69.380  1.00  0.00    -0.425 OA 
HETATM   19  C   UNL     1      -8.606   9.949  69.628  1.00  0.00    -0.207 A  
HETATM   20  H   UNL     1      -9.622  12.259  69.890  1.00  0.00     0.000 HD 
ENDBRANCH   8  11
ENDBRANCH   7   8
ENDBRANCH   3   7
TORSDOF 3
ENDMDL
MODEL      311
REMARK 921   NORMALIZED FREE ENERGY PREDICTED BY IDOCK:   -2.35 KCAL/MOL
REMARK 922        TOTAL FREE ENERGY PREDICTED BY IDOCK:   -3.05 KCAL/MOL
REMARK 923 INTER-LIGAND FREE ENERGY PREDICTED BY IDOCK:   -2.70 KCAL/MOL
REMARK 924 INTRA-LIGAND FREE ENERGY PREDICTED BY IDOCK:   -0.36 KCAL/MOL
REMARK 927      BINDING AFFINITY PREDICTED BY RF-SCORE:    0.00 PKD
ROOT
HETATM    1  C   UNL     1      -9.873   8.984  68.131  1.00  0.00    -0.191 C  
HETATM    2  C   UNL     1      -8.861   9.292  69.248  1.00  0.00    -0.146 C  
HETATM    3  N   UNL     1      -9.460   9.211  70.595  1.00  0.00    -0.240 NA 
HETATM    4  C   UNL     1      -7.648   8.353  69.129  1.00  0.00    -0.087 C  
HETATM    5  C   UNL     1      -8.366  10.738  69.056  1.00  0.00    -0.138 C  
HETATM    6  H   UNL     1     -10.157   9.946  70.716  1.00  0.00     0.000 HD 
ENDROOT
BRANCH   3   7
HETATM    7  C   UNL     1     -10.039   7.900  70.939  1.00  0.00    -0.190 C  
BRANCH   7   8
HETATM    8  C   UNL     1      -9.324   7.214  72.133  1.00  0.00    -0.132 C  
HETATM    9  H   UNL     1      -9.423   7.297  74.093  1.00  0.00     0.000 HD 
HETATM   10  O   UNL     1      -9.860   7.717  73.362  1.00  0.00    -0.290 OA 
BRANCH   8  11
HETATM   11  C   UNL     1      -9.489   5.706  72.049  1.00  0.00    -0.169 A  
HETATM   12  C   UNL     1      -9.539   4.935  73.225  1.00  0.00    -0.144 A  
HETATM   13  C   UNL     1      -9.615   3.542  73.147  1.00  0.00    -0.111 A  
HETATM   14  C   UNL     1      -9.645   2.889  71.919  1.00  0.00    -0.215 A  
HETATM   15  O   UNL     1      -9.648   2.769  74.269  1.00  0.00    -0.084 OA 
HETATM   16  H   UNL     1      -9.700   1.822  74.216  1.00  0.00     0.000 HD 
HETATM   17  C   UNL     1      -9.607   3.651  70.758  1.00  0.00    -0.179 A  
HETATM   18  O   UNL     1      -9.630   3.067  69.526  1.00  0.00    -0.136 OA 
HETATM   19  C   UNL     1      -9.536   5.040  70.811  1.00  0.00    -0.244 A  
HETATM   20  H   UNL     1      -9.604   3.588  68.731  1.00  0.00     0.000 HD 
ENDBRANCH   8  11
ENDBRANCH   7   8
ENDBRANCH   3   7
TORSDOF 3
ENDMDL
MODEL      312
REMARK 921   NORMALIZED FREE ENERGY PREDICTED BY IDOCK:   -2.33 KCAL/MOL
REMARK 922        TOTAL FREE ENERGY PREDICTED BY IDOCK:   -3.03 KCAL/MOL
REMARK 923 INTER-LIGAND FREE ENERGY PREDICTED BY IDOCK:   -2.60 KCAL/MOL
REMARK 924 INTRA-LIGAND FREE ENERGY PREDICTED BY IDOCK:   -0.44 KCAL/MOL
REMARK 927      BINDING AFFINITY PREDICTED BY RF-SCORE:    0.00 PKD
ROOT
HETATM    1  C   UNL     1      -8.629   1.589  71.839  1.00  0.00    -0.066 C  
HETATM    2  C   UNL     1      -7.549   2.554  71.324  1.00  0.00    -0.040 C  
HETATM    3  N   UNL     1      -7.789   2.984  69.931  1.00  0.00    -0.043 NA 
HETATM    4  C   UNL     1      -7.441   3.769  72.261  1.00  0.00    -0.061 C  
HETATM    5  C   UNL     1      -6.198   1.813  71.345  1.00  0.00    -0.018 C  
HETATM    6  H   UNL     1      -7.700   2.190  69.297  1.00  0.00     0.000 HD 
ENDROOT
BRANCH   3   7
HETATM    7  C   UNL     1      -9.072   3.672  69.707  1.00  0.00    -0.124 C  
BRANCH   7   8
HETATM    8  C   UNL     1      -8.900   5.147  69.254  1.00  0.00    -0.095 C  
HETATM    9  H   UNL     1      -9.648   6.306  67.855  1.00  0.00     0.000 HD 
HETATM   10  O   UNL     1      -9.753   5.404  68.133  1.00  0.00    -0.125 OA 
BRANCH   8  11
HETATM   11  C   UNL     1      -9.218   6.090  70.402  1.00  0.00    -0.167 A  
HETATM   12  C   UNL     1     -10.368   5.885  71.186  1.00  0.00    -0.276 A  
HETATM   13  C   UNL     1     -10.700   6.795  72.193  1.00  0.00    -0.220 A  
HETATM   14  C   UNL     1      -9.911   7.912  72.445  1.00  0.00    -0.291 A  
HETATM   15  O   UNL     1     -11.818   6.631  72.957  1.00  0.00    -0.453 OA 
HETATM   16  H   UNL     1     -12.044   7.250  73.641  1.00  0.00     0.000 HD 
HETATM   17  C   UNL     1      -8.769   8.108  71.679  1.00  0.00    -0.145 A  
HETATM   18  O   UNL     1      -7.958   9.186  71.878  1.00  0.00    -0.334 OA 
HETATM   19  C   UNL     1      -8.415   7.213  70.674  1.00  0.00    -0.138 A  
HETATM   20  H   UNL     1      -7.177   9.321  71.354  1.00  0.00     0.000 HD 
ENDBRANCH   8  11
ENDBRANCH   7   8
ENDBRANCH   3   7
TORSDOF 3
ENDMDL
MODEL      313
REMARK 921   NORMALIZED FREE ENERGY PREDICTED BY IDOCK:   -2.29 KCAL/MOL
REMARK 922        TOTAL FREE ENERGY PREDICTED BY IDOCK:   -2.99 KCAL/MOL
REMARK 923 INTER-LIGAND FREE ENERGY PREDICTED BY IDOCK:   -2.67 KCAL/MOL
REMARK 924 INTRA-LIGAND FREE ENERGY PREDICTED BY IDOCK:   -0.32 KCAL/MOL
REMARK 927      BINDING AFFINITY PREDICTED BY RF-SCORE:    0.00 PKD
ROOT
HETATM    1  C   UNL     1      -5.563   6.213  72.436  1.00  0.00    -0.036 C  
HETATM    2  C   UNL     1      -7.043   5.832  72.611  1.00  0.00    -0.085 C  
HETATM    3  N   UNL     1      -7.929   6.551  71.673  1.00  0.00    -0.104 NA 
HETATM    4  C   UNL     1      -7.213   4.310  72.468  1.00  0.00    -0.067 C  
HETATM    5  C   UNL     1      -7.471   6.229  74.037  1.00  0.00    -0.086 C  
HETATM    6  H   UNL     1      -7.929   7.549  71.884  1.00  0.00     0.000 HD 
ENDROOT
BRANCH   3   7
HETATM    7  C   UNL     1      -7.632   6.331  70.248  1.00  0.00    -0.096 C  
BRANCH   7   8
HETATM    8  C   UNL     1      -8.803   6.736  69.313  1.00  0.00    -0.137 C  
HETATM    9  H   UNL     1      -9.189   8.199  68.061  1.00  0.00     0.000 HD 
HETATM   10  O   UNL     1      -8.472   7.952  68.633  1.00  0.00    -0.127 OA 
BRANCH   8  11
HETATM   11  C   UNL     1      -9.093   5.622  68.320  1.00  0.00    -0.112 A  
HETATM   12  C   UNL     1      -8.289   4.467  68.301  1.00  0.00    -0.092 A  
HETATM   13  C   UNL     1      -8.508   3.478  67.339  1.00  0.00    -0.097 A  
HETATM   14  C   UNL     1      -9.515   3.606  66.389  1.00  0.00    -0.184 A  
HETATM   15  O   UNL     1      -7.734   2.356  67.286  1.00  0.00    -0.064 OA 
HETATM   16  H   UNL     1      -7.883   1.684  66.632  1.00  0.00     0.000 HD 
HETATM   17  C   UNL     1     -10.316   4.741  66.415  1.00  0.00    -0.273 A  
HETATM   18  O   UNL     1     -11.317   4.923  65.507  1.00  0.00    -0.906 OA 
HETATM   19  C   UNL     1     -10.121   5.737  67.366  1.00  0.00    -0.207 A  
HETATM   20  H   UNL     1     -11.866   5.699  65.525  1.00  0.00     0.000 HD 
ENDBRANCH   8  11
ENDBRANCH   7   8
ENDBRANCH   3   7
TORSDOF 3
ENDMDL
MODEL      314
REMARK 921   NORMALIZED FREE ENERGY PREDICTED BY IDOCK:   -2.27 KCAL/MOL
REMARK 922        TOTAL FREE ENERGY PREDICTED BY IDOCK:   -2.97 KCAL/MOL
REMARK 923 INTER-LIGAND FREE ENERGY PREDICTED BY IDOCK:   -2.70 KCAL/MOL
REMARK 924 INTRA-LIGAND FREE ENERGY PREDICTED BY IDOCK:   -0.26 KCAL/MOL
REMARK 927      BINDING AFFINITY PREDICTED BY RF-SCORE:    0.00 PKD
ROOT
HETATM    1  C   UNL     1      -9.683   9.070  65.981  1.00  0.00    -0.339 C  
HETATM    2  C   UNL     1      -8.434   8.233  66.305  1.00  0.00    -0.129 C  
HETATM    3  N   UNL     1      -7.582   8.862  67.335  1.00  0.00    -0.089 NA 
HETATM    4  C   UNL     1      -8.849   6.814  66.729  1.00  0.00    -0.127 C  
HETATM    5  C   UNL     1      -7.589   8.121  65.022  1.00  0.00    -0.096 C  
HETATM    6  H   UNL     1      -7.183   9.731  66.980  1.00  0.00     0.000 HD 
ENDROOT
BRANCH   3   7
HETATM    7  C   UNL     1      -8.245   9.098  68.629  1.00  0.00    -0.114 C  
BRANCH   7   8
HETATM    8  C   UNL     1      -7.261   9.084  69.829  1.00  0.00    -0.056 C  
HETATM    9  H   UNL     1      -5.984  10.336  70.642  1.00  0.00     0.000 HD 
HETATM   10  O   UNL     1      -6.587  10.345  69.908  1.00  0.00    -0.090 OA 
BRANCH   8  11
HETATM   11  C   UNL     1      -8.008   8.789  71.119  1.00  0.00    -0.170 A  
HETATM   12  C   UNL     1      -7.331   8.216  72.211  1.00  0.00    -0.122 A  
HETATM   13  C   UNL     1      -8.033   7.876  73.370  1.00  0.00    -0.169 A  
HETATM   14  C   UNL     1      -9.402   8.094  73.474  1.00  0.00    -0.210 A  
HETATM   15  O   UNL     1      -7.406   7.305  74.438  1.00  0.00    -0.108 OA 
HETATM   16  H   UNL     1      -7.883   7.073  75.226  1.00  0.00     0.000 HD 
HETATM   17  C   UNL     1     -10.069   8.670  72.400  1.00  0.00    -0.250 A  
HETATM   18  O   UNL     1     -11.412   8.904  72.442  1.00  0.00    -0.313 OA 
HETATM   19  C   UNL     1      -9.391   9.022  71.237  1.00  0.00    -0.324 A  
HETATM   20  H   UNL     1     -11.868   9.298  71.708  1.00  0.00     0.000 HD 
ENDBRANCH   8  11
ENDBRANCH   7   8
ENDBRANCH   3   7
TORSDOF 3
ENDMDL
MODEL      315
REMARK 921   NORMALIZED FREE ENERGY PREDICTED BY IDOCK:   -2.26 KCAL/MOL
REMARK 922        TOTAL FREE ENERGY PREDICTED BY IDOCK:   -2.95 KCAL/MOL
REMARK 923 INTER-LIGAND FREE ENERGY PREDICTED BY IDOCK:   -2.66 KCAL/MOL
REMARK 924 INTRA-LIGAND FREE ENERGY PREDICTED BY IDOCK:   -0.28 KCAL/MOL
REMARK 927      BINDING AFFINITY PREDICTED BY RF-SCORE:    0.00 PKD
ROOT
HETATM    1  C   UNL     1      -5.701   7.261  74.176  1.00  0.00    -0.058 C  
HETATM    2  C   UNL     1      -6.093   6.152  73.186  1.00  0.00    -0.054 C  
HETATM    3  N   UNL     1      -7.480   5.681  73.380  1.00  0.00    -0.094 NA 
HETATM    4  C   UNL     1      -5.875   6.637  71.742  1.00  0.00    -0.037 C  
HETATM    5  C   UNL     1      -5.165   4.946  73.429  1.00  0.00    -0.009 C  
HETATM    6  H   UNL     1      -7.571   5.216  74.283  1.00  0.00     0.000 HD 
ENDROOT
BRANCH   3   7
HETATM    7  C   UNL     1      -8.513   6.721  73.235  1.00  0.00    -0.118 C  
BRANCH   7   8
HETATM    8  C   UNL     1      -9.586   6.368  72.171  1.00  0.00    -0.149 C  
HETATM    9  H   UNL     1     -10.958   4.983  71.933  1.00  0.00     0.000 HD 
HETATM   10  O   UNL     1     -10.301   5.198  72.585  1.00  0.00    -0.185 OA 
BRANCH   8  11
HETATM   11  C   UNL     1     -10.534   7.539  71.972  1.00  0.00    -0.245 A  
HETATM   12  C   UNL     1     -10.060   8.747  71.428  1.00  0.00    -0.354 A  
HETATM   13  C   UNL     1     -10.913   9.847  71.315  1.00  0.00    -0.155 A  
HETATM   14  C   UNL     1     -12.239   9.777  71.729  1.00  0.00    -0.449 A  
HETATM   15  O   UNL     1     -10.477  11.035  70.808  1.00  0.00     0.535 OA 
HETATM   16  H   UNL     1     -11.057  11.783  70.731  1.00  0.00     0.000 HD 
HETATM   17  C   UNL     1     -12.711   8.581  72.256  1.00  0.00    -0.367 A  
HETATM   18  O   UNL     1     -14.000   8.453  72.681  1.00  0.00    -0.620 OA 
HETATM   19  C   UNL     1     -11.881   7.470  72.374  1.00  0.00    -0.305 A  
HETATM   20  H   UNL     1     -14.323   7.635  73.041  1.00  0.00     0.000 HD 
ENDBRANCH   8  11
ENDBRANCH   7   8
ENDBRANCH   3   7
TORSDOF 3
ENDMDL
MODEL      316
REMARK 921   NORMALIZED FREE ENERGY PREDICTED BY IDOCK:   -2.26 KCAL/MOL
REMARK 922        TOTAL FREE ENERGY PREDICTED BY IDOCK:   -2.95 KCAL/MOL
REMARK 923 INTER-LIGAND FREE ENERGY PREDICTED BY IDOCK:   -2.73 KCAL/MOL
REMARK 924 INTRA-LIGAND FREE ENERGY PREDICTED BY IDOCK:   -0.22 KCAL/MOL
REMARK 927      BINDING AFFINITY PREDICTED BY RF-SCORE:    0.00 PKD
ROOT
HETATM    1  C   UNL     1      -8.529   1.772  71.909  1.00  0.00    -0.066 C  
HETATM    2  C   UNL     1      -7.376   2.784  71.805  1.00  0.00    -0.040 C  
HETATM    3  N   UNL     1      -7.259   3.373  70.456  1.00  0.00    -0.037 NA 
HETATM    4  C   UNL     1      -7.543   3.881  72.870  1.00  0.00    -0.074 C  
HETATM    5  C   UNL     1      -6.059   2.037  72.091  1.00  0.00    -0.013 C  
HETATM    6  H   UNL     1      -6.990   2.658  69.780  1.00  0.00     0.000 HD 
ENDROOT
BRANCH   3   7
HETATM    7  C   UNL     1      -8.456   4.091  69.987  1.00  0.00    -0.064 C  
BRANCH   7   8
HETATM    8  C   UNL     1      -8.278   5.633  69.981  1.00  0.00    -0.110 C  
HETATM    9  H   UNL     1      -6.798   6.897  69.715  1.00  0.00     0.000 HD 
HETATM   10  O   UNL     1      -6.907   5.953  69.718  1.00  0.00    -0.059 OA 
BRANCH   8  11
HETATM   11  C   UNL     1      -9.189   6.264  68.941  1.00  0.00    -0.123 A  
HETATM   12  C   UNL     1      -9.790   5.464  67.951  1.00  0.00    -0.179 A  
HETATM   13  C   UNL     1     -10.566   6.055  66.951  1.00  0.00    -0.315 A  
HETATM   14  C   UNL     1     -10.765   7.430  66.909  1.00  0.00    -0.324 A  
HETATM   15  O   UNL     1     -11.147   5.307  65.969  1.00  0.00    -0.762 OA 
HETATM   16  H   UNL     1     -11.674   5.708  65.289  1.00  0.00     0.000 HD 
HETATM   17  C   UNL     1     -10.182   8.219  67.893  1.00  0.00    -0.220 A  
HETATM   18  O   UNL     1     -10.339   9.573  67.903  1.00  0.00    -0.199 OA 
HETATM   19  C   UNL     1      -9.408   7.653  68.903  1.00  0.00    -0.145 A  
HETATM   20  H   UNL     1      -9.940  10.112  68.576  1.00  0.00     0.000 HD 
ENDBRANCH   8  11
ENDBRANCH   7   8
ENDBRANCH   3   7
TORSDOF 3
ENDMDL
MODEL      317
REMARK 921   NORMALIZED FREE ENERGY PREDICTED BY IDOCK:   -2.24 KCAL/MOL
REMARK 922        TOTAL FREE ENERGY PREDICTED BY IDOCK:   -2.93 KCAL/MOL
REMARK 923 INTER-LIGAND FREE ENERGY PREDICTED BY IDOCK:   -2.72 KCAL/MOL
REMARK 924 INTRA-LIGAND FREE ENERGY PREDICTED BY IDOCK:   -0.21 KCAL/MOL
REMARK 927      BINDING AFFINITY PREDICTED BY RF-SCORE:    0.00 PKD
ROOT
HETATM    1  C   UNL     1      -8.538   1.773  71.901  1.00  0.00    -0.078 C  
HETATM    2  C   UNL     1      -7.400   2.805  71.824  1.00  0.00    -0.040 C  
HETATM    3  N   UNL     1      -7.259   3.394  70.477  1.00  0.00    -0.037 NA 
HETATM    4  C   UNL     1      -7.614   3.901  72.882  1.00  0.00    -0.074 C  
HETATM    5  C   UNL     1      -6.078   2.082  72.146  1.00  0.00    -0.013 C  
HETATM    6  H   UNL     1      -6.960   2.682  69.810  1.00  0.00     0.000 HD 
ENDROOT
BRANCH   3   7
HETATM    7  C   UNL     1      -8.456   4.090  69.975  1.00  0.00    -0.064 C  
BRANCH   7   8
HETATM    8  C   UNL     1      -8.315   5.635  69.996  1.00  0.00    -0.121 C  
HETATM    9  H   UNL     1      -6.850   6.936  69.848  1.00  0.00     0.000 HD 
HETATM   10  O   UNL     1      -6.937   5.990  69.835  1.00  0.00    -0.065 OA 
BRANCH   8  11
HETATM   11  C   UNL     1      -9.164   6.256  68.899  1.00  0.00    -0.123 A  
HETATM   12  C   UNL     1      -9.367   7.648  68.866  1.00  0.00    -0.145 A  
HETATM   13  C   UNL     1     -10.208   8.210  67.903  1.00  0.00    -0.218 A  
HETATM   14  C   UNL     1     -10.857   7.419  66.961  1.00  0.00    -0.307 A  
HETATM   15  O   UNL     1     -10.436   9.554  67.857  1.00  0.00    -0.214 OA 
HETATM   16  H   UNL     1     -11.008   9.936  67.202  1.00  0.00     0.000 HD 
HETATM   17  C   UNL     1     -10.648   6.046  66.986  1.00  0.00    -0.316 A  
HETATM   18  O   UNL     1     -11.259   5.219  66.091  1.00  0.00    -0.731 OA 
HETATM   19  C   UNL     1      -9.811   5.463  67.933  1.00  0.00    -0.179 A  
HETATM   20  H   UNL     1     -11.117   4.279  66.108  1.00  0.00     0.000 HD 
ENDBRANCH   8  11
ENDBRANCH   7   8
ENDBRANCH   3   7
TORSDOF 3
ENDMDL
MODEL      318
REMARK 921   NORMALIZED FREE ENERGY PREDICTED BY IDOCK:   -2.22 KCAL/MOL
REMARK 922        TOTAL FREE ENERGY PREDICTED BY IDOCK:   -2.90 KCAL/MOL
REMARK 923 INTER-LIGAND FREE ENERGY PREDICTED BY IDOCK:   -2.60 KCAL/MOL
REMARK 924 INTRA-LIGAND FREE ENERGY PREDICTED BY IDOCK:   -0.30 KCAL/MOL
REMARK 927      BINDING AFFINITY PREDICTED BY RF-SCORE:    0.00 PKD
ROOT
HETATM    1  C   UNL     1      -9.703   9.076  65.983  1.00  0.00    -0.339 C  
HETATM    2  C   UNL     1      -8.536   8.174  66.419  1.00  0.00    -0.130 C  
HETATM    3  N   UNL     1      -7.708   8.789  67.476  1.00  0.00    -0.100 NA 
HETATM    4  C   UNL     1      -9.072   6.804  66.870  1.00  0.00    -0.148 C  
HETATM    5  C   UNL     1      -7.624   7.951  65.197  1.00  0.00    -0.092 C  
HETATM    6  H   UNL     1      -7.229   9.614  67.114  1.00  0.00     0.000 HD 
ENDROOT
BRANCH   3   7
HETATM    7  C   UNL     1      -8.431   9.123  68.715  1.00  0.00    -0.130 C  
BRANCH   7   8
HETATM    8  C   UNL     1      -7.540   9.036  69.982  1.00  0.00    -0.072 C  
HETATM    9  H   UNL     1      -6.791  10.296  71.290  1.00  0.00     0.000 HD 
HETATM   10  O   UNL     1      -7.336  10.350  70.514  1.00  0.00    -0.240 OA 
BRANCH   8  11
HETATM   11  C   UNL     1      -8.184   8.128  71.017  1.00  0.00    -0.114 A  
HETATM   12  C   UNL     1      -9.376   8.519  71.654  1.00  0.00    -0.311 A  
HETATM   13  C   UNL     1      -9.928   7.720  72.658  1.00  0.00    -0.238 A  
HETATM   14  C   UNL     1      -9.322   6.531  73.049  1.00  0.00    -0.145 A  
HETATM   15  O   UNL     1     -11.073   8.083  73.305  1.00  0.00    -0.258 OA 
HETATM   16  H   UNL     1     -11.448   7.540  73.988  1.00  0.00     0.000 HD 
HETATM   17  C   UNL     1      -8.152   6.138  72.412  1.00  0.00    -0.105 A  
HETATM   18  O   UNL     1      -7.511   4.984  72.753  1.00  0.00    -0.090 OA 
HETATM   19  C   UNL     1      -7.586   6.915  71.405  1.00  0.00    -0.087 A  
HETATM   20  H   UNL     1      -6.711   4.715  72.317  1.00  0.00     0.000 HD 
ENDBRANCH   8  11
ENDBRANCH   7   8
ENDBRANCH   3   7
TORSDOF 3
ENDMDL
MODEL      319
REMARK 921   NORMALIZED FREE ENERGY PREDICTED BY IDOCK:   -2.20 KCAL/MOL
REMARK 922        TOTAL FREE ENERGY PREDICTED BY IDOCK:   -2.88 KCAL/MOL
REMARK 923 INTER-LIGAND FREE ENERGY PREDICTED BY IDOCK:   -3.29 KCAL/MOL
REMARK 924 INTRA-LIGAND FREE ENERGY PREDICTED BY IDOCK:    0.41 KCAL/MOL
REMARK 927      BINDING AFFINITY PREDICTED BY RF-SCORE:    0.00 PKD
ROOT
HETATM    1  C   UNL     1      -8.774   7.536  65.878  1.00  0.00    -0.170 C  
HETATM    2  C   UNL     1      -8.957   8.732  66.826  1.00  0.00    -0.135 C  
HETATM    3  N   UNL     1      -8.810   8.357  68.247  1.00  0.00    -0.139 NA 
HETATM    4  C   UNL     1      -7.975   9.855  66.451  1.00  0.00    -0.111 C  
HETATM    5  C   UNL     1     -10.390   9.271  66.644  1.00  0.00    -0.292 C  
HETATM    6  H   UNL     1      -9.567   7.733  68.528  1.00  0.00     0.000 HD 
ENDROOT
BRANCH   3   7
HETATM    7  C   UNL     1      -7.507   7.769  68.602  1.00  0.00    -0.100 C  
BRANCH   7   8
HETATM    8  C   UNL     1      -7.615   6.654  69.676  1.00  0.00    -0.098 C  
HETATM    9  H   UNL     1      -6.468   5.922  71.093  1.00  0.00     0.000 HD 
HETATM   10  O   UNL     1      -6.402   6.605  70.436  1.00  0.00    -0.040 OA 
BRANCH   8  11
HETATM   11  C   UNL     1      -8.810   6.908  70.580  1.00  0.00    -0.150 A  
HETATM   12  C   UNL     1      -8.621   7.089  71.963  1.00  0.00    -0.123 A  
HETATM   13  C   UNL     1      -9.725   7.248  72.805  1.00  0.00    -0.162 A  
HETATM   14  C   UNL     1     -11.022   7.234  72.304  1.00  0.00    -0.286 A  
HETATM   15  O   UNL     1      -9.574   7.408  74.150  1.00  0.00    -0.383 OA 
HETATM   16  H   UNL     1     -10.324   7.515  74.723  1.00  0.00     0.000 HD 
HETATM   17  C   UNL     1     -11.208   7.067  70.937  1.00  0.00    -0.282 A  
HETATM   18  O   UNL     1     -12.456   7.042  70.389  1.00  0.00    -0.622 OA 
HETATM   19  C   UNL     1     -10.124   6.912  70.078  1.00  0.00    -0.195 A  
HETATM   20  H   UNL     1     -12.583   6.928  69.454  1.00  0.00     0.000 HD 
ENDBRANCH   8  11
ENDBRANCH   7   8
ENDBRANCH   3   7
TORSDOF 3
ENDMDL
MODEL      320
REMARK 921   NORMALIZED FREE ENERGY PREDICTED BY IDOCK:   -2.20 KCAL/MOL
REMARK 922        TOTAL FREE ENERGY PREDICTED BY IDOCK:   -2.88 KCAL/MOL
REMARK 923 INTER-LIGAND FREE ENERGY PREDICTED BY IDOCK:   -2.55 KCAL/MOL
REMARK 924 INTRA-LIGAND FREE ENERGY PREDICTED BY IDOCK:   -0.33 KCAL/MOL
REMARK 927      BINDING AFFINITY PREDICTED BY RF-SCORE:    0.00 PKD
ROOT
HETATM    1  C   UNL     1      -5.486   8.533  73.302  1.00  0.00    -0.066 C  
HETATM    2  C   UNL     1      -6.767   7.695  73.450  1.00  0.00    -0.074 C  
HETATM    3  N   UNL     1      -7.567   7.657  72.210  1.00  0.00    -0.078 NA 
HETATM    4  C   UNL     1      -6.412   6.272  73.917  1.00  0.00    -0.070 C  
HETATM    5  C   UNL     1      -7.641   8.350  74.537  1.00  0.00    -0.275 C  
HETATM    6  H   UNL     1      -7.932   8.586  71.997  1.00  0.00     0.000 HD 
ENDROOT
BRANCH   3   7
HETATM    7  C   UNL     1      -6.869   7.104  71.037  1.00  0.00    -0.056 C  
BRANCH   7   8
HETATM    8  C   UNL     1      -6.771   8.108  69.858  1.00  0.00    -0.043 C  
HETATM    9  H   UNL     1      -5.961   8.132  68.069  1.00  0.00     0.000 HD 
HETATM   10  O   UNL     1      -6.021   7.518  68.790  1.00  0.00    -0.025 OA 
BRANCH   8  11
HETATM   11  C   UNL     1      -8.161   8.504  69.387  1.00  0.00    -0.112 A  
HETATM   12  C   UNL     1      -8.548   9.857  69.392  1.00  0.00    -0.180 A  
HETATM   13  C   UNL     1      -9.849  10.214  69.031  1.00  0.00    -0.205 A  
HETATM   14  C   UNL     1     -10.784   9.254  68.660  1.00  0.00    -0.180 A  
HETATM   15  O   UNL     1     -10.257  11.515  69.042  1.00  0.00    -0.338 OA 
HETATM   16  H   UNL     1     -11.142  11.758  68.797  1.00  0.00     0.000 HD 
HETATM   17  C   UNL     1     -10.399   7.919  68.644  1.00  0.00    -0.201 A  
HETATM   18  O   UNL     1     -11.272   6.933  68.293  1.00  0.00    -0.503 OA 
HETATM   19  C   UNL     1      -9.106   7.539  68.995  1.00  0.00    -0.140 A  
HETATM   20  H   UNL     1     -11.008   6.019  68.282  1.00  0.00     0.000 HD 
ENDBRANCH   8  11
ENDBRANCH   7   8
ENDBRANCH   3   7
TORSDOF 3
ENDMDL
MODEL      321
REMARK 921   NORMALIZED FREE ENERGY PREDICTED BY IDOCK:   -2.17 KCAL/MOL
REMARK 922        TOTAL FREE ENERGY PREDICTED BY IDOCK:   -2.84 KCAL/MOL
REMARK 923 INTER-LIGAND FREE ENERGY PREDICTED BY IDOCK:   -2.88 KCAL/MOL
REMARK 924 INTRA-LIGAND FREE ENERGY PREDICTED BY IDOCK:    0.04 KCAL/MOL
REMARK 927      BINDING AFFINITY PREDICTED BY RF-SCORE:    0.00 PKD
ROOT
HETATM    1  C   UNL     1      -8.522   7.695  74.012  1.00  0.00    -0.285 C  
HETATM    2  C   UNL     1      -8.743   6.362  73.278  1.00  0.00    -0.124 C  
HETATM    3  N   UNL     1     -10.120   6.219  72.763  1.00  0.00    -0.177 NA 
HETATM    4  C   UNL     1      -7.715   6.211  72.144  1.00  0.00    -0.101 C  
HETATM    5  C   UNL     1      -8.513   5.219  74.286  1.00  0.00    -0.110 C  
HETATM    6  H   UNL     1     -10.781   6.160  73.537  1.00  0.00     0.000 HD 
ENDROOT
BRANCH   3   7
HETATM    7  C   UNL     1     -10.538   7.266  71.814  1.00  0.00    -0.205 C  
BRANCH   7   8
HETATM    8  C   UNL     1     -11.653   6.795  70.842  1.00  0.00    -0.353 C  
HETATM    9  H   UNL     1     -13.052   7.645  69.757  1.00  0.00     0.000 HD 
HETATM   10  O   UNL     1     -12.369   7.933  70.351  1.00  0.00     0.161 OA 
BRANCH   8  11
HETATM   11  C   UNL     1     -11.049   6.000  69.695  1.00  0.00    -0.474 A  
HETATM   12  C   UNL     1     -10.027   5.066  69.945  1.00  0.00    -0.322 A  
HETATM   13  C   UNL     1      -9.422   4.391  68.883  1.00  0.00    -0.165 A  
HETATM   14  C   UNL     1      -9.809   4.620  67.567  1.00  0.00    -0.200 A  
HETATM   15  O   UNL     1      -8.417   3.492  69.093  1.00  0.00    -0.063 OA 
HETATM   16  H   UNL     1      -8.005   3.034  68.371  1.00  0.00     0.000 HD 
HETATM   17  C   UNL     1     -10.826   5.534  67.321  1.00  0.00    -0.043 A  
HETATM   18  O   UNL     1     -11.247   5.802  66.052  1.00  0.00    -0.677 OA 
HETATM   19  C   UNL     1     -11.449   6.215  68.363  1.00  0.00     0.257 A  
HETATM   20  H   UNL     1     -11.943   6.427  65.884  1.00  0.00     0.000 HD 
ENDBRANCH   8  11
ENDBRANCH   7   8
ENDBRANCH   3   7
TORSDOF 3
ENDMDL
MODEL      322
REMARK 921   NORMALIZED FREE ENERGY PREDICTED BY IDOCK:   -2.16 KCAL/MOL
REMARK 922        TOTAL FREE ENERGY PREDICTED BY IDOCK:   -2.84 KCAL/MOL
REMARK 923 INTER-LIGAND FREE ENERGY PREDICTED BY IDOCK:   -2.38 KCAL/MOL
REMARK 924 INTRA-LIGAND FREE ENERGY PREDICTED BY IDOCK:   -0.45 KCAL/MOL
REMARK 927      BINDING AFFINITY PREDICTED BY RF-SCORE:    0.00 PKD
ROOT
HETATM    1  C   UNL     1      -9.561   4.044  70.573  1.00  0.00    -0.261 C  
HETATM    2  C   UNL     1      -9.447   5.016  71.760  1.00  0.00    -0.150 C  
HETATM    3  N   UNL     1      -8.355   5.995  71.588  1.00  0.00    -0.126 NA 
HETATM    4  C   UNL     1     -10.792   5.728  71.987  1.00  0.00    -0.306 C  
HETATM    5  C   UNL     1      -9.125   4.191  73.022  1.00  0.00    -0.123 C  
HETATM    6  H   UNL     1      -7.452   5.522  71.599  1.00  0.00     0.000 HD 
ENDROOT
BRANCH   3   7
HETATM    7  C   UNL     1      -8.469   6.847  70.391  1.00  0.00    -0.134 C  
BRANCH   7   8
HETATM    8  C   UNL     1      -7.299   6.649  69.391  1.00  0.00    -0.092 C  
HETATM    9  H   UNL     1      -5.737   5.467  69.238  1.00  0.00     0.000 HD 
HETATM   10  O   UNL     1      -6.454   5.587  69.850  1.00  0.00    -0.032 OA 
BRANCH   8  11
HETATM   11  C   UNL     1      -7.838   6.349  68.002  1.00  0.00    -0.105 A  
HETATM   12  C   UNL     1      -7.858   5.026  67.524  1.00  0.00    -0.095 A  
HETATM   13  C   UNL     1      -8.284   4.760  66.221  1.00  0.00    -0.107 A  
HETATM   14  C   UNL     1      -8.696   5.782  65.373  1.00  0.00    -0.122 A  
HETATM   15  O   UNL     1      -8.298   3.490  65.724  1.00  0.00    -0.103 OA 
HETATM   16  H   UNL     1      -8.587   3.308  64.838  1.00  0.00     0.000 HD 
HETATM   17  C   UNL     1      -8.687   7.087  65.849  1.00  0.00    -0.126 A  
HETATM   18  O   UNL     1      -9.077   8.131  65.063  1.00  0.00    -0.385 OA 
HETATM   19  C   UNL     1      -8.272   7.377  67.145  1.00  0.00    -0.118 A  
HETATM   20  H   UNL     1      -9.071   9.024  65.389  1.00  0.00     0.000 HD 
ENDBRANCH   8  11
ENDBRANCH   7   8
ENDBRANCH   3   7
TORSDOF 3
ENDMDL
MODEL      323
REMARK 921   NORMALIZED FREE ENERGY PREDICTED BY IDOCK:   -2.08 KCAL/MOL
REMARK 922        TOTAL FREE ENERGY PREDICTED BY IDOCK:   -2.74 KCAL/MOL
REMARK 923 INTER-LIGAND FREE ENERGY PREDICTED BY IDOCK:   -2.48 KCAL/MOL
REMARK 924 INTRA-LIGAND FREE ENERGY PREDICTED BY IDOCK:   -0.26 KCAL/MOL
REMARK 927      BINDING AFFINITY PREDICTED BY RF-SCORE:    0.00 PKD
ROOT
HETATM    1  C   UNL     1      -9.961   5.071  70.911  1.00  0.00    -0.286 C  
HETATM    2  C   UNL     1      -9.826   6.602  70.844  1.00  0.00    -0.183 C  
HETATM    3  N   UNL     1      -8.762   7.037  69.917  1.00  0.00    -0.141 NA 
HETATM    4  C   UNL     1     -11.177   7.231  70.464  1.00  0.00    -0.305 C  
HETATM    5  C   UNL     1      -9.442   7.108  72.248  1.00  0.00    -0.157 C  
HETATM    6  H   UNL     1      -7.849   6.748  70.267  1.00  0.00     0.000 HD 
ENDROOT
BRANCH   3   7
HETATM    7  C   UNL     1      -8.936   6.596  68.522  1.00  0.00    -0.120 C  
BRANCH   7   8
HETATM    8  C   UNL     1      -9.212   7.768  67.543  1.00  0.00    -0.132 C  
HETATM    9  H   UNL     1      -8.787   9.684  67.456  1.00  0.00     0.000 HD 
HETATM   10  O   UNL     1      -8.618   8.967  68.056  1.00  0.00    -0.128 OA 
BRANCH   8  11
HETATM   11  C   UNL     1      -8.664   7.441  66.164  1.00  0.00    -0.172 A  
HETATM   12  C   UNL     1      -8.566   8.449  65.187  1.00  0.00    -0.159 A  
HETATM   13  C   UNL     1      -8.133   8.133  63.897  1.00  0.00    -0.114 A  
HETATM   14  C   UNL     1      -7.791   6.831  63.549  1.00  0.00    -0.110 A  
HETATM   15  O   UNL     1      -8.044   9.085  62.925  1.00  0.00    -0.147 OA 
HETATM   16  H   UNL     1      -7.750   8.871  62.047  1.00  0.00     0.000 HD 
HETATM   17  C   UNL     1      -7.876   5.838  64.516  1.00  0.00    -0.113 A  
HETATM   18  O   UNL     1      -7.557   4.543  64.234  1.00  0.00    -0.069 OA 
HETATM   19  C   UNL     1      -8.300   6.129  65.810  1.00  0.00    -0.143 A  
HETATM   20  H   UNL     1      -7.615   3.863  64.896  1.00  0.00     0.000 HD 
ENDBRANCH   8  11
ENDBRANCH   7   8
ENDBRANCH   3   7
TORSDOF 3
ENDMDL
MODEL      324
REMARK 921   NORMALIZED FREE ENERGY PREDICTED BY IDOCK:   -1.95 KCAL/MOL
REMARK 922        TOTAL FREE ENERGY PREDICTED BY IDOCK:   -2.58 KCAL/MOL
REMARK 923 INTER-LIGAND FREE ENERGY PREDICTED BY IDOCK:   -2.30 KCAL/MOL
REMARK 924 INTRA-LIGAND FREE ENERGY PREDICTED BY IDOCK:   -0.29 KCAL/MOL
REMARK 927      BINDING AFFINITY PREDICTED BY RF-SCORE:    0.00 PKD
ROOT
HETATM    1  C   UNL     1      -5.313   6.228  70.978  1.00  0.00    -0.018 C  
HETATM    2  C   UNL     1      -6.409   5.149  70.972  1.00  0.00    -0.023 C  
HETATM    3  N   UNL     1      -7.359   5.312  69.852  1.00  0.00    -0.063 NA 
HETATM    4  C   UNL     1      -5.769   3.751  70.948  1.00  0.00    -0.013 C  
HETATM    5  C   UNL     1      -7.217   5.283  72.277  1.00  0.00    -0.091 C  
HETATM    6  H   UNL     1      -7.894   6.173  69.966  1.00  0.00     0.000 HD 
ENDROOT
BRANCH   3   7
HETATM    7  C   UNL     1      -6.751   5.264  68.511  1.00  0.00    -0.054 C  
BRANCH   7   8
HETATM    8  C   UNL     1      -6.689   6.653  67.822  1.00  0.00    -0.071 C  
HETATM    9  H   UNL     1      -6.250   7.340  66.034  1.00  0.00     0.000 HD 
HETATM   10  O   UNL     1      -6.288   6.490  66.456  1.00  0.00    -0.039 OA 
BRANCH   8  11
HETATM   11  C   UNL     1      -8.039   7.346  67.910  1.00  0.00    -0.119 A  
HETATM   12  C   UNL     1      -9.169   6.769  67.301  1.00  0.00    -0.140 A  
HETATM   13  C   UNL     1     -10.393   7.441  67.317  1.00  0.00    -0.286 A  
HETATM   14  C   UNL     1     -10.526   8.683  67.930  1.00  0.00    -0.269 A  
HETATM   15  O   UNL     1     -11.500   6.914  66.721  1.00  0.00    -0.648 OA 
HETATM   16  H   UNL     1     -12.332   7.372  66.731  1.00  0.00     0.000 HD 
HETATM   17  C   UNL     1      -9.413   9.247  68.541  1.00  0.00    -0.146 A  
HETATM   18  O   UNL     1      -9.482  10.463  69.155  1.00  0.00    -0.193 OA 
HETATM   19  C   UNL     1      -8.184   8.594  68.542  1.00  0.00    -0.122 A  
HETATM   20  H   UNL     1      -8.721  10.849  69.573  1.00  0.00     0.000 HD 
ENDBRANCH   8  11
ENDBRANCH   7   8
ENDBRANCH   3   7
TORSDOF 3
ENDMDL
MODEL      325
REMARK 921   NORMALIZED FREE ENERGY PREDICTED BY IDOCK:   -1.87 KCAL/MOL
REMARK 922        TOTAL FREE ENERGY PREDICTED BY IDOCK:   -2.50 KCAL/MOL
REMARK 923 INTER-LIGAND FREE ENERGY PREDICTED BY IDOCK:   -2.36 KCAL/MOL
REMARK 924 INTRA-LIGAND FREE ENERGY PREDICTED BY IDOCK:   -0.14 KCAL/MOL
REMARK 927      BINDING AFFINITY PREDICTED BY RF-SCORE:    0.00 PKD
ROOT
HETATM    1  C   UNL     1      -8.517   6.506  67.123  1.00  0.00    -0.112 C  
HETATM    2  C   UNL     1      -7.459   6.750  68.213  1.00  0.00    -0.099 C  
HETATM    3  N   UNL     1      -7.809   6.107  69.496  1.00  0.00    -0.098 NA 
HETATM    4  C   UNL     1      -6.080   6.279  67.721  1.00  0.00    -0.020 C  
HETATM    5  C   UNL     1      -7.382   8.267  68.470  1.00  0.00    -0.093 C  
HETATM    6  H   UNL     1      -8.642   6.541  69.893  1.00  0.00     0.000 HD 
ENDROOT
BRANCH   3   7
HETATM    7  C   UNL     1      -7.977   4.646  69.432  1.00  0.00    -0.066 C  
BRANCH   7   8
HETATM    8  C   UNL     1      -8.103   3.986  70.831  1.00  0.00    -0.067 C  
HETATM    9  H   UNL     1      -6.871   3.339  72.218  1.00  0.00     0.000 HD 
HETATM   10  O   UNL     1      -6.795   3.743  71.362  1.00  0.00    -0.029 OA 
BRANCH   8  11
HETATM   11  C   UNL     1      -8.907   4.877  71.763  1.00  0.00    -0.141 A  
HETATM   12  C   UNL     1     -10.312   4.892  71.687  1.00  0.00    -0.241 A  
HETATM   13  C   UNL     1     -11.047   5.765  72.492  1.00  0.00    -0.279 A  
HETATM   14  C   UNL     1     -10.418   6.632  73.379  1.00  0.00    -0.313 A  
HETATM   15  O   UNL     1     -12.409   5.814  72.427  1.00  0.00    -0.395 OA 
HETATM   16  H   UNL     1     -12.909   6.408  72.974  1.00  0.00     0.000 HD 
HETATM   17  C   UNL     1      -9.031   6.609  73.463  1.00  0.00    -0.126 A  
HETATM   18  O   UNL     1      -8.358   7.437  74.312  1.00  0.00    -0.165 OA 
HETATM   19  C   UNL     1      -8.277   5.744  72.675  1.00  0.00    -0.112 A  
HETATM   20  H   UNL     1      -7.410   7.422  74.369  1.00  0.00     0.000 HD 
ENDBRANCH   8  11
ENDBRANCH   7   8
ENDBRANCH   3   7
TORSDOF 3
ENDMDL
MODEL      326
REMARK 921   NORMALIZED FREE ENERGY PREDICTED BY IDOCK:   -1.80 KCAL/MOL
REMARK 922        TOTAL FREE ENERGY PREDICTED BY IDOCK:   -2.40 KCAL/MOL
REMARK 923 INTER-LIGAND FREE ENERGY PREDICTED BY IDOCK:   -2.13 KCAL/MOL
REMARK 924 INTRA-LIGAND FREE ENERGY PREDICTED BY IDOCK:   -0.28 KCAL/MOL
REMARK 927      BINDING AFFINITY PREDICTED BY RF-SCORE:    0.00 PKD
ROOT
HETATM    1  C   UNL     1      -8.175   5.151  69.110  1.00  0.00    -0.084 C  
HETATM    2  C   UNL     1      -9.489   4.476  69.538  1.00  0.00    -0.174 C  
HETATM    3  N   UNL     1     -10.680   5.270  69.173  1.00  0.00    -0.110 NA 
HETATM    4  C   UNL     1      -9.571   3.060  68.942  1.00  0.00    -0.070 C  
HETATM    5  C   UNL     1      -9.481   4.348  71.074  1.00  0.00    -0.232 C  
HETATM    6  H   UNL     1     -10.696   6.144  69.699  1.00  0.00     0.000 HD 
ENDROOT
BRANCH   3   7
HETATM    7  C   UNL     1     -10.827   5.541  67.732  1.00  0.00     0.014 C  
BRANCH   7   8
HETATM    8  C   UNL     1     -10.864   7.056  67.398  1.00  0.00    -0.300 C  
HETATM    9  H   UNL     1     -10.954   8.738  68.409  1.00  0.00     0.000 HD 
HETATM   10  O   UNL     1     -10.932   7.810  68.614  1.00  0.00    -0.018 OA 
BRANCH   8  11
HETATM   11  C   UNL     1      -9.638   7.446  66.588  1.00  0.00    -0.251 A  
HETATM   12  C   UNL     1      -8.678   6.475  66.250  1.00  0.00    -0.148 A  
HETATM   13  C   UNL     1      -7.516   6.847  65.570  1.00  0.00    -0.086 A  
HETATM   14  C   UNL     1      -7.281   8.171  65.213  1.00  0.00    -0.068 A  
HETATM   15  O   UNL     1      -6.560   5.931  65.244  1.00  0.00    -0.041 OA 
HETATM   16  H   UNL     1      -5.769   6.184  64.782  1.00  0.00     0.000 HD 
HETATM   17  C   UNL     1      -8.235   9.128  65.537  1.00  0.00    -0.123 A  
HETATM   18  O   UNL     1      -8.059  10.441  65.216  1.00  0.00    -0.152 OA 
HETATM   19  C   UNL     1      -9.403   8.780  66.209  1.00  0.00    -0.283 A  
HETATM   20  H   UNL     1      -8.711  11.096  65.437  1.00  0.00     0.000 HD 
ENDBRANCH   8  11
ENDBRANCH   7   8
ENDBRANCH   3   7
TORSDOF 3
ENDMDL
MODEL      327
REMARK 921   NORMALIZED FREE ENERGY PREDICTED BY IDOCK:   -1.69 KCAL/MOL
REMARK 922        TOTAL FREE ENERGY PREDICTED BY IDOCK:   -2.28 KCAL/MOL
REMARK 923 INTER-LIGAND FREE ENERGY PREDICTED BY IDOCK:   -2.10 KCAL/MOL
REMARK 924 INTRA-LIGAND FREE ENERGY PREDICTED BY IDOCK:   -0.18 KCAL/MOL
REMARK 927      BINDING AFFINITY PREDICTED BY RF-SCORE:    0.00 PKD
ROOT
HETATM    1  C   UNL     1      -9.968   4.479  71.458  1.00  0.00    -0.259 C  
HETATM    2  C   UNL     1      -8.878   5.317  72.146  1.00  0.00    -0.130 C  
HETATM    3  N   UNL     1      -7.908   5.884  71.186  1.00  0.00    -0.109 NA 
HETATM    4  C   UNL     1      -9.525   6.427  72.992  1.00  0.00    -0.148 C  
HETATM    5  C   UNL     1      -8.092   4.391  73.094  1.00  0.00    -0.095 C  
HETATM    6  H   UNL     1      -7.371   5.137  70.746  1.00  0.00     0.000 HD 
ENDROOT
BRANCH   3   7
HETATM    7  C   UNL     1      -8.493   6.764  70.160  1.00  0.00    -0.139 C  
BRANCH   7   8
HETATM    8  C   UNL     1      -8.264   6.248  68.715  1.00  0.00    -0.120 C  
HETATM    9  H   UNL     1      -9.131   4.966  67.504  1.00  0.00     0.000 HD 
HETATM   10  O   UNL     1      -9.270   5.282  68.389  1.00  0.00    -0.109 OA 
BRANCH   8  11
HETATM   11  C   UNL     1      -8.290   7.407  67.732  1.00  0.00    -0.118 A  
HETATM   12  C   UNL     1      -9.220   8.450  67.896  1.00  0.00    -0.144 A  
HETATM   13  C   UNL     1      -9.294   9.476  66.951  1.00  0.00    -0.146 A  
HETATM   14  C   UNL     1      -8.460   9.495  65.839  1.00  0.00    -0.133 A  
HETATM   15  O   UNL     1     -10.197  10.491  67.075  1.00  0.00    -0.207 OA 
HETATM   16  H   UNL     1     -10.248  11.189  66.432  1.00  0.00     0.000 HD 
HETATM   17  C   UNL     1      -7.533   8.472  65.683  1.00  0.00    -0.085 A  
HETATM   18  O   UNL     1      -6.690   8.435  64.612  1.00  0.00    -0.067 OA 
HETATM   19  C   UNL     1      -7.437   7.441  66.614  1.00  0.00    -0.088 A  
HETATM   20  H   UNL     1      -6.056   7.735  64.506  1.00  0.00     0.000 HD 
ENDBRANCH   8  11
ENDBRANCH   7   8
ENDBRANCH   3   7
TORSDOF 3
ENDMDL
MODEL      328
REMARK 921   NORMALIZED FREE ENERGY PREDICTED BY IDOCK:   -1.47 KCAL/MOL
REMARK 922        TOTAL FREE ENERGY PREDICTED BY IDOCK:   -2.02 KCAL/MOL
REMARK 923 INTER-LIGAND FREE ENERGY PREDICTED BY IDOCK:   -1.73 KCAL/MOL
REMARK 924 INTRA-LIGAND FREE ENERGY PREDICTED BY IDOCK:   -0.29 KCAL/MOL
REMARK 927      BINDING AFFINITY PREDICTED BY RF-SCORE:    0.00 PKD
ROOT
HETATM    1  C   UNL     1     -10.257   4.875  71.672  1.00  0.00    -0.267 C  
HETATM    2  C   UNL     1      -9.327   5.008  72.889  1.00  0.00    -0.134 C  
HETATM    3  N   UNL     1      -8.180   5.903  72.632  1.00  0.00    -0.112 NA 
HETATM    4  C   UNL     1     -10.129   5.482  74.113  1.00  0.00    -0.255 C  
HETATM    5  C   UNL     1      -8.753   3.613  73.205  1.00  0.00    -0.090 C  
HETATM    6  H   UNL     1      -7.567   5.496  71.926  1.00  0.00     0.000 HD 
ENDROOT
BRANCH   3   7
HETATM    7  C   UNL     1      -8.541   7.282  72.260  1.00  0.00    -0.116 C  
BRANCH   7   8
HETATM    8  C   UNL     1      -7.314   8.148  71.873  1.00  0.00    -0.089 C  
HETATM    9  H   UNL     1      -5.369   8.067  72.139  1.00  0.00     0.000 HD 
HETATM   10  O   UNL     1      -6.120   7.537  72.376  1.00  0.00    -0.040 OA 
BRANCH   8  11
HETATM   11  C   UNL     1      -7.241   8.313  70.363  1.00  0.00    -0.044 A  
HETATM   12  C   UNL     1      -7.252   9.599  69.793  1.00  0.00    -0.094 A  
HETATM   13  C   UNL     1      -7.261   9.748  68.404  1.00  0.00    -0.077 A  
HETATM   14  C   UNL     1      -7.257   8.643  67.559  1.00  0.00    -0.081 A  
HETATM   15  O   UNL     1      -7.289  10.981  67.823  1.00  0.00    -0.089 OA 
HETATM   16  H   UNL     1      -7.295  11.083  66.878  1.00  0.00     0.000 HD 
HETATM   17  C   UNL     1      -7.234   7.374  68.122  1.00  0.00    -0.090 A  
HETATM   18  O   UNL     1      -7.231   6.253  67.346  1.00  0.00    -0.072 OA 
HETATM   19  C   UNL     1      -7.219   7.200  69.503  1.00  0.00    -0.080 A  
HETATM   20  H   UNL     1      -7.216   5.384  67.731  1.00  0.00     0.000 HD 
ENDBRANCH   8  11
ENDBRANCH   7   8
ENDBRANCH   3   7
TORSDOF 3
ENDMDL
MODEL      329
REMARK 921   NORMALIZED FREE ENERGY PREDICTED BY IDOCK:   -1.37 KCAL/MOL
REMARK 922        TOTAL FREE ENERGY PREDICTED BY IDOCK:   -1.91 KCAL/MOL
REMARK 923 INTER-LIGAND FREE ENERGY PREDICTED BY IDOCK:   -1.53 KCAL/MOL
REMARK 924 INTRA-LIGAND FREE ENERGY PREDICTED BY IDOCK:   -0.37 KCAL/MOL
REMARK 927      BINDING AFFINITY PREDICTED BY RF-SCORE:    0.00 PKD
ROOT
HETATM    1  C   UNL     1      -9.284   3.810  70.687  1.00  0.00    -0.201 C  
HETATM    2  C   UNL     1      -7.936   3.073  70.624  1.00  0.00    -0.046 C  
HETATM    3  N   UNL     1      -6.952   3.762  69.766  1.00  0.00    -0.041 NA 
HETATM    4  C   UNL     1      -7.380   2.873  72.045  1.00  0.00    -0.043 C  
HETATM    5  C   UNL     1      -8.182   1.682  70.008  1.00  0.00    -0.059 C  
HETATM    6  H   UNL     1      -7.260   3.747  68.793  1.00  0.00     0.000 HD 
ENDROOT
BRANCH   3   7
HETATM    7  C   UNL     1      -6.629   5.140  70.176  1.00  0.00    -0.039 C  
BRANCH   7   8
HETATM    8  C   UNL     1      -6.398   6.094  68.974  1.00  0.00    -0.041 C  
HETATM    9  H   UNL     1      -6.456   5.960  67.015  1.00  0.00     0.000 HD 
HETATM   10  O   UNL     1      -6.597   5.376  67.750  1.00  0.00    -0.050 OA 
BRANCH   8  11
HETATM   11  C   UNL     1      -7.338   7.286  69.060  1.00  0.00    -0.091 A  
HETATM   12  C   UNL     1      -8.657   7.112  69.518  1.00  0.00    -0.134 A  
HETATM   13  C   UNL     1      -9.542   8.193  69.527  1.00  0.00    -0.168 A  
HETATM   14  C   UNL     1      -9.148   9.453  69.090  1.00  0.00    -0.148 A  
HETATM   15  O   UNL     1     -10.831   8.051  69.949  1.00  0.00    -0.248 OA 
HETATM   16  H   UNL     1     -11.433   8.785  69.954  1.00  0.00     0.000 HD 
HETATM   17  C   UNL     1      -7.842   9.627  68.649  1.00  0.00    -0.081 A  
HETATM   18  O   UNL     1      -7.398  10.838  68.207  1.00  0.00    -0.081 OA 
HETATM   19  C   UNL     1      -6.940   8.567  68.636  1.00  0.00    -0.064 A  
HETATM   20  H   UNL     1      -6.505  10.957  67.905  1.00  0.00     0.000 HD 
ENDBRANCH   8  11
ENDBRANCH   7   8
ENDBRANCH   3   7
TORSDOF 3
ENDMDL
MODEL      330
REMARK 921   NORMALIZED FREE ENERGY PREDICTED BY IDOCK:   -1.37 KCAL/MOL
REMARK 922        TOTAL FREE ENERGY PREDICTED BY IDOCK:   -1.90 KCAL/MOL
REMARK 923 INTER-LIGAND FREE ENERGY PREDICTED BY IDOCK:   -2.49 KCAL/MOL
REMARK 924 INTRA-LIGAND FREE ENERGY PREDICTED BY IDOCK:    0.58 KCAL/MOL
REMARK 927      BINDING AFFINITY PREDICTED BY RF-SCORE:    0.00 PKD
ROOT
HETATM    1  C   UNL     1     -14.104  14.960  70.714  1.00  0.00     0.093 C  
HETATM    2  C   UNL     1     -13.320  13.995  71.619  1.00  0.00    -0.367 C  
HETATM    3  N   UNL     1     -11.985  13.667  71.078  1.00  0.00    -0.466 NA 
HETATM    4  C   UNL     1     -13.207  14.580  73.038  1.00  0.00    -0.575 C  
HETATM    5  C   UNL     1     -14.112  12.676  71.708  1.00  0.00     0.695 C  
HETATM    6  H   UNL     1     -12.077  13.136  70.212  1.00  0.00     0.000 HD 
ENDROOT
BRANCH   3   7
HETATM    7  C   UNL     1     -11.097  14.824  70.874  1.00  0.00    -0.010 C  
BRANCH   7   8
HETATM    8  C   UNL     1     -11.647  15.837  69.835  1.00  0.00    -0.351 C  
HETATM    9  H   UNL     1     -12.066  17.756  69.797  1.00  0.00     0.000 HD 
HETATM   10  O   UNL     1     -11.729  17.136  70.433  1.00  0.00     1.082 OA 
BRANCH   8  11
HETATM   11  C   UNL     1     -10.757  15.865  68.603  1.00  0.00    -0.274 A  
HETATM   12  C   UNL     1      -9.904  14.780  68.326  1.00  0.00    -0.222 A  
HETATM   13  C   UNL     1      -9.032  14.838  67.236  1.00  0.00    -0.198 A  
HETATM   14  C   UNL     1      -8.985  15.953  66.407  1.00  0.00    -0.361 A  
HETATM   15  O   UNL     1      -8.182  13.809  66.952  1.00  0.00    -0.389 OA 
HETATM   16  H   UNL     1      -7.589  13.848  66.212  1.00  0.00     0.000 HD 
HETATM   17  C   UNL     1      -9.836  17.019  66.674  1.00  0.00    -0.290 A  
HETATM   18  O   UNL     1      -9.833  18.140  65.898  1.00  0.00    -0.537 OA 
HETATM   19  C   UNL     1     -10.717  16.983  67.750  1.00  0.00    -0.318 A  
HETATM   20  H   UNL     1     -10.415  18.869  66.081  1.00  0.00     0.000 HD 
ENDBRANCH   8  11
ENDBRANCH   7   8
ENDBRANCH   3   7
TORSDOF 3
ENDMDL
MODEL      331
REMARK 921   NORMALIZED FREE ENERGY PREDICTED BY IDOCK:   -1.03 KCAL/MOL
REMARK 922        TOTAL FREE ENERGY PREDICTED BY IDOCK:   -1.50 KCAL/MOL
REMARK 923 INTER-LIGAND FREE ENERGY PREDICTED BY IDOCK:   -1.11 KCAL/MOL
REMARK 924 INTRA-LIGAND FREE ENERGY PREDICTED BY IDOCK:   -0.39 KCAL/MOL
REMARK 927      BINDING AFFINITY PREDICTED BY RF-SCORE:    0.00 PKD
ROOT
HETATM    1  C   UNL     1      -9.209   3.803  70.676  1.00  0.00    -0.201 C  
HETATM    2  C   UNL     1      -7.979   2.882  70.733  1.00  0.00    -0.046 C  
HETATM    3  N   UNL     1      -6.850   3.393  69.930  1.00  0.00    -0.034 NA 
HETATM    4  C   UNL     1      -7.556   2.661  72.195  1.00  0.00    -0.052 C  
HETATM    5  C   UNL     1      -8.378   1.517  70.140  1.00  0.00    -0.063 C  
HETATM    6  H   UNL     1      -7.090   3.385  68.938  1.00  0.00     0.000 HD 
ENDROOT
BRANCH   3   7
HETATM    7  C   UNL     1      -6.362   4.726  70.324  1.00  0.00    -0.026 C  
BRANCH   7   8
HETATM    8  C   UNL     1      -5.778   5.535  69.135  1.00  0.00    -0.012 C  
HETATM    9  H   UNL     1      -5.534   5.262  67.205  1.00  0.00     0.000 HD 
HETATM   10  O   UNL     1      -5.892   4.766  67.933  1.00  0.00    -0.020 OA 
BRANCH   8  11
HETATM   11  C   UNL     1      -6.502   6.865  68.997  1.00  0.00    -0.036 A  
HETATM   12  C   UNL     1      -5.776   8.070  69.025  1.00  0.00    -0.034 A  
HETATM   13  C   UNL     1      -6.448   9.293  68.974  1.00  0.00    -0.047 A  
HETATM   14  C   UNL     1      -7.835   9.352  68.892  1.00  0.00    -0.083 A  
HETATM   15  O   UNL     1      -5.772  10.477  69.016  1.00  0.00    -0.041 OA 
HETATM   16  H   UNL     1      -6.229  11.308  68.981  1.00  0.00     0.000 HD 
HETATM   17  C   UNL     1      -8.551   8.162  68.853  1.00  0.00    -0.130 A  
HETATM   18  O   UNL     1      -9.912   8.156  68.777  1.00  0.00    -0.179 OA 
HETATM   19  C   UNL     1      -7.904   6.931  68.898  1.00  0.00    -0.111 A  
HETATM   20  H   UNL     1     -10.403   7.342  68.750  1.00  0.00     0.000 HD 
ENDBRANCH   8  11
ENDBRANCH   7   8
ENDBRANCH   3   7
TORSDOF 3
ENDMDL
MODEL      332
REMARK 921   NORMALIZED FREE ENERGY PREDICTED BY IDOCK:   -0.65 KCAL/MOL
REMARK 922        TOTAL FREE ENERGY PREDICTED BY IDOCK:   -1.06 KCAL/MOL
REMARK 923 INTER-LIGAND FREE ENERGY PREDICTED BY IDOCK:   -1.92 KCAL/MOL
REMARK 924 INTRA-LIGAND FREE ENERGY PREDICTED BY IDOCK:    0.86 KCAL/MOL
REMARK 927      BINDING AFFINITY PREDICTED BY RF-SCORE:    0.00 PKD
ROOT
HETATM    1  C   UNL     1      -9.617   5.264  70.868  1.00  0.00    -0.233 C  
HETATM    2  C   UNL     1      -8.278   4.932  71.549  1.00  0.00    -0.113 C  
HETATM    3  N   UNL     1      -7.122   5.524  70.846  1.00  0.00    -0.067 NA 
HETATM    4  C   UNL     1      -8.313   5.379  73.021  1.00  0.00    -0.112 C  
HETATM    5  C   UNL     1      -8.094   3.402  71.519  1.00  0.00    -0.061 C  
HETATM    6  H   UNL     1      -7.014   5.101  69.925  1.00  0.00     0.000 HD 
ENDROOT
BRANCH   3   7
HETATM    7  C   UNL     1      -7.152   6.992  70.731  1.00  0.00    -0.067 C  
BRANCH   7   8
HETATM    8  C   UNL     1      -8.543   7.542  70.316  1.00  0.00    -0.144 C  
HETATM    9  H   UNL     1      -9.807   8.883  70.994  1.00  0.00     0.000 HD 
HETATM   10  O   UNL     1      -8.956   8.547  71.248  1.00  0.00    -0.156 OA 
BRANCH   8  11
HETATM   11  C   UNL     1      -8.487   8.103  68.905  1.00  0.00    -0.130 A  
HETATM   12  C   UNL     1      -8.313   7.239  67.808  1.00  0.00    -0.118 A  
HETATM   13  C   UNL     1      -8.186   7.762  66.519  1.00  0.00    -0.124 A  
HETATM   14  C   UNL     1      -8.230   9.132  66.288  1.00  0.00    -0.111 A  
HETATM   15  O   UNL     1      -8.000   6.950  65.439  1.00  0.00    -0.111 OA 
HETATM   16  H   UNL     1      -7.914   7.305  64.562  1.00  0.00     0.000 HD 
HETATM   17  C   UNL     1      -8.413   9.985  67.369  1.00  0.00    -0.121 A  
HETATM   18  O   UNL     1      -8.461  11.338  67.206  1.00  0.00    -0.137 OA 
HETATM   19  C   UNL     1      -8.547   9.488  68.662  1.00  0.00    -0.119 A  
HETATM   20  H   UNL     1      -8.586  11.922  67.945  1.00  0.00     0.000 HD 
ENDBRANCH   8  11
ENDBRANCH   7   8
ENDBRANCH   3   7
TORSDOF 3
ENDMDL
MODEL      333
REMARK 921   NORMALIZED FREE ENERGY PREDICTED BY IDOCK:   -0.23 KCAL/MOL
REMARK 922        TOTAL FREE ENERGY PREDICTED BY IDOCK:   -0.56 KCAL/MOL
REMARK 923 INTER-LIGAND FREE ENERGY PREDICTED BY IDOCK:   -2.26 KCAL/MOL
REMARK 924 INTRA-LIGAND FREE ENERGY PREDICTED BY IDOCK:    1.70 KCAL/MOL
REMARK 927      BINDING AFFINITY PREDICTED BY RF-SCORE:    0.00 PKD
ROOT
HETATM    1  C   UNL     1      -9.404   5.252  70.915  1.00  0.00    -0.197 C  
HETATM    2  C   UNL     1      -8.381   4.407  71.692  1.00  0.00    -0.101 C  
HETATM    3  N   UNL     1      -6.986   4.777  71.380  1.00  0.00    -0.045 NA 
HETATM    4  C   UNL     1      -8.652   4.512  73.203  1.00  0.00    -0.101 C  
HETATM    5  C   UNL     1      -8.565   2.935  71.275  1.00  0.00    -0.103 C  
HETATM    6  H   UNL     1      -6.770   4.553  70.409  1.00  0.00     0.000 HD 
ENDROOT
BRANCH   3   7
HETATM    7  C   UNL     1      -6.637   6.179  71.668  1.00  0.00    -0.055 C  
BRANCH   7   8
HETATM    8  C   UNL     1      -7.874   7.061  71.984  1.00  0.00    -0.093 C  
HETATM    9  H   UNL     1      -8.432   8.272  73.427  1.00  0.00     0.000 HD 
HETATM   10  O   UNL     1      -7.674   7.732  73.233  1.00  0.00    -0.105 OA 
BRANCH   8  11
HETATM   11  C   UNL     1      -8.108   8.062  70.864  1.00  0.00    -0.102 A  
HETATM   12  C   UNL     1      -9.140   9.012  70.971  1.00  0.00    -0.322 A  
HETATM   13  C   UNL     1      -9.402   9.883  69.911  1.00  0.00    -0.216 A  
HETATM   14  C   UNL     1      -8.659   9.835  68.737  1.00  0.00    -0.127 A  
HETATM   15  O   UNL     1     -10.407  10.802  69.979  1.00  0.00    -0.439 OA 
HETATM   16  H   UNL     1     -10.586  11.394  69.258  1.00  0.00     0.000 HD 
HETATM   17  C   UNL     1      -7.632   8.904  68.635  1.00  0.00    -0.096 A  
HETATM   18  O   UNL     1      -6.870   8.808  67.508  1.00  0.00    -0.069 OA 
HETATM   19  C   UNL     1      -7.348   8.030  69.680  1.00  0.00    -0.085 A  
HETATM   20  H   UNL     1      -6.168   8.172  67.439  1.00  0.00     0.000 HD 
ENDBRANCH   8  11
ENDBRANCH   7   8
ENDBRANCH   3   7
TORSDOF 3
ENDMDL
MODEL      334
REMARK 921   NORMALIZED FREE ENERGY PREDICTED BY IDOCK:   20.46 KCAL/MOL
REMARK 922        TOTAL FREE ENERGY PREDICTED BY IDOCK:   23.76 KCAL/MOL
REMARK 923 INTER-LIGAND FREE ENERGY PREDICTED BY IDOCK:   24.08 KCAL/MOL
REMARK 924 INTRA-LIGAND FREE ENERGY PREDICTED BY IDOCK:   -0.32 KCAL/MOL
REMARK 927      BINDING AFFINITY PREDICTED BY RF-SCORE:    0.00 PKD
ROOT
HETATM    1  C   UNL     1     -13.100  18.591  65.514  1.00  0.00    13.995 C  
HETATM    2  C   UNL     1     -11.974  17.555  65.353  1.00  0.00     3.669 C  
HETATM    3  N   UNL     1     -10.781  17.884  66.160  1.00  0.00    -0.219 NA 
HETATM    4  C   UNL     1     -12.500  16.151  65.698  1.00  0.00     2.382 C  
HETATM    5  C   UNL     1     -11.537  17.552  63.875  1.00  0.00     4.786 C  
HETATM    6  H   UNL     1     -10.347  18.740  65.816  1.00  0.00     0.000 HD 
ENDROOT
BRANCH   3   7
HETATM    7  C   UNL     1     -11.022  17.982  67.610  1.00  0.00    -0.096 C  
BRANCH   7   8
HETATM    8  C   UNL     1     -10.468  19.293  68.230  1.00  0.00    -0.300 C  
HETATM    9  H   UNL     1     -10.782  20.344  69.860  1.00  0.00     0.000 HD 
HETATM   10  O   UNL     1     -11.121  19.541  69.481  1.00  0.00     1.568 OA 
BRANCH   8  11
HETATM   11  C   UNL     1      -8.963  19.192  68.417  1.00  0.00    -0.392 A  
HETATM   12  C   UNL     1      -8.117  20.173  67.867  1.00  0.00    -0.258 A  
HETATM   13  C   UNL     1      -6.731  20.041  67.974  1.00  0.00    -0.279 A  
HETATM   14  C   UNL     1      -6.157  18.951  68.621  1.00  0.00    -0.233 A  
HETATM   15  O   UNL     1      -5.886  20.966  67.436  1.00  0.00    -0.208 OA 
HETATM   16  H   UNL     1      -4.943  20.876  67.509  1.00  0.00     0.000 HD 
HETATM   17  C   UNL     1      -6.993  17.989  69.175  1.00  0.00    -0.207 A  
HETATM   18  O   UNL     1      -6.489  16.898  69.819  1.00  0.00    -0.224 OA 
HETATM   19  C   UNL     1      -8.377  18.102  69.085  1.00  0.00     0.094 A  
HETATM   20  H   UNL     1      -7.061  16.240  70.197  1.00  0.00     0.000 HD 
ENDBRANCH   8  11
ENDBRANCH   7   8
ENDBRANCH   3   7
TORSDOF 3
ENDMDL
