MODEL        1
REMARK 921   NORMALIZED FREE ENERGY PREDICTED BY IDOCK:   -7.39 KCAL/MOL
REMARK 922        TOTAL FREE ENERGY PREDICTED BY IDOCK:  -12.02 KCAL/MOL
REMARK 923 INTER-LIGAND FREE ENERGY PREDICTED BY IDOCK:  -10.85 KCAL/MOL
REMARK 924 INTRA-LIGAND FREE ENERGY PREDICTED BY IDOCK:   -1.17 KCAL/MOL
REMARK 927      BINDING AFFINITY PREDICTED BY RF-SCORE:    0.00 PKD
ROOT
HETATM    1  C   UNL     1     -10.147   6.681  74.176  1.00  0.00    -0.390 C  
HETATM    2  C   UNL     1     -10.709   6.062  72.880  1.00  0.00    -0.247 C  
HETATM    3  C   UNL     1     -11.274   4.684  73.260  1.00  0.00    -0.411 C  
ENDROOT
BRANCH   2   4
HETATM    4  N   UNL     1     -11.713   6.966  72.269  1.00  0.00    -0.275 NA 
HETATM    5  C   UNL     1     -11.281   8.389  72.287  1.00  0.00    -0.376 C  
HETATM    6  C   UNL     1     -10.160   8.741  71.285  1.00  0.00    -0.266 C  
HETATM    7  N   UNL     1     -10.585   8.378  69.923  1.00  0.00    -0.227 NA 
HETATM    8  C   UNL     1     -12.080   6.647  70.860  1.00  0.00    -0.320 C  
HETATM    9  C   UNL     1     -11.012   6.979  69.778  1.00  0.00    -0.250 C  
BRANCH   7  10
HETATM   10  C   UNL     1     -10.068   9.080  68.845  1.00  0.00    -0.196 A  
HETATM   11  C   UNL     1      -9.036  10.006  69.005  1.00  0.00    -0.172 A  
HETATM   12  C   UNL     1      -8.653  10.866  67.976  1.00  0.00    -0.131 A  
HETATM   13  C   UNL     1      -9.293  10.834  66.738  1.00  0.00    -0.161 A  
HETATM   14  C   UNL     1     -10.644   8.990  67.569  1.00  0.00    -0.306 A  
HETATM   15  C   UNL     1     -10.269   9.860  66.527  1.00  0.00    -0.292 A  
BRANCH  13  16
HETATM   16  O   UNL     1      -9.044  11.715  65.707  1.00  0.00    -0.201 OA 
BRANCH  16  17
HETATM   17  C   UNL     1     -10.205  12.054  64.940  1.00  0.00    -0.270 C  
BRANCH  17  18
HETATM   18  C   UNL     1     -10.885  13.345  65.381  1.00  0.00    -0.294 C  
HETATM   19  C   UNL     1     -12.143  13.124  66.180  1.00  0.00    -0.417 C  
HETATM   20  O   UNL     1     -12.172  14.223  67.090  1.00  0.00    -0.410 OA 
HETATM   21  C   UNL     1     -10.794  14.602  67.330  1.00  0.00    -0.305 C  
HETATM   22  O   UNL     1      -9.999  14.027  66.276  1.00  0.00    -0.288 OA 
BRANCH  21  23
HETATM   23  C   UNL     1     -10.638  16.123  67.269  1.00  0.00    -0.305 A  
HETATM   24  C   UNL     1     -10.330  16.837  68.448  1.00  0.00    -0.319 A  
HETATM   25  C   UNL     1     -10.769  16.875  66.082  1.00  0.00    -0.109 A  
HETATM   26  C   UNL     1     -10.108  18.216  68.436  1.00  0.00    -0.401 A  
HETATM   27  C   UNL     1     -10.528  18.256  66.067  1.00  0.00    -0.380 A  
HETATM   28 CL   UNL     1     -11.275  16.188  64.577  1.00  0.00    -0.409 Cl 
HETATM   29 CL   UNL     1      -9.870  20.607  67.215  1.00  0.00    -0.600 Cl 
HETATM   30  C   UNL     1     -10.188  18.917  67.240  1.00  0.00    -0.390 A  
ENDBRANCH  21  23
BRANCH  21  31
HETATM   31  C   UNL     1     -10.346  13.961  68.664  1.00  0.00    -0.237 C  
BRANCH  31  32
HETATM   32  N   UNL     1     -11.417  13.526  69.532  1.00  0.00    -0.272 NA 
HETATM   33  C   UNL     1     -11.784  12.248  69.826  1.00  0.00    -0.298 A  
HETATM   34  C   UNL     1     -12.781  13.580  71.097  1.00  0.00    -0.344 A  
HETATM   35  N   UNL     1     -12.656  12.252  70.804  1.00  0.00    -0.268 NA 
HETATM   36  N   UNL     1     -12.041  14.397  70.344  1.00  0.00    -0.309 NA 
ENDBRANCH  31  32
ENDBRANCH  21  31
ENDBRANCH  17  18
ENDBRANCH  16  17
ENDBRANCH  13  16
ENDBRANCH   7  10
ENDBRANCH   2   4
TORSDOF 8
ENDMDL
MODEL        2
REMARK 921   NORMALIZED FREE ENERGY PREDICTED BY IDOCK:   -7.35 KCAL/MOL
REMARK 922        TOTAL FREE ENERGY PREDICTED BY IDOCK:  -11.97 KCAL/MOL
REMARK 923 INTER-LIGAND FREE ENERGY PREDICTED BY IDOCK:  -10.59 KCAL/MOL
REMARK 924 INTRA-LIGAND FREE ENERGY PREDICTED BY IDOCK:   -1.38 KCAL/MOL
REMARK 927      BINDING AFFINITY PREDICTED BY RF-SCORE:    0.00 PKD
ROOT
HETATM    1  C   UNL     1      -8.463   4.105  74.387  1.00  0.00    -0.093 C  
HETATM    2  C   UNL     1      -9.492   4.427  73.285  1.00  0.00    -0.119 C  
HETATM    3  C   UNL     1      -9.943   3.079  72.698  1.00  0.00    -0.221 C  
ENDROOT
BRANCH   2   4
HETATM    4  N   UNL     1     -10.605   5.234  73.838  1.00  0.00    -0.280 NA 
HETATM    5  C   UNL     1     -10.157   6.575  74.303  1.00  0.00    -0.356 C  
HETATM    6  C   UNL     1      -9.817   7.573  73.176  1.00  0.00    -0.262 C  
HETATM    7  N   UNL     1     -10.981   7.730  72.288  1.00  0.00    -0.267 NA 
HETATM    8  C   UNL     1     -11.747   5.462  72.908  1.00  0.00    -0.162 C  
HETATM    9  C   UNL     1     -11.497   6.465  71.744  1.00  0.00    -0.300 C  
BRANCH   7  10
HETATM   10  C   UNL     1     -11.152   8.922  71.602  1.00  0.00    -0.350 A  
HETATM   11  C   UNL     1     -12.291   9.709  71.781  1.00  0.00    -0.474 A  
HETATM   12  C   UNL     1     -12.574  10.793  70.951  1.00  0.00    -0.498 A  
HETATM   13  C   UNL     1     -11.723  11.135  69.900  1.00  0.00    -0.355 A  
HETATM   14  C   UNL     1     -10.254   9.328  70.603  1.00  0.00    -0.335 A  
HETATM   15  C   UNL     1     -10.537  10.415  69.755  1.00  0.00    -0.302 A  
BRANCH  13  16
HETATM   16  O   UNL     1     -11.982  12.123  68.976  1.00  0.00    -0.297 OA 
BRANCH  16  17
HETATM   17  C   UNL     1     -11.149  12.063  67.812  1.00  0.00    -0.249 C  
BRANCH  17  18
HETATM   18  C   UNL     1     -10.535  13.402  67.418  1.00  0.00    -0.243 C  
HETATM   19  C   UNL     1     -11.405  14.218  66.498  1.00  0.00    -0.346 C  
HETATM   20  O   UNL     1     -11.120  15.569  66.861  1.00  0.00    -0.306 OA 
HETATM   21  C   UNL     1     -10.747  15.554  68.261  1.00  0.00    -0.271 C  
HETATM   22  O   UNL     1     -10.412  14.196  68.604  1.00  0.00    -0.240 OA 
BRANCH  21  23
HETATM   23  C   UNL     1      -9.509  16.424  68.495  1.00  0.00    -0.227 A  
HETATM   24  C   UNL     1      -8.339  15.837  69.026  1.00  0.00    -0.236 A  
HETATM   25  C   UNL     1      -9.454  17.802  68.195  1.00  0.00    -0.282 A  
HETATM   26  C   UNL     1      -7.161  16.570  69.194  1.00  0.00    -0.226 A  
HETATM   27  C   UNL     1      -8.267  18.531  68.346  1.00  0.00    -0.351 A  
HETATM   28 CL   UNL     1     -10.829  18.711  67.668  1.00  0.00    -0.421 Cl 
HETATM   29 CL   UNL     1      -5.663  18.801  68.996  1.00  0.00    -0.211 Cl 
HETATM   30  C   UNL     1      -7.125  17.909  68.833  1.00  0.00    -0.264 A  
ENDBRANCH  21  23
BRANCH  21  31
HETATM   31  C   UNL     1     -11.986  15.961  69.091  1.00  0.00    -0.255 C  
BRANCH  31  32
HETATM   32  N   UNL     1     -12.062  15.382  70.414  1.00  0.00    -0.345 NA 
HETATM   33  C   UNL     1     -11.381  15.762  71.530  1.00  0.00    -0.348 A  
HETATM   34  C   UNL     1     -12.875  14.390  72.046  1.00  0.00    -0.343 A  
HETATM   35  N   UNL     1     -11.866  15.140  72.577  1.00  0.00    -0.396 NA 
HETATM   36  N   UNL     1     -13.033  14.505  70.726  1.00  0.00    -0.359 NA 
ENDBRANCH  31  32
ENDBRANCH  21  31
ENDBRANCH  17  18
ENDBRANCH  16  17
ENDBRANCH  13  16
ENDBRANCH   7  10
ENDBRANCH   2   4
TORSDOF 8
ENDMDL
MODEL        3
REMARK 921   NORMALIZED FREE ENERGY PREDICTED BY IDOCK:   -7.34 KCAL/MOL
REMARK 922        TOTAL FREE ENERGY PREDICTED BY IDOCK:  -11.95 KCAL/MOL
REMARK 923 INTER-LIGAND FREE ENERGY PREDICTED BY IDOCK:  -11.30 KCAL/MOL
REMARK 924 INTRA-LIGAND FREE ENERGY PREDICTED BY IDOCK:   -0.65 KCAL/MOL
REMARK 927      BINDING AFFINITY PREDICTED BY RF-SCORE:    0.00 PKD
ROOT
HETATM    1  C   UNL     1     -11.634   4.982  73.227  1.00  0.00    -0.251 C  
HETATM    2  C   UNL     1     -11.035   6.170  72.447  1.00  0.00    -0.259 C  
HETATM    3  C   UNL     1      -9.586   5.785  72.106  1.00  0.00    -0.167 C  
ENDROOT
BRANCH   2   4
HETATM    4  N   UNL     1     -11.862   6.476  71.256  1.00  0.00    -0.337 NA 
HETATM    5  C   UNL     1     -13.109   7.209  71.605  1.00  0.00    -0.361 C  
HETATM    6  C   UNL     1     -12.904   8.686  72.007  1.00  0.00    -0.379 C  
HETATM    7  N   UNL     1     -12.207   9.399  70.924  1.00  0.00    -0.264 NA 
HETATM    8  C   UNL     1     -11.179   7.271  70.197  1.00  0.00    -0.239 C  
HETATM    9  C   UNL     1     -10.940   8.776  70.512  1.00  0.00    -0.239 C  
BRANCH   7  10
HETATM   10  C   UNL     1     -12.415  10.761  70.769  1.00  0.00    -0.387 A  
HETATM   11  C   UNL     1     -11.897  11.457  69.675  1.00  0.00    -0.431 A  
HETATM   12  C   UNL     1     -11.917  12.850  69.614  1.00  0.00    -0.358 A  
HETATM   13  C   UNL     1     -12.458  13.607  70.652  1.00  0.00    -0.347 A  
HETATM   14  C   UNL     1     -13.041  11.524  71.766  1.00  0.00    -0.503 A  
HETATM   15  C   UNL     1     -13.057  12.931  71.716  1.00  0.00    -0.458 A  
BRANCH  13  16
HETATM   16  O   UNL     1     -12.424  14.984  70.715  1.00  0.00    -0.304 OA 
BRANCH  16  17
HETATM   17  C   UNL     1     -12.155  15.616  69.459  1.00  0.00    -0.286 C  
BRANCH  17  18
HETATM   18  C   UNL     1     -10.766  16.236  69.361  1.00  0.00    -0.318 C  
HETATM   19  C   UNL     1      -9.652  15.275  69.686  1.00  0.00    -0.180 C  
HETATM   20  O   UNL     1      -8.575  15.698  68.850  1.00  0.00    -0.177 OA 
HETATM   21  C   UNL     1      -9.173  16.299  67.674  1.00  0.00    -0.206 C  
HETATM   22  O   UNL     1     -10.543  16.603  67.994  1.00  0.00    -0.311 OA 
BRANCH  21  23
HETATM   23  C   UNL     1      -8.463  17.609  67.322  1.00  0.00    -0.225 A  
HETATM   24  C   UNL     1      -7.167  17.854  67.828  1.00  0.00    -0.211 A  
HETATM   25  C   UNL     1      -9.025  18.604  66.494  1.00  0.00    -0.304 A  
HETATM   26  C   UNL     1      -6.448  19.000  67.482  1.00  0.00    -0.202 A  
HETATM   27  C   UNL     1      -8.295  19.745  66.132  1.00  0.00    -0.368 A  
HETATM   28 CL   UNL     1     -10.648  18.534  65.899  1.00  0.00    -0.439 Cl 
HETATM   29 CL   UNL     1      -6.106  21.320  66.154  1.00  0.00    -0.316 Cl 
HETATM   30  C   UNL     1      -7.008  19.931  66.618  1.00  0.00    -0.221 A  
ENDBRANCH  21  23
BRANCH  21  31
HETATM   31  C   UNL     1      -9.173  15.243  66.545  1.00  0.00    -0.290 C  
BRANCH  31  32
HETATM   32  N   UNL     1     -10.471  14.932  65.989  1.00  0.00    -0.301 NA 
HETATM   33  C   UNL     1     -11.027  15.422  64.846  1.00  0.00    -0.437 A  
HETATM   34  C   UNL     1     -12.182  13.834  65.571  1.00  0.00    -0.442 A  
HETATM   35  N   UNL     1     -12.119  14.754  64.564  1.00  0.00    -0.472 NA 
HETATM   36  N   UNL     1     -11.195  13.905  66.466  1.00  0.00    -0.315 NA 
ENDBRANCH  31  32
ENDBRANCH  21  31
ENDBRANCH  17  18
ENDBRANCH  16  17
ENDBRANCH  13  16
ENDBRANCH   7  10
ENDBRANCH   2   4
TORSDOF 8
ENDMDL
MODEL        4
REMARK 921   NORMALIZED FREE ENERGY PREDICTED BY IDOCK:   -7.24 KCAL/MOL
REMARK 922        TOTAL FREE ENERGY PREDICTED BY IDOCK:  -11.80 KCAL/MOL
REMARK 923 INTER-LIGAND FREE ENERGY PREDICTED BY IDOCK:  -10.89 KCAL/MOL
REMARK 924 INTRA-LIGAND FREE ENERGY PREDICTED BY IDOCK:   -0.90 KCAL/MOL
REMARK 927      BINDING AFFINITY PREDICTED BY RF-SCORE:    0.00 PKD
ROOT
HETATM    1  C   UNL     1     -10.201   6.455  74.478  1.00  0.00    -0.310 C  
HETATM    2  C   UNL     1     -10.614   5.925  73.090  1.00  0.00    -0.245 C  
HETATM    3  C   UNL     1     -11.218   4.529  73.315  1.00  0.00    -0.388 C  
ENDROOT
BRANCH   2   4
HETATM    4  N   UNL     1     -11.542   6.872  72.430  1.00  0.00    -0.262 NA 
HETATM    5  C   UNL     1     -10.984   8.250  72.349  1.00  0.00    -0.368 C  
HETATM    6  C   UNL     1      -9.852   8.433  71.316  1.00  0.00    -0.198 C  
HETATM    7  N   UNL     1     -10.328   8.022  69.985  1.00  0.00    -0.213 NA 
HETATM    8  C   UNL     1     -11.957   6.496  71.049  1.00  0.00    -0.297 C  
HETATM    9  C   UNL     1     -10.880   6.659  69.938  1.00  0.00    -0.278 C  
BRANCH   7  10
HETATM   10  C   UNL     1      -9.767   8.602  68.858  1.00  0.00    -0.170 A  
HETATM   11  C   UNL     1      -8.580   9.332  68.928  1.00  0.00    -0.130 A  
HETATM   12  C   UNL     1      -8.119  10.092  67.854  1.00  0.00    -0.109 A  
HETATM   13  C   UNL     1      -8.834  10.154  66.659  1.00  0.00    -0.132 A  
HETATM   14  C   UNL     1     -10.432   8.594  67.622  1.00  0.00    -0.311 A  
HETATM   15  C   UNL     1      -9.978   9.367  66.536  1.00  0.00    -0.339 A  
BRANCH  13  16
HETATM   16  O   UNL     1      -8.502  10.959  65.591  1.00  0.00    -0.175 OA 
BRANCH  16  17
HETATM   17  C   UNL     1      -9.477  11.966  65.297  1.00  0.00    -0.074 C  
BRANCH  17  18
HETATM   18  C   UNL     1      -9.680  12.980  66.417  1.00  0.00    -0.268 C  
HETATM   19  C   UNL     1      -9.634  14.412  65.951  1.00  0.00    -0.220 C  
HETATM   20  O   UNL     1     -10.545  15.087  66.818  1.00  0.00    -0.289 OA 
HETATM   21  C   UNL     1     -11.542  14.112  67.214  1.00  0.00    -0.373 C  
HETATM   22  O   UNL     1     -11.004  12.806  66.934  1.00  0.00    -0.250 OA 
BRANCH  21  23
HETATM   23  C   UNL     1     -11.812  14.204  68.718  1.00  0.00    -0.384 A  
HETATM   24  C   UNL     1     -11.808  15.468  69.349  1.00  0.00    -0.392 A  
HETATM   25  C   UNL     1     -12.088  13.084  69.532  1.00  0.00    -0.230 A  
HETATM   26  C   UNL     1     -12.117  15.614  70.703  1.00  0.00    -0.443 A  
HETATM   27  C   UNL     1     -12.417  13.234  70.886  1.00  0.00    -0.424 A  
HETATM   28 CL   UNL     1     -12.002  11.453  68.959  1.00  0.00    -0.401 Cl 
HETATM   29 CL   UNL     1     -12.866  14.681  73.118  1.00  0.00    -0.580 Cl 
HETATM   30  C   UNL     1     -12.441  14.498  71.461  1.00  0.00    -0.355 A  
ENDBRANCH  21  23
BRANCH  21  31
HETATM   31  C   UNL     1     -12.789  14.312  66.322  1.00  0.00     0.155 C  
BRANCH  31  32
HETATM   32  N   UNL     1     -12.729  13.680  65.024  1.00  0.00    -0.681 NA 
HETATM   33  C   UNL     1     -12.217  14.192  63.871  1.00  0.00    -0.247 A  
HETATM   34  C   UNL     1     -12.628  12.155  63.619  1.00  0.00    -0.504 A  
HETATM   35  N   UNL     1     -12.153  13.252  62.959  1.00  0.00    -0.292 NA 
HETATM   36  N   UNL     1     -12.993  12.369  64.885  1.00  0.00    -0.715 NA 
ENDBRANCH  31  32
ENDBRANCH  21  31
ENDBRANCH  17  18
ENDBRANCH  16  17
ENDBRANCH  13  16
ENDBRANCH   7  10
ENDBRANCH   2   4
TORSDOF 8
ENDMDL
MODEL        5
REMARK 921   NORMALIZED FREE ENERGY PREDICTED BY IDOCK:   -7.23 KCAL/MOL
REMARK 922        TOTAL FREE ENERGY PREDICTED BY IDOCK:  -11.79 KCAL/MOL
REMARK 923 INTER-LIGAND FREE ENERGY PREDICTED BY IDOCK:  -11.40 KCAL/MOL
REMARK 924 INTRA-LIGAND FREE ENERGY PREDICTED BY IDOCK:   -0.39 KCAL/MOL
REMARK 927      BINDING AFFINITY PREDICTED BY RF-SCORE:    0.00 PKD
ROOT
HETATM    1  C   UNL     1      -9.075   4.605  73.899  1.00  0.00    -0.111 C  
HETATM    2  C   UNL     1      -9.808   5.187  72.673  1.00  0.00    -0.161 C  
HETATM    3  C   UNL     1     -10.143   3.999  71.757  1.00  0.00    -0.199 C  
ENDROOT
BRANCH   2   4
HETATM    4  N   UNL     1     -10.998   5.960  73.101  1.00  0.00    -0.262 NA 
HETATM    5  C   UNL     1     -10.637   7.278  73.688  1.00  0.00    -0.307 C  
HETATM    6  C   UNL     1     -10.154   8.333  72.669  1.00  0.00    -0.295 C  
HETATM    7  N   UNL     1     -11.183   8.527  71.634  1.00  0.00    -0.271 NA 
HETATM    8  C   UNL     1     -11.999   6.227  72.030  1.00  0.00    -0.300 C  
HETATM    9  C   UNL     1     -11.601   7.287  70.963  1.00  0.00    -0.299 C  
BRANCH   7  10
HETATM   10  C   UNL     1     -11.271   9.750  70.989  1.00  0.00    -0.381 A  
HETATM   11  C   UNL     1     -12.273  10.670  71.304  1.00  0.00    -0.447 A  
HETATM   12  C   UNL     1     -12.500  11.805  70.527  1.00  0.00    -0.317 A  
HETATM   13  C   UNL     1     -11.730  12.066  69.394  1.00  0.00    -0.340 A  
HETATM   14  C   UNL     1     -10.441  10.067  69.904  1.00  0.00    -0.317 A  
HETATM   15  C   UNL     1     -10.670  11.206  69.108  1.00  0.00    -0.262 A  
BRANCH  13  16
HETATM   16  O   UNL     1     -11.957  13.105  68.518  1.00  0.00    -0.337 OA 
BRANCH  16  17
HETATM   17  C   UNL     1     -11.574  14.388  69.027  1.00  0.00    -0.296 C  
BRANCH  17  18
HETATM   18  C   UNL     1     -10.297  14.946  68.410  1.00  0.00    -0.233 C  
HETATM   19  C   UNL     1      -9.619  13.994  67.459  1.00  0.00    -0.228 C  
HETATM   20  O   UNL     1      -9.023  14.846  66.481  1.00  0.00    -0.268 OA 
HETATM   21  C   UNL     1      -9.846  16.038  66.412  1.00  0.00    -0.288 C  
HETATM   22  O   UNL     1     -10.654  16.075  67.603  1.00  0.00    -0.296 OA 
BRANCH  21  23
HETATM   23  C   UNL     1      -8.970  17.293  66.392  1.00  0.00    -0.282 A  
HETATM   24  C   UNL     1      -7.592  17.173  66.105  1.00  0.00    -0.304 A  
HETATM   25  C   UNL     1      -9.463  18.594  66.630  1.00  0.00    -0.319 A  
HETATM   26  C   UNL     1      -6.762  18.292  66.005  1.00  0.00    -0.301 A  
HETATM   27  C   UNL     1      -8.634  19.718  66.511  1.00  0.00    -0.396 A  
HETATM   28 CL   UNL     1     -11.089  18.913  67.127  1.00  0.00    -0.266 Cl 
HETATM   29 CL   UNL     1      -6.282  20.944  66.020  1.00  0.00    -0.287 Cl 
HETATM   30  C   UNL     1      -7.292  19.562  66.188  1.00  0.00    -0.281 A  
ENDBRANCH  21  23
BRANCH  21  31
HETATM   31  C   UNL     1     -10.795  15.895  65.200  1.00  0.00    -0.421 C  
BRANCH  31  32
HETATM   32  N   UNL     1     -11.387  14.588  65.028  1.00  0.00    -0.359 NA 
HETATM   33  C   UNL     1     -12.625  14.176  65.418  1.00  0.00    -0.466 A  
HETATM   34  C   UNL     1     -11.755  12.728  64.181  1.00  0.00    -0.401 A  
HETATM   35  N   UNL     1     -12.880  12.995  64.907  1.00  0.00    -0.747 NA 
HETATM   36  N   UNL     1     -10.814  13.674  64.226  1.00  0.00    -0.353 NA 
ENDBRANCH  31  32
ENDBRANCH  21  31
ENDBRANCH  17  18
ENDBRANCH  16  17
ENDBRANCH  13  16
ENDBRANCH   7  10
ENDBRANCH   2   4
TORSDOF 8
ENDMDL
MODEL        6
REMARK 921   NORMALIZED FREE ENERGY PREDICTED BY IDOCK:   -7.21 KCAL/MOL
REMARK 922        TOTAL FREE ENERGY PREDICTED BY IDOCK:  -11.76 KCAL/MOL
REMARK 923 INTER-LIGAND FREE ENERGY PREDICTED BY IDOCK:  -11.65 KCAL/MOL
REMARK 924 INTRA-LIGAND FREE ENERGY PREDICTED BY IDOCK:   -0.11 KCAL/MOL
REMARK 927      BINDING AFFINITY PREDICTED BY RF-SCORE:    0.00 PKD
ROOT
HETATM    1  C   UNL     1      -8.624   4.257  73.941  1.00  0.00    -0.098 C  
HETATM    2  C   UNL     1      -9.514   4.862  72.837  1.00  0.00    -0.134 C  
HETATM    3  C   UNL     1      -9.863   3.713  71.876  1.00  0.00    -0.241 C  
ENDROOT
BRANCH   2   4
HETATM    4  N   UNL     1     -10.702   5.518  73.432  1.00  0.00    -0.259 NA 
HETATM    5  C   UNL     1     -10.399   6.880  73.948  1.00  0.00    -0.365 C  
HETATM    6  C   UNL     1     -10.186   7.955  72.861  1.00  0.00    -0.330 C  
HETATM    7  N   UNL     1     -11.371   8.017  71.990  1.00  0.00    -0.281 NA 
HETATM    8  C   UNL     1     -11.873   5.655  72.521  1.00  0.00    -0.134 C  
HETATM    9  C   UNL     1     -11.751   6.725  71.398  1.00  0.00    -0.325 C  
BRANCH   7  10
HETATM   10  C   UNL     1     -11.681   9.210  71.355  1.00  0.00    -0.343 A  
HETATM   11  C   UNL     1     -10.957   9.656  70.248  1.00  0.00    -0.337 A  
HETATM   12  C   UNL     1     -11.119  10.942  69.734  1.00  0.00    -0.328 A  
HETATM   13  C   UNL     1     -12.017  11.839  70.311  1.00  0.00    -0.343 A  
HETATM   14  C   UNL     1     -12.649  10.084  71.872  1.00  0.00    -0.454 A  
HETATM   15  C   UNL     1     -12.812  11.387  71.365  1.00  0.00    -0.502 A  
BRANCH  13  16
HETATM   16  O   UNL     1     -12.161  13.155  69.929  1.00  0.00    -0.291 OA 
BRANCH  16  17
HETATM   17  C   UNL     1     -12.033  13.368  68.518  1.00  0.00    -0.328 C  
BRANCH  17  18
HETATM   18  C   UNL     1     -10.775  14.130  68.117  1.00  0.00    -0.245 C  
HETATM   19  C   UNL     1      -9.873  13.361  67.187  1.00  0.00    -0.237 C  
HETATM   20  O   UNL     1      -9.282  14.369  66.367  1.00  0.00    -0.267 OA 
HETATM   21  C   UNL     1     -10.238  15.455  66.289  1.00  0.00    -0.290 C  
HETATM   22  O   UNL     1     -11.178  15.281  67.365  1.00  0.00    -0.327 OA 
BRANCH  21  23
HETATM   23  C   UNL     1      -9.536  16.801  66.483  1.00  0.00    -0.287 A  
HETATM   24  C   UNL     1     -10.236  17.996  66.206  1.00  0.00    -0.381 A  
HETATM   25  C   UNL     1      -8.208  16.931  66.945  1.00  0.00    -0.213 A  
HETATM   26  C   UNL     1      -9.666  19.251  66.431  1.00  0.00    -0.435 A  
HETATM   27  C   UNL     1      -7.644  18.190  67.189  1.00  0.00    -0.225 A  
HETATM   28 CL   UNL     1      -7.160  15.579  67.204  1.00  0.00    -0.220 Cl 
HETATM   29 CL   UNL     1      -7.692  20.886  67.264  1.00  0.00    -0.351 Cl 
HETATM   30  C   UNL     1      -8.379  19.343  66.943  1.00  0.00    -0.287 A  
ENDBRANCH  21  23
BRANCH  21  31
HETATM   31  C   UNL     1     -11.012  15.318  64.958  1.00  0.00    -0.437 C  
BRANCH  31  32
HETATM   32  N   UNL     1     -11.626  14.030  64.728  1.00  0.00    -0.363 NA 
HETATM   33  C   UNL     1     -12.886  13.637  65.063  1.00  0.00    -0.272 A  
HETATM   34  C   UNL     1     -12.005  12.204  63.816  1.00  0.00    -0.513 A  
HETATM   35  N   UNL     1     -13.149  12.477  64.510  1.00  0.00    -0.839 NA 
HETATM   36  N   UNL     1     -11.046  13.126  63.920  1.00  0.00    -0.363 NA 
ENDBRANCH  31  32
ENDBRANCH  21  31
ENDBRANCH  17  18
ENDBRANCH  16  17
ENDBRANCH  13  16
ENDBRANCH   7  10
ENDBRANCH   2   4
TORSDOF 8
ENDMDL
MODEL        7
REMARK 921   NORMALIZED FREE ENERGY PREDICTED BY IDOCK:   -7.19 KCAL/MOL
REMARK 922        TOTAL FREE ENERGY PREDICTED BY IDOCK:  -11.73 KCAL/MOL
REMARK 923 INTER-LIGAND FREE ENERGY PREDICTED BY IDOCK:  -10.28 KCAL/MOL
REMARK 924 INTRA-LIGAND FREE ENERGY PREDICTED BY IDOCK:   -1.44 KCAL/MOL
REMARK 927      BINDING AFFINITY PREDICTED BY RF-SCORE:    0.00 PKD
ROOT
HETATM    1  C   UNL     1      -6.697  20.993  67.308  1.00  0.00    -0.430 C  
HETATM    2  C   UNL     1      -7.400  19.786  67.962  1.00  0.00    -0.289 C  
HETATM    3  C   UNL     1      -6.885  19.710  69.409  1.00  0.00    -0.377 C  
ENDROOT
BRANCH   2   4
HETATM    4  N   UNL     1      -8.872  19.931  67.865  1.00  0.00    -0.315 NA 
HETATM    5  C   UNL     1      -9.390  19.567  66.518  1.00  0.00    -0.370 C  
HETATM    6  C   UNL     1      -9.385  18.055  66.207  1.00  0.00    -0.206 C  
HETATM    7  N   UNL     1     -10.156  17.337  67.235  1.00  0.00    -0.291 NA 
HETATM    8  C   UNL     1      -9.654  19.136  68.854  1.00  0.00    -0.390 C  
HETATM    9  C   UNL     1      -9.713  17.601  68.612  1.00  0.00    -0.332 C  
BRANCH   7  10
HETATM   10  C   UNL     1     -10.776  16.143  66.902  1.00  0.00    -0.247 A  
HETATM   11  C   UNL     1     -11.370  15.335  67.874  1.00  0.00    -0.339 A  
HETATM   12  C   UNL     1     -11.809  14.043  67.588  1.00  0.00    -0.430 A  
HETATM   13  C   UNL     1     -11.668  13.503  66.310  1.00  0.00    -0.367 A  
HETATM   14  C   UNL     1     -10.724  15.628  65.598  1.00  0.00    -0.376 A  
HETATM   15  C   UNL     1     -11.155  14.320  65.304  1.00  0.00    -0.335 A  
BRANCH  13  16
HETATM   16  O   UNL     1     -11.981  12.203  65.973  1.00  0.00    -0.578 OA 
BRANCH  16  17
HETATM   17  C   UNL     1     -11.125  11.641  64.972  1.00  0.00    -0.249 C  
BRANCH  17  18
HETATM   18  C   UNL     1     -10.221  10.525  65.483  1.00  0.00    -0.256 C  
HETATM   19  C   UNL     1      -8.833  10.988  65.841  1.00  0.00    -0.195 C  
HETATM   20  O   UNL     1      -8.455  10.143  66.927  1.00  0.00    -0.125 OA 
HETATM   21  C   UNL     1      -9.678   9.772  67.610  1.00  0.00    -0.156 C  
HETATM   22  O   UNL     1     -10.772  10.040  66.713  1.00  0.00    -0.187 OA 
BRANCH  21  23
HETATM   23  C   UNL     1      -9.680   8.275  67.930  1.00  0.00    -0.192 A  
HETATM   24  C   UNL     1     -10.733   7.464  67.451  1.00  0.00    -0.348 A  
HETATM   25  C   UNL     1      -8.668   7.634  68.676  1.00  0.00    -0.128 A  
HETATM   26  C   UNL     1     -10.747   6.082  67.654  1.00  0.00    -0.377 A  
HETATM   27  C   UNL     1      -8.673   6.245  68.864  1.00  0.00    -0.125 A  
HETATM   28 CL   UNL     1      -7.379   8.489  69.453  1.00  0.00    -0.068 Cl 
HETATM   29 CL   UNL     1      -9.698   3.769  68.555  1.00  0.00    -0.160 Cl 
HETATM   30  C   UNL     1      -9.706   5.476  68.343  1.00  0.00    -0.130 A  
ENDBRANCH  21  23
BRANCH  21  31
HETATM   31  C   UNL     1      -9.838  10.693  68.841  1.00  0.00    -0.201 C  
BRANCH  31  32
HETATM   32  N   UNL     1     -10.914  10.343  69.741  1.00  0.00    -0.273 NA 
HETATM   33  C   UNL     1     -10.834   9.624  70.894  1.00  0.00    -0.339 A  
HETATM   34  C   UNL     1     -12.731  10.495  70.734  1.00  0.00    -0.381 A  
HETATM   35  N   UNL     1     -11.974   9.691  71.538  1.00  0.00    -0.384 NA 
HETATM   36  N   UNL     1     -12.124  10.918  69.623  1.00  0.00    -0.336 NA 
ENDBRANCH  31  32
ENDBRANCH  21  31
ENDBRANCH  17  18
ENDBRANCH  16  17
ENDBRANCH  13  16
ENDBRANCH   7  10
ENDBRANCH   2   4
TORSDOF 8
ENDMDL
MODEL        8
REMARK 921   NORMALIZED FREE ENERGY PREDICTED BY IDOCK:   -7.16 KCAL/MOL
REMARK 922        TOTAL FREE ENERGY PREDICTED BY IDOCK:  -11.68 KCAL/MOL
REMARK 923 INTER-LIGAND FREE ENERGY PREDICTED BY IDOCK:  -10.32 KCAL/MOL
REMARK 924 INTRA-LIGAND FREE ENERGY PREDICTED BY IDOCK:   -1.36 KCAL/MOL
REMARK 927      BINDING AFFINITY PREDICTED BY RF-SCORE:    0.00 PKD
ROOT
HETATM    1  C   UNL     1     -10.169   6.521  74.273  1.00  0.00    -0.373 C  
HETATM    2  C   UNL     1     -10.540   6.040  72.856  1.00  0.00    -0.235 C  
HETATM    3  C   UNL     1     -10.925   4.557  72.982  1.00  0.00    -0.308 C  
ENDROOT
BRANCH   2   4
HETATM    4  N   UNL     1     -11.617   6.885  72.288  1.00  0.00    -0.276 NA 
HETATM    5  C   UNL     1     -11.304   8.337  72.376  1.00  0.00    -0.388 C  
HETATM    6  C   UNL     1     -10.219   8.829  71.394  1.00  0.00    -0.280 C  
HETATM    7  N   UNL     1     -10.616   8.499  70.015  1.00  0.00    -0.225 NA 
HETATM    8  C   UNL     1     -11.959   6.606  70.865  1.00  0.00    -0.355 C  
HETATM    9  C   UNL     1     -10.925   7.077  69.802  1.00  0.00    -0.250 C  
BRANCH   7  10
HETATM   10  C   UNL     1     -10.162   9.293  68.973  1.00  0.00    -0.206 A  
HETATM   11  C   UNL     1      -9.523  10.511  69.210  1.00  0.00    -0.191 A  
HETATM   12  C   UNL     1      -9.252  11.412  68.181  1.00  0.00    -0.178 A  
HETATM   13  C   UNL     1      -9.614  11.128  66.864  1.00  0.00    -0.186 A  
HETATM   14  C   UNL     1     -10.439   8.974  67.636  1.00  0.00    -0.324 A  
HETATM   15  C   UNL     1     -10.177   9.882  66.592  1.00  0.00    -0.293 A  
BRANCH  13  16
HETATM   16  O   UNL     1      -9.475  12.005  65.810  1.00  0.00    -0.236 OA 
BRANCH  16  17
HETATM   17  C   UNL     1     -10.481  13.023  65.765  1.00  0.00    -0.280 C  
BRANCH  17  18
HETATM   18  C   UNL     1      -9.938  14.440  65.909  1.00  0.00    -0.328 C  
HETATM   19  C   UNL     1     -10.806  15.489  65.264  1.00  0.00    -0.411 C  
HETATM   20  O   UNL     1     -10.635  16.638  66.094  1.00  0.00    -0.293 OA 
HETATM   21  C   UNL     1     -10.345  16.148  67.427  1.00  0.00    -0.294 C  
HETATM   22  O   UNL     1      -9.939  14.772  67.303  1.00  0.00    -0.229 OA 
BRANCH  21  23
HETATM   23  C   UNL     1      -9.185  16.933  68.045  1.00  0.00    -0.235 A  
HETATM   24  C   UNL     1      -8.049  16.238  68.516  1.00  0.00    -0.193 A  
HETATM   25  C   UNL     1      -9.169  18.340  68.163  1.00  0.00    -0.301 A  
HETATM   26  C   UNL     1      -6.935  16.910  69.025  1.00  0.00    -0.224 A  
HETATM   27  C   UNL     1      -8.043  19.014  68.656  1.00  0.00    -0.397 A  
HETATM   28 CL   UNL     1     -10.524  19.339  67.765  1.00  0.00    -0.521 Cl 
HETATM   29 CL   UNL     1      -5.541  19.128  69.656  1.00  0.00    -0.225 Cl 
HETATM   30  C   UNL     1      -6.929  18.297  69.073  1.00  0.00    -0.255 A  
ENDBRANCH  21  23
BRANCH  21  31
HETATM   31  C   UNL     1     -11.655  16.183  68.247  1.00  0.00    -0.181 C  
BRANCH  31  32
HETATM   32  N   UNL     1     -11.660  15.371  69.442  1.00  0.00    -0.317 NA 
HETATM   33  C   UNL     1     -11.261  15.729  70.694  1.00  0.00    -0.372 A  
HETATM   34  C   UNL     1     -12.244  13.883  70.766  1.00  0.00    -0.369 A  
HETATM   35  N   UNL     1     -11.606  14.799  71.551  1.00  0.00    -0.297 NA 
HETATM   36  N   UNL     1     -12.301  14.190  69.469  1.00  0.00    -0.298 NA 
ENDBRANCH  31  32
ENDBRANCH  21  31
ENDBRANCH  17  18
ENDBRANCH  16  17
ENDBRANCH  13  16
ENDBRANCH   7  10
ENDBRANCH   2   4
TORSDOF 8
ENDMDL
MODEL        9
REMARK 921   NORMALIZED FREE ENERGY PREDICTED BY IDOCK:   -7.03 KCAL/MOL
REMARK 922        TOTAL FREE ENERGY PREDICTED BY IDOCK:  -11.49 KCAL/MOL
REMARK 923 INTER-LIGAND FREE ENERGY PREDICTED BY IDOCK:  -10.61 KCAL/MOL
REMARK 924 INTRA-LIGAND FREE ENERGY PREDICTED BY IDOCK:   -0.88 KCAL/MOL
REMARK 927      BINDING AFFINITY PREDICTED BY RF-SCORE:    0.00 PKD
ROOT
HETATM    1  C   UNL     1      -7.681  19.930  65.749  1.00  0.00    -0.275 C  
HETATM    2  C   UNL     1      -8.147  19.303  67.078  1.00  0.00    -0.263 C  
HETATM    3  C   UNL     1      -7.422  20.063  68.201  1.00  0.00    -0.301 C  
ENDROOT
BRANCH   2   4
HETATM    4  N   UNL     1      -9.624  19.357  67.185  1.00  0.00    -0.316 NA 
HETATM    5  C   UNL     1     -10.298  18.494  66.178  1.00  0.00    -0.426 C  
HETATM    6  C   UNL     1     -10.202  16.978  66.453  1.00  0.00    -0.326 C  
HETATM    7  N   UNL     1     -10.746  16.683  67.789  1.00  0.00    -0.340 NA 
HETATM    8  C   UNL     1     -10.179  18.978  68.515  1.00  0.00    -0.351 C  
HETATM    9  C   UNL     1     -10.133  17.464  68.874  1.00  0.00    -0.330 C  
BRANCH   7  10
HETATM   10  C   UNL     1     -11.298  15.436  68.033  1.00  0.00    -0.341 A  
HETATM   11  C   UNL     1     -11.563  14.998  69.332  1.00  0.00    -0.337 A  
HETATM   12  C   UNL     1     -11.918  13.678  69.605  1.00  0.00    -0.402 A  
HETATM   13  C   UNL     1     -12.021  12.735  68.583  1.00  0.00    -0.233 A  
HETATM   14  C   UNL     1     -11.494  14.507  67.001  1.00  0.00    -0.383 A  
HETATM   15  C   UNL     1     -11.843  13.169  67.269  1.00  0.00    -0.420 A  
BRANCH  13  16
HETATM   16  O   UNL     1     -12.265  11.393  68.779  1.00  0.00    -0.502 OA 
BRANCH  16  17
HETATM   17  C   UNL     1     -11.594  10.841  69.917  1.00  0.00    -0.331 C  
BRANCH  17  18
HETATM   18  C   UNL     1     -10.618   9.720  69.579  1.00  0.00    -0.233 C  
HETATM   19  C   UNL     1      -9.496   9.574  70.574  1.00  0.00    -0.246 C  
HETATM   20  O   UNL     1      -9.217   8.174  70.578  1.00  0.00    -0.151 OA 
HETATM   21  C   UNL     1     -10.457   7.502  70.243  1.00  0.00    -0.222 C  
HETATM   22  O   UNL     1     -11.331   8.479  69.648  1.00  0.00    -0.001 OA 
BRANCH  21  23
HETATM   23  C   UNL     1     -10.206   6.397  69.214  1.00  0.00    -0.229 A  
HETATM   24  C   UNL     1     -10.894   6.428  67.981  1.00  0.00    -0.396 A  
HETATM   25  C   UNL     1      -9.300   5.334  69.414  1.00  0.00    -0.126 A  
HETATM   26  C   UNL     1     -10.651   5.484  66.980  1.00  0.00    -0.332 A  
HETATM   27  C   UNL     1      -9.043   4.398  68.402  1.00  0.00    -0.165 A  
HETATM   28 CL   UNL     1      -8.475   5.062  70.911  1.00  0.00    -0.118 Cl 
HETATM   29 CL   UNL     1      -9.376   3.350  65.940  1.00  0.00    -0.159 Cl 
HETATM   30  C   UNL     1      -9.711   4.485  67.187  1.00  0.00    -0.197 A  
ENDBRANCH  21  23
BRANCH  21  31
HETATM   31  C   UNL     1     -11.112   7.020  71.558  1.00  0.00    -0.243 C  
BRANCH  31  32
HETATM   32  N   UNL     1     -12.372   7.646  71.888  1.00  0.00    -0.302 NA 
HETATM   33  C   UNL     1     -12.572   8.817  72.553  1.00  0.00    -0.306 A  
HETATM   34  C   UNL     1     -14.378   8.156  71.727  1.00  0.00    -0.484 A  
HETATM   35  N   UNL     1     -13.836   9.158  72.478  1.00  0.00    -0.467 NA 
HETATM   36  N   UNL     1     -13.521   7.208  71.342  1.00  0.00    -0.353 NA 
ENDBRANCH  31  32
ENDBRANCH  21  31
ENDBRANCH  17  18
ENDBRANCH  16  17
ENDBRANCH  13  16
ENDBRANCH   7  10
ENDBRANCH   2   4
TORSDOF 8
ENDMDL
MODEL       10
REMARK 921   NORMALIZED FREE ENERGY PREDICTED BY IDOCK:   -7.01 KCAL/MOL
REMARK 922        TOTAL FREE ENERGY PREDICTED BY IDOCK:  -11.46 KCAL/MOL
REMARK 923 INTER-LIGAND FREE ENERGY PREDICTED BY IDOCK:  -10.32 KCAL/MOL
REMARK 924 INTRA-LIGAND FREE ENERGY PREDICTED BY IDOCK:   -1.14 KCAL/MOL
REMARK 927      BINDING AFFINITY PREDICTED BY RF-SCORE:    0.00 PKD
ROOT
HETATM    1  C   UNL     1     -11.384   4.699  73.225  1.00  0.00    -0.393 C  
HETATM    2  C   UNL     1     -11.070   5.976  72.420  1.00  0.00    -0.277 C  
HETATM    3  C   UNL     1     -10.647   7.045  73.440  1.00  0.00    -0.399 C  
ENDROOT
BRANCH   2   4
HETATM    4  N   UNL     1     -10.039   5.698  71.392  1.00  0.00    -0.193 NA 
HETATM    5  C   UNL     1     -10.633   5.382  70.064  1.00  0.00    -0.284 C  
HETATM    6  C   UNL     1     -11.240   6.591  69.319  1.00  0.00    -0.328 C  
HETATM    7  N   UNL     1     -10.216   7.636  69.158  1.00  0.00    -0.199 NA 
HETATM    8  C   UNL     1      -9.053   6.792  71.171  1.00  0.00    -0.151 C  
HETATM    9  C   UNL     1      -9.575   8.049  70.416  1.00  0.00    -0.174 C  
BRANCH   7  10
HETATM   10  C   UNL     1     -10.302   8.507  68.084  1.00  0.00    -0.206 A  
HETATM   11  C   UNL     1      -9.695   8.218  66.861  1.00  0.00    -0.291 A  
HETATM   12  C   UNL     1      -9.595   9.170  65.847  1.00  0.00    -0.343 A  
HETATM   13  C   UNL     1     -10.101  10.458  66.017  1.00  0.00    -0.243 A  
HETATM   14  C   UNL     1     -10.892   9.773  68.213  1.00  0.00    -0.256 A  
HETATM   15  C   UNL     1     -10.787  10.743  67.198  1.00  0.00    -0.335 A  
BRANCH  13  16
HETATM   16  O   UNL     1      -9.952  11.482  65.108  1.00  0.00    -0.242 OA 
BRANCH  16  17
HETATM   17  C   UNL     1     -11.179  12.138  64.766  1.00  0.00    -0.323 C  
BRANCH  17  18
HETATM   18  C   UNL     1     -11.224  13.612  65.156  1.00  0.00    -0.310 C  
HETATM   19  C   UNL     1     -12.388  13.965  66.045  1.00  0.00    -0.475 C  
HETATM   20  O   UNL     1     -11.883  15.011  66.876  1.00  0.00    -0.259 OA 
HETATM   21  C   UNL     1     -10.457  14.789  67.003  1.00  0.00    -0.270 C  
HETATM   22  O   UNL     1     -10.063  13.895  65.945  1.00  0.00    -0.300 OA 
BRANCH  21  23
HETATM   23  C   UNL     1      -9.692  16.102  66.826  1.00  0.00    -0.255 A  
HETATM   24  C   UNL     1     -10.395  17.270  66.453  1.00  0.00    -0.316 A  
HETATM   25  C   UNL     1      -8.301  16.231  67.030  1.00  0.00    -0.205 A  
HETATM   26  C   UNL     1      -9.758  18.509  66.346  1.00  0.00    -0.347 A  
HETATM   27  C   UNL     1      -7.666  17.478  66.941  1.00  0.00    -0.248 A  
HETATM   28 CL   UNL     1      -7.264  14.885  67.356  1.00  0.00    -0.226 Cl 
HETATM   29 CL   UNL     1      -7.622  20.142  66.525  1.00  0.00    -0.312 Cl 
HETATM   30  C   UNL     1      -8.399  18.611  66.611  1.00  0.00    -0.287 A  
ENDBRANCH  21  23
BRANCH  21  31
HETATM   31  C   UNL     1     -10.201  14.071  68.348  1.00  0.00    -0.239 C  
BRANCH  31  32
HETATM   32  N   UNL     1     -10.976  14.559  69.467  1.00  0.00    -0.246 NA 
HETATM   33  C   UNL     1     -12.003  13.932  70.105  1.00  0.00    -0.332 A  
HETATM   34  C   UNL     1     -11.422  15.624  71.192  1.00  0.00    -0.411 A  
HETATM   35  N   UNL     1     -12.315  14.591  71.194  1.00  0.00    -0.323 NA 
HETATM   36  N   UNL     1     -10.583  15.645  70.154  1.00  0.00    -0.326 NA 
ENDBRANCH  31  32
ENDBRANCH  21  31
ENDBRANCH  17  18
ENDBRANCH  16  17
ENDBRANCH  13  16
ENDBRANCH   7  10
ENDBRANCH   2   4
TORSDOF 8
ENDMDL
MODEL       11
REMARK 921   NORMALIZED FREE ENERGY PREDICTED BY IDOCK:   -6.96 KCAL/MOL
REMARK 922        TOTAL FREE ENERGY PREDICTED BY IDOCK:  -11.39 KCAL/MOL
REMARK 923 INTER-LIGAND FREE ENERGY PREDICTED BY IDOCK:  -10.05 KCAL/MOL
REMARK 924 INTRA-LIGAND FREE ENERGY PREDICTED BY IDOCK:   -1.33 KCAL/MOL
REMARK 927      BINDING AFFINITY PREDICTED BY RF-SCORE:    0.00 PKD
ROOT
HETATM    1  C   UNL     1      -7.744  19.999  65.861  1.00  0.00    -0.298 C  
HETATM    2  C   UNL     1      -8.129  19.049  67.013  1.00  0.00    -0.265 C  
HETATM    3  C   UNL     1      -7.360  19.531  68.255  1.00  0.00    -0.346 C  
ENDROOT
BRANCH   2   4
HETATM    4  N   UNL     1      -9.599  19.029  67.198  1.00  0.00    -0.306 NA 
HETATM    5  C   UNL     1     -10.292  18.236  66.146  1.00  0.00    -0.398 C  
HETATM    6  C   UNL     1     -10.123  16.706  66.269  1.00  0.00    -0.328 C  
HETATM    7  N   UNL     1     -10.584  16.264  67.595  1.00  0.00    -0.306 NA 
HETATM    8  C   UNL     1     -10.067  18.501  68.510  1.00  0.00    -0.378 C  
HETATM    9  C   UNL     1      -9.944  16.964  68.718  1.00  0.00    -0.276 C  
BRANCH   7  10
HETATM   10  C   UNL     1     -11.074  14.976  67.744  1.00  0.00    -0.310 A  
HETATM   11  C   UNL     1     -11.124  14.356  68.994  1.00  0.00    -0.282 A  
HETATM   12  C   UNL     1     -11.414  12.999  69.131  1.00  0.00    -0.353 A  
HETATM   13  C   UNL     1     -11.665  12.202  68.015  1.00  0.00    -0.344 A  
HETATM   14  C   UNL     1     -11.419  14.190  66.635  1.00  0.00    -0.378 A  
HETATM   15  C   UNL     1     -11.703  12.817  66.763  1.00  0.00    -0.459 A  
BRANCH  13  16
HETATM   16  O   UNL     1     -11.857  10.838  68.056  1.00  0.00    -0.546 OA 
BRANCH  16  17
HETATM   17  C   UNL     1     -11.020  10.105  67.155  1.00  0.00    -0.134 C  
BRANCH  17  18
HETATM   18  C   UNL     1     -10.060   9.141  67.843  1.00  0.00    -0.199 C  
HETATM   19  C   UNL     1      -8.813   9.803  68.370  1.00  0.00    -0.120 C  
HETATM   20  O   UNL     1      -8.490   9.051  69.540  1.00  0.00    -0.117 OA 
HETATM   21  C   UNL     1      -9.740   8.534  70.060  1.00  0.00    -0.170 C  
HETATM   22  O   UNL     1     -10.716   8.622  69.006  1.00  0.00    -0.198 OA 
BRANCH  21  23
HETATM   23  C   UNL     1      -9.590   7.062  70.450  1.00  0.00    -0.169 A  
HETATM   24  C   UNL     1     -10.363   6.085  69.785  1.00  0.00    -0.290 A  
HETATM   25  C   UNL     1      -8.698   6.604  71.444  1.00  0.00    -0.129 A  
HETATM   26  C   UNL     1     -10.215   4.722  70.053  1.00  0.00    -0.251 A  
HETATM   27  C   UNL     1      -8.536   5.235  71.700  1.00  0.00    -0.135 A  
HETATM   28 CL   UNL     1      -7.776   7.667  72.451  1.00  0.00    -0.104 Cl 
HETATM   29 CL   UNL     1      -9.069   2.622  71.295  1.00  0.00    -0.163 Cl 
HETATM   30  C   UNL     1      -9.286   4.302  70.995  1.00  0.00    -0.152 A  
ENDBRANCH  21  23
BRANCH  21  31
HETATM   31  C   UNL     1     -10.200   9.461  71.209  1.00  0.00    -0.270 C  
BRANCH  31  32
HETATM   32  N   UNL     1     -11.620   9.458  71.477  1.00  0.00    -0.373 NA 
HETATM   33  C   UNL     1     -12.352   8.477  72.074  1.00  0.00    -0.365 A  
HETATM   34  C   UNL     1     -13.514  10.207  71.877  1.00  0.00    -0.327 A  
HETATM   35  N   UNL     1     -13.560   8.919  72.327  1.00  0.00    -0.441 NA 
HETATM   36  N   UNL     1     -12.347  10.581  71.348  1.00  0.00    -0.376 NA 
ENDBRANCH  31  32
ENDBRANCH  21  31
ENDBRANCH  17  18
ENDBRANCH  16  17
ENDBRANCH  13  16
ENDBRANCH   7  10
ENDBRANCH   2   4
TORSDOF 8
ENDMDL
MODEL       12
REMARK 921   NORMALIZED FREE ENERGY PREDICTED BY IDOCK:   -6.84 KCAL/MOL
REMARK 922        TOTAL FREE ENERGY PREDICTED BY IDOCK:  -11.22 KCAL/MOL
REMARK 923 INTER-LIGAND FREE ENERGY PREDICTED BY IDOCK:  -10.65 KCAL/MOL
REMARK 924 INTRA-LIGAND FREE ENERGY PREDICTED BY IDOCK:   -0.57 KCAL/MOL
REMARK 927      BINDING AFFINITY PREDICTED BY RF-SCORE:    0.00 PKD
ROOT
HETATM    1  C   UNL     1      -9.238   2.737  71.963  1.00  0.00    -0.157 C  
HETATM    2  C   UNL     1     -10.193   3.717  72.673  1.00  0.00    -0.167 C  
HETATM    3  C   UNL     1     -10.879   2.925  73.798  1.00  0.00    -0.305 C  
ENDROOT
BRANCH   2   4
HETATM    4  N   UNL     1      -9.450   4.906  73.154  1.00  0.00    -0.131 NA 
HETATM    5  C   UNL     1      -8.659   5.555  72.074  1.00  0.00    -0.131 C  
HETATM    6  C   UNL     1      -9.494   6.334  71.034  1.00  0.00    -0.175 C  
HETATM    7  N   UNL     1     -10.310   7.350  71.718  1.00  0.00    -0.192 NA 
HETATM    8  C   UNL     1     -10.289   5.972  73.771  1.00  0.00    -0.269 C  
HETATM    9  C   UNL     1     -11.158   6.816  72.795  1.00  0.00    -0.257 C  
BRANCH   7  10
HETATM   10  C   UNL     1     -10.668   8.501  71.034  1.00  0.00    -0.228 A  
HETATM   11  C   UNL     1     -11.557   9.428  71.582  1.00  0.00    -0.466 A  
HETATM   12  C   UNL     1     -12.086  10.474  70.828  1.00  0.00    -0.470 A  
HETATM   13  C   UNL     1     -11.745  10.636  69.485  1.00  0.00    -0.284 A  
HETATM   14  C   UNL     1     -10.258   8.725  69.711  1.00  0.00    -0.205 A  
HETATM   15  C   UNL     1     -10.795   9.773  68.940  1.00  0.00    -0.220 A  
BRANCH  13  16
HETATM   16  O   UNL     1     -12.300  11.579  68.647  1.00  0.00    -0.445 OA 
BRANCH  16  17
HETATM   17  C   UNL     1     -11.500  11.876  67.496  1.00  0.00    -0.326 C  
BRANCH  17  18
HETATM   18  C   UNL     1     -10.593  13.089  67.667  1.00  0.00    -0.224 C  
HETATM   19  C   UNL     1      -9.251  12.939  66.999  1.00  0.00    -0.226 C  
HETATM   20  O   UNL     1      -8.919  14.266  66.589  1.00  0.00    -0.245 OA 
HETATM   21  C   UNL     1     -10.172  14.954  66.352  1.00  0.00    -0.284 C  
HETATM   22  O   UNL     1     -11.210  14.198  67.003  1.00  0.00    -0.299 OA 
BRANCH  21  23
HETATM   23  C   UNL     1     -10.141  16.353  66.971  1.00  0.00    -0.272 A  
HETATM   24  C   UNL     1     -10.353  17.482  66.148  1.00  0.00    -0.330 A  
HETATM   25  C   UNL     1      -9.925  16.595  68.345  1.00  0.00    -0.255 A  
HETATM   26  C   UNL     1     -10.403  18.775  66.674  1.00  0.00    -0.472 A  
HETATM   27  C   UNL     1      -9.995  17.891  68.874  1.00  0.00    -0.337 A  
HETATM   28 CL   UNL     1      -9.515  15.348  69.473  1.00  0.00    -0.264 Cl 
HETATM   29 CL   UNL     1     -10.353  20.558  68.693  1.00  0.00    -0.148 Cl 
HETATM   30  C   UNL     1     -10.245  18.972  68.038  1.00  0.00    -0.399 A  
ENDBRANCH  21  23
BRANCH  21  31
HETATM   31  C   UNL     1     -10.451  14.929  64.831  1.00  0.00    -0.359 C  
BRANCH  31  32
HETATM   32  N   UNL     1     -11.064  13.718  64.334  1.00  0.00    -0.371 NA 
HETATM   33  C   UNL     1     -12.390  13.468  64.154  1.00  0.00    -0.328 A  
HETATM   34  C   UNL     1     -11.258  11.945  63.271  1.00  0.00    -0.294 A  
HETATM   35  N   UNL     1     -12.544  12.345  63.495  1.00  0.00    -0.748 NA 
HETATM   36  N   UNL     1     -10.318  12.753  63.766  1.00  0.00    -0.365 NA 
ENDBRANCH  31  32
ENDBRANCH  21  31
ENDBRANCH  17  18
ENDBRANCH  16  17
ENDBRANCH  13  16
ENDBRANCH   7  10
ENDBRANCH   2   4
TORSDOF 8
ENDMDL
MODEL       13
REMARK 921   NORMALIZED FREE ENERGY PREDICTED BY IDOCK:   -6.77 KCAL/MOL
REMARK 922        TOTAL FREE ENERGY PREDICTED BY IDOCK:  -11.11 KCAL/MOL
REMARK 923 INTER-LIGAND FREE ENERGY PREDICTED BY IDOCK:   -9.99 KCAL/MOL
REMARK 924 INTRA-LIGAND FREE ENERGY PREDICTED BY IDOCK:   -1.12 KCAL/MOL
REMARK 927      BINDING AFFINITY PREDICTED BY RF-SCORE:    0.00 PKD
ROOT
HETATM    1  C   UNL     1      -8.676   3.615  74.245  1.00  0.00    -0.088 C  
HETATM    2  C   UNL     1      -8.504   3.900  72.740  1.00  0.00    -0.099 C  
HETATM    3  C   UNL     1      -7.399   2.957  72.237  1.00  0.00    -0.050 C  
ENDROOT
BRANCH   2   4
HETATM    4  N   UNL     1      -9.795   3.730  72.031  1.00  0.00    -0.165 NA 
HETATM    5  C   UNL     1     -10.735   4.855  72.288  1.00  0.00    -0.150 C  
HETATM    6  C   UNL     1     -10.372   6.180  71.584  1.00  0.00    -0.216 C  
HETATM    7  N   UNL     1     -10.267   5.955  70.133  1.00  0.00    -0.203 NA 
HETATM    8  C   UNL     1      -9.692   3.587  70.552  1.00  0.00    -0.117 C  
HETATM    9  C   UNL     1      -9.339   4.877  69.757  1.00  0.00    -0.138 C  
BRANCH   7  10
HETATM   10  C   UNL     1     -10.528   7.004  69.266  1.00  0.00    -0.210 A  
HETATM   11  C   UNL     1     -10.521   6.824  67.881  1.00  0.00    -0.265 A  
HETATM   12  C   UNL     1     -10.573   7.903  67.000  1.00  0.00    -0.381 A  
HETATM   13  C   UNL     1     -10.634   9.214  67.471  1.00  0.00    -0.249 A  
HETATM   14  C   UNL     1     -10.683   8.318  69.732  1.00  0.00    -0.221 A  
HETATM   15  C   UNL     1     -10.727   9.414  68.849  1.00  0.00    -0.203 A  
BRANCH  13  16
HETATM   16  O   UNL     1     -10.584  10.335  66.671  1.00  0.00    -0.223 OA 
BRANCH  16  17
HETATM   17  C   UNL     1      -9.353  11.061  66.763  1.00  0.00    -0.181 C  
BRANCH  17  18
HETATM   18  C   UNL     1      -9.369  12.182  67.797  1.00  0.00    -0.193 C  
HETATM   19  C   UNL     1      -8.437  13.319  67.470  1.00  0.00    -0.202 C  
HETATM   20  O   UNL     1      -9.100  14.471  67.992  1.00  0.00    -0.174 OA 
HETATM   21  C   UNL     1     -10.521  14.191  67.941  1.00  0.00    -0.237 C  
HETATM   22  O   UNL     1     -10.676  12.768  67.791  1.00  0.00    -0.214 OA 
BRANCH  21  23
HETATM   23  C   UNL     1     -11.196  14.610  69.249  1.00  0.00    -0.306 A  
HETATM   24  C   UNL     1     -11.944  13.659  69.979  1.00  0.00    -0.413 A  
HETATM   25  C   UNL     1     -11.106  15.909  69.794  1.00  0.00    -0.324 A  
HETATM   26  C   UNL     1     -12.522  13.969  71.213  1.00  0.00    -0.448 A  
HETATM   27  C   UNL     1     -11.671  16.213  71.041  1.00  0.00    -0.407 A  
HETATM   28 CL   UNL     1     -10.349  17.230  68.973  1.00  0.00    -0.343 Cl 
HETATM   29 CL   UNL     1     -13.036  15.610  73.287  1.00  0.00    -0.624 Cl 
HETATM   30  C   UNL     1     -12.365  15.240  71.748  1.00  0.00    -0.358 A  
ENDBRANCH  21  23
BRANCH  21  31
HETATM   31  C   UNL     1     -11.097  14.866  66.674  1.00  0.00    -0.329 C  
BRANCH  31  32
HETATM   32  N   UNL     1     -11.578  13.962  65.655  1.00  0.00    -0.325 NA 
HETATM   33  C   UNL     1     -12.848  13.501  65.484  1.00  0.00    -0.350 A  
HETATM   34  C   UNL     1     -11.680  12.990  63.824  1.00  0.00    -0.485 A  
HETATM   35  N   UNL     1     -12.939  12.870  64.338  1.00  0.00    -0.710 NA 
HETATM   36  N   UNL     1     -10.813  13.650  64.595  1.00  0.00    -0.389 NA 
ENDBRANCH  31  32
ENDBRANCH  21  31
ENDBRANCH  17  18
ENDBRANCH  16  17
ENDBRANCH  13  16
ENDBRANCH   7  10
ENDBRANCH   2   4
TORSDOF 8
ENDMDL
MODEL       14
REMARK 921   NORMALIZED FREE ENERGY PREDICTED BY IDOCK:   -6.70 KCAL/MOL
REMARK 922        TOTAL FREE ENERGY PREDICTED BY IDOCK:  -11.00 KCAL/MOL
REMARK 923 INTER-LIGAND FREE ENERGY PREDICTED BY IDOCK:  -10.28 KCAL/MOL
REMARK 924 INTRA-LIGAND FREE ENERGY PREDICTED BY IDOCK:   -0.72 KCAL/MOL
REMARK 927      BINDING AFFINITY PREDICTED BY RF-SCORE:    0.00 PKD
ROOT
HETATM    1  C   UNL     1     -11.237   4.599  73.478  1.00  0.00    -0.400 C  
HETATM    2  C   UNL     1     -10.710   5.684  72.518  1.00  0.00    -0.239 C  
HETATM    3  C   UNL     1      -9.981   4.948  71.382  1.00  0.00    -0.266 C  
ENDROOT
BRANCH   2   4
HETATM    4  N   UNL     1     -11.823   6.543  72.049  1.00  0.00    -0.322 NA 
HETATM    5  C   UNL     1     -11.662   7.961  72.472  1.00  0.00    -0.367 C  
HETATM    6  C   UNL     1     -10.565   8.743  71.720  1.00  0.00    -0.347 C  
HETATM    7  N   UNL     1     -10.828   8.695  70.272  1.00  0.00    -0.234 NA 
HETATM    8  C   UNL     1     -12.034   6.558  70.574  1.00  0.00    -0.256 C  
HETATM    9  C   UNL     1     -10.980   7.334  69.734  1.00  0.00    -0.216 C  
BRANCH   7  10
HETATM   10  C   UNL     1     -10.383   9.733  69.469  1.00  0.00    -0.230 A  
HETATM   11  C   UNL     1      -9.033  10.084  69.414  1.00  0.00    -0.205 A  
HETATM   12  C   UNL     1      -8.601  11.248  68.780  1.00  0.00    -0.109 A  
HETATM   13  C   UNL     1      -9.510  12.116  68.174  1.00  0.00    -0.205 A  
HETATM   14  C   UNL     1     -11.280  10.560  68.778  1.00  0.00    -0.317 A  
HETATM   15  C   UNL     1     -10.854  11.743  68.144  1.00  0.00    -0.258 A  
BRANCH  13  16
HETATM   16  O   UNL     1      -9.177  13.333  67.619  1.00  0.00    -0.192 OA 
BRANCH  16  17
HETATM   17  C   UNL     1      -9.863  13.621  66.396  1.00  0.00    -0.296 C  
BRANCH  17  18
HETATM   18  C   UNL     1      -9.540  14.991  65.810  1.00  0.00    -0.292 C  
HETATM   19  C   UNL     1     -10.716  15.656  65.145  1.00  0.00    -0.443 C  
HETATM   20  O   UNL     1     -10.502  17.049  65.376  1.00  0.00    -0.619 OA 
HETATM   21  C   UNL     1      -9.762  17.155  66.618  1.00  0.00    -0.276 C  
HETATM   22  O   UNL     1      -9.192  15.862  66.893  1.00  0.00    -0.207 OA 
BRANCH  21  23
HETATM   23  C   UNL     1      -8.618  18.160  66.476  1.00  0.00    -0.282 A  
HETATM   24  C   UNL     1      -7.288  17.691  66.381  1.00  0.00    -0.323 A  
HETATM   25  C   UNL     1      -8.808  19.558  66.416  1.00  0.00    -0.366 A  
HETATM   26  C   UNL     1      -6.214  18.561  66.180  1.00  0.00    -0.227 A  
HETATM   27  C   UNL     1      -7.732  20.429  66.195  1.00  0.00    -0.146 A  
HETATM   28 CL   UNL     1     -10.346  20.314  66.651  1.00  0.00    -0.497 Cl 
HETATM   29 CL   UNL     1      -5.128  20.994  65.774  1.00  0.00    -0.227 Cl 
HETATM   30  C   UNL     1      -6.444  19.925  66.067  1.00  0.00    -0.210 A  
ENDBRANCH  21  23
BRANCH  21  31
HETATM   31  C   UNL     1     -10.767  17.478  67.748  1.00  0.00    -0.332 C  
BRANCH  31  32
HETATM   32  N   UNL     1     -10.958  16.431  68.726  1.00  0.00    -0.332 NA 
HETATM   33  C   UNL     1     -10.299  16.264  69.906  1.00  0.00    -0.160 A  
HETATM   34  C   UNL     1     -11.933  14.958  69.816  1.00  0.00    -0.323 A  
HETATM   35  N   UNL     1     -10.887  15.328  70.612  1.00  0.00    -0.282 NA 
HETATM   36  N   UNL     1     -12.017  15.606  68.652  1.00  0.00    -0.279 NA 
ENDBRANCH  31  32
ENDBRANCH  21  31
ENDBRANCH  17  18
ENDBRANCH  16  17
ENDBRANCH  13  16
ENDBRANCH   7  10
ENDBRANCH   2   4
TORSDOF 8
ENDMDL
MODEL       15
REMARK 921   NORMALIZED FREE ENERGY PREDICTED BY IDOCK:   -6.70 KCAL/MOL
REMARK 922        TOTAL FREE ENERGY PREDICTED BY IDOCK:  -11.00 KCAL/MOL
REMARK 923 INTER-LIGAND FREE ENERGY PREDICTED BY IDOCK:   -9.46 KCAL/MOL
REMARK 924 INTRA-LIGAND FREE ENERGY PREDICTED BY IDOCK:   -1.54 KCAL/MOL
REMARK 927      BINDING AFFINITY PREDICTED BY RF-SCORE:    0.00 PKD
ROOT
HETATM    1  C   UNL     1      -6.925  20.955  67.255  1.00  0.00    -0.436 C  
HETATM    2  C   UNL     1      -7.005  19.419  67.372  1.00  0.00    -0.203 C  
HETATM    3  C   UNL     1      -5.613  18.939  67.814  1.00  0.00    -0.179 C  
ENDROOT
BRANCH   2   4
HETATM    4  N   UNL     1      -8.090  19.028  68.303  1.00  0.00    -0.311 NA 
HETATM    5  C   UNL     1      -9.440  19.367  67.776  1.00  0.00    -0.326 C  
HETATM    6  C   UNL     1      -9.929  18.469  66.619  1.00  0.00    -0.372 C  
HETATM    7  N   UNL     1      -9.913  17.061  67.046  1.00  0.00    -0.278 NA 
HETATM    8  C   UNL     1      -8.122  17.584  68.668  1.00  0.00    -0.263 C  
HETATM    9  C   UNL     1      -8.614  16.604  67.564  1.00  0.00    -0.189 C  
BRANCH   7  10
HETATM   10  C   UNL     1     -10.801  16.169  66.466  1.00  0.00    -0.139 A  
HETATM   11  C   UNL     1     -11.533  15.265  67.238  1.00  0.00    -0.227 A  
HETATM   12  C   UNL     1     -12.266  14.229  66.660  1.00  0.00    -0.411 A  
HETATM   13  C   UNL     1     -12.295  14.054  65.276  1.00  0.00    -0.465 A  
HETATM   14  C   UNL     1     -10.910  16.044  65.073  1.00  0.00    -0.421 A  
HETATM   15  C   UNL     1     -11.640  14.995  64.482  1.00  0.00    -0.346 A  
BRANCH  13  16
HETATM   16  O   UNL     1     -12.908  13.000  64.635  1.00  0.00    -0.700 OA 
BRANCH  16  17
HETATM   17  C   UNL     1     -12.122  12.421  63.587  1.00  0.00    -0.556 C  
BRANCH  17  18
HETATM   18  C   UNL     1     -11.263  11.243  64.034  1.00  0.00    -0.151 C  
HETATM   19  C   UNL     1      -9.847  11.299  63.523  1.00  0.00    -0.359 C  
HETATM   20  O   UNL     1      -9.080  10.689  64.562  1.00  0.00    -0.198 OA 
HETATM   21  C   UNL     1      -9.791  10.932  65.801  1.00  0.00    -0.237 C  
HETATM   22  O   UNL     1     -11.140  11.303  65.460  1.00  0.00    -0.191 OA 
BRANCH  21  23
HETATM   23  C   UNL     1      -9.846   9.658  66.646  1.00  0.00    -0.285 A  
HETATM   24  C   UNL     1      -9.166   8.501  66.203  1.00  0.00    -0.269 A  
HETATM   25  C   UNL     1     -10.535   9.564  67.874  1.00  0.00    -0.241 A  
HETATM   26  C   UNL     1      -9.127   7.333  66.969  1.00  0.00    -0.152 A  
HETATM   27  C   UNL     1     -10.479   8.398  68.651  1.00  0.00    -0.197 A  
HETATM   28 CL   UNL     1     -11.530  10.833  68.501  1.00  0.00    -0.363 Cl 
HETATM   29 CL   UNL     1      -9.680   5.873  69.165  1.00  0.00    -0.164 Cl 
HETATM   30  C   UNL     1      -9.766   7.294  68.200  1.00  0.00    -0.145 A  
ENDBRANCH  21  23
BRANCH  21  31
HETATM   31  C   UNL     1      -9.130  12.142  66.502  1.00  0.00    -0.199 C  
BRANCH  31  32
HETATM   32  N   UNL     1      -7.914  11.849  67.226  1.00  0.00    -0.163 NA 
HETATM   33  C   UNL     1      -6.653  11.734  66.723  1.00  0.00    -0.060 A  
HETATM   34  C   UNL     1      -6.580  11.773  68.814  1.00  0.00    -0.074 A  
HETATM   35  N   UNL     1      -5.789  11.670  67.706  1.00  0.00    -0.048 NA 
HETATM   36  N   UNL     1      -7.887  11.884  68.569  1.00  0.00    -0.139 NA 
ENDBRANCH  31  32
ENDBRANCH  21  31
ENDBRANCH  17  18
ENDBRANCH  16  17
ENDBRANCH  13  16
ENDBRANCH   7  10
ENDBRANCH   2   4
TORSDOF 8
ENDMDL
MODEL       16
REMARK 921   NORMALIZED FREE ENERGY PREDICTED BY IDOCK:   -6.63 KCAL/MOL
REMARK 922        TOTAL FREE ENERGY PREDICTED BY IDOCK:  -10.90 KCAL/MOL
REMARK 923 INTER-LIGAND FREE ENERGY PREDICTED BY IDOCK:   -9.60 KCAL/MOL
REMARK 924 INTRA-LIGAND FREE ENERGY PREDICTED BY IDOCK:   -1.31 KCAL/MOL
REMARK 927      BINDING AFFINITY PREDICTED BY RF-SCORE:    0.00 PKD
ROOT
HETATM    1  C   UNL     1     -11.377   4.558  73.545  1.00  0.00    -0.355 C  
HETATM    2  C   UNL     1     -10.757   5.790  72.855  1.00  0.00    -0.247 C  
HETATM    3  C   UNL     1     -10.242   6.708  73.976  1.00  0.00    -0.395 C  
ENDROOT
BRANCH   2   4
HETATM    4  N   UNL     1      -9.702   5.372  71.902  1.00  0.00    -0.160 NA 
HETATM    5  C   UNL     1     -10.248   5.065  70.552  1.00  0.00    -0.246 C  
HETATM    6  C   UNL     1     -10.686   6.298  69.732  1.00  0.00    -0.297 C  
HETATM    7  N   UNL     1      -9.554   7.230  69.599  1.00  0.00    -0.156 NA 
HETATM    8  C   UNL     1      -8.599   6.355  71.705  1.00  0.00    -0.128 C  
HETATM    9  C   UNL     1      -8.948   7.626  70.879  1.00  0.00    -0.148 C  
BRANCH   7  10
HETATM   10  C   UNL     1      -9.491   8.063  68.493  1.00  0.00    -0.142 A  
HETATM   11  C   UNL     1     -10.245   7.810  67.346  1.00  0.00    -0.320 A  
HETATM   12  C   UNL     1     -10.037   8.511  66.159  1.00  0.00    -0.053 A  
HETATM   13  C   UNL     1      -9.057   9.499  66.071  1.00  0.00    -0.176 A  
HETATM   14  C   UNL     1      -8.572   9.121  68.425  1.00  0.00    -0.129 A  
HETATM   15  C   UNL     1      -8.349   9.827  67.227  1.00  0.00    -0.121 A  
BRANCH  13  16
HETATM   16  O   UNL     1      -8.719  10.164  64.912  1.00  0.00    -0.159 OA 
BRANCH  16  17
HETATM   17  C   UNL     1      -9.845  10.556  64.118  1.00  0.00    -0.337 C  
BRANCH  17  18
HETATM   18  C   UNL     1     -10.025  12.065  63.997  1.00  0.00    -0.291 C  
HETATM   19  C   UNL     1     -11.291  12.468  63.288  1.00  0.00    -0.298 C  
HETATM   20  O   UNL     1     -11.665  13.694  63.917  1.00  0.00    -0.389 OA 
HETATM   21  C   UNL     1     -11.160  13.635  65.274  1.00  0.00    -0.301 C  
HETATM   22  O   UNL     1     -10.161  12.599  65.319  1.00  0.00    -0.284 OA 
BRANCH  21  23
HETATM   23  C   UNL     1     -10.493  14.958  65.655  1.00  0.00    -0.366 A  
HETATM   24  C   UNL     1     -10.972  16.164  65.097  1.00  0.00    -0.327 A  
HETATM   25  C   UNL     1      -9.415  15.058  66.561  1.00  0.00    -0.282 A  
HETATM   26  C   UNL     1     -10.445  17.405  65.463  1.00  0.00    -0.112 A  
HETATM   27  C   UNL     1      -8.899  16.304  66.943  1.00  0.00    -0.242 A  
HETATM   28 CL   UNL     1      -8.614  13.680  67.234  1.00  0.00    -0.211 Cl 
HETATM   29 CL   UNL     1      -8.806  18.999  66.888  1.00  0.00    -0.299 Cl 
HETATM   30  C   UNL     1      -9.425  17.471  66.401  1.00  0.00    -0.259 A  
ENDBRANCH  21  23
BRANCH  21  31
HETATM   31  C   UNL     1     -12.324  13.210  66.200  1.00  0.00    -0.315 C  
BRANCH  31  32
HETATM   32  N   UNL     1     -11.930  12.576  67.438  1.00  0.00    -0.488 NA 
HETATM   33  C   UNL     1     -11.813  13.150  68.667  1.00  0.00    -0.328 A  
HETATM   34  C   UNL     1     -11.675  11.069  68.842  1.00  0.00    -0.330 A  
HETATM   35  N   UNL     1     -11.638  12.220  69.575  1.00  0.00    -0.301 NA 
HETATM   36  N   UNL     1     -11.852  11.237  67.530  1.00  0.00    -0.604 NA 
ENDBRANCH  31  32
ENDBRANCH  21  31
ENDBRANCH  17  18
ENDBRANCH  16  17
ENDBRANCH  13  16
ENDBRANCH   7  10
ENDBRANCH   2   4
TORSDOF 8
ENDMDL
MODEL       17
REMARK 921   NORMALIZED FREE ENERGY PREDICTED BY IDOCK:   -6.59 KCAL/MOL
REMARK 922        TOTAL FREE ENERGY PREDICTED BY IDOCK:  -10.85 KCAL/MOL
REMARK 923 INTER-LIGAND FREE ENERGY PREDICTED BY IDOCK:   -9.97 KCAL/MOL
REMARK 924 INTRA-LIGAND FREE ENERGY PREDICTED BY IDOCK:   -0.88 KCAL/MOL
REMARK 927      BINDING AFFINITY PREDICTED BY RF-SCORE:    0.00 PKD
ROOT
HETATM    1  C   UNL     1     -10.819   4.765  74.029  1.00  0.00    -0.322 C  
HETATM    2  C   UNL     1     -10.211   4.581  72.623  1.00  0.00    -0.179 C  
HETATM    3  C   UNL     1     -10.159   3.067  72.363  1.00  0.00    -0.229 C  
ENDROOT
BRANCH   2   4
HETATM    4  N   UNL     1     -11.002   5.328  71.617  1.00  0.00    -0.118 NA 
HETATM    5  C   UNL     1     -11.098   6.779  71.935  1.00  0.00    -0.247 C  
HETATM    6  C   UNL     1      -9.799   7.582  71.704  1.00  0.00    -0.161 C  
HETATM    7  N   UNL     1      -9.358   7.417  70.310  1.00  0.00    -0.162 NA 
HETATM    8  C   UNL     1     -10.503   5.228  70.217  1.00  0.00    -0.261 C  
HETATM    9  C   UNL     1      -9.202   6.016  69.890  1.00  0.00    -0.148 C  
BRANCH   7  10
HETATM   10  C   UNL     1      -8.620   8.426  69.711  1.00  0.00    -0.132 A  
HETATM   11  C   UNL     1      -7.873   9.330  70.468  1.00  0.00    -0.169 A  
HETATM   12  C   UNL     1      -7.301  10.468  69.900  1.00  0.00    -0.116 A  
HETATM   13  C   UNL     1      -7.456  10.749  68.543  1.00  0.00    -0.100 A  
HETATM   14  C   UNL     1      -8.693   8.666  68.331  1.00  0.00    -0.142 A  
HETATM   15  C   UNL     1      -8.126   9.817  67.751  1.00  0.00    -0.113 A  
BRANCH  13  16
HETATM   16  O   UNL     1      -7.012  11.900  67.928  1.00  0.00    -0.074 OA 
BRANCH  16  17
HETATM   17  C   UNL     1      -7.934  12.445  66.978  1.00  0.00    -0.106 C  
BRANCH  17  18
HETATM   18  C   UNL     1      -8.888  13.481  67.563  1.00  0.00    -0.209 C  
HETATM   19  C   UNL     1      -9.618  14.286  66.521  1.00  0.00    -0.297 C  
HETATM   20  O   UNL     1     -10.886  14.559  67.119  1.00  0.00    -0.285 OA 
HETATM   21  C   UNL     1     -11.162  13.462  68.025  1.00  0.00    -0.268 C  
HETATM   22  O   UNL     1      -9.918  12.781  68.272  1.00  0.00    -0.223 OA 
BRANCH  21  23
HETATM   23  C   UNL     1     -11.690  13.989  69.360  1.00  0.00    -0.365 A  
HETATM   24  C   UNL     1     -11.741  15.383  69.585  1.00  0.00    -0.355 A  
HETATM   25  C   UNL     1     -12.155  13.156  70.401  1.00  0.00    -0.317 A  
HETATM   26  C   UNL     1     -12.278  15.919  70.758  1.00  0.00    -0.373 A  
HETATM   27  C   UNL     1     -12.711  13.696  71.570  1.00  0.00    -0.420 A  
HETATM   28 CL   UNL     1     -12.042  11.431  70.354  1.00  0.00    -0.452 Cl 
HETATM   29 CL   UNL     1     -13.484  15.732  73.161  1.00  0.00    -0.664 Cl 
HETATM   30  C   UNL     1     -12.780  15.073  71.737  1.00  0.00    -0.339 A  
ENDBRANCH  21  23
BRANCH  21  31
HETATM   31  C   UNL     1     -12.108  12.473  67.304  1.00  0.00    -0.062 C  
BRANCH  31  32
HETATM   32  N   UNL     1     -11.919  12.366  65.875  1.00  0.00    -0.587 NA 
HETATM   33  C   UNL     1     -11.014  11.596  65.210  1.00  0.00    -0.268 A  
HETATM   34  C   UNL     1     -12.394  12.394  63.854  1.00  0.00    -0.508 A  
HETATM   35  N   UNL     1     -11.282  11.606  63.927  1.00  0.00    -0.396 NA 
HETATM   36  N   UNL     1     -12.821  12.882  65.021  1.00  0.00    -0.798 NA 
ENDBRANCH  31  32
ENDBRANCH  21  31
ENDBRANCH  17  18
ENDBRANCH  16  17
ENDBRANCH  13  16
ENDBRANCH   7  10
ENDBRANCH   2   4
TORSDOF 8
ENDMDL
MODEL       18
REMARK 921   NORMALIZED FREE ENERGY PREDICTED BY IDOCK:   -6.59 KCAL/MOL
REMARK 922        TOTAL FREE ENERGY PREDICTED BY IDOCK:  -10.84 KCAL/MOL
REMARK 923 INTER-LIGAND FREE ENERGY PREDICTED BY IDOCK:   -9.76 KCAL/MOL
REMARK 924 INTRA-LIGAND FREE ENERGY PREDICTED BY IDOCK:   -1.08 KCAL/MOL
REMARK 927      BINDING AFFINITY PREDICTED BY RF-SCORE:    0.00 PKD
ROOT
HETATM    1  C   UNL     1      -7.496  19.714  65.911  1.00  0.00    -0.327 C  
HETATM    2  C   UNL     1      -8.028  19.140  67.240  1.00  0.00    -0.255 C  
HETATM    3  C   UNL     1      -7.409  19.989  68.363  1.00  0.00    -0.285 C  
ENDROOT
BRANCH   2   4
HETATM    4  N   UNL     1      -9.510  19.140  67.247  1.00  0.00    -0.307 NA 
HETATM    5  C   UNL     1     -10.082  18.346  66.126  1.00  0.00    -0.360 C  
HETATM    6  C   UNL     1      -9.949  16.815  66.281  1.00  0.00    -0.320 C  
HETATM    7  N   UNL     1     -10.571  16.391  67.546  1.00  0.00    -0.312 NA 
HETATM    8  C   UNL     1     -10.138  18.631  68.498  1.00  0.00    -0.382 C  
HETATM    9  C   UNL     1     -10.062  17.095  68.733  1.00  0.00    -0.329 C  
BRANCH   7  10
HETATM   10  C   UNL     1     -11.092  15.111  67.646  1.00  0.00    -0.318 A  
HETATM   11  C   UNL     1     -11.182  14.454  68.875  1.00  0.00    -0.284 A  
HETATM   12  C   UNL     1     -11.504  13.101  68.965  1.00  0.00    -0.345 A  
HETATM   13  C   UNL     1     -11.750  12.344  67.820  1.00  0.00    -0.350 A  
HETATM   14  C   UNL     1     -11.433  14.367  66.507  1.00  0.00    -0.369 A  
HETATM   15  C   UNL     1     -11.750  12.997  66.587  1.00  0.00    -0.438 A  
BRANCH  13  16
HETATM   16  O   UNL     1     -11.973  10.984  67.815  1.00  0.00    -0.609 OA 
BRANCH  16  17
HETATM   17  C   UNL     1     -10.994  10.237  67.085  1.00  0.00    -0.165 C  
BRANCH  17  18
HETATM   18  C   UNL     1     -10.571   8.938  67.763  1.00  0.00    -0.202 C  
HETATM   19  C   UNL     1      -9.121   8.590  67.549  1.00  0.00    -0.134 C  
HETATM   20  O   UNL     1      -8.744   7.924  68.755  1.00  0.00    -0.128 OA 
HETATM   21  C   UNL     1      -9.581   8.465  69.807  1.00  0.00    -0.170 C  
HETATM   22  O   UNL     1     -10.699   9.118  69.178  1.00  0.00    -0.225 OA 
BRANCH  21  23
HETATM   23  C   UNL     1     -10.122   7.341  70.693  1.00  0.00    -0.198 A  
HETATM   24  C   UNL     1      -9.635   6.026  70.520  1.00  0.00    -0.198 A  
HETATM   25  C   UNL     1     -11.086   7.538  71.705  1.00  0.00    -0.239 A  
HETATM   26  C   UNL     1     -10.044   4.977  71.347  1.00  0.00    -0.268 A  
HETATM   27  C   UNL     1     -11.481   6.489  72.547  1.00  0.00    -0.274 A  
HETATM   28 CL   UNL     1     -11.888   9.049  71.966  1.00  0.00    -0.436 Cl 
HETATM   29 CL   UNL     1     -11.419   3.937  73.419  1.00  0.00    -0.266 Cl 
HETATM   30  C   UNL     1     -10.949   5.218  72.371  1.00  0.00    -0.212 A  
ENDBRANCH  21  23
BRANCH  21  31
HETATM   31  C   UNL     1      -8.766   9.543  70.560  1.00  0.00    -0.197 C  
BRANCH  31  32
HETATM   32  N   UNL     1      -7.666   9.045  71.355  1.00  0.00    -0.301 NA 
HETATM   33  C   UNL     1      -6.338   9.081  71.055  1.00  0.00    -0.061 A  
HETATM   34  C   UNL     1      -6.598   8.494  73.047  1.00  0.00    -0.063 A  
HETATM   35  N   UNL     1      -5.638   8.724  72.104  1.00  0.00    -0.053 NA 
HETATM   36  N   UNL     1      -7.854   8.677  72.634  1.00  0.00    -0.373 NA 
ENDBRANCH  31  32
ENDBRANCH  21  31
ENDBRANCH  17  18
ENDBRANCH  16  17
ENDBRANCH  13  16
ENDBRANCH   7  10
ENDBRANCH   2   4
TORSDOF 8
ENDMDL
MODEL       19
REMARK 921   NORMALIZED FREE ENERGY PREDICTED BY IDOCK:   -6.54 KCAL/MOL
REMARK 922        TOTAL FREE ENERGY PREDICTED BY IDOCK:  -10.77 KCAL/MOL
REMARK 923 INTER-LIGAND FREE ENERGY PREDICTED BY IDOCK:  -10.06 KCAL/MOL
REMARK 924 INTRA-LIGAND FREE ENERGY PREDICTED BY IDOCK:   -0.71 KCAL/MOL
REMARK 927      BINDING AFFINITY PREDICTED BY RF-SCORE:    0.00 PKD
ROOT
HETATM    1  C   UNL     1      -9.101   3.623  69.754  1.00  0.00    -0.193 C  
HETATM    2  C   UNL     1      -9.890   3.751  71.074  1.00  0.00    -0.134 C  
HETATM    3  C   UNL     1      -9.845   2.370  71.747  1.00  0.00    -0.228 C  
ENDROOT
BRANCH   2   4
HETATM    4  N   UNL     1      -9.324   4.836  71.910  1.00  0.00    -0.136 NA 
HETATM    5  C   UNL     1      -8.932   6.026  71.107  1.00  0.00    -0.139 C  
HETATM    6  C   UNL     1     -10.112   6.869  70.576  1.00  0.00    -0.187 C  
HETATM    7  N   UNL     1     -10.957   7.299  71.702  1.00  0.00    -0.225 NA 
HETATM    8  C   UNL     1     -10.216   5.328  72.998  1.00  0.00    -0.183 C  
HETATM    9  C   UNL     1     -11.428   6.198  72.555  1.00  0.00    -0.276 C  
BRANCH   7  10
HETATM   10  C   UNL     1     -11.682   8.475  71.591  1.00  0.00    -0.306 A  
HETATM   11  C   UNL     1     -11.213   9.553  70.838  1.00  0.00    -0.411 A  
HETATM   12  C   UNL     1     -11.823  10.805  70.888  1.00  0.00    -0.400 A  
HETATM   13  C   UNL     1     -12.933  11.032  71.700  1.00  0.00    -0.456 A  
HETATM   14  C   UNL     1     -12.854   8.685  72.334  1.00  0.00    -0.413 A  
HETATM   15  C   UNL     1     -13.470   9.950  72.397  1.00  0.00    -0.301 A  
BRANCH  13  16
HETATM   16  O   UNL     1     -13.528  12.262  71.884  1.00  0.00    -0.409 OA 
BRANCH  16  17
HETATM   17  C   UNL     1     -12.638  13.370  71.713  1.00  0.00    -0.134 C  
BRANCH  17  18
HETATM   18  C   UNL     1     -12.713  14.021  70.337  1.00  0.00    -0.253 C  
HETATM   19  C   UNL     1     -12.491  15.511  70.360  1.00  0.00    -0.402 C  
HETATM   20  O   UNL     1     -11.845  15.784  69.116  1.00  0.00    -0.381 OA 
HETATM   21  C   UNL     1     -11.107  14.588  68.760  1.00  0.00    -0.251 C  
HETATM   22  O   UNL     1     -11.636  13.504  69.546  1.00  0.00    -0.279 OA 
BRANCH  21  23
HETATM   23  C   UNL     1     -11.315  14.252  67.282  1.00  0.00    -0.350 A  
HETATM   24  C   UNL     1     -11.819  12.982  66.923  1.00  0.00    -0.442 A  
HETATM   25  C   UNL     1     -11.043  15.152  66.230  1.00  0.00    -0.309 A  
HETATM   26  C   UNL     1     -12.093  12.648  65.594  1.00  0.00    -0.502 A  
HETATM   27  C   UNL     1     -11.335  14.824  64.898  1.00  0.00    -0.411 A  
HETATM   28 CL   UNL     1     -10.297  16.694  66.472  1.00  0.00    -0.305 Cl 
HETATM   29 CL   UNL     1     -12.247  13.187  62.958  1.00  0.00    -0.316 Cl 
HETATM   30  C   UNL     1     -11.869  13.579  64.590  1.00  0.00    -0.394 A  
ENDBRANCH  21  23
BRANCH  21  31
HETATM   31  C   UNL     1      -9.632  14.796  69.173  1.00  0.00    -0.131 C  
BRANCH  31  32
HETATM   32  N   UNL     1      -8.660  14.086  68.372  1.00  0.00    -0.174 NA 
HETATM   33  C   UNL     1      -7.600  14.607  67.694  1.00  0.00    -0.180 A  
HETATM   34  C   UNL     1      -7.464  12.518  67.722  1.00  0.00    -0.130 A  
HETATM   35  N   UNL     1      -6.832  13.637  67.260  1.00  0.00    -0.160 NA 
HETATM   36  N   UNL     1      -8.586  12.744  68.408  1.00  0.00    -0.159 NA 
ENDBRANCH  31  32
ENDBRANCH  21  31
ENDBRANCH  17  18
ENDBRANCH  16  17
ENDBRANCH  13  16
ENDBRANCH   7  10
ENDBRANCH   2   4
TORSDOF 8
ENDMDL
MODEL       20
REMARK 921   NORMALIZED FREE ENERGY PREDICTED BY IDOCK:   -6.53 KCAL/MOL
REMARK 922        TOTAL FREE ENERGY PREDICTED BY IDOCK:  -10.75 KCAL/MOL
REMARK 923 INTER-LIGAND FREE ENERGY PREDICTED BY IDOCK:   -9.69 KCAL/MOL
REMARK 924 INTRA-LIGAND FREE ENERGY PREDICTED BY IDOCK:   -1.07 KCAL/MOL
REMARK 927      BINDING AFFINITY PREDICTED BY RF-SCORE:    0.00 PKD
ROOT
HETATM    1  C   UNL     1      -7.553  20.089  66.057  1.00  0.00    -0.326 C  
HETATM    2  C   UNL     1      -8.092  19.198  67.194  1.00  0.00    -0.261 C  
HETATM    3  C   UNL     1      -7.440  19.700  68.492  1.00  0.00    -0.369 C  
ENDROOT
BRANCH   2   4
HETATM    4  N   UNL     1      -9.574  19.237  67.222  1.00  0.00    -0.312 NA 
HETATM    5  C   UNL     1     -10.184  18.382  66.168  1.00  0.00    -0.389 C  
HETATM    6  C   UNL     1     -10.087  16.863  66.427  1.00  0.00    -0.322 C  
HETATM    7  N   UNL     1     -10.700  16.544  67.727  1.00  0.00    -0.337 NA 
HETATM    8  C   UNL     1     -10.194  18.833  68.515  1.00  0.00    -0.344 C  
HETATM    9  C   UNL     1     -10.153  17.315  68.854  1.00  0.00    -0.331 C  
BRANCH   7  10
HETATM   10  C   UNL     1     -11.251  15.288  67.924  1.00  0.00    -0.331 A  
HETATM   11  C   UNL     1     -11.523  14.804  69.205  1.00  0.00    -0.323 A  
HETATM   12  C   UNL     1     -11.877  13.475  69.428  1.00  0.00    -0.389 A  
HETATM   13  C   UNL     1     -11.974  12.569  68.372  1.00  0.00    -0.221 A  
HETATM   14  C   UNL     1     -11.442  14.397  66.857  1.00  0.00    -0.379 A  
HETATM   15  C   UNL     1     -11.790  13.050  67.075  1.00  0.00    -0.437 A  
BRANCH  13  16
HETATM   16  O   UNL     1     -12.218  11.221  68.519  1.00  0.00    -0.588 OA 
BRANCH  16  17
HETATM   17  C   UNL     1     -11.850  10.700  69.801  1.00  0.00    -0.304 C  
BRANCH  17  18
HETATM   18  C   UNL     1     -10.579   9.858  69.789  1.00  0.00    -0.264 C  
HETATM   19  C   UNL     1     -10.194   9.326  71.144  1.00  0.00    -0.317 C  
HETATM   20  O   UNL     1      -9.582   8.067  70.860  1.00  0.00    -0.160 OA 
HETATM   21  C   UNL     1     -10.190   7.575  69.641  1.00  0.00    -0.205 C  
HETATM   22  O   UNL     1     -10.832   8.692  68.997  1.00  0.00    -0.153 OA 
BRANCH  21  23
HETATM   23  C   UNL     1      -9.121   7.028  68.692  1.00  0.00    -0.132 A  
HETATM   24  C   UNL     1      -7.766   7.042  69.091  1.00  0.00    -0.105 A  
HETATM   25  C   UNL     1      -9.408   6.482  67.422  1.00  0.00    -0.121 A  
HETATM   26  C   UNL     1      -6.759   6.492  68.294  1.00  0.00    -0.068 A  
HETATM   27  C   UNL     1      -8.400   5.913  66.631  1.00  0.00    -0.110 A  
HETATM   28 CL   UNL     1     -10.988   6.506  66.717  1.00  0.00    -0.397 Cl 
HETATM   29 CL   UNL     1      -5.853   5.192  66.114  1.00  0.00    -0.018 Cl 
HETATM   30  C   UNL     1      -7.084   5.911  67.076  1.00  0.00    -0.070 A  
ENDBRANCH  21  23
BRANCH  21  31
HETATM   31  C   UNL     1     -11.288   6.558  70.029  1.00  0.00    -0.410 C  
BRANCH  31  32
HETATM   32  N   UNL     1     -11.062   5.847  71.267  1.00  0.00    -0.266 NA 
HETATM   33  C   UNL     1     -11.765   5.952  72.429  1.00  0.00    -0.253 A  
HETATM   34  C   UNL     1     -10.463   4.317  72.537  1.00  0.00    -0.152 A  
HETATM   35  N   UNL     1     -11.397   5.004  73.256  1.00  0.00    -0.335 NA 
HETATM   36  N   UNL     1     -10.225   4.796  71.314  1.00  0.00    -0.186 NA 
ENDBRANCH  31  32
ENDBRANCH  21  31
ENDBRANCH  17  18
ENDBRANCH  16  17
ENDBRANCH  13  16
ENDBRANCH   7  10
ENDBRANCH   2   4
TORSDOF 8
ENDMDL
MODEL       21
REMARK 921   NORMALIZED FREE ENERGY PREDICTED BY IDOCK:   -6.50 KCAL/MOL
REMARK 922        TOTAL FREE ENERGY PREDICTED BY IDOCK:  -10.72 KCAL/MOL
REMARK 923 INTER-LIGAND FREE ENERGY PREDICTED BY IDOCK:   -9.35 KCAL/MOL
REMARK 924 INTRA-LIGAND FREE ENERGY PREDICTED BY IDOCK:   -1.37 KCAL/MOL
REMARK 927      BINDING AFFINITY PREDICTED BY RF-SCORE:    0.00 PKD
ROOT
HETATM    1  C   UNL     1     -10.650   4.757  72.435  1.00  0.00    -0.246 C  
HETATM    2  C   UNL     1      -9.928   4.963  71.088  1.00  0.00    -0.208 C  
HETATM    3  C   UNL     1      -9.647   3.562  70.521  1.00  0.00    -0.246 C  
ENDROOT
BRANCH   2   4
HETATM    4  N   UNL     1     -10.744   5.812  70.189  1.00  0.00    -0.307 NA 
HETATM    5  C   UNL     1     -10.852   7.214  70.676  1.00  0.00    -0.245 C  
HETATM    6  C   UNL     1      -9.568   8.056  70.522  1.00  0.00    -0.170 C  
HETATM    7  N   UNL     1      -9.147   8.063  69.112  1.00  0.00    -0.145 NA 
HETATM    8  C   UNL     1     -10.268   5.884  68.779  1.00  0.00    -0.189 C  
HETATM    9  C   UNL     1      -8.982   6.723  68.527  1.00  0.00    -0.121 C  
BRANCH   7  10
HETATM   10  C   UNL     1      -8.432   9.145  68.624  1.00  0.00    -0.127 A  
HETATM   11  C   UNL     1      -7.624   9.920  69.458  1.00  0.00    -0.125 A  
HETATM   12  C   UNL     1      -7.070  11.126  69.032  1.00  0.00    -0.113 A  
HETATM   13  C   UNL     1      -7.305  11.610  67.745  1.00  0.00    -0.106 A  
HETATM   14  C   UNL     1      -8.588   9.591  67.303  1.00  0.00    -0.128 A  
HETATM   15  C   UNL     1      -8.039  10.813  66.868  1.00  0.00    -0.132 A  
BRANCH  13  16
HETATM   16  O   UNL     1      -6.881  12.837  67.283  1.00  0.00    -0.153 OA 
BRANCH  16  17
HETATM   17  C   UNL     1      -7.885  13.857  67.336  1.00  0.00    -0.161 C  
BRANCH  17  18
HETATM   18  C   UNL     1      -8.785  13.779  68.564  1.00  0.00    -0.118 C  
HETATM   19  C   UNL     1      -9.162  15.125  69.123  1.00  0.00    -0.215 C  
HETATM   20  O   UNL     1     -10.475  14.927  69.647  1.00  0.00    -0.226 OA 
HETATM   21  C   UNL     1     -11.085  13.878  68.855  1.00  0.00    -0.266 C  
HETATM   22  O   UNL     1     -10.027  13.188  68.163  1.00  0.00    -0.223 OA 
BRANCH  21  23
HETATM   23  C   UNL     1     -11.800  12.871  69.758  1.00  0.00    -0.380 A  
HETATM   24  C   UNL     1     -11.658  11.488  69.505  1.00  0.00    -0.400 A  
HETATM   25  C   UNL     1     -12.598  13.240  70.863  1.00  0.00    -0.306 A  
HETATM   26  C   UNL     1     -12.232  10.525  70.339  1.00  0.00    -0.415 A  
HETATM   27  C   UNL     1     -13.157  12.273  71.710  1.00  0.00    -0.449 A  
HETATM   28 CL   UNL     1     -12.990  14.882  71.239  1.00  0.00    -0.398 Cl 
HETATM   29 CL   UNL     1     -13.630   9.740  72.504  1.00  0.00    -0.350 Cl 
HETATM   30  C   UNL     1     -12.962  10.923  71.450  1.00  0.00    -0.424 A  
ENDBRANCH  21  23
BRANCH  21  31
HETATM   31  C   UNL     1     -11.989  14.545  67.792  1.00  0.00    -0.310 C  
BRANCH  31  32
HETATM   32  N   UNL     1     -11.864  14.015  66.453  1.00  0.00    -0.397 NA 
HETATM   33  C   UNL     1     -11.051  14.458  65.454  1.00  0.00    -0.331 A  
HETATM   34  C   UNL     1     -11.901  12.624  64.912  1.00  0.00    -0.387 A  
HETATM   35  N   UNL     1     -11.064  13.604  64.460  1.00  0.00    -0.379 NA 
HETATM   36  N   UNL     1     -12.414  12.833  66.127  1.00  0.00    -0.451 NA 
ENDBRANCH  31  32
ENDBRANCH  21  31
ENDBRANCH  17  18
ENDBRANCH  16  17
ENDBRANCH  13  16
ENDBRANCH   7  10
ENDBRANCH   2   4
TORSDOF 8
ENDMDL
MODEL       22
REMARK 921   NORMALIZED FREE ENERGY PREDICTED BY IDOCK:   -6.47 KCAL/MOL
REMARK 922        TOTAL FREE ENERGY PREDICTED BY IDOCK:  -10.67 KCAL/MOL
REMARK 923 INTER-LIGAND FREE ENERGY PREDICTED BY IDOCK:   -9.88 KCAL/MOL
REMARK 924 INTRA-LIGAND FREE ENERGY PREDICTED BY IDOCK:   -0.79 KCAL/MOL
REMARK 927      BINDING AFFINITY PREDICTED BY RF-SCORE:    0.00 PKD
ROOT
HETATM    1  C   UNL     1      -8.895  17.973  67.964  1.00  0.00    -0.278 C  
HETATM    2  C   UNL     1     -10.147  17.742  67.093  1.00  0.00    -0.338 C  
HETATM    3  C   UNL     1     -10.780  19.123  66.859  1.00  0.00    -0.515 C  
ENDROOT
BRANCH   2   4
HETATM    4  N   UNL     1      -9.782  17.037  65.841  1.00  0.00    -0.523 NA 
HETATM    5  C   UNL     1      -8.694  16.044  66.046  1.00  0.00    -0.232 C  
HETATM    6  C   UNL     1      -9.116  14.764  66.799  1.00  0.00    -0.267 C  
HETATM    7  N   UNL     1     -10.235  14.121  66.092  1.00  0.00    -0.295 NA 
HETATM    8  C   UNL     1     -10.901  16.316  65.170  1.00  0.00    -0.318 C  
HETATM    9  C   UNL     1     -11.385  15.006  65.855  1.00  0.00    -0.273 C  
BRANCH   7  10
HETATM   10  C   UNL     1     -10.402  12.749  66.197  1.00  0.00    -0.269 A  
HETATM   11  C   UNL     1     -10.997  12.171  67.320  1.00  0.00    -0.308 A  
HETATM   12  C   UNL     1     -10.982  10.794  67.533  1.00  0.00    -0.372 A  
HETATM   13  C   UNL     1     -10.365   9.933  66.626  1.00  0.00    -0.205 A  
HETATM   14  C   UNL     1      -9.866  11.871  65.243  1.00  0.00    -0.255 A  
HETATM   15  C   UNL     1      -9.838  10.479  65.456  1.00  0.00    -0.324 A  
BRANCH  13  16
HETATM   16  O   UNL     1     -10.217   8.575  66.814  1.00  0.00    -0.276 OA 
BRANCH  16  17
HETATM   17  C   UNL     1     -11.023   8.044  67.872  1.00  0.00     0.157 C  
BRANCH  17  18
HETATM   18  C   UNL     1     -10.269   7.122  68.824  1.00  0.00    -0.179 C  
HETATM   19  C   UNL     1      -8.897   7.623  69.190  1.00  0.00    -0.139 C  
HETATM   20  O   UNL     1      -8.706   7.164  70.528  1.00  0.00    -0.146 OA 
HETATM   21  C   UNL     1     -10.022   7.083  71.131  1.00  0.00    -0.184 C  
HETATM   22  O   UNL     1     -10.987   7.086  70.063  1.00  0.00    -0.250 OA 
BRANCH  21  23
HETATM   23  C   UNL     1     -10.175   5.774  71.908  1.00  0.00    -0.246 A  
HETATM   24  C   UNL     1     -10.704   5.802  73.218  1.00  0.00    -0.297 A  
HETATM   25  C   UNL     1      -9.830   4.509  71.385  1.00  0.00    -0.194 A  
HETATM   26  C   UNL     1     -10.930   4.631  73.945  1.00  0.00    -0.333 A  
HETATM   27  C   UNL     1     -10.074   3.333  72.108  1.00  0.00    -0.199 A  
HETATM   28 CL   UNL     1      -9.046   4.299  69.857  1.00  0.00    -0.155 Cl 
HETATM   29 CL   UNL     1     -10.953   1.954  74.253  1.00  0.00    -0.193 Cl 
HETATM   30  C   UNL     1     -10.633   3.399  73.378  1.00  0.00    -0.191 A  
ENDBRANCH  21  23
BRANCH  21  31
HETATM   31  C   UNL     1     -10.242   8.361  71.972  1.00  0.00    -0.294 C  
BRANCH  31  32
HETATM   32  N   UNL     1     -11.539   8.983  71.825  1.00  0.00    -0.352 NA 
HETATM   33  C   UNL     1     -12.704   8.635  72.438  1.00  0.00    -0.362 A  
HETATM   34  C   UNL     1     -12.939  10.473  71.464  1.00  0.00    -0.460 A  
HETATM   35  N   UNL     1     -13.613   9.554  72.216  1.00  0.00    -0.449 NA 
HETATM   36  N   UNL     1     -11.667  10.166  71.200  1.00  0.00    -0.369 NA 
ENDBRANCH  31  32
ENDBRANCH  21  31
ENDBRANCH  17  18
ENDBRANCH  16  17
ENDBRANCH  13  16
ENDBRANCH   7  10
ENDBRANCH   2   4
TORSDOF 8
ENDMDL
MODEL       23
REMARK 921   NORMALIZED FREE ENERGY PREDICTED BY IDOCK:   -6.46 KCAL/MOL
REMARK 922        TOTAL FREE ENERGY PREDICTED BY IDOCK:  -10.66 KCAL/MOL
REMARK 923 INTER-LIGAND FREE ENERGY PREDICTED BY IDOCK:   -9.48 KCAL/MOL
REMARK 924 INTRA-LIGAND FREE ENERGY PREDICTED BY IDOCK:   -1.18 KCAL/MOL
REMARK 927      BINDING AFFINITY PREDICTED BY RF-SCORE:    0.00 PKD
ROOT
HETATM    1  C   UNL     1      -9.999   6.614  74.299  1.00  0.00    -0.372 C  
HETATM    2  C   UNL     1     -10.608   6.019  73.013  1.00  0.00    -0.240 C  
HETATM    3  C   UNL     1     -11.213   4.660  73.402  1.00  0.00    -0.423 C  
ENDROOT
BRANCH   2   4
HETATM    4  N   UNL     1     -11.591   6.958  72.425  1.00  0.00    -0.262 NA 
HETATM    5  C   UNL     1     -11.070   8.350  72.347  1.00  0.00    -0.361 C  
HETATM    6  C   UNL     1      -9.999   8.583  71.260  1.00  0.00    -0.221 C  
HETATM    7  N   UNL     1     -10.535   8.190  69.946  1.00  0.00    -0.222 NA 
HETATM    8  C   UNL     1     -12.070   6.603  71.059  1.00  0.00    -0.327 C  
HETATM    9  C   UNL     1     -11.058   6.816  69.897  1.00  0.00    -0.323 C  
BRANCH   7  10
HETATM   10  C   UNL     1     -10.048   8.808  68.805  1.00  0.00    -0.198 A  
HETATM   11  C   UNL     1      -9.053   9.785  68.874  1.00  0.00    -0.148 A  
HETATM   12  C   UNL     1      -8.706  10.560  67.768  1.00  0.00    -0.122 A  
HETATM   13  C   UNL     1      -9.345  10.387  66.541  1.00  0.00    -0.163 A  
HETATM   14  C   UNL     1     -10.620   8.576  67.546  1.00  0.00    -0.284 A  
HETATM   15  C   UNL     1     -10.282   9.360  66.426  1.00  0.00    -0.300 A  
BRANCH  13  16
HETATM   16  O   UNL     1      -9.133  11.178  65.432  1.00  0.00    -0.203 OA 
BRANCH  16  17
HETATM   17  C   UNL     1     -10.337  11.623  64.797  1.00  0.00    -0.282 C  
BRANCH  17  18
HETATM   18  C   UNL     1     -10.926  12.892  65.402  1.00  0.00    -0.278 C  
HETATM   19  C   UNL     1     -11.894  12.633  66.526  1.00  0.00    -0.396 C  
HETATM   20  O   UNL     1     -11.717  13.749  67.399  1.00  0.00    -0.339 OA 
HETATM   21  C   UNL     1     -10.347  14.192  67.236  1.00  0.00    -0.267 C  
HETATM   22  O   UNL     1      -9.856  13.630  66.004  1.00  0.00    -0.295 OA 
BRANCH  21  23
HETATM   23  C   UNL     1     -10.287  15.716  67.122  1.00  0.00    -0.285 A  
HETATM   24  C   UNL     1      -9.601  16.305  66.036  1.00  0.00    -0.371 A  
HETATM   25  C   UNL     1     -10.899  16.594  68.043  1.00  0.00    -0.337 A  
HETATM   26  C   UNL     1      -9.575  17.689  65.846  1.00  0.00    -0.003 A  
HETATM   27  C   UNL     1     -10.889  17.981  67.841  1.00  0.00    -0.227 A  
HETATM   28 CL   UNL     1     -11.663  16.055  69.499  1.00  0.00    -0.308 Cl 
HETATM   29 CL   UNL     1     -10.245  20.220  66.482  1.00  0.00    -0.536 Cl 
HETATM   30  C   UNL     1     -10.237  18.520  66.739  1.00  0.00    -0.393 A  
ENDBRANCH  21  23
BRANCH  21  31
HETATM   31  C   UNL     1      -9.510  13.599  68.393  1.00  0.00    -0.190 C  
BRANCH  31  32
HETATM   32  N   UNL     1      -8.189  14.161  68.552  1.00  0.00    -0.147 NA 
HETATM   33  C   UNL     1      -7.117  14.018  67.724  1.00  0.00    -0.173 A  
HETATM   34  C   UNL     1      -6.712  15.491  69.155  1.00  0.00    -0.145 A  
HETATM   35  N   UNL     1      -6.162  14.838  68.090  1.00  0.00    -0.127 NA 
HETATM   36  N   UNL     1      -7.951  15.110  69.475  1.00  0.00    -0.210 NA 
ENDBRANCH  31  32
ENDBRANCH  21  31
ENDBRANCH  17  18
ENDBRANCH  16  17
ENDBRANCH  13  16
ENDBRANCH   7  10
ENDBRANCH   2   4
TORSDOF 8
ENDMDL
MODEL       24
REMARK 921   NORMALIZED FREE ENERGY PREDICTED BY IDOCK:   -6.46 KCAL/MOL
REMARK 922        TOTAL FREE ENERGY PREDICTED BY IDOCK:  -10.65 KCAL/MOL
REMARK 923 INTER-LIGAND FREE ENERGY PREDICTED BY IDOCK:  -10.20 KCAL/MOL
REMARK 924 INTRA-LIGAND FREE ENERGY PREDICTED BY IDOCK:   -0.45 KCAL/MOL
REMARK 927      BINDING AFFINITY PREDICTED BY RF-SCORE:    0.00 PKD
ROOT
HETATM    1  C   UNL     1      -7.553   4.227  74.316  1.00  0.00    -0.076 C  
HETATM    2  C   UNL     1      -8.753   4.453  73.373  1.00  0.00    -0.099 C  
HETATM    3  C   UNL     1      -9.031   3.105  72.687  1.00  0.00    -0.112 C  
ENDROOT
BRANCH   2   4
HETATM    4  N   UNL     1      -9.912   4.982  74.129  1.00  0.00    -0.174 NA 
HETATM    5  C   UNL     1      -9.715   6.394  74.554  1.00  0.00    -0.310 C  
HETATM    6  C   UNL     1      -9.813   7.435  73.417  1.00  0.00    -0.294 C  
HETATM    7  N   UNL     1     -11.115   7.306  72.742  1.00  0.00    -0.305 NA 
HETATM    8  C   UNL     1     -11.216   4.928  73.411  1.00  0.00    -0.338 C  
HETATM    9  C   UNL     1     -11.408   5.950  72.254  1.00  0.00    -0.298 C  
BRANCH   7  10
HETATM   10  C   UNL     1     -11.672   8.419  72.132  1.00  0.00    -0.375 A  
HETATM   11  C   UNL     1     -10.959   9.171  71.197  1.00  0.00    -0.390 A  
HETATM   12  C   UNL     1     -11.423  10.402  70.736  1.00  0.00    -0.422 A  
HETATM   13  C   UNL     1     -12.627  10.935  71.197  1.00  0.00    -0.428 A  
HETATM   14  C   UNL     1     -12.925   8.916  72.520  1.00  0.00    -0.415 A  
HETATM   15  C   UNL     1     -13.397  10.164  72.067  1.00  0.00    -0.492 A  
BRANCH  13  16
HETATM   16  O   UNL     1     -13.103  12.187  70.870  1.00  0.00    -0.061 OA 
BRANCH  16  17
HETATM   17  C   UNL     1     -12.095  13.086  70.394  1.00  0.00    -0.314 C  
BRANCH  17  18
HETATM   18  C   UNL     1     -12.064  13.237  68.877  1.00  0.00    -0.222 C  
HETATM   19  C   UNL     1     -12.263  14.654  68.407  1.00  0.00    -0.094 C  
HETATM   20  O   UNL     1     -11.478  14.737  67.217  1.00  0.00    -0.350 OA 
HETATM   21  C   UNL     1     -10.388  13.794  67.372  1.00  0.00    -0.252 C  
HETATM   22  O   UNL     1     -10.751  12.883  68.426  1.00  0.00    -0.240 OA 
BRANCH  21  23
HETATM   23  C   UNL     1     -10.194  12.985  66.087  1.00  0.00    -0.288 A  
HETATM   24  C   UNL     1      -9.341  11.859  66.099  1.00  0.00    -0.228 A  
HETATM   25  C   UNL     1     -10.838  13.288  64.868  1.00  0.00    -0.345 A  
HETATM   26  C   UNL     1      -9.183  11.046  64.974  1.00  0.00    -0.219 A  
HETATM   27  C   UNL     1     -10.694  12.460  63.746  1.00  0.00    -0.492 A  
HETATM   28 CL   UNL     1     -11.807  14.702  64.635  1.00  0.00    -0.445 Cl 
HETATM   29 CL   UNL     1      -9.720  10.312  62.437  1.00  0.00    -0.173 Cl 
HETATM   30  C   UNL     1      -9.877  11.338  63.808  1.00  0.00    -0.322 A  
ENDBRANCH  21  23
BRANCH  21  31
HETATM   31  C   UNL     1      -9.138  14.579  67.834  1.00  0.00    -0.191 C  
BRANCH  31  32
HETATM   32  N   UNL     1      -9.015  15.917  67.301  1.00  0.00    -0.190 NA 
HETATM   33  C   UNL     1      -8.578  16.284  66.065  1.00  0.00    -0.211 A  
HETATM   34  C   UNL     1      -9.409  17.939  67.042  1.00  0.00    -0.267 A  
HETATM   35  N   UNL     1      -8.803  17.562  65.878  1.00  0.00    -0.529 NA 
HETATM   36  N   UNL     1      -9.560  16.965  67.943  1.00  0.00    -0.240 NA 
ENDBRANCH  31  32
ENDBRANCH  21  31
ENDBRANCH  17  18
ENDBRANCH  16  17
ENDBRANCH  13  16
ENDBRANCH   7  10
ENDBRANCH   2   4
TORSDOF 8
ENDMDL
MODEL       25
REMARK 921   NORMALIZED FREE ENERGY PREDICTED BY IDOCK:   -6.45 KCAL/MOL
REMARK 922        TOTAL FREE ENERGY PREDICTED BY IDOCK:  -10.63 KCAL/MOL
REMARK 923 INTER-LIGAND FREE ENERGY PREDICTED BY IDOCK:   -9.21 KCAL/MOL
REMARK 924 INTRA-LIGAND FREE ENERGY PREDICTED BY IDOCK:   -1.42 KCAL/MOL
REMARK 927      BINDING AFFINITY PREDICTED BY RF-SCORE:    0.00 PKD
ROOT
HETATM    1  C   UNL     1     -10.132  18.357  66.793  1.00  0.00    -0.391 C  
HETATM    2  C   UNL     1      -9.272  17.242  67.421  1.00  0.00    -0.231 C  
HETATM    3  C   UNL     1      -8.330  17.927  68.425  1.00  0.00    -0.307 C  
ENDROOT
BRANCH   2   4
HETATM    4  N   UNL     1     -10.136  16.205  68.032  1.00  0.00    -0.238 NA 
HETATM    5  C   UNL     1     -10.998  15.522  67.030  1.00  0.00    -0.283 C  
HETATM    6  C   UNL     1     -10.256  14.542  66.096  1.00  0.00    -0.305 C  
HETATM    7  N   UNL     1      -9.551  13.531  66.900  1.00  0.00    -0.250 NA 
HETATM    8  C   UNL     1      -9.414  15.135  68.777  1.00  0.00    -0.209 C  
HETATM    9  C   UNL     1      -8.645  14.094  67.913  1.00  0.00    -0.178 C  
BRANCH   7  10
HETATM   10  C   UNL     1      -9.323  12.276  66.359  1.00  0.00    -0.219 A  
HETATM   11  C   UNL     1     -10.259  11.659  65.528  1.00  0.00    -0.302 A  
HETATM   12  C   UNL     1     -10.139  10.323  65.149  1.00  0.00    -0.355 A  
HETATM   13  C   UNL     1      -9.071   9.544  65.592  1.00  0.00    -0.201 A  
HETATM   14  C   UNL     1      -8.203  11.514  66.724  1.00  0.00    -0.164 A  
HETATM   15  C   UNL     1      -8.079  10.161  66.355  1.00  0.00    -0.122 A  
BRANCH  13  16
HETATM   16  O   UNL     1      -8.935   8.194  65.349  1.00  0.00    -0.104 OA 
BRANCH  16  17
HETATM   17  C   UNL     1      -8.972   7.384  66.530  1.00  0.00    -0.159 C  
BRANCH  17  18
HETATM   18  C   UNL     1     -10.186   7.634  67.417  1.00  0.00    -0.251 C  
HETATM   19  C   UNL     1     -10.922   6.378  67.802  1.00  0.00    -0.332 C  
HETATM   20  O   UNL     1     -11.427   6.659  69.108  1.00  0.00    -0.244 OA 
HETATM   21  C   UNL     1     -10.507   7.601  69.715  1.00  0.00    -0.232 C  
HETATM   22  O   UNL     1      -9.722   8.181  68.656  1.00  0.00    -0.148 OA 
BRANCH  21  23
HETATM   23  C   UNL     1     -11.275   8.727  70.410  1.00  0.00    -0.247 A  
HETATM   24  C   UNL     1     -11.013  10.069  70.054  1.00  0.00    -0.352 A  
HETATM   25  C   UNL     1     -12.262   8.508  71.395  1.00  0.00    -0.304 A  
HETATM   26  C   UNL     1     -11.734  11.130  70.607  1.00  0.00    -0.310 A  
HETATM   27  C   UNL     1     -12.998   9.572  71.936  1.00  0.00    -0.514 A  
HETATM   28 CL   UNL     1     -12.616   6.945  72.049  1.00  0.00    -0.306 Cl 
HETATM   29 CL   UNL     1     -13.658  12.175  72.178  1.00  0.00    -0.447 Cl 
HETATM   30  C   UNL     1     -12.738  10.875  71.531  1.00  0.00    -0.428 A  
ENDBRANCH  21  23
BRANCH  21  31
HETATM   31  C   UNL     1      -9.550   6.810  70.636  1.00  0.00    -0.169 C  
BRANCH  31  32
HETATM   32  N   UNL     1      -8.735   7.614  71.518  1.00  0.00    -0.118 NA 
HETATM   33  C   UNL     1      -9.008   7.982  72.800  1.00  0.00    -0.228 A  
HETATM   34  C   UNL     1      -7.022   8.455  72.337  1.00  0.00    -0.088 A  
HETATM   35  N   UNL     1      -7.946   8.529  73.340  1.00  0.00    -0.399 NA 
HETATM   36  N   UNL     1      -7.460   7.902  71.204  1.00  0.00    -0.075 NA 
ENDBRANCH  31  32
ENDBRANCH  21  31
ENDBRANCH  17  18
ENDBRANCH  16  17
ENDBRANCH  13  16
ENDBRANCH   7  10
ENDBRANCH   2   4
TORSDOF 8
ENDMDL
MODEL       26
REMARK 921   NORMALIZED FREE ENERGY PREDICTED BY IDOCK:   -6.44 KCAL/MOL
REMARK 922        TOTAL FREE ENERGY PREDICTED BY IDOCK:  -10.62 KCAL/MOL
REMARK 923 INTER-LIGAND FREE ENERGY PREDICTED BY IDOCK:   -9.18 KCAL/MOL
REMARK 924 INTRA-LIGAND FREE ENERGY PREDICTED BY IDOCK:   -1.44 KCAL/MOL
REMARK 927      BINDING AFFINITY PREDICTED BY RF-SCORE:    0.00 PKD
ROOT
HETATM    1  C   UNL     1     -10.642  19.301  67.648  1.00  0.00    -0.553 C  
HETATM    2  C   UNL     1      -9.405  18.423  67.925  1.00  0.00    -0.280 C  
HETATM    3  C   UNL     1      -8.339  19.348  68.535  1.00  0.00    -0.399 C  
ENDROOT
BRANCH   2   4
HETATM    4  N   UNL     1      -9.768  17.281  68.798  1.00  0.00    -0.280 NA 
HETATM    5  C   UNL     1     -10.971  16.555  68.310  1.00  0.00    -0.346 C  
HETATM    6  C   UNL     1     -10.743  15.691  67.050  1.00  0.00    -0.314 C  
HETATM    7  N   UNL     1      -9.661  14.726  67.303  1.00  0.00    -0.219 NA 
HETATM    8  C   UNL     1      -8.697  16.262  68.984  1.00  0.00    -0.246 C  
HETATM    9  C   UNL     1      -8.406  15.337  67.767  1.00  0.00    -0.153 C  
BRANCH   7  10
HETATM   10  C   UNL     1      -9.655  13.522  66.616  1.00  0.00    -0.278 A  
HETATM   11  C   UNL     1     -10.779  13.077  65.917  1.00  0.00    -0.292 A  
HETATM   12  C   UNL     1     -10.859  11.784  65.402  1.00  0.00    -0.347 A  
HETATM   13  C   UNL     1      -9.812  10.878  65.568  1.00  0.00    -0.246 A  
HETATM   14  C   UNL     1      -8.569  12.638  66.697  1.00  0.00    -0.035 A  
HETATM   15  C   UNL     1      -8.646  11.327  66.189  1.00  0.00    -0.156 A  
BRANCH  13  16
HETATM   16  O   UNL     1      -9.854   9.556  65.181  1.00  0.00    -0.248 OA 
BRANCH  16  17
HETATM   17  C   UNL     1      -9.553   8.632  66.233  1.00  0.00    -0.252 C  
BRANCH  17  18
HETATM   18  C   UNL     1     -10.518   8.697  67.412  1.00  0.00    -0.281 C  
HETATM   19  C   UNL     1     -10.581   7.423  68.213  1.00  0.00    -0.157 C  
HETATM   20  O   UNL     1     -10.829   7.865  69.547  1.00  0.00    -0.221 OA 
HETATM   21  C   UNL     1     -10.243   9.185  69.664  1.00  0.00    -0.203 C  
HETATM   22  O   UNL     1     -10.027   9.682  68.329  1.00  0.00    -0.147 OA 
BRANCH  21  23
HETATM   23  C   UNL     1     -11.204  10.138  70.377  1.00  0.00    -0.402 A  
HETATM   24  C   UNL     1     -11.347  11.462  69.907  1.00  0.00    -0.300 A  
HETATM   25  C   UNL     1     -11.988   9.767  71.491  1.00  0.00    -0.407 A  
HETATM   26  C   UNL     1     -12.261  12.351  70.478  1.00  0.00    -0.382 A  
HETATM   27  C   UNL     1     -12.919  10.653  72.052  1.00  0.00    -0.466 A  
HETATM   28 CL   UNL     1     -11.844   8.235  72.283  1.00  0.00    -0.424 Cl 
HETATM   29 CL   UNL     1     -14.217  13.012  72.210  1.00  0.00    -0.316 Cl 
HETATM   30  C   UNL     1     -13.059  11.935  71.535  1.00  0.00    -0.275 A  
ENDBRANCH  21  23
BRANCH  21  31
HETATM   31  C   UNL     1      -8.861   9.037  70.342  1.00  0.00    -0.200 C  
BRANCH  31  32
HETATM   32  N   UNL     1      -7.751   9.613  69.618  1.00  0.00    -0.108 NA 
HETATM   33  C   UNL     1      -7.166  10.827  69.817  1.00  0.00    -0.101 A  
HETATM   34  C   UNL     1      -6.005   9.690  68.497  1.00  0.00    -0.043 A  
HETATM   35  N   UNL     1      -6.065  10.909  69.110  1.00  0.00    -0.042 NA 
HETATM   36  N   UNL     1      -7.015   8.864  68.778  1.00  0.00    -0.062 NA 
ENDBRANCH  31  32
ENDBRANCH  21  31
ENDBRANCH  17  18
ENDBRANCH  16  17
ENDBRANCH  13  16
ENDBRANCH   7  10
ENDBRANCH   2   4
TORSDOF 8
ENDMDL
MODEL       27
REMARK 921   NORMALIZED FREE ENERGY PREDICTED BY IDOCK:   -6.42 KCAL/MOL
REMARK 922        TOTAL FREE ENERGY PREDICTED BY IDOCK:  -10.59 KCAL/MOL
REMARK 923 INTER-LIGAND FREE ENERGY PREDICTED BY IDOCK:   -9.93 KCAL/MOL
REMARK 924 INTRA-LIGAND FREE ENERGY PREDICTED BY IDOCK:   -0.65 KCAL/MOL
REMARK 927      BINDING AFFINITY PREDICTED BY RF-SCORE:    0.00 PKD
ROOT
HETATM    1  C   UNL     1      -7.527  19.965  65.624  1.00  0.00    -0.285 C  
HETATM    2  C   UNL     1      -7.921  19.758  67.101  1.00  0.00    -0.288 C  
HETATM    3  C   UNL     1      -7.182  20.837  67.908  1.00  0.00    -0.211 C  
ENDROOT
BRANCH   2   4
HETATM    4  N   UNL     1      -9.394  19.808  67.254  1.00  0.00    -0.330 NA 
HETATM    5  C   UNL     1     -10.102  19.059  66.181  1.00  0.00    -0.406 C  
HETATM    6  C   UNL     1     -10.011  17.521  66.293  1.00  0.00    -0.308 C  
HETATM    7  N   UNL     1     -10.521  17.091  67.605  1.00  0.00    -0.336 NA 
HETATM    8  C   UNL     1      -9.915  19.294  68.552  1.00  0.00    -0.433 C  
HETATM    9  C   UNL     1      -9.872  17.751  68.748  1.00  0.00    -0.343 C  
BRANCH   7  10
HETATM   10  C   UNL     1     -11.076  15.828  67.733  1.00  0.00    -0.313 A  
HETATM   11  C   UNL     1     -11.476  15.330  68.974  1.00  0.00    -0.338 A  
HETATM   12  C   UNL     1     -11.837  13.994  69.149  1.00  0.00    -0.391 A  
HETATM   13  C   UNL     1     -11.811  13.097  68.081  1.00  0.00    -0.348 A  
HETATM   14  C   UNL     1     -11.141  14.943  66.646  1.00  0.00    -0.329 A  
HETATM   15  C   UNL     1     -11.495  13.591  66.815  1.00  0.00    -0.374 A  
BRANCH  13  16
HETATM   16  O   UNL     1     -12.053  11.745  68.191  1.00  0.00    -0.556 OA 
BRANCH  16  17
HETATM   17  C   UNL     1     -11.373  10.951  67.212  1.00  0.00    -0.151 C  
BRANCH  17  18
HETATM   18  C   UNL     1     -10.179  10.177  67.760  1.00  0.00    -0.191 C  
HETATM   19  C   UNL     1      -9.302  10.989  68.677  1.00  0.00    -0.194 C  
HETATM   20  O   UNL     1      -8.810  10.035  69.619  1.00  0.00    -0.194 OA 
HETATM   21  C   UNL     1      -9.819   9.001  69.728  1.00  0.00    -0.180 C  
HETATM   22  O   UNL     1     -10.681   9.116  68.581  1.00  0.00    -0.197 OA 
BRANCH  21  23
HETATM   23  C   UNL     1      -9.170   7.615  69.699  1.00  0.00    -0.146 A  
HETATM   24  C   UNL     1      -7.765   7.508  69.590  1.00  0.00    -0.100 A  
HETATM   25  C   UNL     1      -9.898   6.409  69.791  1.00  0.00    -0.165 A  
HETATM   26  C   UNL     1      -7.117   6.271  69.629  1.00  0.00    -0.073 A  
HETATM   27  C   UNL     1      -9.245   5.169  69.849  1.00  0.00    -0.173 A  
HETATM   28 CL   UNL     1     -11.626   6.344  69.793  1.00  0.00    -0.478 Cl 
HETATM   29 CL   UNL     1      -7.060   3.588  69.874  1.00  0.00    -0.041 Cl 
HETATM   30  C   UNL     1      -7.859   5.108  69.780  1.00  0.00    -0.072 A  
ENDBRANCH  21  23
BRANCH  21  31
HETATM   31  C   UNL     1     -10.667   9.288  70.989  1.00  0.00    -0.316 C  
BRANCH  31  32
HETATM   32  N   UNL     1     -10.180   8.691  72.211  1.00  0.00    -0.322 NA 
HETATM   33  C   UNL     1     -10.815   7.786  73.007  1.00  0.00    -0.389 A  
HETATM   34  C   UNL     1      -8.818   7.975  73.605  1.00  0.00    -0.260 A  
HETATM   35  N   UNL     1      -9.980   7.325  73.906  1.00  0.00    -0.313 NA 
HETATM   36  N   UNL     1      -8.892   8.821  72.575  1.00  0.00    -0.389 NA 
ENDBRANCH  31  32
ENDBRANCH  21  31
ENDBRANCH  17  18
ENDBRANCH  16  17
ENDBRANCH  13  16
ENDBRANCH   7  10
ENDBRANCH   2   4
TORSDOF 8
ENDMDL
MODEL       28
REMARK 921   NORMALIZED FREE ENERGY PREDICTED BY IDOCK:   -6.40 KCAL/MOL
REMARK 922        TOTAL FREE ENERGY PREDICTED BY IDOCK:  -10.56 KCAL/MOL
REMARK 923 INTER-LIGAND FREE ENERGY PREDICTED BY IDOCK:  -10.69 KCAL/MOL
REMARK 924 INTRA-LIGAND FREE ENERGY PREDICTED BY IDOCK:    0.13 KCAL/MOL
REMARK 927      BINDING AFFINITY PREDICTED BY RF-SCORE:    0.00 PKD
ROOT
HETATM    1  C   UNL     1     -10.287   1.568  72.100  1.00  0.00    -0.224 C  
HETATM    2  C   UNL     1     -10.151   2.591  73.246  1.00  0.00    -0.114 C  
HETATM    3  C   UNL     1      -9.963   1.779  74.538  1.00  0.00    -0.131 C  
ENDROOT
BRANCH   2   4
HETATM    4  N   UNL     1      -9.038   3.530  72.970  1.00  0.00    -0.098 NA 
HETATM    5  C   UNL     1      -9.144   4.155  71.624  1.00  0.00    -0.123 C  
HETATM    6  C   UNL     1     -10.254   5.221  71.488  1.00  0.00    -0.212 C  
HETATM    7  N   UNL     1     -10.055   6.272  72.499  1.00  0.00    -0.176 NA 
HETATM    8  C   UNL     1      -8.891   4.643  73.950  1.00  0.00    -0.104 C  
HETATM    9  C   UNL     1      -9.961   5.771  73.878  1.00  0.00    -0.205 C  
BRANCH   7  10
HETATM   10  C   UNL     1     -10.508   7.556  72.237  1.00  0.00    -0.230 A  
HETATM   11  C   UNL     1     -11.783   7.971  72.625  1.00  0.00    -0.418 A  
HETATM   12  C   UNL     1     -12.328   9.178  72.188  1.00  0.00    -0.424 A  
HETATM   13  C   UNL     1     -11.614  10.022  71.337  1.00  0.00    -0.305 A  
HETATM   14  C   UNL     1      -9.761   8.451  71.458  1.00  0.00    -0.276 A  
HETATM   15  C   UNL     1     -10.307   9.667  71.004  1.00  0.00    -0.292 A  
BRANCH  13  16
HETATM   16  O   UNL     1     -12.119  11.177  70.780  1.00  0.00    -0.344 OA 
BRANCH  16  17
HETATM   17  C   UNL     1     -12.114  11.182  69.348  1.00  0.00    -0.326 C  
BRANCH  17  18
HETATM   18  C   UNL     1     -11.164  12.203  68.733  1.00  0.00    -0.264 C  
HETATM   19  C   UNL     1     -10.615  11.788  67.393  1.00  0.00    -0.224 C  
HETATM   20  O   UNL     1     -10.458  13.019  66.687  1.00  0.00    -0.260 OA 
HETATM   21  C   UNL     1     -11.459  13.928  67.209  1.00  0.00    -0.344 C  
HETATM   22  O   UNL     1     -11.912  13.396  68.468  1.00  0.00    -0.348 OA 
BRANCH  21  23
HETATM   23  C   UNL     1     -10.848  15.307  67.466  1.00  0.00    -0.304 A  
HETATM   24  C   UNL     1      -9.912  15.834  66.548  1.00  0.00    -0.283 A  
HETATM   25  C   UNL     1     -11.178  16.113  68.577  1.00  0.00    -0.365 A  
HETATM   26  C   UNL     1      -9.377  17.116  66.699  1.00  0.00    -0.277 A  
HETATM   27  C   UNL     1     -10.655  17.407  68.717  1.00  0.00    -0.283 A  
HETATM   28 CL   UNL     1     -12.198  15.576  69.867  1.00  0.00    -0.379 Cl 
HETATM   29 CL   UNL     1      -9.145  19.500  67.933  1.00  0.00    -0.372 Cl 
HETATM   30  C   UNL     1      -9.767  17.905  67.772  1.00  0.00    -0.283 A  
ENDBRANCH  21  23
BRANCH  21  31
HETATM   31  C   UNL     1     -12.660  13.927  66.235  1.00  0.00    -0.330 C  
BRANCH  31  32
HETATM   32  N   UNL     1     -12.418  13.307  64.953  1.00  0.00    -0.551 NA 
HETATM   33  C   UNL     1     -11.321  13.442  64.156  1.00  0.00    -0.364 A  
HETATM   34  C   UNL     1     -12.533  11.895  63.435  1.00  0.00    -0.463 A  
HETATM   35  N   UNL     1     -11.374  12.570  63.179  1.00  0.00    -0.287 NA 
HETATM   36  N   UNL     1     -13.205  12.311  64.510  1.00  0.00    -0.712 NA 
ENDBRANCH  31  32
ENDBRANCH  21  31
ENDBRANCH  17  18
ENDBRANCH  16  17
ENDBRANCH  13  16
ENDBRANCH   7  10
ENDBRANCH   2   4
TORSDOF 8
ENDMDL
MODEL       29
REMARK 921   NORMALIZED FREE ENERGY PREDICTED BY IDOCK:   -6.39 KCAL/MOL
REMARK 922        TOTAL FREE ENERGY PREDICTED BY IDOCK:  -10.55 KCAL/MOL
REMARK 923 INTER-LIGAND FREE ENERGY PREDICTED BY IDOCK:   -9.67 KCAL/MOL
REMARK 924 INTRA-LIGAND FREE ENERGY PREDICTED BY IDOCK:   -0.88 KCAL/MOL
REMARK 927      BINDING AFFINITY PREDICTED BY RF-SCORE:    0.00 PKD
ROOT
HETATM    1  C   UNL     1     -10.153  19.927  68.103  1.00  0.00    -0.569 C  
HETATM    2  C   UNL     1     -10.545  18.858  67.063  1.00  0.00    -0.438 C  
HETATM    3  C   UNL     1     -10.653  19.581  65.710  1.00  0.00    -0.522 C  
ENDROOT
BRANCH   2   4
HETATM    4  N   UNL     1      -9.561  17.750  67.065  1.00  0.00    -0.275 NA 
HETATM    5  C   UNL     1      -9.336  17.194  68.426  1.00  0.00    -0.273 C  
HETATM    6  C   UNL     1     -10.497  16.340  68.980  1.00  0.00    -0.276 C  
HETATM    7  N   UNL     1     -10.789  15.240  68.047  1.00  0.00    -0.278 NA 
HETATM    8  C   UNL     1      -9.901  16.599  66.182  1.00  0.00    -0.318 C  
HETATM    9  C   UNL     1     -11.055  15.675  66.667  1.00  0.00    -0.147 C  
BRANCH   7  10
HETATM   10  C   UNL     1     -11.330  14.062  68.539  1.00  0.00    -0.277 A  
HETATM   11  C   UNL     1     -11.874  13.991  69.822  1.00  0.00    -0.385 A  
HETATM   12  C   UNL     1     -12.227  12.774  70.405  1.00  0.00    -0.371 A  
HETATM   13  C   UNL     1     -12.047  11.572  69.722  1.00  0.00    -0.306 A  
HETATM   14  C   UNL     1     -11.239  12.859  67.823  1.00  0.00    -0.319 A  
HETATM   15  C   UNL     1     -11.584  11.626  68.407  1.00  0.00    -0.376 A  
BRANCH  13  16
HETATM   16  O   UNL     1     -12.274  10.325  70.263  1.00  0.00    -0.267 OA 
BRANCH  16  17
HETATM   17  C   UNL     1     -11.244   9.883  71.155  1.00  0.00    -0.334 C  
BRANCH  17  18
HETATM   18  C   UNL     1     -11.405   8.440  71.623  1.00  0.00    -0.286 C  
HETATM   19  C   UNL     1     -12.766   7.862  71.341  1.00  0.00    -0.292 C  
HETATM   20  O   UNL     1     -12.511   6.478  71.098  1.00  0.00    -0.264 OA 
HETATM   21  C   UNL     1     -11.169   6.392  70.558  1.00  0.00    -0.352 C  
HETATM   22  O   UNL     1     -10.499   7.629  70.866  1.00  0.00    -0.205 OA 
BRANCH  21  23
HETATM   23  C   UNL     1     -10.396   5.252  71.225  1.00  0.00    -0.292 A  
HETATM   24  C   UNL     1      -9.963   4.157  70.445  1.00  0.00    -0.163 A  
HETATM   25  C   UNL     1     -10.065   5.230  72.597  1.00  0.00    -0.174 A  
HETATM   26  C   UNL     1      -9.195   3.125  70.989  1.00  0.00    -0.200 A  
HETATM   27  C   UNL     1      -9.277   4.204  73.138  1.00  0.00    -0.123 A  
HETATM   28 CL   UNL     1     -10.626   6.416  73.725  1.00  0.00    -0.298 Cl 
HETATM   29 CL   UNL     1      -7.853   1.919  72.991  1.00  0.00    -0.044 Cl 
HETATM   30  C   UNL     1      -8.837   3.164  72.330  1.00  0.00    -0.086 A  
ENDBRANCH  21  23
BRANCH  21  31
HETATM   31  C   UNL     1     -11.278   6.282  69.020  1.00  0.00    -0.343 C  
BRANCH  31  32
HETATM   32  N   UNL     1     -10.395   7.150  68.273  1.00  0.00    -0.188 NA 
HETATM   33  C   UNL     1      -9.077   6.955  67.993  1.00  0.00    -0.120 A  
HETATM   34  C   UNL     1      -9.804   8.573  66.881  1.00  0.00    -0.242 A  
HETATM   35  N   UNL     1      -8.672   7.850  67.124  1.00  0.00    -0.130 NA 
HETATM   36  N   UNL     1     -10.884   8.181  67.562  1.00  0.00    -0.134 NA 
ENDBRANCH  31  32
ENDBRANCH  21  31
ENDBRANCH  17  18
ENDBRANCH  16  17
ENDBRANCH  13  16
ENDBRANCH   7  10
ENDBRANCH   2   4
TORSDOF 8
ENDMDL
MODEL       30
REMARK 921   NORMALIZED FREE ENERGY PREDICTED BY IDOCK:   -6.37 KCAL/MOL
REMARK 922        TOTAL FREE ENERGY PREDICTED BY IDOCK:  -10.52 KCAL/MOL
REMARK 923 INTER-LIGAND FREE ENERGY PREDICTED BY IDOCK:   -9.22 KCAL/MOL
REMARK 924 INTRA-LIGAND FREE ENERGY PREDICTED BY IDOCK:   -1.30 KCAL/MOL
REMARK 927      BINDING AFFINITY PREDICTED BY RF-SCORE:    0.00 PKD
ROOT
HETATM    1  C   UNL     1     -10.139  19.940  68.114  1.00  0.00    -0.569 C  
HETATM    2  C   UNL     1     -10.508  18.892  67.045  1.00  0.00    -0.428 C  
HETATM    3  C   UNL     1     -10.767  19.665  65.742  1.00  0.00    -0.493 C  
ENDROOT
BRANCH   2   4
HETATM    4  N   UNL     1      -9.436  17.875  66.928  1.00  0.00    -0.271 NA 
HETATM    5  C   UNL     1      -9.059  17.293  68.244  1.00  0.00    -0.262 C  
HETATM    6  C   UNL     1     -10.097  16.321  68.846  1.00  0.00    -0.251 C  
HETATM    7  N   UNL     1     -10.365  15.233  67.892  1.00  0.00    -0.243 NA 
HETATM    8  C   UNL     1      -9.744  16.730  66.025  1.00  0.00    -0.259 C  
HETATM    9  C   UNL     1     -10.774  15.692  66.556  1.00  0.00    -0.293 C  
BRANCH   7  10
HETATM   10  C   UNL     1     -10.763  13.996  68.373  1.00  0.00    -0.251 A  
HETATM   11  C   UNL     1     -10.622  12.837  67.608  1.00  0.00    -0.230 A  
HETATM   12  C   UNL     1     -11.205  11.629  67.989  1.00  0.00    -0.327 A  
HETATM   13  C   UNL     1     -11.960  11.532  69.157  1.00  0.00    -0.320 A  
HETATM   14  C   UNL     1     -11.444  13.869  69.593  1.00  0.00    -0.310 A  
HETATM   15  C   UNL     1     -12.044  12.655  69.980  1.00  0.00    -0.339 A  
BRANCH  13  16
HETATM   16  O   UNL     1     -12.651  10.406  69.550  1.00  0.00    -0.120 OA 
BRANCH  16  17
HETATM   17  C   UNL     1     -13.035  10.411  70.929  1.00  0.00    -0.387 C  
BRANCH  17  18
HETATM   18  C   UNL     1     -12.333   9.352  71.773  1.00  0.00    -0.394 C  
HETATM   19  C   UNL     1     -13.153   8.106  71.983  1.00  0.00    -0.293 C  
HETATM   20  O   UNL     1     -12.183   7.060  72.046  1.00  0.00    -0.308 OA 
HETATM   21  C   UNL     1     -11.058   7.488  71.239  1.00  0.00    -0.246 C  
HETATM   22  O   UNL     1     -11.176   8.911  71.052  1.00  0.00    -0.251 OA 
BRANCH  21  23
HETATM   23  C   UNL     1      -9.741   7.211  71.968  1.00  0.00    -0.173 A  
HETATM   24  C   UNL     1      -8.813   8.262  72.149  1.00  0.00    -0.265 A  
HETATM   25  C   UNL     1      -9.390   5.951  72.497  1.00  0.00    -0.141 A  
HETATM   26  C   UNL     1      -7.628   8.080  72.866  1.00  0.00    -0.168 A  
HETATM   27  C   UNL     1      -8.210   5.774  73.233  1.00  0.00    -0.117 A  
HETATM   28 CL   UNL     1     -10.338   4.524  72.252  1.00  0.00    -0.255 Cl 
HETATM   29 CL   UNL     1      -5.906   6.629  74.346  1.00  0.00    -0.062 Cl 
HETATM   30  C   UNL     1      -7.342   6.842  73.423  1.00  0.00    -0.077 A  
ENDBRANCH  21  23
BRANCH  21  31
HETATM   31  C   UNL     1     -11.180   6.816  69.852  1.00  0.00    -0.326 C  
BRANCH  31  32
HETATM   32  N   UNL     1     -10.171   7.196  68.889  1.00  0.00    -0.181 NA 
HETATM   33  C   UNL     1      -8.947   6.631  68.699  1.00  0.00    -0.124 A  
HETATM   34  C   UNL     1      -9.361   7.965  67.139  1.00  0.00    -0.153 A  
HETATM   35  N   UNL     1      -8.405   7.109  67.605  1.00  0.00    -0.117 NA 
HETATM   36  N   UNL     1     -10.460   8.051  67.892  1.00  0.00    -0.216 NA 
ENDBRANCH  31  32
ENDBRANCH  21  31
ENDBRANCH  17  18
ENDBRANCH  16  17
ENDBRANCH  13  16
ENDBRANCH   7  10
ENDBRANCH   2   4
TORSDOF 8
ENDMDL
MODEL       31
REMARK 921   NORMALIZED FREE ENERGY PREDICTED BY IDOCK:   -6.37 KCAL/MOL
REMARK 922        TOTAL FREE ENERGY PREDICTED BY IDOCK:  -10.52 KCAL/MOL
REMARK 923 INTER-LIGAND FREE ENERGY PREDICTED BY IDOCK:   -9.42 KCAL/MOL
REMARK 924 INTRA-LIGAND FREE ENERGY PREDICTED BY IDOCK:   -1.10 KCAL/MOL
REMARK 927      BINDING AFFINITY PREDICTED BY RF-SCORE:    0.00 PKD
ROOT
HETATM    1  C   UNL     1      -7.594  19.885  65.688  1.00  0.00    -0.242 C  
HETATM    2  C   UNL     1      -7.844  19.564  67.175  1.00  0.00    -0.258 C  
HETATM    3  C   UNL     1      -6.985  20.547  67.987  1.00  0.00    -0.303 C  
ENDROOT
BRANCH   2   4
HETATM    4  N   UNL     1      -9.291  19.647  67.485  1.00  0.00    -0.317 NA 
HETATM    5  C   UNL     1     -10.136  19.061  66.410  1.00  0.00    -0.415 C  
HETATM    6  C   UNL     1     -10.107  17.519  66.328  1.00  0.00    -0.336 C  
HETATM    7  N   UNL     1     -10.504  16.948  67.625  1.00  0.00    -0.325 NA 
HETATM    8  C   UNL     1      -9.705  18.995  68.760  1.00  0.00    -0.416 C  
HETATM    9  C   UNL     1      -9.715  17.439  68.765  1.00  0.00    -0.282 C  
BRANCH   7  10
HETATM   10  C   UNL     1     -11.103  15.699  67.658  1.00  0.00    -0.305 A  
HETATM   11  C   UNL     1     -11.617  15.168  68.843  1.00  0.00    -0.361 A  
HETATM   12  C   UNL     1     -12.028  13.839  68.936  1.00  0.00    -0.394 A  
HETATM   13  C   UNL     1     -11.940  12.982  67.840  1.00  0.00    -0.291 A  
HETATM   14  C   UNL     1     -11.105  14.858  66.536  1.00  0.00    -0.341 A  
HETATM   15  C   UNL     1     -11.510  13.512  66.624  1.00  0.00    -0.366 A  
BRANCH  13  16
HETATM   16  O   UNL     1     -12.228  11.634  67.877  1.00  0.00    -0.560 OA 
BRANCH  16  17
HETATM   17  C   UNL     1     -11.312  10.866  68.664  1.00  0.00    -0.295 C  
BRANCH  17  18
HETATM   18  C   UNL     1     -10.424   9.932  67.849  1.00  0.00    -0.236 C  
HETATM   19  C   UNL     1      -8.961  10.285  67.906  1.00  0.00    -0.131 C  
HETATM   20  O   UNL     1      -8.297   9.025  67.815  1.00  0.00    -0.116 OA 
HETATM   21  C   UNL     1      -9.193   8.041  68.388  1.00  0.00    -0.135 C  
HETATM   22  O   UNL     1     -10.507   8.626  68.430  1.00  0.00    -0.213 OA 
BRANCH  21  23
HETATM   23  C   UNL     1      -9.254   6.793  67.504  1.00  0.00    -0.122 A  
HETATM   24  C   UNL     1     -10.511   6.270  67.127  1.00  0.00    -0.327 A  
HETATM   25  C   UNL     1      -8.111   6.124  67.016  1.00  0.00    -0.106 A  
HETATM   26  C   UNL     1     -10.624   5.176  66.266  1.00  0.00    -0.325 A  
HETATM   27  C   UNL     1      -8.225   5.039  66.136  1.00  0.00    -0.109 A  
HETATM   28 CL   UNL     1      -6.498   6.542  67.483  1.00  0.00    -0.050 Cl 
HETATM   29 CL   UNL     1      -9.616   3.260  64.661  1.00  0.00    -0.155 Cl 
HETATM   30  C   UNL     1      -9.479   4.578  65.757  1.00  0.00    -0.172 A  
ENDBRANCH  21  23
BRANCH  21  31
HETATM   31  C   UNL     1      -8.745   7.776  69.845  1.00  0.00    -0.142 C  
BRANCH  31  32
HETATM   32  N   UNL     1      -9.815   7.668  70.811  1.00  0.00    -0.178 NA 
HETATM   33  C   UNL     1     -10.521   6.554  71.150  1.00  0.00    -0.220 A  
HETATM   34  C   UNL     1     -10.953   8.101  72.492  1.00  0.00    -0.369 A  
HETATM   35  N   UNL     1     -11.260   6.803  72.204  1.00  0.00    -0.249 NA 
HETATM   36  N   UNL     1     -10.073   8.672  71.666  1.00  0.00    -0.265 NA 
ENDBRANCH  31  32
ENDBRANCH  21  31
ENDBRANCH  17  18
ENDBRANCH  16  17
ENDBRANCH  13  16
ENDBRANCH   7  10
ENDBRANCH   2   4
TORSDOF 8
ENDMDL
MODEL       32
REMARK 921   NORMALIZED FREE ENERGY PREDICTED BY IDOCK:   -6.33 KCAL/MOL
REMARK 922        TOTAL FREE ENERGY PREDICTED BY IDOCK:  -10.46 KCAL/MOL
REMARK 923 INTER-LIGAND FREE ENERGY PREDICTED BY IDOCK:   -9.02 KCAL/MOL
REMARK 924 INTRA-LIGAND FREE ENERGY PREDICTED BY IDOCK:   -1.44 KCAL/MOL
REMARK 927      BINDING AFFINITY PREDICTED BY RF-SCORE:    0.00 PKD
ROOT
HETATM    1  C   UNL     1     -10.081   4.842  71.116  1.00  0.00    -0.261 C  
HETATM    2  C   UNL     1     -10.623   6.230  71.514  1.00  0.00    -0.237 C  
HETATM    3  C   UNL     1     -11.082   6.119  72.977  1.00  0.00    -0.250 C  
ENDROOT
BRANCH   2   4
HETATM    4  N   UNL     1      -9.591   7.270  71.294  1.00  0.00    -0.163 NA 
HETATM    5  C   UNL     1      -9.379   7.562  69.850  1.00  0.00    -0.150 C  
HETATM    6  C   UNL     1     -10.515   8.359  69.174  1.00  0.00    -0.206 C  
HETATM    7  N   UNL     1     -10.732   9.621  69.899  1.00  0.00    -0.235 NA 
HETATM    8  C   UNL     1      -9.855   8.576  71.961  1.00  0.00    -0.312 C  
HETATM    9  C   UNL     1     -10.980   9.453  71.339  1.00  0.00    -0.373 C  
BRANCH   7  10
HETATM   10  C   UNL     1     -11.233  10.716  69.213  1.00  0.00    -0.273 A  
HETATM   11  C   UNL     1     -11.093  10.836  67.829  1.00  0.00    -0.381 A  
HETATM   12  C   UNL     1     -11.401  12.019  67.159  1.00  0.00    -0.396 A  
HETATM   13  C   UNL     1     -11.864  13.138  67.851  1.00  0.00    -0.348 A  
HETATM   14  C   UNL     1     -11.787  11.813  69.890  1.00  0.00    -0.423 A  
HETATM   15  C   UNL     1     -12.092  13.015  69.222  1.00  0.00    -0.251 A  
BRANCH  13  16
HETATM   16  O   UNL     1     -12.092  14.371  67.279  1.00  0.00    -0.406 OA 
BRANCH  16  17
HETATM   17  C   UNL     1     -11.095  14.765  66.330  1.00  0.00    -0.340 C  
BRANCH  17  18
HETATM   18  C   UNL     1     -10.533  16.163  66.564  1.00  0.00    -0.297 C  
HETATM   19  C   UNL     1     -10.989  16.789  67.856  1.00  0.00    -0.260 C  
HETATM   20  O   UNL     1      -9.881  17.593  68.260  1.00  0.00    -0.290 OA 
HETATM   21  C   UNL     1      -8.691  16.959  67.729  1.00  0.00    -0.212 C  
HETATM   22  O   UNL     1      -9.111  16.051  66.694  1.00  0.00    -0.210 OA 
BRANCH  21  23
HETATM   23  C   UNL     1      -7.763  18.001  67.101  1.00  0.00    -0.233 A  
HETATM   24  C   UNL     1      -7.178  17.741  65.842  1.00  0.00    -0.260 A  
HETATM   25  C   UNL     1      -7.458  19.240  67.704  1.00  0.00    -0.242 A  
HETATM   26  C   UNL     1      -6.380  18.686  65.193  1.00  0.00    -0.247 A  
HETATM   27  C   UNL     1      -6.673  20.196  67.043  1.00  0.00    -0.259 A  
HETATM   28 CL   UNL     1      -7.974  19.670  69.298  1.00  0.00    -0.202 Cl 
HETATM   29 CL   UNL     1      -5.204  21.100  64.970  1.00  0.00    -0.237 Cl 
HETATM   30  C   UNL     1      -6.148  19.918  65.788  1.00  0.00    -0.184 A  
ENDBRANCH  21  23
BRANCH  21  31
HETATM   31  C   UNL     1      -8.048  16.122  68.860  1.00  0.00    -0.228 C  
BRANCH  31  32
HETATM   32  N   UNL     1      -7.609  14.799  68.479  1.00  0.00    -0.114 NA 
HETATM   33  C   UNL     1      -8.310  13.634  68.556  1.00  0.00    -0.110 A  
HETATM   34  C   UNL     1      -6.555  13.332  67.456  1.00  0.00    -0.143 A  
HETATM   35  N   UNL     1      -7.660  12.684  67.929  1.00  0.00    -0.118 NA 
HETATM   36  N   UNL     1      -6.481  14.627  67.768  1.00  0.00    -0.163 NA 
ENDBRANCH  31  32
ENDBRANCH  21  31
ENDBRANCH  17  18
ENDBRANCH  16  17
ENDBRANCH  13  16
ENDBRANCH   7  10
ENDBRANCH   2   4
TORSDOF 8
ENDMDL
MODEL       33
REMARK 921   NORMALIZED FREE ENERGY PREDICTED BY IDOCK:   -6.32 KCAL/MOL
REMARK 922        TOTAL FREE ENERGY PREDICTED BY IDOCK:  -10.45 KCAL/MOL
REMARK 923 INTER-LIGAND FREE ENERGY PREDICTED BY IDOCK:   -9.40 KCAL/MOL
REMARK 924 INTRA-LIGAND FREE ENERGY PREDICTED BY IDOCK:   -1.05 KCAL/MOL
REMARK 927      BINDING AFFINITY PREDICTED BY RF-SCORE:    0.00 PKD
ROOT
HETATM    1  C   UNL     1      -9.280   2.568  68.016  1.00  0.00    -0.254 C  
HETATM    2  C   UNL     1      -9.378   4.081  68.300  1.00  0.00    -0.160 C  
HETATM    3  C   UNL     1      -9.738   4.226  69.788  1.00  0.00    -0.290 C  
ENDROOT
BRANCH   2   4
HETATM    4  N   UNL     1      -8.115   4.760  67.927  1.00  0.00    -0.092 NA 
HETATM    5  C   UNL     1      -8.012   5.003  66.463  1.00  0.00    -0.107 C  
HETATM    6  C   UNL     1      -8.928   6.124  65.925  1.00  0.00    -0.121 C  
HETATM    7  N   UNL     1      -8.651   7.376  66.647  1.00  0.00    -0.122 NA 
HETATM    8  C   UNL     1      -7.877   6.069  68.598  1.00  0.00    -0.100 C  
HETATM    9  C   UNL     1      -8.749   7.261  68.110  1.00  0.00    -0.128 C  
BRANCH   7  10
HETATM   10  C   UNL     1      -8.877   8.587  66.012  1.00  0.00    -0.173 A  
HETATM   11  C   UNL     1      -9.991   9.372  66.314  1.00  0.00    -0.353 A  
HETATM   12  C   UNL     1     -10.342  10.479  65.542  1.00  0.00    -0.287 A  
HETATM   13  C   UNL     1      -9.587  10.846  64.428  1.00  0.00    -0.265 A  
HETATM   14  C   UNL     1      -8.071   9.017  64.947  1.00  0.00    -0.137 A  
HETATM   15  C   UNL     1      -8.423  10.128  64.157  1.00  0.00    -0.182 A  
BRANCH  13  16
HETATM   16  O   UNL     1      -9.923  11.860  63.557  1.00  0.00    -0.380 OA 
BRANCH  16  17
HETATM   17  C   UNL     1     -11.268  12.330  63.703  1.00  0.00    -0.466 C  
BRANCH  17  18
HETATM   18  C   UNL     1     -11.379  13.699  64.365  1.00  0.00    -0.374 C  
HETATM   19  C   UNL     1     -12.511  13.802  65.353  1.00  0.00    -0.500 C  
HETATM   20  O   UNL     1     -12.025  14.707  66.344  1.00  0.00    -0.356 OA 
HETATM   21  C   UNL     1     -10.583  14.563  66.366  1.00  0.00    -0.302 C  
HETATM   22  O   UNL     1     -10.195  13.909  65.143  1.00  0.00    -0.359 OA 
BRANCH  21  23
HETATM   23  C   UNL     1      -9.908  15.935  66.408  1.00  0.00    -0.302 A  
HETATM   24  C   UNL     1     -10.640  17.081  66.026  1.00  0.00    -0.208 A  
HETATM   25  C   UNL     1      -8.575  16.139  66.827  1.00  0.00    -0.247 A  
HETATM   26  C   UNL     1     -10.095  18.365  66.112  1.00  0.00    -0.376 A  
HETATM   27  C   UNL     1      -8.035  17.428  66.930  1.00  0.00    -0.257 A  
HETATM   28 CL   UNL     1      -7.491  14.842  67.198  1.00  0.00    -0.188 Cl 
HETATM   29 CL   UNL     1      -8.144  20.116  66.733  1.00  0.00    -0.349 Cl 
HETATM   30  C   UNL     1      -8.801  18.534  66.583  1.00  0.00    -0.294 A  
ENDBRANCH  21  23
BRANCH  21  31
HETATM   31  C   UNL     1     -10.212  13.627  67.540  1.00  0.00    -0.241 C  
BRANCH  31  32
HETATM   32  N   UNL     1     -11.053  13.740  68.711  1.00  0.00    -0.256 NA 
HETATM   33  C   UNL     1     -11.808  12.767  69.291  1.00  0.00    -0.303 A  
HETATM   34  C   UNL     1     -11.735  14.445  70.541  1.00  0.00    -0.264 A  
HETATM   35  N   UNL     1     -12.263  13.190  70.446  1.00  0.00    -0.345 NA 
HETATM   36  N   UNL     1     -10.987  14.825  69.502  1.00  0.00    -0.263 NA 
ENDBRANCH  31  32
ENDBRANCH  21  31
ENDBRANCH  17  18
ENDBRANCH  16  17
ENDBRANCH  13  16
ENDBRANCH   7  10
ENDBRANCH   2   4
TORSDOF 8
ENDMDL
MODEL       34
REMARK 921   NORMALIZED FREE ENERGY PREDICTED BY IDOCK:   -6.32 KCAL/MOL
REMARK 922        TOTAL FREE ENERGY PREDICTED BY IDOCK:  -10.44 KCAL/MOL
REMARK 923 INTER-LIGAND FREE ENERGY PREDICTED BY IDOCK:   -9.43 KCAL/MOL
REMARK 924 INTRA-LIGAND FREE ENERGY PREDICTED BY IDOCK:   -1.01 KCAL/MOL
REMARK 927      BINDING AFFINITY PREDICTED BY RF-SCORE:    0.00 PKD
ROOT
HETATM    1  C   UNL     1     -11.669   4.703  73.188  1.00  0.00    -0.182 C  
HETATM    2  C   UNL     1     -10.941   5.869  72.488  1.00  0.00    -0.264 C  
HETATM    3  C   UNL     1     -10.521   6.851  73.594  1.00  0.00    -0.400 C  
ENDROOT
BRANCH   2   4
HETATM    4  N   UNL     1      -9.805   5.360  71.685  1.00  0.00    -0.167 NA 
HETATM    5  C   UNL     1     -10.196   5.045  70.284  1.00  0.00    -0.258 C  
HETATM    6  C   UNL     1     -10.451   6.277  69.388  1.00  0.00    -0.243 C  
HETATM    7  N   UNL     1      -9.255   7.135  69.378  1.00  0.00    -0.148 NA 
HETATM    8  C   UNL     1      -8.626   6.269  71.607  1.00  0.00    -0.133 C  
HETATM    9  C   UNL     1      -8.789   7.533  70.715  1.00  0.00    -0.148 C  
BRANCH   7  10
HETATM   10  C   UNL     1      -9.002   7.929  68.270  1.00  0.00    -0.132 A  
HETATM   11  C   UNL     1      -7.788   8.599  68.115  1.00  0.00    -0.103 A  
HETATM   12  C   UNL     1      -7.599   9.559  67.122  1.00  0.00    -0.091 A  
HETATM   13  C   UNL     1      -8.626   9.891  66.239  1.00  0.00    -0.128 A  
HETATM   14  C   UNL     1      -9.999   8.199  67.320  1.00  0.00    -0.283 A  
HETATM   15  C   UNL     1      -9.820   9.174  66.321  1.00  0.00    -0.359 A  
BRANCH  13  16
HETATM   16  O   UNL     1      -8.554  10.897  65.300  1.00  0.00    -0.172 OA 
BRANCH  16  17
HETATM   17  C   UNL     1      -8.922  12.187  65.801  1.00  0.00     0.162 C  
BRANCH  17  18
HETATM   18  C   UNL     1      -9.288  12.197  67.281  1.00  0.00    -0.183 C  
HETATM   19  C   UNL     1      -8.917  13.475  67.987  1.00  0.00    -0.189 C  
HETATM   20  O   UNL     1      -9.932  13.630  68.978  1.00  0.00    -0.068 OA 
HETATM   21  C   UNL     1     -11.124  12.993  68.456  1.00  0.00    -0.266 C  
HETATM   22  O   UNL     1     -10.715  12.125  67.382  1.00  0.00    -0.223 OA 
BRANCH  21  23
HETATM   23  C   UNL     1     -11.790  12.135  69.534  1.00  0.00    -0.386 A  
HETATM   24  C   UNL     1     -11.799  10.729  69.396  1.00  0.00    -0.370 A  
HETATM   25  C   UNL     1     -12.396  12.667  70.693  1.00  0.00    -0.290 A  
HETATM   26  C   UNL     1     -12.331   9.897  70.384  1.00  0.00    -0.148 A  
HETATM   27  C   UNL     1     -12.912  11.831  71.692  1.00  0.00    -0.467 A  
HETATM   28 CL   UNL     1     -12.596  14.365  70.961  1.00  0.00    -0.396 Cl 
HETATM   29 CL   UNL     1     -13.480   9.427  72.776  1.00  0.00    -0.304 Cl 
HETATM   30  C   UNL     1     -12.866  10.451  71.538  1.00  0.00    -0.464 A  
ENDBRANCH  21  23
BRANCH  21  31
HETATM   31  C   UNL     1     -12.032  14.092  67.856  1.00  0.00    -0.351 C  
BRANCH  31  32
HETATM   32  N   UNL     1     -11.921  14.275  66.427  1.00  0.00    -0.418 NA 
HETATM   33  C   UNL     1     -12.714  13.743  65.456  1.00  0.00    -0.488 A  
HETATM   34  C   UNL     1     -11.457  15.196  64.626  1.00  0.00    -0.362 A  
HETATM   35  N   UNL     1     -12.433  14.299  64.302  1.00  0.00    -0.692 NA 
HETATM   36  N   UNL     1     -11.111  15.217  65.915  1.00  0.00    -0.320 NA 
ENDBRANCH  31  32
ENDBRANCH  21  31
ENDBRANCH  17  18
ENDBRANCH  16  17
ENDBRANCH  13  16
ENDBRANCH   7  10
ENDBRANCH   2   4
TORSDOF 8
ENDMDL
MODEL       35
REMARK 921   NORMALIZED FREE ENERGY PREDICTED BY IDOCK:   -6.27 KCAL/MOL
REMARK 922        TOTAL FREE ENERGY PREDICTED BY IDOCK:  -10.38 KCAL/MOL
REMARK 923 INTER-LIGAND FREE ENERGY PREDICTED BY IDOCK:   -9.18 KCAL/MOL
REMARK 924 INTRA-LIGAND FREE ENERGY PREDICTED BY IDOCK:   -1.20 KCAL/MOL
REMARK 927      BINDING AFFINITY PREDICTED BY RF-SCORE:    0.00 PKD
ROOT
HETATM    1  C   UNL     1     -12.493  16.293  74.268  1.00  0.00    -0.631 C  
HETATM    2  C   UNL     1     -12.170  15.433  73.030  1.00  0.00    -0.432 C  
HETATM    3  C   UNL     1     -12.931  14.109  73.205  1.00  0.00    -0.312 C  
ENDROOT
BRANCH   2   4
HETATM    4  N   UNL     1     -12.526  16.160  71.788  1.00  0.00    -0.380 NA 
HETATM    5  C   UNL     1     -11.329  16.531  70.986  1.00  0.00    -0.022 C  
HETATM    6  C   UNL     1     -10.645  15.353  70.257  1.00  0.00    -0.277 C  
HETATM    7  N   UNL     1     -11.622  14.675  69.390  1.00  0.00    -0.287 NA 
HETATM    8  C   UNL     1     -13.450  15.436  70.871  1.00  0.00    -0.367 C  
HETATM    9  C   UNL     1     -12.842  14.238  70.085  1.00  0.00    -0.077 C  
BRANCH   7  10
HETATM   10  C   UNL     1     -11.175  14.018  68.254  1.00  0.00    -0.268 A  
HETATM   11  C   UNL     1      -9.883  14.210  67.762  1.00  0.00    -0.231 A  
HETATM   12  C   UNL     1      -9.492  13.725  66.515  1.00  0.00    -0.282 A  
HETATM   13  C   UNL     1     -10.385  13.025  65.703  1.00  0.00    -0.285 A  
HETATM   14  C   UNL     1     -12.039  13.234  67.475  1.00  0.00    -0.312 A  
HETATM   15  C   UNL     1     -11.655  12.749  66.210  1.00  0.00    -0.433 A  
BRANCH  13  16
HETATM   16  O   UNL     1     -10.109  12.604  64.421  1.00  0.00    -0.314 OA 
BRANCH  16  17
HETATM   17  C   UNL     1     -10.642  11.313  64.106  1.00  0.00    -0.373 C  
BRANCH  17  18
HETATM   18  C   UNL     1      -9.779  10.151  64.583  1.00  0.00    -0.309 C  
HETATM   19  C   UNL     1      -8.332  10.517  64.788  1.00  0.00    -0.125 C  
HETATM   20  O   UNL     1      -7.916   9.688  65.873  1.00  0.00    -0.109 OA 
HETATM   21  C   UNL     1      -9.092   9.442  66.683  1.00  0.00    -0.149 C  
HETATM   22  O   UNL     1     -10.244   9.760  65.880  1.00  0.00    -0.259 OA 
BRANCH  21  23
HETATM   23  C   UNL     1      -9.175   7.965  67.072  1.00  0.00    -0.181 A  
HETATM   24  C   UNL     1     -10.389   7.266  66.892  1.00  0.00    -0.358 A  
HETATM   25  C   UNL     1      -8.088   7.233  67.597  1.00  0.00    -0.114 A  
HETATM   26  C   UNL     1     -10.499   5.901  67.166  1.00  0.00    -0.335 A  
HETATM   27  C   UNL     1      -8.194   5.858  67.853  1.00  0.00    -0.108 A  
HETATM   28 CL   UNL     1      -6.571   7.955  68.010  1.00  0.00    -0.055 Cl 
HETATM   29 CL   UNL     1      -9.515   3.508  67.919  1.00  0.00    -0.238 Cl 
HETATM   30  C   UNL     1      -9.395   5.198  67.625  1.00  0.00    -0.122 A  
ENDBRANCH  21  23
BRANCH  21  31
HETATM   31  C   UNL     1      -9.064  10.423  67.879  1.00  0.00    -0.132 C  
BRANCH  31  32
HETATM   32  N   UNL     1      -9.815  10.004  69.041  1.00  0.00    -0.188 NA 
HETATM   33  C   UNL     1      -9.328   9.512  70.214  1.00  0.00    -0.259 A  
HETATM   34  C   UNL     1     -11.370   9.928  70.414  1.00  0.00    -0.307 A  
HETATM   35  N   UNL     1     -10.294   9.441  71.098  1.00  0.00    -0.315 NA 
HETATM   36  N   UNL     1     -11.125  10.285  69.151  1.00  0.00    -0.233 NA 
ENDBRANCH  31  32
ENDBRANCH  21  31
ENDBRANCH  17  18
ENDBRANCH  16  17
ENDBRANCH  13  16
ENDBRANCH   7  10
ENDBRANCH   2   4
TORSDOF 8
ENDMDL
MODEL       36
REMARK 921   NORMALIZED FREE ENERGY PREDICTED BY IDOCK:   -6.27 KCAL/MOL
REMARK 922        TOTAL FREE ENERGY PREDICTED BY IDOCK:  -10.38 KCAL/MOL
REMARK 923 INTER-LIGAND FREE ENERGY PREDICTED BY IDOCK:   -9.82 KCAL/MOL
REMARK 924 INTRA-LIGAND FREE ENERGY PREDICTED BY IDOCK:   -0.55 KCAL/MOL
REMARK 927      BINDING AFFINITY PREDICTED BY RF-SCORE:    0.00 PKD
ROOT
HETATM    1  C   UNL     1     -10.882   2.239  72.989  1.00  0.00    -0.228 C  
HETATM    2  C   UNL     1     -10.612   3.757  72.994  1.00  0.00    -0.167 C  
HETATM    3  C   UNL     1     -10.481   4.175  74.468  1.00  0.00    -0.275 C  
ENDROOT
BRANCH   2   4
HETATM    4  N   UNL     1      -9.414   4.071  72.181  1.00  0.00    -0.127 NA 
HETATM    5  C   UNL     1      -9.700   4.059  70.721  1.00  0.00    -0.193 C  
HETATM    6  C   UNL     1     -10.525   5.260  70.210  1.00  0.00    -0.261 C  
HETATM    7  N   UNL     1      -9.839   6.515  70.561  1.00  0.00    -0.179 NA 
HETATM    8  C   UNL     1      -8.770   5.381  72.481  1.00  0.00    -0.124 C  
HETATM    9  C   UNL     1      -9.527   6.649  71.992  1.00  0.00    -0.148 C  
BRANCH   7  10
HETATM   10  C   UNL     1     -10.028   7.633  69.765  1.00  0.00    -0.184 A  
HETATM   11  C   UNL     1     -10.523   8.828  70.292  1.00  0.00    -0.231 A  
HETATM   12  C   UNL     1     -10.914   9.886  69.473  1.00  0.00    -0.274 A  
HETATM   13  C   UNL     1     -10.825   9.791  68.084  1.00  0.00    -0.214 A  
HETATM   14  C   UNL     1      -9.855   7.580  68.374  1.00  0.00    -0.173 A  
HETATM   15  C   UNL     1     -10.256   8.640  67.539  1.00  0.00    -0.308 A  
BRANCH  13  16
HETATM   16  O   UNL     1     -11.285  10.748  67.205  1.00  0.00    -0.324 OA 
BRANCH  16  17
HETATM   17  C   UNL     1     -11.879  11.885  67.842  1.00  0.00    -0.238 C  
BRANCH  17  18
HETATM   18  C   UNL     1     -10.924  13.057  68.038  1.00  0.00    -0.250 C  
HETATM   19  C   UNL     1      -9.485  12.718  67.750  1.00  0.00    -0.205 C  
HETATM   20  O   UNL     1      -8.940  13.932  67.232  1.00  0.00    -0.200 OA 
HETATM   21  C   UNL     1     -10.032  14.636  66.590  1.00  0.00    -0.274 C  
HETATM   22  O   UNL     1     -11.261  14.065  67.077  1.00  0.00    -0.297 OA 
BRANCH  21  23
HETATM   23  C   UNL     1     -10.012  16.118  66.972  1.00  0.00    -0.259 A  
HETATM   24  C   UNL     1     -10.316  17.091  65.994  1.00  0.00    -0.324 A  
HETATM   25  C   UNL     1      -9.717  16.587  68.270  1.00  0.00    -0.231 A  
HETATM   26  C   UNL     1     -10.379  18.452  66.305  1.00  0.00    -0.440 A  
HETATM   27  C   UNL     1      -9.799  17.950  68.586  1.00  0.00    -0.375 A  
HETATM   28 CL   UNL     1      -9.192  15.552  69.554  1.00  0.00    -0.278 Cl 
HETATM   29 CL   UNL     1     -10.263  20.542  68.002  1.00  0.00    -0.346 Cl 
HETATM   30  C   UNL     1     -10.141  18.873  67.606  1.00  0.00    -0.365 A  
ENDBRANCH  21  23
BRANCH  21  31
HETATM   31  C   UNL     1      -9.953  14.361  65.070  1.00  0.00    -0.166 C  
BRANCH  31  32
HETATM   32  N   UNL     1     -11.007  13.530  64.536  1.00  0.00    -0.380 NA 
HETATM   33  C   UNL     1     -12.229  13.923  64.082  1.00  0.00    -0.393 A  
HETATM   34  C   UNL     1     -11.902  11.916  63.584  1.00  0.00    -0.473 A  
HETATM   35  N   UNL     1     -12.824  12.918  63.486  1.00  0.00    -0.598 NA 
HETATM   36  N   UNL     1     -10.774  12.244  64.218  1.00  0.00    -0.323 NA 
ENDBRANCH  31  32
ENDBRANCH  21  31
ENDBRANCH  17  18
ENDBRANCH  16  17
ENDBRANCH  13  16
ENDBRANCH   7  10
ENDBRANCH   2   4
TORSDOF 8
ENDMDL
MODEL       37
REMARK 921   NORMALIZED FREE ENERGY PREDICTED BY IDOCK:   -6.22 KCAL/MOL
REMARK 922        TOTAL FREE ENERGY PREDICTED BY IDOCK:  -10.30 KCAL/MOL
REMARK 923 INTER-LIGAND FREE ENERGY PREDICTED BY IDOCK:   -9.38 KCAL/MOL
REMARK 924 INTRA-LIGAND FREE ENERGY PREDICTED BY IDOCK:   -0.93 KCAL/MOL
REMARK 927      BINDING AFFINITY PREDICTED BY RF-SCORE:    0.00 PKD
ROOT
HETATM    1  C   UNL     1      -8.256  20.570  67.183  1.00  0.00    -0.353 C  
HETATM    2  C   UNL     1      -8.353  19.186  67.856  1.00  0.00    -0.298 C  
HETATM    3  C   UNL     1      -7.474  19.247  69.116  1.00  0.00    -0.324 C  
ENDROOT
BRANCH   2   4
HETATM    4  N   UNL     1      -9.768  18.847  68.137  1.00  0.00    -0.328 NA 
HETATM    5  C   UNL     1     -10.598  18.808  66.903  1.00  0.00    -0.409 C  
HETATM    6  C   UNL     1     -10.349  17.588  65.991  1.00  0.00    -0.306 C  
HETATM    7  N   UNL     1     -10.557  16.348  66.756  1.00  0.00    -0.277 NA 
HETATM    8  C   UNL     1      -9.982  17.550  68.839  1.00  0.00    -0.313 C  
HETATM    9  C   UNL     1      -9.763  16.264  67.992  1.00  0.00    -0.230 C  
BRANCH   7  10
HETATM   10  C   UNL     1     -10.962  15.202  66.090  1.00  0.00    -0.331 A  
HETATM   11  C   UNL     1     -11.951  14.366  66.612  1.00  0.00    -0.414 A  
HETATM   12  C   UNL     1     -12.217  13.112  66.065  1.00  0.00    -0.478 A  
HETATM   13  C   UNL     1     -11.499  12.639  64.967  1.00  0.00    -0.329 A  
HETATM   14  C   UNL     1     -10.308  14.760  64.930  1.00  0.00    -0.365 A  
HETATM   15  C   UNL     1     -10.565  13.491  64.377  1.00  0.00    -0.394 A  
BRANCH  13  16
HETATM   16  O   UNL     1     -11.630  11.376  64.433  1.00  0.00    -0.178 OA 
BRANCH  16  17
HETATM   17  C   UNL     1     -10.382  10.725  64.167  1.00  0.00    -0.311 C  
BRANCH  17  18
HETATM   18  C   UNL     1      -9.890   9.838  65.306  1.00  0.00    -0.265 C  
HETATM   19  C   UNL     1      -8.416   9.973  65.583  1.00  0.00    -0.148 C  
HETATM   20  O   UNL     1      -8.308   9.765  66.992  1.00  0.00    -0.117 OA 
HETATM   21  C   UNL     1      -9.560  10.204  67.574  1.00  0.00    -0.156 C  
HETATM   22  O   UNL     1     -10.530  10.273  66.511  1.00  0.00    -0.223 OA 
BRANCH  21  23
HETATM   23  C   UNL     1     -10.056   9.189  68.606  1.00  0.00    -0.212 A  
HETATM   24  C   UNL     1     -10.453   9.638  69.886  1.00  0.00    -0.285 A  
HETATM   25  C   UNL     1     -10.159   7.804  68.354  1.00  0.00    -0.192 A  
HETATM   26  C   UNL     1     -10.978   8.764  70.841  1.00  0.00    -0.315 A  
HETATM   27  C   UNL     1     -10.704   6.931  69.306  1.00  0.00    -0.265 A  
HETATM   28 CL   UNL     1      -9.592   7.063  66.897  1.00  0.00    -0.200 Cl 
HETATM   29 CL   UNL     1     -11.809   6.347  71.696  1.00  0.00    -0.369 Cl 
HETATM   30  C   UNL     1     -11.121   7.417  70.538  1.00  0.00    -0.261 A  
ENDBRANCH  21  23
BRANCH  21  31
HETATM   31  C   UNL     1      -9.358  11.635  68.123  1.00  0.00    -0.188 C  
BRANCH  31  32
HETATM   32  N   UNL     1      -7.983  12.032  68.325  1.00  0.00    -0.142 NA 
HETATM   33  C   UNL     1      -7.094  11.528  69.226  1.00  0.00    -0.077 A  
HETATM   34  C   UNL     1      -6.098  12.775  67.872  1.00  0.00    -0.116 A  
HETATM   35  N   UNL     1      -5.895  11.991  68.971  1.00  0.00    -0.060 NA 
HETATM   36  N   UNL     1      -7.360  12.830  67.441  1.00  0.00    -0.149 NA 
ENDBRANCH  31  32
ENDBRANCH  21  31
ENDBRANCH  17  18
ENDBRANCH  16  17
ENDBRANCH  13  16
ENDBRANCH   7  10
ENDBRANCH   2   4
TORSDOF 8
ENDMDL
MODEL       38
REMARK 921   NORMALIZED FREE ENERGY PREDICTED BY IDOCK:   -6.19 KCAL/MOL
REMARK 922        TOTAL FREE ENERGY PREDICTED BY IDOCK:  -10.27 KCAL/MOL
REMARK 923 INTER-LIGAND FREE ENERGY PREDICTED BY IDOCK:   -9.43 KCAL/MOL
REMARK 924 INTRA-LIGAND FREE ENERGY PREDICTED BY IDOCK:   -0.83 KCAL/MOL
REMARK 927      BINDING AFFINITY PREDICTED BY RF-SCORE:    0.00 PKD
ROOT
HETATM    1  C   UNL     1     -12.373   8.912  71.871  1.00  0.00    -0.445 C  
HETATM    2  C   UNL     1     -10.946   8.356  72.050  1.00  0.00    -0.323 C  
HETATM    3  C   UNL     1     -11.043   7.222  73.084  1.00  0.00    -0.336 C  
ENDROOT
BRANCH   2   4
HETATM    4  N   UNL     1     -10.392   7.922  70.746  1.00  0.00    -0.202 NA 
HETATM    5  C   UNL     1     -10.746   8.854  69.641  1.00  0.00    -0.217 C  
HETATM    6  C   UNL     1      -9.992  10.202  69.662  1.00  0.00    -0.232 C  
HETATM    7  N   UNL     1      -8.541   9.956  69.646  1.00  0.00    -0.181 NA 
HETATM    8  C   UNL     1      -8.912   7.754  70.709  1.00  0.00    -0.148 C  
HETATM    9  C   UNL     1      -8.070   9.063  70.716  1.00  0.00    -0.166 C  
BRANCH   7  10
HETATM   10  C   UNL     1      -7.700  10.909  69.093  1.00  0.00    -0.127 A  
HETATM   11  C   UNL     1      -6.854  11.684  69.888  1.00  0.00     0.137 A  
HETATM   12  C   UNL     1      -6.163  12.781  69.374  1.00  0.00    -0.112 A  
HETATM   13  C   UNL     1      -6.295  13.150  68.036  1.00  0.00    -0.127 A  
HETATM   14  C   UNL     1      -7.755  11.229  67.728  1.00  0.00    -0.113 A  
HETATM   15  C   UNL     1      -7.068  12.341  67.204  1.00  0.00    -0.102 A  
BRANCH  13  16
HETATM   16  O   UNL     1      -5.730  14.276  67.477  1.00  0.00    -0.346 OA 
BRANCH  16  17
HETATM   17  C   UNL     1      -6.669  15.323  67.205  1.00  0.00    -0.024 C  
BRANCH  17  18
HETATM   18  C   UNL     1      -7.638  15.600  68.349  1.00  0.00    -0.121 C  
HETATM   19  C   UNL     1      -7.850  17.067  68.619  1.00  0.00    -0.257 C  
HETATM   20  O   UNL     1      -9.206  17.145  69.061  1.00  0.00    -0.236 OA 
HETATM   21  C   UNL     1      -9.913  16.050  68.427  1.00  0.00    -0.220 C  
HETATM   22  O   UNL     1      -8.927  15.110  67.963  1.00  0.00    -0.168 OA 
BRANCH  21  23
HETATM   23  C   UNL     1     -10.814  15.337  69.438  1.00  0.00    -0.263 A  
HETATM   24  C   UNL     1     -11.076  15.946  70.686  1.00  0.00    -0.368 A  
HETATM   25  C   UNL     1     -11.426  14.089  69.195  1.00  0.00    -0.296 A  
HETATM   26  C   UNL     1     -11.945  15.372  71.616  1.00  0.00    -0.454 A  
HETATM   27  C   UNL     1     -12.314  13.523  70.121  1.00  0.00    -0.345 A  
HETATM   28 CL   UNL     1     -11.111  13.139  67.784  1.00  0.00    -0.274 Cl 
HETATM   29 CL   UNL     1     -13.683  13.486  72.444  1.00  0.00    -0.683 Cl 
HETATM   30  C   UNL     1     -12.577  14.172  71.320  1.00  0.00    -0.363 A  
ENDBRANCH  21  23
BRANCH  21  31
HETATM   31  C   UNL     1     -10.652  16.611  67.190  1.00  0.00    -0.264 C  
BRANCH  31  32
HETATM   32  N   UNL     1     -10.414  18.008  66.907  1.00  0.00    -0.360 NA 
HETATM   33  C   UNL     1     -10.900  19.088  67.579  1.00  0.00    -0.391 A  
HETATM   34  C   UNL     1      -9.427  19.702  66.225  1.00  0.00    -0.396 A  
HETATM   35  N   UNL     1     -10.302  20.177  67.159  1.00  0.00    -0.405 NA 
HETATM   36  N   UNL     1      -9.460  18.381  66.037  1.00  0.00    -0.504 NA 
ENDBRANCH  31  32
ENDBRANCH  21  31
ENDBRANCH  17  18
ENDBRANCH  16  17
ENDBRANCH  13  16
ENDBRANCH   7  10
ENDBRANCH   2   4
TORSDOF 8
ENDMDL
MODEL       39
REMARK 921   NORMALIZED FREE ENERGY PREDICTED BY IDOCK:   -6.12 KCAL/MOL
REMARK 922        TOTAL FREE ENERGY PREDICTED BY IDOCK:  -10.16 KCAL/MOL
REMARK 923 INTER-LIGAND FREE ENERGY PREDICTED BY IDOCK:   -9.05 KCAL/MOL
REMARK 924 INTRA-LIGAND FREE ENERGY PREDICTED BY IDOCK:   -1.11 KCAL/MOL
REMARK 927      BINDING AFFINITY PREDICTED BY RF-SCORE:    0.00 PKD
ROOT
HETATM    1  C   UNL     1      -7.748  19.816  65.841  1.00  0.00    -0.328 C  
HETATM    2  C   UNL     1      -8.114  19.025  67.113  1.00  0.00    -0.264 C  
HETATM    3  C   UNL     1      -7.491  19.785  68.296  1.00  0.00    -0.346 C  
ENDROOT
BRANCH   2   4
HETATM    4  N   UNL     1      -9.584  18.869  67.219  1.00  0.00    -0.302 NA 
HETATM    5  C   UNL     1     -10.107  17.805  66.319  1.00  0.00    -0.344 C  
HETATM    6  C   UNL     1      -9.788  16.361  66.766  1.00  0.00    -0.256 C  
HETATM    7  N   UNL     1     -10.300  16.142  68.129  1.00  0.00    -0.260 NA 
HETATM    8  C   UNL     1     -10.093  18.563  68.585  1.00  0.00    -0.369 C  
HETATM    9  C   UNL     1      -9.826  17.125  69.115  1.00  0.00    -0.187 C  
BRANCH   7  10
HETATM   10  C   UNL     1     -10.662  14.862  68.517  1.00  0.00    -0.245 A  
HETATM   11  C   UNL     1     -10.256  13.739  67.794  1.00  0.00    -0.241 A  
HETATM   12  C   UNL     1     -10.780  12.472  68.046  1.00  0.00    -0.242 A  
HETATM   13  C   UNL     1     -11.740  12.277  69.039  1.00  0.00    -0.324 A  
HETATM   14  C   UNL     1     -11.557  14.643  69.574  1.00  0.00    -0.350 A  
HETATM   15  C   UNL     1     -12.099  13.368  69.830  1.00  0.00    -0.374 A  
BRANCH  13  16
HETATM   16  O   UNL     1     -12.381  11.081  69.281  1.00  0.00    -0.412 OA 
BRANCH  16  17
HETATM   17  C   UNL     1     -12.971  10.991  70.583  1.00  0.00    -0.131 C  
BRANCH  17  18
HETATM   18  C   UNL     1     -12.188  10.120  71.560  1.00  0.00    -0.380 C  
HETATM   19  C   UNL     1     -12.875   8.822  71.896  1.00  0.00    -0.375 C  
HETATM   20  O   UNL     1     -11.801   7.905  72.103  1.00  0.00    -0.300 OA 
HETATM   21  C   UNL     1     -10.701   8.361  71.277  1.00  0.00    -0.230 C  
HETATM   22  O   UNL     1     -10.966   9.731  70.922  1.00  0.00    -0.304 OA 
BRANCH  21  23
HETATM   23  C   UNL     1      -9.388   8.318  72.062  1.00  0.00    -0.298 A  
HETATM   24  C   UNL     1      -9.392   7.856  73.397  1.00  0.00    -0.348 A  
HETATM   25  C   UNL     1      -8.142   8.704  71.523  1.00  0.00    -0.142 A  
HETATM   26  C   UNL     1      -8.213   7.731  74.135  1.00  0.00    -0.282 A  
HETATM   27  C   UNL     1      -6.957   8.560  72.258  1.00  0.00    -0.094 A  
HETATM   28 CL   UNL     1      -7.968   9.418  69.957  1.00  0.00    -0.119 Cl 
HETATM   29 CL   UNL     1      -5.539   7.867  74.446  1.00  0.00    -0.069 Cl 
HETATM   30  C   UNL     1      -6.997   8.064  73.555  1.00  0.00    -0.122 A  
ENDBRANCH  21  23
BRANCH  21  31
HETATM   31  C   UNL     1     -10.701   7.527  69.975  1.00  0.00    -0.240 C  
BRANCH  31  32
HETATM   32  N   UNL     1     -10.022   6.253  70.057  1.00  0.00    -0.168 NA 
HETATM   33  C   UNL     1     -10.389   5.159  70.781  1.00  0.00    -0.224 A  
HETATM   34  C   UNL     1      -8.835   4.653  69.472  1.00  0.00    -0.084 A  
HETATM   35  N   UNL     1      -9.645   4.134  70.440  1.00  0.00    -0.181 NA 
HETATM   36  N   UNL     1      -9.030   5.946  69.203  1.00  0.00    -0.119 NA 
ENDBRANCH  31  32
ENDBRANCH  21  31
ENDBRANCH  17  18
ENDBRANCH  16  17
ENDBRANCH  13  16
ENDBRANCH   7  10
ENDBRANCH   2   4
TORSDOF 8
ENDMDL
MODEL       40
REMARK 921   NORMALIZED FREE ENERGY PREDICTED BY IDOCK:   -6.12 KCAL/MOL
REMARK 922        TOTAL FREE ENERGY PREDICTED BY IDOCK:  -10.15 KCAL/MOL
REMARK 923 INTER-LIGAND FREE ENERGY PREDICTED BY IDOCK:   -8.82 KCAL/MOL
REMARK 924 INTRA-LIGAND FREE ENERGY PREDICTED BY IDOCK:   -1.33 KCAL/MOL
REMARK 927      BINDING AFFINITY PREDICTED BY RF-SCORE:    0.00 PKD
ROOT
HETATM    1  C   UNL     1      -8.049  20.437  67.062  1.00  0.00    -0.351 C  
HETATM    2  C   UNL     1      -8.152  19.179  67.948  1.00  0.00    -0.289 C  
HETATM    3  C   UNL     1      -7.272  19.437  69.182  1.00  0.00    -0.377 C  
ENDROOT
BRANCH   2   4
HETATM    4  N   UNL     1      -9.568  18.895  68.280  1.00  0.00    -0.332 NA 
HETATM    5  C   UNL     1     -10.437  18.858  67.072  1.00  0.00    -0.428 C  
HETATM    6  C   UNL     1     -10.258  17.609  66.182  1.00  0.00    -0.343 C  
HETATM    7  N   UNL     1     -10.485  16.395  66.983  1.00  0.00    -0.301 NA 
HETATM    8  C   UNL     1      -9.804  17.623  69.019  1.00  0.00    -0.231 C  
HETATM    9  C   UNL     1      -9.656  16.311  68.196  1.00  0.00    -0.219 C  
BRANCH   7  10
HETATM   10  C   UNL     1     -10.949  15.249  66.357  1.00  0.00    -0.299 A  
HETATM   11  C   UNL     1     -11.674  14.280  67.054  1.00  0.00    -0.427 A  
HETATM   12  C   UNL     1     -11.963  13.036  66.496  1.00  0.00    -0.457 A  
HETATM   13  C   UNL     1     -11.534  12.707  65.210  1.00  0.00    -0.331 A  
HETATM   14  C   UNL     1     -10.601  14.947  65.032  1.00  0.00    -0.446 A  
HETATM   15  C   UNL     1     -10.881  13.689  64.465  1.00  0.00    -0.416 A  
BRANCH  13  16
HETATM   16  O   UNL     1     -11.689  11.468  64.628  1.00  0.00    -0.142 OA 
BRANCH  16  17
HETATM   17  C   UNL     1     -10.561  11.045  63.853  1.00  0.00    -0.312 C  
BRANCH  17  18
HETATM   18  C   UNL     1      -9.716   9.966  64.524  1.00  0.00    -0.153 C  
HETATM   19  C   UNL     1      -8.366  10.453  64.981  1.00  0.00    -0.166 C  
HETATM   20  O   UNL     1      -8.099   9.684  66.153  1.00  0.00    -0.107 OA 
HETATM   21  C   UNL     1      -9.385   9.359  66.738  1.00  0.00    -0.158 C  
HETATM   22  O   UNL     1     -10.386   9.566  65.725  1.00  0.00    -0.182 OA 
BRANCH  21  23
HETATM   23  C   UNL     1      -9.426   7.888  67.157  1.00  0.00    -0.203 A  
HETATM   24  C   UNL     1     -10.619   7.150  66.985  1.00  0.00    -0.413 A  
HETATM   25  C   UNL     1      -8.322   7.198  67.702  1.00  0.00    -0.117 A  
HETATM   26  C   UNL     1     -10.691   5.788  67.286  1.00  0.00    -0.345 A  
HETATM   27  C   UNL     1      -8.389   5.827  67.985  1.00  0.00    -0.103 A  
HETATM   28 CL   UNL     1      -6.829   7.973  68.107  1.00  0.00    -0.067 Cl 
HETATM   29 CL   UNL     1      -9.641   3.441  68.092  1.00  0.00    -0.206 Cl 
HETATM   30  C   UNL     1      -9.568   5.128  67.765  1.00  0.00    -0.138 A  
ENDBRANCH  21  23
BRANCH  21  31
HETATM   31  C   UNL     1      -9.656  10.362  67.883  1.00  0.00    -0.142 C  
BRANCH  31  32
HETATM   32  N   UNL     1      -8.572  11.269  68.182  1.00  0.00    -0.143 NA 
HETATM   33  C   UNL     1      -8.490  12.596  67.887  1.00  0.00    -0.173 A  
HETATM   34  C   UNL     1      -6.935  12.064  69.183  1.00  0.00    -0.066 A  
HETATM   35  N   UNL     1      -7.456  13.123  68.496  1.00  0.00    -0.116 NA 
HETATM   36  N   UNL     1      -7.585  10.909  69.021  1.00  0.00    -0.126 NA 
ENDBRANCH  31  32
ENDBRANCH  21  31
ENDBRANCH  17  18
ENDBRANCH  16  17
ENDBRANCH  13  16
ENDBRANCH   7  10
ENDBRANCH   2   4
TORSDOF 8
ENDMDL
MODEL       41
REMARK 921   NORMALIZED FREE ENERGY PREDICTED BY IDOCK:   -6.10 KCAL/MOL
REMARK 922        TOTAL FREE ENERGY PREDICTED BY IDOCK:  -10.12 KCAL/MOL
REMARK 923 INTER-LIGAND FREE ENERGY PREDICTED BY IDOCK:   -9.02 KCAL/MOL
REMARK 924 INTRA-LIGAND FREE ENERGY PREDICTED BY IDOCK:   -1.10 KCAL/MOL
REMARK 927      BINDING AFFINITY PREDICTED BY RF-SCORE:    0.00 PKD
ROOT
HETATM    1  C   UNL     1      -9.428  19.736  66.367  1.00  0.00    -0.496 C  
HETATM    2  C   UNL     1      -9.558  18.650  67.454  1.00  0.00    -0.296 C  
HETATM    3  C   UNL     1      -9.685  19.388  68.797  1.00  0.00    -0.516 C  
ENDROOT
BRANCH   2   4
HETATM    4  N   UNL     1     -10.702  17.757  67.159  1.00  0.00    -0.277 NA 
HETATM    5  C   UNL     1     -10.535  17.027  65.873  1.00  0.00    -0.274 C  
HETATM    6  C   UNL     1      -9.486  15.893  65.901  1.00  0.00    -0.337 C  
HETATM    7  N   UNL     1      -9.825  14.934  66.965  1.00  0.00    -0.233 NA 
HETATM    8  C   UNL     1     -10.991  16.731  68.200  1.00  0.00    -0.309 C  
HETATM    9  C   UNL     1      -9.991  15.543  68.294  1.00  0.00    -0.213 C  
BRANCH   7  10
HETATM   10  C   UNL     1      -9.433  13.611  66.832  1.00  0.00    -0.262 A  
HETATM   11  C   UNL     1     -10.318  12.631  66.378  1.00  0.00    -0.264 A  
HETATM   12  C   UNL     1     -10.006  11.274  66.438  1.00  0.00    -0.252 A  
HETATM   13  C   UNL     1      -8.788  10.839  66.960  1.00  0.00    -0.135 A  
HETATM   14  C   UNL     1      -8.174  13.173  67.268  1.00  0.00    -0.172 A  
HETATM   15  C   UNL     1      -7.855  11.803  67.341  1.00  0.00    -0.155 A  
BRANCH  13  16
HETATM   16  O   UNL     1      -8.446   9.517  67.148  1.00  0.00    -0.129 OA 
BRANCH  16  17
HETATM   17  C   UNL     1      -7.326   9.325  68.020  1.00  0.00    -0.080 C  
BRANCH  17  18
HETATM   18  C   UNL     1      -7.676   8.643  69.338  1.00  0.00    -0.091 C  
HETATM   19  C   UNL     1      -8.103   9.601  70.420  1.00  0.00    -0.168 C  
HETATM   20  O   UNL     1      -9.058   8.860  71.180  1.00  0.00    -0.208 OA 
HETATM   21  C   UNL     1      -9.673   7.916  70.268  1.00  0.00    -0.183 C  
HETATM   22  O   UNL     1      -8.819   7.811  69.114  1.00  0.00    -0.138 OA 
BRANCH  21  23
HETATM   23  C   UNL     1      -9.773   6.533  70.916  1.00  0.00    -0.190 A  
HETATM   24  C   UNL     1      -9.696   5.379  70.104  1.00  0.00    -0.252 A  
HETATM   25  C   UNL     1      -9.925   6.329  72.304  1.00  0.00    -0.165 A  
HETATM   26  C   UNL     1      -9.712   4.094  70.650  1.00  0.00    -0.273 A  
HETATM   27  C   UNL     1      -9.922   5.039  72.853  1.00  0.00    -0.192 A  
HETATM   28 CL   UNL     1     -10.172   7.620  73.429  1.00  0.00    -0.388 Cl 
HETATM   29 CL   UNL     1      -9.777   2.350  72.704  1.00  0.00    -0.167 Cl 
HETATM   30  C   UNL     1      -9.804   3.930  72.025  1.00  0.00    -0.174 A  
ENDBRANCH  21  23
BRANCH  21  31
HETATM   31  C   UNL     1     -11.024   8.510  69.805  1.00  0.00    -0.127 C  
BRANCH  31  32
HETATM   32  N   UNL     1     -11.853   9.056  70.855  1.00  0.00    -0.276 NA 
HETATM   33  C   UNL     1     -12.043  10.367  71.170  1.00  0.00    -0.386 A  
HETATM   34  C   UNL     1     -13.416   9.184  72.217  1.00  0.00    -0.486 A  
HETATM   35  N   UNL     1     -13.017  10.478  72.040  1.00  0.00    -0.445 NA 
HETATM   36  N   UNL     1     -12.732   8.279  71.512  1.00  0.00    -0.313 NA 
ENDBRANCH  31  32
ENDBRANCH  21  31
ENDBRANCH  17  18
ENDBRANCH  16  17
ENDBRANCH  13  16
ENDBRANCH   7  10
ENDBRANCH   2   4
TORSDOF 8
ENDMDL
MODEL       42
REMARK 921   NORMALIZED FREE ENERGY PREDICTED BY IDOCK:   -6.09 KCAL/MOL
REMARK 922        TOTAL FREE ENERGY PREDICTED BY IDOCK:  -10.11 KCAL/MOL
REMARK 923 INTER-LIGAND FREE ENERGY PREDICTED BY IDOCK:   -9.14 KCAL/MOL
REMARK 924 INTRA-LIGAND FREE ENERGY PREDICTED BY IDOCK:   -0.97 KCAL/MOL
REMARK 927      BINDING AFFINITY PREDICTED BY RF-SCORE:    0.00 PKD
ROOT
HETATM    1  C   UNL     1     -10.282  19.761  68.247  1.00  0.00    -0.569 C  
HETATM    2  C   UNL     1     -10.623  18.618  67.270  1.00  0.00    -0.430 C  
HETATM    3  C   UNL     1     -10.640  19.235  65.862  1.00  0.00    -0.521 C  
ENDROOT
BRANCH   2   4
HETATM    4  N   UNL     1      -9.654  17.506  67.417  1.00  0.00    -0.261 NA 
HETATM    5  C   UNL     1      -9.557  17.020  68.820  1.00  0.00    -0.269 C  
HETATM    6  C   UNL     1     -10.772  16.202  69.310  1.00  0.00    -0.295 C  
HETATM    7  N   UNL     1     -10.989  15.057  68.412  1.00  0.00    -0.254 NA 
HETATM    8  C   UNL     1      -9.925  16.312  66.568  1.00  0.00    -0.277 C  
HETATM    9  C   UNL     1     -11.127  15.421  66.994  1.00  0.00    -0.273 C  
BRANCH   7  10
HETATM   10  C   UNL     1     -11.584  13.909  68.913  1.00  0.00    -0.316 A  
HETATM   11  C   UNL     1     -12.063  13.849  70.223  1.00  0.00    -0.423 A  
HETATM   12  C   UNL     1     -12.468  12.647  70.803  1.00  0.00    -0.357 A  
HETATM   13  C   UNL     1     -12.409  11.450  70.091  1.00  0.00    -0.266 A  
HETATM   14  C   UNL     1     -11.615  12.718  68.173  1.00  0.00    -0.380 A  
HETATM   15  C   UNL     1     -12.014  11.499  68.754  1.00  0.00    -0.335 A  
BRANCH  13  16
HETATM   16  O   UNL     1     -12.692  10.210  70.623  1.00  0.00    -0.307 OA 
BRANCH  16  17
HETATM   17  C   UNL     1     -11.727   9.753  71.577  1.00  0.00    -0.375 C  
BRANCH  17  18
HETATM   18  C   UNL     1     -10.435   9.234  70.955  1.00  0.00    -0.314 C  
HETATM   19  C   UNL     1      -9.695   8.255  71.827  1.00  0.00    -0.212 C  
HETATM   20  O   UNL     1      -9.074   7.365  70.899  1.00  0.00    -0.152 OA 
HETATM   21  C   UNL     1      -9.918   7.338  69.721  1.00  0.00    -0.183 C  
HETATM   22  O   UNL     1     -10.780   8.490  69.781  1.00  0.00    -0.229 OA 
BRANCH  21  23
HETATM   23  C   UNL     1      -9.070   7.443  68.452  1.00  0.00    -0.132 A  
HETATM   24  C   UNL     1      -9.622   8.036  67.294  1.00  0.00    -0.210 A  
HETATM   25  C   UNL     1      -7.736   6.989  68.364  1.00  0.00    -0.120 A  
HETATM   26  C   UNL     1      -8.869   8.219  66.132  1.00  0.00    -0.200 A  
HETATM   27  C   UNL     1      -6.975   7.191  67.203  1.00  0.00    -0.078 A  
HETATM   28 CL   UNL     1      -6.946   6.120  69.634  1.00  0.00    -0.068 Cl 
HETATM   29 CL   UNL     1      -6.600   8.080  64.685  1.00  0.00    -0.056 Cl 
HETATM   30  C   UNL     1      -7.542   7.814  66.099  1.00  0.00    -0.087 A  
ENDBRANCH  21  23
BRANCH  21  31
HETATM   31  C   UNL     1     -10.808   6.076  69.798  1.00  0.00    -0.363 C  
BRANCH  31  32
HETATM   32  N   UNL     1     -10.100   4.830  69.980  1.00  0.00    -0.250 NA 
HETATM   33  C   UNL     1      -9.909   4.142  71.140  1.00  0.00    -0.174 A  
HETATM   34  C   UNL     1      -9.320   2.963  69.513  1.00  0.00    -0.129 A  
HETATM   35  N   UNL     1      -9.404   2.961  70.876  1.00  0.00    -0.138 NA 
HETATM   36  N   UNL     1      -9.735   4.085  68.922  1.00  0.00    -0.134 NA 
ENDBRANCH  31  32
ENDBRANCH  21  31
ENDBRANCH  17  18
ENDBRANCH  16  17
ENDBRANCH  13  16
ENDBRANCH   7  10
ENDBRANCH   2   4
TORSDOF 8
ENDMDL
MODEL       43
REMARK 921   NORMALIZED FREE ENERGY PREDICTED BY IDOCK:   -6.08 KCAL/MOL
REMARK 922        TOTAL FREE ENERGY PREDICTED BY IDOCK:  -10.09 KCAL/MOL
REMARK 923 INTER-LIGAND FREE ENERGY PREDICTED BY IDOCK:   -9.13 KCAL/MOL
REMARK 924 INTRA-LIGAND FREE ENERGY PREDICTED BY IDOCK:   -0.96 KCAL/MOL
REMARK 927      BINDING AFFINITY PREDICTED BY RF-SCORE:    0.00 PKD
ROOT
HETATM    1  C   UNL     1      -8.866   3.581  63.154  1.00  0.00    -0.094 C  
HETATM    2  C   UNL     1      -9.202   2.992  64.539  1.00  0.00    -0.140 C  
HETATM    3  C   UNL     1      -9.521   1.504  64.318  1.00  0.00    -0.131 C  
ENDROOT
BRANCH   2   4
HETATM    4  N   UNL     1      -8.083   3.223  65.484  1.00  0.00    -0.089 NA 
HETATM    5  C   UNL     1      -7.505   4.588  65.354  1.00  0.00    -0.081 C  
HETATM    6  C   UNL     1      -8.388   5.723  65.915  1.00  0.00    -0.130 C  
HETATM    7  N   UNL     1      -8.695   5.457  67.330  1.00  0.00    -0.108 NA 
HETATM    8  C   UNL     1      -8.419   3.034  66.923  1.00  0.00    -0.097 C  
HETATM    9  C   UNL     1      -9.299   4.138  67.576  1.00  0.00    -0.171 C  
BRANCH   7  10
HETATM   10  C   UNL     1      -8.942   6.523  68.180  1.00  0.00    -0.116 A  
HETATM   11  C   UNL     1     -10.191   6.707  68.776  1.00  0.00    -0.186 A  
HETATM   12  C   UNL     1     -10.515   7.878  69.459  1.00  0.00    -0.226 A  
HETATM   13  C   UNL     1      -9.596   8.921  69.573  1.00  0.00    -0.171 A  
HETATM   14  C   UNL     1      -7.992   7.536  68.379  1.00  0.00    -0.123 A  
HETATM   15  C   UNL     1      -8.314   8.726  69.059  1.00  0.00    -0.129 A  
BRANCH  13  16
HETATM   16  O   UNL     1      -9.872  10.146  70.141  1.00  0.00    -0.207 OA 
BRANCH  16  17
HETATM   17  C   UNL     1     -10.791  10.943  69.384  1.00  0.00    -0.240 C  
BRANCH  17  18
HETATM   18  C   UNL     1     -10.122  11.988  68.498  1.00  0.00    -0.196 C  
HETATM   19  C   UNL     1     -10.045  11.589  67.047  1.00  0.00    -0.210 C  
HETATM   20  O   UNL     1     -10.158  12.825  66.342  1.00  0.00    -0.248 OA 
HETATM   21  C   UNL     1     -10.946  13.710  67.177  1.00  0.00    -0.288 C  
HETATM   22  O   UNL     1     -10.940  13.164  68.510  1.00  0.00    -0.243 OA 
BRANCH  21  23
HETATM   23  C   UNL     1     -10.312  15.102  67.230  1.00  0.00    -0.261 A  
HETATM   24  C   UNL     1      -9.263  15.421  66.339  1.00  0.00    -0.339 A  
HETATM   25  C   UNL     1     -10.728  16.117  68.119  1.00  0.00    -0.315 A  
HETATM   26  C   UNL     1      -8.698  16.698  66.298  1.00  0.00    -0.359 A  
HETATM   27  C   UNL     1     -10.173  17.403  68.063  1.00  0.00    -0.345 A  
HETATM   28 CL   UNL     1     -11.901  15.862  69.364  1.00  0.00    -0.357 Cl 
HETATM   29 CL   UNL     1      -8.507  19.274  67.065  1.00  0.00    -0.294 Cl 
HETATM   30  C   UNL     1      -9.170  17.689  67.146  1.00  0.00    -0.245 A  
ENDBRANCH  21  23
BRANCH  21  31
HETATM   31  C   UNL     1     -12.403  13.684  66.662  1.00  0.00    -0.331 C  
BRANCH  31  32
HETATM   32  N   UNL     1     -12.554  13.456  65.243  1.00  0.00    -0.567 NA 
HETATM   33  C   UNL     1     -12.233  14.301  64.225  1.00  0.00    -0.423 A  
HETATM   34  C   UNL     1     -12.684  12.407  63.456  1.00  0.00    -0.326 A  
HETATM   35  N   UNL     1     -12.318  13.668  63.080  1.00  0.00    -0.677 NA 
HETATM   36  N   UNL     1     -12.840  12.231  64.770  1.00  0.00    -0.666 NA 
ENDBRANCH  31  32
ENDBRANCH  21  31
ENDBRANCH  17  18
ENDBRANCH  16  17
ENDBRANCH  13  16
ENDBRANCH   7  10
ENDBRANCH   2   4
TORSDOF 8
ENDMDL
MODEL       44
REMARK 921   NORMALIZED FREE ENERGY PREDICTED BY IDOCK:   -6.07 KCAL/MOL
REMARK 922        TOTAL FREE ENERGY PREDICTED BY IDOCK:  -10.09 KCAL/MOL
REMARK 923 INTER-LIGAND FREE ENERGY PREDICTED BY IDOCK:   -9.45 KCAL/MOL
REMARK 924 INTRA-LIGAND FREE ENERGY PREDICTED BY IDOCK:   -0.63 KCAL/MOL
REMARK 927      BINDING AFFINITY PREDICTED BY RF-SCORE:    0.00 PKD
ROOT
HETATM    1  C   UNL     1      -9.636   4.200  70.718  1.00  0.00    -0.260 C  
HETATM    2  C   UNL     1     -10.350   5.488  71.175  1.00  0.00    -0.234 C  
HETATM    3  C   UNL     1     -10.865   5.222  72.599  1.00  0.00    -0.307 C  
ENDROOT
BRANCH   2   4
HETATM    4  N   UNL     1      -9.432   6.648  71.085  1.00  0.00    -0.164 NA 
HETATM    5  C   UNL     1      -8.774   6.747  69.754  1.00  0.00    -0.141 C  
HETATM    6  C   UNL     1      -9.695   7.217  68.607  1.00  0.00    -0.146 C  
HETATM    7  N   UNL     1     -10.290   8.518  68.954  1.00  0.00    -0.211 NA 
HETATM    8  C   UNL     1     -10.057   7.973  71.354  1.00  0.00    -0.185 C  
HETATM    9  C   UNL     1     -10.994   8.532  70.245  1.00  0.00    -0.235 C  
BRANCH   7  10
HETATM   10  C   UNL     1     -10.649   9.390  67.938  1.00  0.00    -0.237 A  
HETATM   11  C   UNL     1     -10.087   9.294  66.663  1.00  0.00    -0.341 A  
HETATM   12  C   UNL     1     -10.278  10.283  65.699  1.00  0.00    -0.301 A  
HETATM   13  C   UNL     1     -11.042  11.417  65.975  1.00  0.00    -0.173 A  
HETATM   14  C   UNL     1     -11.492  10.485  68.176  1.00  0.00    -0.255 A  
HETATM   15  C   UNL     1     -11.682  11.493  67.212  1.00  0.00    -0.193 A  
BRANCH  13  16
HETATM   16  O   UNL     1     -11.194  12.484  65.116  1.00  0.00    -0.289 OA 
BRANCH  16  17
HETATM   17  C   UNL     1      -9.976  13.185  64.840  1.00  0.00    -0.130 C  
BRANCH  17  18
HETATM   18  C   UNL     1     -10.053  14.687  65.093  1.00  0.00    -0.324 C  
HETATM   19  C   UNL     1     -11.308  15.116  65.807  1.00  0.00    -0.238 C  
HETATM   20  O   UNL     1     -10.893  16.230  66.597  1.00  0.00    -0.247 OA 
HETATM   21  C   UNL     1      -9.493  16.020  66.907  1.00  0.00    -0.226 C  
HETATM   22  O   UNL     1      -8.988  15.038  65.984  1.00  0.00    -0.223 OA 
BRANCH  21  23
HETATM   23  C   UNL     1      -8.701  17.314  66.708  1.00  0.00    -0.275 A  
HETATM   24  C   UNL     1      -7.328  17.245  66.380  1.00  0.00    -0.336 A  
HETATM   25  C   UNL     1      -9.268  18.603  66.816  1.00  0.00    -0.308 A  
HETATM   26  C   UNL     1      -6.576  18.393  66.119  1.00  0.00    -0.272 A  
HETATM   27  C   UNL     1      -8.517  19.753  66.535  1.00  0.00    -0.380 A  
HETATM   28 CL   UNL     1     -10.893  18.880  67.340  1.00  0.00    -0.507 Cl 
HETATM   29 CL   UNL     1      -6.267  21.052  65.812  1.00  0.00    -0.277 Cl 
HETATM   30  C   UNL     1      -7.180  19.641  66.177  1.00  0.00    -0.278 A  
ENDBRANCH  21  23
BRANCH  21  31
HETATM   31  C   UNL     1      -9.402  15.423  68.331  1.00  0.00    -0.193 C  
BRANCH  31  32
HETATM   32  N   UNL     1     -10.667  15.226  69.002  1.00  0.00    -0.233 NA 
HETATM   33  C   UNL     1     -11.296  14.047  69.263  1.00  0.00    -0.273 A  
HETATM   34  C   UNL     1     -12.253  15.601  70.288  1.00  0.00    -0.386 A  
HETATM   35  N   UNL     1     -12.312  14.256  70.065  1.00  0.00    -0.345 NA 
HETATM   36  N   UNL     1     -11.262  16.237  69.658  1.00  0.00    -0.329 NA 
ENDBRANCH  31  32
ENDBRANCH  21  31
ENDBRANCH  17  18
ENDBRANCH  16  17
ENDBRANCH  13  16
ENDBRANCH   7  10
ENDBRANCH   2   4
TORSDOF 8
ENDMDL
MODEL       45
REMARK 921   NORMALIZED FREE ENERGY PREDICTED BY IDOCK:   -6.07 KCAL/MOL
REMARK 922        TOTAL FREE ENERGY PREDICTED BY IDOCK:  -10.08 KCAL/MOL
REMARK 923 INTER-LIGAND FREE ENERGY PREDICTED BY IDOCK:   -8.85 KCAL/MOL
REMARK 924 INTRA-LIGAND FREE ENERGY PREDICTED BY IDOCK:   -1.23 KCAL/MOL
REMARK 927      BINDING AFFINITY PREDICTED BY RF-SCORE:    0.00 PKD
ROOT
HETATM    1  C   UNL     1      -9.211  20.078  66.598  1.00  0.00    -0.484 C  
HETATM    2  C   UNL     1      -9.173  18.676  67.241  1.00  0.00    -0.287 C  
HETATM    3  C   UNL     1      -8.662  18.866  68.678  1.00  0.00    -0.374 C  
ENDROOT
BRANCH   2   4
HETATM    4  N   UNL     1     -10.508  18.038  67.166  1.00  0.00    -0.376 NA 
HETATM    5  C   UNL     1     -10.778  17.441  65.830  1.00  0.00    -0.120 C  
HETATM    6  C   UNL     1      -9.995  16.145  65.527  1.00  0.00    -0.216 C  
HETATM    7  N   UNL     1     -10.272  15.146  66.571  1.00  0.00    -0.268 NA 
HETATM    8  C   UNL     1     -10.756  16.967  68.172  1.00  0.00    -0.375 C  
HETATM    9  C   UNL     1     -10.015  15.619  67.940  1.00  0.00    -0.223 C  
BRANCH   7  10
HETATM   10  C   UNL     1     -10.190  13.798  66.256  1.00  0.00    -0.297 A  
HETATM   11  C   UNL     1      -9.133  13.008  66.708  1.00  0.00    -0.212 A  
HETATM   12  C   UNL     1      -8.925  11.714  66.231  1.00  0.00    -0.194 A  
HETATM   13  C   UNL     1      -9.772  11.157  65.273  1.00  0.00    -0.241 A  
HETATM   14  C   UNL     1     -11.091  13.199  65.364  1.00  0.00    -0.299 A  
HETATM   15  C   UNL     1     -10.883  11.897  64.869  1.00  0.00    -0.356 A  
BRANCH  13  16
HETATM   16  O   UNL     1      -9.577   9.930  64.677  1.00  0.00    -0.299 OA 
BRANCH  16  17
HETATM   17  C   UNL     1      -8.929   8.971  65.520  1.00  0.00    -0.204 C  
BRANCH  17  18
HETATM   18  C   UNL     1      -9.864   8.274  66.501  1.00  0.00    -0.253 C  
HETATM   19  C   UNL     1      -9.701   6.777  66.532  1.00  0.00    -0.125 C  
HETATM   20  O   UNL     1      -9.987   6.425  67.886  1.00  0.00    -0.123 OA 
HETATM   21  C   UNL     1      -9.620   7.568  68.698  1.00  0.00    -0.151 C  
HETATM   22  O   UNL     1      -9.519   8.706  67.822  1.00  0.00    -0.139 OA 
BRANCH  21  23
HETATM   23  C   UNL     1     -10.707   7.859  69.735  1.00  0.00    -0.233 A  
HETATM   24  C   UNL     1     -11.117   9.193  69.955  1.00  0.00    -0.208 A  
HETATM   25  C   UNL     1     -11.353   6.858  70.492  1.00  0.00    -0.327 A  
HETATM   26  C   UNL     1     -12.152   9.507  70.839  1.00  0.00    -0.357 A  
HETATM   27  C   UNL     1     -12.404   7.173  71.365  1.00  0.00    -0.415 A  
HETATM   28 CL   UNL     1     -10.887   5.192  70.452  1.00  0.00    -0.140 Cl 
HETATM   29 CL   UNL     1     -14.111   8.873  72.578  1.00  0.00    -0.506 Cl 
HETATM   30  C   UNL     1     -12.806   8.493  71.524  1.00  0.00    -0.311 A  
ENDBRANCH  21  23
BRANCH  21  31
HETATM   31  C   UNL     1      -8.217   7.302  69.292  1.00  0.00    -0.131 C  
BRANCH  31  32
HETATM   32  N   UNL     1      -7.477   8.480  69.682  1.00  0.00    -0.074 NA 
HETATM   33  C   UNL     1      -7.610   9.207  70.826  1.00  0.00    -0.133 A  
HETATM   34  C   UNL     1      -5.896   9.822  69.793  1.00  0.00    -0.041 A  
HETATM   35  N   UNL     1      -6.630  10.074  70.916  1.00  0.00    -0.317 NA 
HETATM   36  N   UNL     1      -6.376   8.854  69.008  1.00  0.00    -0.043 NA 
ENDBRANCH  31  32
ENDBRANCH  21  31
ENDBRANCH  17  18
ENDBRANCH  16  17
ENDBRANCH  13  16
ENDBRANCH   7  10
ENDBRANCH   2   4
TORSDOF 8
ENDMDL
MODEL       46
REMARK 921   NORMALIZED FREE ENERGY PREDICTED BY IDOCK:   -6.07 KCAL/MOL
REMARK 922        TOTAL FREE ENERGY PREDICTED BY IDOCK:  -10.08 KCAL/MOL
REMARK 923 INTER-LIGAND FREE ENERGY PREDICTED BY IDOCK:   -9.06 KCAL/MOL
REMARK 924 INTRA-LIGAND FREE ENERGY PREDICTED BY IDOCK:   -1.02 KCAL/MOL
REMARK 927      BINDING AFFINITY PREDICTED BY RF-SCORE:    0.00 PKD
ROOT
HETATM    1  C   UNL     1      -9.468   2.294  68.043  1.00  0.00    -0.199 C  
HETATM    2  C   UNL     1      -8.602   3.452  67.506  1.00  0.00    -0.103 C  
HETATM    3  C   UNL     1      -7.169   2.909  67.387  1.00  0.00    -0.054 C  
ENDROOT
BRANCH   2   4
HETATM    4  N   UNL     1      -9.152   3.958  66.226  1.00  0.00    -0.139 NA 
HETATM    5  C   UNL     1     -10.391   4.759  66.419  1.00  0.00    -0.273 C  
HETATM    6  C   UNL     1     -10.171   6.160  67.031  1.00  0.00    -0.202 C  
HETATM    7  N   UNL     1      -9.225   6.919  66.198  1.00  0.00    -0.124 NA 
HETATM    8  C   UNL     1      -8.220   4.797  65.423  1.00  0.00    -0.118 C  
HETATM    9  C   UNL     1      -7.947   6.232  65.960  1.00  0.00    -0.114 C  
BRANCH   7  10
HETATM   10  C   UNL     1      -9.305   8.303  66.175  1.00  0.00    -0.188 A  
HETATM   11  C   UNL     1     -10.205   8.994  66.987  1.00  0.00    -0.336 A  
HETATM   12  C   UNL     1     -10.444  10.358  66.825  1.00  0.00    -0.287 A  
HETATM   13  C   UNL     1      -9.788  11.090  65.835  1.00  0.00    -0.232 A  
HETATM   14  C   UNL     1      -8.580   9.063  65.244  1.00  0.00    -0.199 A  
HETATM   15  C   UNL     1      -8.823  10.439  65.068  1.00  0.00    -0.209 A  
BRANCH  13  16
HETATM   16  O   UNL     1     -10.042  12.413  65.544  1.00  0.00    -0.264 OA 
BRANCH  16  17
HETATM   17  C   UNL     1      -9.665  13.320  66.585  1.00  0.00    -0.270 C  
BRANCH  17  18
HETATM   18  C   UNL     1      -9.341  14.727  66.096  1.00  0.00    -0.257 C  
HETATM   19  C   UNL     1     -10.449  15.359  65.296  1.00  0.00    -0.415 C  
HETATM   20  O   UNL     1     -10.347  16.750  65.601  1.00  0.00    -0.500 OA 
HETATM   21  C   UNL     1      -9.792  16.843  66.936  1.00  0.00    -0.276 C  
HETATM   22  O   UNL     1      -9.193  15.570  67.245  1.00  0.00    -0.201 OA 
BRANCH  21  23
HETATM   23  C   UNL     1      -8.696  17.910  66.988  1.00  0.00    -0.254 A  
HETATM   24  C   UNL     1      -7.394  17.549  67.400  1.00  0.00    -0.198 A  
HETATM   25  C   UNL     1      -8.902  19.259  66.628  1.00  0.00    -0.334 A  
HETATM   26  C   UNL     1      -6.341  18.468  67.399  1.00  0.00    -0.197 A  
HETATM   27  C   UNL     1      -7.841  20.176  66.609  1.00  0.00    -0.337 A  
HETATM   28 CL   UNL     1     -10.456  19.907  66.230  1.00  0.00    -0.592 Cl 
HETATM   29 CL   UNL     1      -5.261  20.893  66.937  1.00  0.00    -0.210 Cl 
HETATM   30  C   UNL     1      -6.565  19.772  66.983  1.00  0.00    -0.197 A  
ENDBRANCH  21  23
BRANCH  21  31
HETATM   31  C   UNL     1     -10.958  17.069  67.926  1.00  0.00    -0.226 C  
BRANCH  31  32
HETATM   32  N   UNL     1     -11.181  16.003  68.876  1.00  0.00    -0.331 NA 
HETATM   33  C   UNL     1     -10.815  15.967  70.187  1.00  0.00    -0.353 A  
HETATM   34  C   UNL     1     -12.094  14.364  69.764  1.00  0.00    -0.334 A  
HETATM   35  N   UNL     1     -11.368  14.932  70.772  1.00  0.00    -0.254 NA 
HETATM   36  N   UNL     1     -12.010  14.985  68.586  1.00  0.00    -0.287 NA 
ENDBRANCH  31  32
ENDBRANCH  21  31
ENDBRANCH  17  18
ENDBRANCH  16  17
ENDBRANCH  13  16
ENDBRANCH   7  10
ENDBRANCH   2   4
TORSDOF 8
ENDMDL
MODEL       47
REMARK 921   NORMALIZED FREE ENERGY PREDICTED BY IDOCK:   -6.04 KCAL/MOL
REMARK 922        TOTAL FREE ENERGY PREDICTED BY IDOCK:  -10.03 KCAL/MOL
REMARK 923 INTER-LIGAND FREE ENERGY PREDICTED BY IDOCK:   -8.90 KCAL/MOL
REMARK 924 INTRA-LIGAND FREE ENERGY PREDICTED BY IDOCK:   -1.13 KCAL/MOL
REMARK 927      BINDING AFFINITY PREDICTED BY RF-SCORE:    0.00 PKD
ROOT
HETATM    1  C   UNL     1      -9.439   4.646  74.379  1.00  0.00    -0.136 C  
HETATM    2  C   UNL     1      -8.909   4.506  72.938  1.00  0.00    -0.115 C  
HETATM    3  C   UNL     1      -7.887   3.357  72.957  1.00  0.00    -0.065 C  
ENDROOT
BRANCH   2   4
HETATM    4  N   UNL     1     -10.030   4.285  71.994  1.00  0.00    -0.174 NA 
HETATM    5  C   UNL     1     -10.775   5.539  71.697  1.00  0.00    -0.231 C  
HETATM    6  C   UNL     1     -10.030   6.538  70.786  1.00  0.00    -0.184 C  
HETATM    7  N   UNL     1      -9.666   5.877  69.522  1.00  0.00    -0.144 NA 
HETATM    8  C   UNL     1      -9.647   3.693  70.682  1.00  0.00    -0.183 C  
HETATM    9  C   UNL     1      -8.899   4.633  69.693  1.00  0.00    -0.083 C  
BRANCH   7  10
HETATM   10  C   UNL     1      -9.538   6.640  68.373  1.00  0.00    -0.123 A  
HETATM   11  C   UNL     1      -8.305   6.799  67.737  1.00  0.00    -0.119 A  
HETATM   12  C   UNL     1      -8.121   7.726  66.711  1.00  0.00    -0.115 A  
HETATM   13  C   UNL     1      -9.170   8.537  66.279  1.00  0.00    -0.207 A  
HETATM   14  C   UNL     1     -10.610   7.392  67.870  1.00  0.00    -0.255 A  
HETATM   15  C   UNL     1     -10.430   8.337  66.841  1.00  0.00    -0.365 A  
BRANCH  13  16
HETATM   16  O   UNL     1      -9.045   9.544  65.346  1.00  0.00    -0.190 OA 
BRANCH  16  17
HETATM   17  C   UNL     1      -8.099  10.557  65.708  1.00  0.00    -0.158 C  
BRANCH  17  18
HETATM   18  C   UNL     1      -8.476  11.340  66.961  1.00  0.00    -0.150 C  
HETATM   19  C   UNL     1      -7.690  12.612  67.138  1.00  0.00    -0.091 C  
HETATM   20  O   UNL     1      -8.607  13.500  67.776  1.00  0.00    -0.158 OA 
HETATM   21  C   UNL     1      -9.934  13.102  67.351  1.00  0.00    -0.229 C  
HETATM   22  O   UNL     1      -9.836  11.768  66.820  1.00  0.00    -0.194 OA 
BRANCH  21  23
HETATM   23  C   UNL     1     -10.892  13.071  68.544  1.00  0.00    -0.282 A  
HETATM   24  C   UNL     1     -11.324  11.827  69.056  1.00  0.00    -0.338 A  
HETATM   25  C   UNL     1     -11.372  14.230  69.192  1.00  0.00    -0.276 A  
HETATM   26  C   UNL     1     -12.141  11.740  70.185  1.00  0.00    -0.398 A  
HETATM   27  C   UNL     1     -12.177  14.141  70.336  1.00  0.00    -0.427 A  
HETATM   28 CL   UNL     1     -11.059  15.832  68.620  1.00  0.00    -0.306 Cl 
HETATM   29 CL   UNL     1     -13.516  12.792  72.250  1.00  0.00    -0.656 Cl 
HETATM   30  C   UNL     1     -12.547  12.898  70.833  1.00  0.00    -0.270 A  
ENDBRANCH  21  23
BRANCH  21  31
HETATM   31  C   UNL     1     -10.370  14.039  66.200  1.00  0.00    -0.297 C  
BRANCH  31  32
HETATM   32  N   UNL     1     -11.069  13.397  65.110  1.00  0.00    -0.294 NA 
HETATM   33  C   UNL     1     -10.529  12.789  64.017  1.00  0.00    -0.406 A  
HETATM   34  C   UNL     1     -12.579  12.378  64.115  1.00  0.00    -0.403 A  
HETATM   35  N   UNL     1     -11.465  12.147  63.361  1.00  0.00    -0.430 NA 
HETATM   36  N   UNL     1     -12.385  13.138  65.195  1.00  0.00    -0.448 NA 
ENDBRANCH  31  32
ENDBRANCH  21  31
ENDBRANCH  17  18
ENDBRANCH  16  17
ENDBRANCH  13  16
ENDBRANCH   7  10
ENDBRANCH   2   4
TORSDOF 8
ENDMDL
MODEL       48
REMARK 921   NORMALIZED FREE ENERGY PREDICTED BY IDOCK:   -6.02 KCAL/MOL
REMARK 922        TOTAL FREE ENERGY PREDICTED BY IDOCK:  -10.01 KCAL/MOL
REMARK 923 INTER-LIGAND FREE ENERGY PREDICTED BY IDOCK:   -8.51 KCAL/MOL
REMARK 924 INTRA-LIGAND FREE ENERGY PREDICTED BY IDOCK:   -1.50 KCAL/MOL
REMARK 927      BINDING AFFINITY PREDICTED BY RF-SCORE:    0.00 PKD
ROOT
HETATM    1  C   UNL     1      -9.642   3.722  67.411  1.00  0.00    -0.208 C  
HETATM    2  C   UNL     1      -9.251   4.918  68.302  1.00  0.00    -0.123 C  
HETATM    3  C   UNL     1      -9.793   4.614  69.708  1.00  0.00    -0.296 C  
ENDROOT
BRANCH   2   4
HETATM    4  N   UNL     1      -7.785   5.132  68.266  1.00  0.00    -0.083 NA 
HETATM    5  C   UNL     1      -7.331   5.731  66.981  1.00  0.00    -0.080 C  
HETATM    6  C   UNL     1      -7.686   7.222  66.797  1.00  0.00    -0.109 C  
HETATM    7  N   UNL     1      -7.137   8.002  67.919  1.00  0.00    -0.084 NA 
HETATM    8  C   UNL     1      -7.242   5.992  69.355  1.00  0.00    -0.074 C  
HETATM    9  C   UNL     1      -7.543   7.515  69.246  1.00  0.00    -0.100 C  
BRANCH   7  10
HETATM   10  C   UNL     1      -6.809   9.333  67.719  1.00  0.00    -0.079 A  
HETATM   11  C   UNL     1      -6.234  10.102  68.732  1.00  0.00    -0.047 A  
HETATM   12  C   UNL     1      -6.093  11.484  68.616  1.00  0.00    -0.047 A  
HETATM   13  C   UNL     1      -6.527  12.158  67.475  1.00  0.00    -0.134 A  
HETATM   14  C   UNL     1      -7.157  10.004  66.537  1.00  0.00    -0.097 A  
HETATM   15  C   UNL     1      -7.028  11.401  66.416  1.00  0.00     0.000 A  
BRANCH  13  16
HETATM   16  O   UNL     1      -6.518  13.528  67.325  1.00  0.00    -0.276 OA 
BRANCH  16  17
HETATM   17  C   UNL     1      -7.822  14.107  67.196  1.00  0.00    -0.037 C  
BRANCH  17  18
HETATM   18  C   UNL     1      -8.714  13.906  68.415  1.00  0.00    -0.173 C  
HETATM   19  C   UNL     1      -9.250  15.191  68.990  1.00  0.00    -0.221 C  
HETATM   20  O   UNL     1     -10.534  14.833  69.501  1.00  0.00    -0.218 OA 
HETATM   21  C   UNL     1     -11.012  13.733  68.688  1.00  0.00    -0.266 C  
HETATM   22  O   UNL     1      -9.877  13.182  67.996  1.00  0.00    -0.217 OA 
BRANCH  21  23
HETATM   23  C   UNL     1     -11.611  12.636  69.572  1.00  0.00    -0.348 A  
HETATM   24  C   UNL     1     -11.297  11.284  69.308  1.00  0.00    -0.354 A  
HETATM   25  C   UNL     1     -12.463  12.892  70.667  1.00  0.00    -0.252 A  
HETATM   26  C   UNL     1     -11.760  10.249  70.124  1.00  0.00    -0.364 A  
HETATM   27  C   UNL     1     -12.912  11.855  71.497  1.00  0.00    -0.427 A  
HETATM   28 CL   UNL     1     -13.060  14.470  71.053  1.00  0.00    -0.419 Cl 
HETATM   29 CL   UNL     1     -13.082   9.274  72.261  1.00  0.00    -0.501 Cl 
HETATM   30  C   UNL     1     -12.549  10.542  71.228  1.00  0.00    -0.426 A  
ENDBRANCH  21  23
BRANCH  21  31
HETATM   31  C   UNL     1     -11.981  14.306  67.628  1.00  0.00    -0.365 C  
BRANCH  31  32
HETATM   32  N   UNL     1     -11.824  13.773  66.294  1.00  0.00    -0.376 NA 
HETATM   33  C   UNL     1     -11.054  14.266  65.285  1.00  0.00    -0.335 A  
HETATM   34  C   UNL     1     -11.764  12.365  64.769  1.00  0.00    -0.368 A  
HETATM   35  N   UNL     1     -11.008  13.401  64.300  1.00  0.00    -0.388 NA 
HETATM   36  N   UNL     1     -12.284  12.548  65.985  1.00  0.00    -0.620 NA 
ENDBRANCH  31  32
ENDBRANCH  21  31
ENDBRANCH  17  18
ENDBRANCH  16  17
ENDBRANCH  13  16
ENDBRANCH   7  10
ENDBRANCH   2   4
TORSDOF 8
ENDMDL
MODEL       49
REMARK 921   NORMALIZED FREE ENERGY PREDICTED BY IDOCK:   -5.98 KCAL/MOL
REMARK 922        TOTAL FREE ENERGY PREDICTED BY IDOCK:   -9.95 KCAL/MOL
REMARK 923 INTER-LIGAND FREE ENERGY PREDICTED BY IDOCK:   -8.93 KCAL/MOL
REMARK 924 INTRA-LIGAND FREE ENERGY PREDICTED BY IDOCK:   -1.02 KCAL/MOL
REMARK 927      BINDING AFFINITY PREDICTED BY RF-SCORE:    0.00 PKD
ROOT
HETATM    1  C   UNL     1      -9.201   2.558  67.808  1.00  0.00    -0.240 C  
HETATM    2  C   UNL     1      -9.330   4.080  68.013  1.00  0.00    -0.169 C  
HETATM    3  C   UNL     1      -9.751   4.292  69.477  1.00  0.00    -0.272 C  
ENDROOT
BRANCH   2   4
HETATM    4  N   UNL     1      -8.061   4.759  67.659  1.00  0.00    -0.097 NA 
HETATM    5  C   UNL     1      -7.975   5.078  66.208  1.00  0.00    -0.107 C  
HETATM    6  C   UNL     1      -8.879   6.240  65.743  1.00  0.00    -0.111 C  
HETATM    7  N   UNL     1      -8.573   7.448  66.527  1.00  0.00    -0.126 NA 
HETATM    8  C   UNL     1      -7.793   6.027  68.394  1.00  0.00    -0.106 C  
HETATM    9  C   UNL     1      -8.653   7.257  67.983  1.00  0.00    -0.125 C  
BRANCH   7  10
HETATM   10  C   UNL     1      -8.788   8.694  65.959  1.00  0.00    -0.178 A  
HETATM   11  C   UNL     1      -9.950   9.422  66.219  1.00  0.00    -0.353 A  
HETATM   12  C   UNL     1     -10.275  10.571  65.498  1.00  0.00    -0.325 A  
HETATM   13  C   UNL     1      -9.445  11.039  64.480  1.00  0.00    -0.233 A  
HETATM   14  C   UNL     1      -7.913   9.222  64.998  1.00  0.00    -0.118 A  
HETATM   15  C   UNL     1      -8.238  10.375  64.259  1.00  0.00    -0.121 A  
BRANCH  13  16
HETATM   16  O   UNL     1      -9.743  12.102  63.655  1.00  0.00    -0.278 OA 
BRANCH  16  17
HETATM   17  C   UNL     1     -11.129  12.462  63.651  1.00  0.00    -0.473 C  
BRANCH  17  18
HETATM   18  C   UNL     1     -11.458  13.674  64.516  1.00  0.00    -0.379 C  
HETATM   19  C   UNL     1     -12.591  13.438  65.480  1.00  0.00    -0.465 C  
HETATM   20  O   UNL     1     -12.255  14.241  66.612  1.00  0.00    -0.449 OA 
HETATM   21  C   UNL     1     -10.809  14.326  66.646  1.00  0.00    -0.301 C  
HETATM   22  O   UNL     1     -10.323  13.944  65.346  1.00  0.00    -0.315 OA 
BRANCH  21  23
HETATM   23  C   UNL     1     -10.364  15.765  66.918  1.00  0.00    -0.295 A  
HETATM   24  C   UNL     1      -9.413  16.371  66.066  1.00  0.00    -0.345 A  
HETATM   25  C   UNL     1     -10.863  16.550  67.980  1.00  0.00    -0.337 A  
HETATM   26  C   UNL     1      -9.025  17.703  66.228  1.00  0.00    -0.211 A  
HETATM   27  C   UNL     1     -10.487  17.892  68.129  1.00  0.00    -0.380 A  
HETATM   28 CL   UNL     1     -11.926  15.931  69.196  1.00  0.00    -0.346 Cl 
HETATM   29 CL   UNL     1      -9.137  20.117  67.419  1.00  0.00    -0.451 Cl 
HETATM   30  C   UNL     1      -9.580  18.464  67.247  1.00  0.00    -0.288 A  
ENDBRANCH  21  23
BRANCH  21  31
HETATM   31  C   UNL     1     -10.291  13.288  67.668  1.00  0.00    -0.230 C  
BRANCH  31  32
HETATM   32  N   UNL     1      -8.869  13.326  67.924  1.00  0.00    -0.182 NA 
HETATM   33  C   UNL     1      -7.880  12.714  67.216  1.00  0.00    -0.155 A  
HETATM   34  C   UNL     1      -7.043  14.056  68.588  1.00  0.00    -0.108 A  
HETATM   35  N   UNL     1      -6.711  13.147  67.624  1.00  0.00    -0.151 NA 
HETATM   36  N   UNL     1      -8.352  14.199  68.806  1.00  0.00    -0.114 NA 
ENDBRANCH  31  32
ENDBRANCH  21  31
ENDBRANCH  17  18
ENDBRANCH  16  17
ENDBRANCH  13  16
ENDBRANCH   7  10
ENDBRANCH   2   4
TORSDOF 8
ENDMDL
MODEL       50
REMARK 921   NORMALIZED FREE ENERGY PREDICTED BY IDOCK:   -5.96 KCAL/MOL
REMARK 922        TOTAL FREE ENERGY PREDICTED BY IDOCK:   -9.91 KCAL/MOL
REMARK 923 INTER-LIGAND FREE ENERGY PREDICTED BY IDOCK:   -8.72 KCAL/MOL
REMARK 924 INTRA-LIGAND FREE ENERGY PREDICTED BY IDOCK:   -1.20 KCAL/MOL
REMARK 927      BINDING AFFINITY PREDICTED BY RF-SCORE:    0.00 PKD
ROOT
HETATM    1  C   UNL     1      -7.183   2.602  64.883  1.00  0.00    -0.058 C  
HETATM    2  C   UNL     1      -8.403   3.511  65.136  1.00  0.00    -0.097 C  
HETATM    3  C   UNL     1      -9.647   2.691  64.756  1.00  0.00    -0.069 C  
ENDROOT
BRANCH   2   4
HETATM    4  N   UNL     1      -8.412   3.984  66.540  1.00  0.00    -0.104 NA 
HETATM    5  C   UNL     1      -7.461   5.106  66.767  1.00  0.00    -0.087 C  
HETATM    6  C   UNL     1      -7.900   6.460  66.169  1.00  0.00    -0.102 C  
HETATM    7  N   UNL     1      -9.223   6.828  66.699  1.00  0.00    -0.154 NA 
HETATM    8  C   UNL     1      -9.737   4.435  67.049  1.00  0.00    -0.205 C  
HETATM    9  C   UNL     1     -10.255   5.799  66.507  1.00  0.00    -0.189 C  
BRANCH   7  10
HETATM   10  C   UNL     1      -9.562   8.168  66.796  1.00  0.00    -0.217 A  
HETATM   11  C   UNL     1     -10.295   8.658  67.879  1.00  0.00    -0.286 A  
HETATM   12  C   UNL     1     -10.821   9.949  67.887  1.00  0.00    -0.312 A  
HETATM   13  C   UNL     1     -10.635  10.808  66.804  1.00  0.00    -0.250 A  
HETATM   14  C   UNL     1      -9.300   9.068  65.752  1.00  0.00    -0.302 A  
HETATM   15  C   UNL     1      -9.835  10.370  65.748  1.00  0.00    -0.300 A  
BRANCH  13  16
HETATM   16  O   UNL     1     -11.206  12.057  66.691  1.00  0.00    -0.293 OA 
BRANCH  16  17
HETATM   17  C   UNL     1     -10.874  12.740  65.476  1.00  0.00    -0.274 C  
BRANCH  17  18
HETATM   18  C   UNL     1     -10.206  14.094  65.688  1.00  0.00    -0.339 C  
HETATM   19  C   UNL     1     -10.976  15.247  65.100  1.00  0.00    -0.416 C  
HETATM   20  O   UNL     1     -10.703  16.333  65.985  1.00  0.00    -0.295 OA 
HETATM   21  C   UNL     1     -10.457  15.754  67.290  1.00  0.00    -0.308 C  
HETATM   22  O   UNL     1     -10.176  14.355  67.096  1.00  0.00    -0.254 OA 
BRANCH  21  23
HETATM   23  C   UNL     1      -9.232  16.400  67.940  1.00  0.00    -0.202 A  
HETATM   24  C   UNL     1      -8.181  15.581  68.410  1.00  0.00    -0.145 A  
HETATM   25  C   UNL     1      -9.071  17.794  68.092  1.00  0.00    -0.274 A  
HETATM   26  C   UNL     1      -7.011  16.122  68.948  1.00  0.00    -0.161 A  
HETATM   27  C   UNL     1      -7.889  18.337  68.614  1.00  0.00    -0.313 A  
HETATM   28 CL   UNL     1     -10.310  18.938  67.700  1.00  0.00    -0.458 Cl 
HETATM   29 CL   UNL     1      -5.403  18.168  69.647  1.00  0.00    -0.192 Cl 
HETATM   30  C   UNL     1      -6.861  17.499  69.028  1.00  0.00    -0.242 A  
ENDBRANCH  21  23
BRANCH  21  31
HETATM   31  C   UNL     1     -11.759  15.865  68.117  1.00  0.00    -0.130 C  
BRANCH  31  32
HETATM   32  N   UNL     1     -11.760  15.144  69.370  1.00  0.00    -0.312 NA 
HETATM   33  C   UNL     1     -11.408  15.610  70.600  1.00  0.00    -0.368 A  
HETATM   34  C   UNL     1     -12.315  13.733  70.789  1.00  0.00    -0.379 A  
HETATM   35  N   UNL     1     -11.736  14.732  71.517  1.00  0.00    -0.332 NA 
HETATM   36  N   UNL     1     -12.352  13.941  69.470  1.00  0.00    -0.299 NA 
ENDBRANCH  31  32
ENDBRANCH  21  31
ENDBRANCH  17  18
ENDBRANCH  16  17
ENDBRANCH  13  16
ENDBRANCH   7  10
ENDBRANCH   2   4
TORSDOF 8
ENDMDL
MODEL       51
REMARK 921   NORMALIZED FREE ENERGY PREDICTED BY IDOCK:   -5.93 KCAL/MOL
REMARK 922        TOTAL FREE ENERGY PREDICTED BY IDOCK:   -9.88 KCAL/MOL
REMARK 923 INTER-LIGAND FREE ENERGY PREDICTED BY IDOCK:   -9.15 KCAL/MOL
REMARK 924 INTRA-LIGAND FREE ENERGY PREDICTED BY IDOCK:   -0.72 KCAL/MOL
REMARK 927      BINDING AFFINITY PREDICTED BY RF-SCORE:    0.00 PKD
ROOT
HETATM    1  C   UNL     1      -9.505   2.281  70.688  1.00  0.00    -0.189 C  
HETATM    2  C   UNL     1     -10.067   3.199  71.792  1.00  0.00    -0.046 C  
HETATM    3  C   UNL     1     -10.151   2.348  73.070  1.00  0.00    -0.201 C  
ENDROOT
BRANCH   2   4
HETATM    4  N   UNL     1      -9.221   4.406  71.940  1.00  0.00    -0.126 NA 
HETATM    5  C   UNL     1      -9.268   5.283  70.738  1.00  0.00    -0.152 C  
HETATM    6  C   UNL     1     -10.586   6.067  70.557  1.00  0.00    -0.266 C  
HETATM    7  N   UNL     1     -10.849   6.874  71.759  1.00  0.00    -0.223 NA 
HETATM    8  C   UNL     1      -9.544   5.268  73.112  1.00  0.00    -0.145 C  
HETATM    9  C   UNL     1     -10.852   6.104  73.012  1.00  0.00    -0.257 C  
BRANCH   7  10
HETATM   10  C   UNL     1     -11.583   8.044  71.640  1.00  0.00    -0.275 A  
HETATM   11  C   UNL     1     -11.014   9.213  71.132  1.00  0.00    -0.390 A  
HETATM   12  C   UNL     1     -11.671  10.441  71.202  1.00  0.00    -0.387 A  
HETATM   13  C   UNL     1     -12.932  10.549  71.788  1.00  0.00    -0.476 A  
HETATM   14  C   UNL     1     -12.889   8.143  72.143  1.00  0.00    -0.311 A  
HETATM   15  C   UNL     1     -13.555   9.381  72.226  1.00  0.00    -0.532 A  
BRANCH  13  16
HETATM   16  O   UNL     1     -13.601  11.738  71.988  1.00  0.00    -0.326 OA 
BRANCH  16  17
HETATM   17  C   UNL     1     -12.797  12.902  71.763  1.00  0.00    -0.235 C  
BRANCH  17  18
HETATM   18  C   UNL     1     -12.947  13.500  70.369  1.00  0.00     0.112 C  
HETATM   19  C   UNL     1     -12.746  14.992  70.327  1.00  0.00    -0.275 C  
HETATM   20  O   UNL     1     -12.164  15.227  69.045  1.00  0.00    -0.239 OA 
HETATM   21  C   UNL     1     -11.426  14.029  68.698  1.00  0.00    -0.302 C  
HETATM   22  O   UNL     1     -11.901  12.968  69.547  1.00  0.00    -0.305 OA 
BRANCH  21  23
HETATM   23  C   UNL     1     -11.698  13.635  67.244  1.00  0.00    -0.416 A  
HETATM   24  C   UNL     1     -12.373  14.539  66.394  1.00  0.00    -0.198 A  
HETATM   25  C   UNL     1     -11.295  12.405  66.680  1.00  0.00    -0.339 A  
HETATM   26  C   UNL     1     -12.585  14.258  65.042  1.00  0.00    -0.360 A  
HETATM   27  C   UNL     1     -11.491  12.132  65.318  1.00  0.00    -0.388 A  
HETATM   28 CL   UNL     1     -10.580  11.129  67.603  1.00  0.00    -0.232 Cl 
HETATM   29 CL   UNL     1     -12.343  12.736  62.832  1.00  0.00    -0.050 Cl 
HETATM   30  C   UNL     1     -12.124  13.064  64.506  1.00  0.00    -0.410 A  
ENDBRANCH  21  23
BRANCH  21  31
HETATM   31  C   UNL     1      -9.935  14.270  69.032  1.00  0.00    -0.097 C  
BRANCH  31  32
HETATM   32  N   UNL     1      -9.317  15.377  68.338  1.00  0.00    -0.189 NA 
HETATM   33  C   UNL     1      -8.871  15.410  67.051  1.00  0.00    -0.228 A  
HETATM   34  C   UNL     1      -8.865  17.344  67.851  1.00  0.00    -0.237 A  
HETATM   35  N   UNL     1      -8.565  16.641  66.720  1.00  0.00    -0.214 NA 
HETATM   36  N   UNL     1      -9.328  16.613  68.867  1.00  0.00    -0.250 NA 
ENDBRANCH  31  32
ENDBRANCH  21  31
ENDBRANCH  17  18
ENDBRANCH  16  17
ENDBRANCH  13  16
ENDBRANCH   7  10
ENDBRANCH   2   4
TORSDOF 8
ENDMDL
MODEL       52
REMARK 921   NORMALIZED FREE ENERGY PREDICTED BY IDOCK:   -5.81 KCAL/MOL
REMARK 922        TOTAL FREE ENERGY PREDICTED BY IDOCK:   -9.70 KCAL/MOL
REMARK 923 INTER-LIGAND FREE ENERGY PREDICTED BY IDOCK:   -8.88 KCAL/MOL
REMARK 924 INTRA-LIGAND FREE ENERGY PREDICTED BY IDOCK:   -0.82 KCAL/MOL
REMARK 927      BINDING AFFINITY PREDICTED BY RF-SCORE:    0.00 PKD
ROOT
HETATM    1  C   UNL     1      -9.756   1.656  68.157  1.00  0.00    -0.023 C  
HETATM    2  C   UNL     1      -9.311   3.083  68.536  1.00  0.00    -0.180 C  
HETATM    3  C   UNL     1      -8.486   2.957  69.827  1.00  0.00    -0.098 C  
ENDROOT
BRANCH   2   4
HETATM    4  N   UNL     1      -8.567   3.706  67.416  1.00  0.00    -0.100 NA 
HETATM    5  C   UNL     1      -9.471   4.247  66.366  1.00  0.00    -0.183 C  
HETATM    6  C   UNL     1     -10.225   5.536  66.757  1.00  0.00    -0.233 C  
HETATM    7  N   UNL     1      -9.257   6.574  67.147  1.00  0.00    -0.125 NA 
HETATM    8  C   UNL     1      -7.649   4.815  67.804  1.00  0.00    -0.082 C  
HETATM    9  C   UNL     1      -8.322   6.159  68.204  1.00  0.00    -0.114 C  
BRANCH   7  10
HETATM   10  C   UNL     1      -9.592   7.909  66.977  1.00  0.00    -0.192 A  
HETATM   11  C   UNL     1     -10.392   8.583  67.900  1.00  0.00    -0.281 A  
HETATM   12  C   UNL     1     -10.907   9.852  67.639  1.00  0.00    -0.318 A  
HETATM   13  C   UNL     1     -10.641  10.501  66.434  1.00  0.00    -0.149 A  
HETATM   14  C   UNL     1      -9.252   8.605  65.807  1.00  0.00    -0.245 A  
HETATM   15  C   UNL     1      -9.776   9.883  65.531  1.00  0.00    -0.370 A  
BRANCH  13  16
HETATM   16  O   UNL     1     -11.193  11.706  66.057  1.00  0.00    -0.300 OA 
BRANCH  16  17
HETATM   17  C   UNL     1     -10.280  12.579  65.383  1.00  0.00    -0.283 C  
BRANCH  17  18
HETATM   18  C   UNL     1     -10.477  14.056  65.708  1.00  0.00    -0.309 C  
HETATM   19  C   UNL     1     -11.807  14.362  66.344  1.00  0.00    -0.388 C  
HETATM   20  O   UNL     1     -11.528  15.453  67.222  1.00  0.00    -0.286 OA 
HETATM   21  C   UNL     1     -10.144  15.317  67.627  1.00  0.00    -0.235 C  
HETATM   22  O   UNL     1      -9.507  14.423  66.695  1.00  0.00    -0.260 OA 
BRANCH  21  23
HETATM   23  C   UNL     1      -9.429  16.668  67.556  1.00  0.00    -0.229 A  
HETATM   24  C   UNL     1      -8.498  17.015  68.561  1.00  0.00    -0.257 A  
HETATM   25  C   UNL     1      -9.633  17.607  66.522  1.00  0.00    -0.292 A  
HETATM   26  C   UNL     1      -7.768  18.204  68.507  1.00  0.00    -0.307 A  
HETATM   27  C   UNL     1      -8.886  18.791  66.458  1.00  0.00    -0.315 A  
HETATM   28 CL   UNL     1     -10.830  17.410  65.288  1.00  0.00    -0.133 Cl 
HETATM   29 CL   UNL     1      -7.019  20.521  67.352  1.00  0.00    -0.337 Cl 
HETATM   30  C   UNL     1      -7.950  19.078  67.444  1.00  0.00    -0.250 A  
ENDBRANCH  21  23
BRANCH  21  31
HETATM   31  C   UNL     1     -10.117  14.646  69.020  1.00  0.00    -0.209 C  
BRANCH  31  32
HETATM   32  N   UNL     1     -11.271  14.899  69.852  1.00  0.00    -0.268 NA 
HETATM   33  C   UNL     1     -12.269  14.031  70.178  1.00  0.00    -0.359 A  
HETATM   34  C   UNL     1     -12.427  15.762  71.345  1.00  0.00    -0.455 A  
HETATM   35  N   UNL     1     -13.024  14.556  71.112  1.00  0.00    -0.331 NA 
HETATM   36  N   UNL     1     -11.351  16.015  70.597  1.00  0.00    -0.385 NA 
ENDBRANCH  31  32
ENDBRANCH  21  31
ENDBRANCH  17  18
ENDBRANCH  16  17
ENDBRANCH  13  16
ENDBRANCH   7  10
ENDBRANCH   2   4
TORSDOF 8
ENDMDL
MODEL       53
REMARK 921   NORMALIZED FREE ENERGY PREDICTED BY IDOCK:   -5.79 KCAL/MOL
REMARK 922        TOTAL FREE ENERGY PREDICTED BY IDOCK:   -9.67 KCAL/MOL
REMARK 923 INTER-LIGAND FREE ENERGY PREDICTED BY IDOCK:   -9.31 KCAL/MOL
REMARK 924 INTRA-LIGAND FREE ENERGY PREDICTED BY IDOCK:   -0.37 KCAL/MOL
REMARK 927      BINDING AFFINITY PREDICTED BY RF-SCORE:    0.00 PKD
ROOT
HETATM    1  C   UNL     1      -7.827   2.101  65.331  1.00  0.00    -0.077 C  
HETATM    2  C   UNL     1      -8.280   3.539  65.010  1.00  0.00    -0.094 C  
HETATM    3  C   UNL     1      -9.784   3.606  65.323  1.00  0.00    -0.144 C  
ENDROOT
BRANCH   2   4
HETATM    4  N   UNL     1      -7.472   4.518  65.776  1.00  0.00    -0.080 NA 
HETATM    5  C   UNL     1      -6.680   5.414  64.891  1.00  0.00    -0.047 C  
HETATM    6  C   UNL     1      -7.505   6.482  64.141  1.00  0.00    -0.092 C  
HETATM    7  N   UNL     1      -8.257   7.296  65.111  1.00  0.00    -0.130 NA 
HETATM    8  C   UNL     1      -8.247   5.398  66.696  1.00  0.00    -0.108 C  
HETATM    9  C   UNL     1      -9.101   6.513  66.026  1.00  0.00    -0.086 C  
BRANCH   7  10
HETATM   10  C   UNL     1      -8.580   8.605  64.788  1.00  0.00    -0.111 A  
HETATM   11  C   UNL     1      -9.554   9.311  65.496  1.00  0.00    -0.291 A  
HETATM   12  C   UNL     1     -10.035  10.543  65.055  1.00  0.00    -0.388 A  
HETATM   13  C   UNL     1      -9.558  11.121  63.879  1.00  0.00    -0.254 A  
HETATM   14  C   UNL     1      -8.038   9.235  63.658  1.00  0.00    -0.155 A  
HETATM   15  C   UNL     1      -8.525  10.474  63.200  1.00  0.00    -0.167 A  
BRANCH  13  16
HETATM   16  O   UNL     1     -10.053  12.281  63.323  1.00  0.00    -0.388 OA 
BRANCH  16  17
HETATM   17  C   UNL     1     -11.443  12.504  63.583  1.00  0.00    -0.493 C  
BRANCH  17  18
HETATM   18  C   UNL     1     -11.720  13.672  64.523  1.00  0.00    -0.400 C  
HETATM   19  C   UNL     1     -12.753  13.368  65.577  1.00  0.00    -0.410 C  
HETATM   20  O   UNL     1     -12.333  14.136  66.705  1.00  0.00    -0.455 OA 
HETATM   21  C   UNL     1     -10.893  14.259  66.610  1.00  0.00    -0.301 C  
HETATM   22  O   UNL     1     -10.519  13.941  65.257  1.00  0.00    -0.329 OA 
BRANCH  21  23
HETATM   23  C   UNL     1     -10.458  15.698  66.899  1.00  0.00    -0.307 A  
HETATM   24  C   UNL     1      -9.534  16.331  66.037  1.00  0.00    -0.369 A  
HETATM   25  C   UNL     1     -10.943  16.458  67.985  1.00  0.00    -0.327 A  
HETATM   26  C   UNL     1      -9.158  17.664  66.215  1.00  0.00    -0.212 A  
HETATM   27  C   UNL     1     -10.579  17.802  68.152  1.00  0.00    -0.350 A  
HETATM   28 CL   UNL     1     -11.971  15.804  69.214  1.00  0.00    -0.360 Cl 
HETATM   29 CL   UNL     1      -9.272  20.055  67.453  1.00  0.00    -0.450 Cl 
HETATM   30  C   UNL     1      -9.699  18.400  67.260  1.00  0.00    -0.297 A  
ENDBRANCH  21  23
BRANCH  21  31
HETATM   31  C   UNL     1     -10.259  13.197  67.538  1.00  0.00    -0.225 C  
BRANCH  31  32
HETATM   32  N   UNL     1     -11.183  12.502  68.405  1.00  0.00    -0.251 NA 
HETATM   33  C   UNL     1     -11.695  11.250  68.244  1.00  0.00    -0.274 A  
HETATM   34  C   UNL     1     -12.159  11.963  70.157  1.00  0.00    -0.302 A  
HETATM   35  N   UNL     1     -12.329  10.888  69.333  1.00  0.00    -0.358 NA 
HETATM   36  N   UNL     1     -11.464  12.975  69.632  1.00  0.00    -0.224 NA 
ENDBRANCH  31  32
ENDBRANCH  21  31
ENDBRANCH  17  18
ENDBRANCH  16  17
ENDBRANCH  13  16
ENDBRANCH   7  10
ENDBRANCH   2   4
TORSDOF 8
ENDMDL
MODEL       54
REMARK 921   NORMALIZED FREE ENERGY PREDICTED BY IDOCK:   -5.73 KCAL/MOL
REMARK 922        TOTAL FREE ENERGY PREDICTED BY IDOCK:   -9.59 KCAL/MOL
REMARK 923 INTER-LIGAND FREE ENERGY PREDICTED BY IDOCK:   -8.79 KCAL/MOL
REMARK 924 INTRA-LIGAND FREE ENERGY PREDICTED BY IDOCK:   -0.79 KCAL/MOL
REMARK 927      BINDING AFFINITY PREDICTED BY RF-SCORE:    0.00 PKD
ROOT
HETATM    1  C   UNL     1      -7.073  18.361  68.865  1.00  0.00    -0.292 C  
HETATM    2  C   UNL     1      -8.549  18.355  68.419  1.00  0.00    -0.325 C  
HETATM    3  C   UNL     1      -8.867  19.780  67.936  1.00  0.00    -0.381 C  
ENDROOT
BRANCH   2   4
HETATM    4  N   UNL     1      -8.772  17.316  67.386  1.00  0.00    -0.205 NA 
HETATM    5  C   UNL     1      -8.241  15.987  67.795  1.00  0.00    -0.149 C  
HETATM    6  C   UNL     1      -9.062  15.267  68.886  1.00  0.00    -0.209 C  
HETATM    7  N   UNL     1     -10.456  15.117  68.437  1.00  0.00    -0.229 NA 
HETATM    8  C   UNL     1     -10.194  17.107  66.994  1.00  0.00    -0.313 C  
HETATM    9  C   UNL     1     -11.096  16.377  68.031  1.00  0.00    -0.292 C  
BRANCH   7  10
HETATM   10  C   UNL     1     -11.210  14.058  68.917  1.00  0.00    -0.272 A  
HETATM   11  C   UNL     1     -11.855  14.123  70.153  1.00  0.00    -0.382 A  
HETATM   12  C   UNL     1     -12.437  13.000  70.740  1.00  0.00    -0.384 A  
HETATM   13  C   UNL     1     -12.395  11.757  70.109  1.00  0.00    -0.195 A  
HETATM   14  C   UNL     1     -11.253  12.826  68.246  1.00  0.00    -0.308 A  
HETATM   15  C   UNL     1     -11.830  11.685  68.836  1.00  0.00    -0.392 A  
BRANCH  13  16
HETATM   16  O   UNL     1     -12.854  10.583  70.666  1.00  0.00    -0.358 OA 
BRANCH  16  17
HETATM   17  C   UNL     1     -11.974  10.022  71.647  1.00  0.00    -0.286 C  
BRANCH  17  18
HETATM   18  C   UNL     1     -10.888   9.124  71.065  1.00  0.00    -0.291 C  
HETATM   19  C   UNL     1      -9.891   8.642  72.087  1.00  0.00    -0.317 C  
HETATM   20  O   UNL     1      -9.518   7.345  71.622  1.00  0.00    -0.151 OA 
HETATM   21  C   UNL     1     -10.657   6.821  70.895  1.00  0.00    -0.220 C  
HETATM   22  O   UNL     1     -11.516   7.932  70.578  1.00  0.00    -0.267 OA 
BRANCH  21  23
HETATM   23  C   UNL     1     -10.204   6.179  69.581  1.00  0.00    -0.255 A  
HETATM   24  C   UNL     1     -11.075   6.186  68.469  1.00  0.00    -0.352 A  
HETATM   25  C   UNL     1      -8.939   5.580  69.399  1.00  0.00    -0.106 A  
HETATM   26  C   UNL     1     -10.686   5.676  67.228  1.00  0.00    -0.299 A  
HETATM   27  C   UNL     1      -8.543   5.086  68.148  1.00  0.00    -0.102 A  
HETATM   28 CL   UNL     1      -7.802   5.361  70.684  1.00  0.00    -0.088 Cl 
HETATM   29 CL   UNL     1      -8.916   4.562  65.529  1.00  0.00    -0.132 Cl 
HETATM   30  C   UNL     1      -9.413   5.148  67.068  1.00  0.00    -0.137 A  
ENDBRANCH  21  23
BRANCH  21  31
HETATM   31  C   UNL     1     -11.434   5.875  71.839  1.00  0.00    -0.225 C  
BRANCH  31  32
HETATM   32  N   UNL     1     -10.617   5.057  72.706  1.00  0.00    -0.210 NA 
HETATM   33  C   UNL     1     -10.292   5.289  74.008  1.00  0.00    -0.269 A  
HETATM   34  C   UNL     1      -9.722   3.348  73.473  1.00  0.00    -0.107 A  
HETATM   35  N   UNL     1      -9.712   4.229  74.515  1.00  0.00    -0.122 NA 
HETATM   36  N   UNL     1     -10.266   3.811  72.345  1.00  0.00    -0.168 NA 
ENDBRANCH  31  32
ENDBRANCH  21  31
ENDBRANCH  17  18
ENDBRANCH  16  17
ENDBRANCH  13  16
ENDBRANCH   7  10
ENDBRANCH   2   4
TORSDOF 8
ENDMDL
MODEL       55
REMARK 921   NORMALIZED FREE ENERGY PREDICTED BY IDOCK:   -5.70 KCAL/MOL
REMARK 922        TOTAL FREE ENERGY PREDICTED BY IDOCK:   -9.53 KCAL/MOL
REMARK 923 INTER-LIGAND FREE ENERGY PREDICTED BY IDOCK:   -9.04 KCAL/MOL
REMARK 924 INTRA-LIGAND FREE ENERGY PREDICTED BY IDOCK:   -0.50 KCAL/MOL
REMARK 927      BINDING AFFINITY PREDICTED BY RF-SCORE:    0.00 PKD
ROOT
HETATM    1  C   UNL     1      -8.638  19.003  68.001  1.00  0.00    -0.337 C  
HETATM    2  C   UNL     1      -9.424  17.693  67.791  1.00  0.00    -0.260 C  
HETATM    3  C   UNL     1     -10.907  18.030  68.016  1.00  0.00    -0.194 C  
ENDROOT
BRANCH   2   4
HETATM    4  N   UNL     1      -9.141  17.131  66.449  1.00  0.00    -0.302 NA 
HETATM    5  C   UNL     1      -7.994  16.183  66.462  1.00  0.00    -0.259 C  
HETATM    6  C   UNL     1      -8.287  14.816  67.118  1.00  0.00    -0.214 C  
HETATM    7  N   UNL     1      -9.435  14.183  66.449  1.00  0.00    -0.285 NA 
HETATM    8  C   UNL     1     -10.281  16.416  65.808  1.00  0.00    -0.348 C  
HETATM    9  C   UNL     1     -10.641  15.023  66.399  1.00  0.00    -0.310 C  
BRANCH   7  10
HETATM   10  C   UNL     1      -9.528  12.800  66.432  1.00  0.00    -0.229 A  
HETATM   11  C   UNL     1      -8.459  11.993  66.823  1.00  0.00    -0.155 A  
HETATM   12  C   UNL     1      -8.464  10.614  66.614  1.00  0.00    -0.137 A  
HETATM   13  C   UNL     1      -9.546   9.984  65.999  1.00  0.00    -0.222 A  
HETATM   14  C   UNL     1     -10.651  12.149  65.900  1.00  0.00    -0.293 A  
HETATM   15  C   UNL     1     -10.660  10.758  65.677  1.00  0.00    -0.199 A  
BRANCH  13  16
HETATM   16  O   UNL     1      -9.584   8.648  65.665  1.00  0.00    -0.142 OA 
BRANCH  16  17
HETATM   17  C   UNL     1      -9.564   7.766  66.793  1.00  0.00    -0.212 C  
BRANCH  17  18
HETATM   18  C   UNL     1     -10.631   8.070  67.839  1.00  0.00    -0.145 C  
HETATM   19  C   UNL     1     -11.032   6.873  68.659  1.00  0.00    -0.145 C  
HETATM   20  O   UNL     1     -11.346   7.420  69.940  1.00  0.00    -0.195 OA 
HETATM   21  C   UNL     1     -10.534   8.611  70.093  1.00  0.00    -0.217 C  
HETATM   22  O   UNL     1     -10.072   8.990  68.784  1.00  0.00    -0.186 OA 
BRANCH  21  23
HETATM   23  C   UNL     1     -11.372   9.762  70.655  1.00  0.00    -0.401 A  
HETATM   24  C   UNL     1     -11.182  11.068  70.152  1.00  0.00    -0.264 A  
HETATM   25  C   UNL     1     -12.355   9.598  71.654  1.00  0.00    -0.404 A  
HETATM   26  C   UNL     1     -11.968  12.142  70.580  1.00  0.00    -0.308 A  
HETATM   27  C   UNL     1     -13.156  10.671  72.069  1.00  0.00    -0.501 A  
HETATM   28 CL   UNL     1     -12.628   8.100  72.477  1.00  0.00    -0.258 Cl 
HETATM   29 CL   UNL     1     -13.964  13.244  72.015  1.00  0.00    -0.433 Cl 
HETATM   30  C   UNL     1     -12.966  11.934  71.521  1.00  0.00    -0.323 A  
ENDBRANCH  21  23
BRANCH  21  31
HETATM   31  C   UNL     1      -9.297   8.240  70.943  1.00  0.00    -0.159 C  
BRANCH  31  32
HETATM   32  N   UNL     1      -9.566   7.425  72.106  1.00  0.00    -0.145 NA 
HETATM   33  C   UNL     1      -9.714   6.072  72.158  1.00  0.00    -0.154 A  
HETATM   34  C   UNL     1      -9.582   6.844  74.099  1.00  0.00    -0.274 A  
HETATM   35  N   UNL     1      -9.741   5.678  73.408  1.00  0.00    -0.146 NA 
HETATM   36  N   UNL     1      -9.471   7.940  73.344  1.00  0.00    -0.284 NA 
ENDBRANCH  31  32
ENDBRANCH  21  31
ENDBRANCH  17  18
ENDBRANCH  16  17
ENDBRANCH  13  16
ENDBRANCH   7  10
ENDBRANCH   2   4
TORSDOF 8
ENDMDL
MODEL       56
REMARK 921   NORMALIZED FREE ENERGY PREDICTED BY IDOCK:   -5.68 KCAL/MOL
REMARK 922        TOTAL FREE ENERGY PREDICTED BY IDOCK:   -9.50 KCAL/MOL
REMARK 923 INTER-LIGAND FREE ENERGY PREDICTED BY IDOCK:   -9.96 KCAL/MOL
REMARK 924 INTRA-LIGAND FREE ENERGY PREDICTED BY IDOCK:    0.45 KCAL/MOL
REMARK 927      BINDING AFFINITY PREDICTED BY RF-SCORE:    0.00 PKD
ROOT
HETATM    1  C   UNL     1     -10.151  20.020  66.227  1.00  0.00    -0.603 C  
HETATM    2  C   UNL     1      -9.228  20.059  67.462  1.00  0.00    -0.364 C  
HETATM    3  C   UNL     1     -10.136  19.902  68.693  1.00  0.00    -0.518 C  
ENDROOT
BRANCH   2   4
HETATM    4  N   UNL     1      -8.183  19.014  67.359  1.00  0.00    -0.272 NA 
HETATM    5  C   UNL     1      -8.095  18.178  68.588  1.00  0.00    -0.288 C  
HETATM    6  C   UNL     1      -9.259  17.183  68.782  1.00  0.00    -0.249 C  
HETATM    7  N   UNL     1      -9.360  16.306  67.604  1.00  0.00    -0.217 NA 
HETATM    8  C   UNL     1      -8.336  18.075  66.212  1.00  0.00    -0.197 C  
HETATM    9  C   UNL     1      -9.480  17.027  66.327  1.00  0.00    -0.256 C  
BRANCH   7  10
HETATM   10  C   UNL     1      -9.882  15.031  67.753  1.00  0.00    -0.220 A  
HETATM   11  C   UNL     1      -9.802  14.086  66.728  1.00  0.00    -0.275 A  
HETATM   12  C   UNL     1     -10.500  12.881  66.784  1.00  0.00    -0.262 A  
HETATM   13  C   UNL     1     -11.313  12.570  67.874  1.00  0.00    -0.291 A  
HETATM   14  C   UNL     1     -10.626  14.672  68.887  1.00  0.00    -0.253 A  
HETATM   15  C   UNL     1     -11.341  13.461  68.947  1.00  0.00    -0.331 A  
BRANCH  13  16
HETATM   16  O   UNL     1     -12.113  11.451  67.958  1.00  0.00    -0.629 OA 
BRANCH  16  17
HETATM   17  C   UNL     1     -11.975  10.730  69.187  1.00  0.00    -0.230 C  
BRANCH  17  18
HETATM   18  C   UNL     1     -10.887   9.661  69.162  1.00  0.00    -0.190 C  
HETATM   19  C   UNL     1      -9.696   9.991  70.021  1.00  0.00    -0.175 C  
HETATM   20  O   UNL     1      -9.241   8.720  70.485  1.00  0.00    -0.162 OA 
HETATM   21  C   UNL     1     -10.403   7.856  70.538  1.00  0.00    -0.205 C  
HETATM   22  O   UNL     1     -11.431   8.466  69.734  1.00  0.00     0.036 OA 
BRANCH  21  23
HETATM   23  C   UNL     1     -10.080   6.486  69.939  1.00  0.00    -0.202 A  
HETATM   24  C   UNL     1     -10.108   5.342  70.768  1.00  0.00    -0.294 A  
HETATM   25  C   UNL     1      -9.763   6.282  68.579  1.00  0.00    -0.129 A  
HETATM   26  C   UNL     1      -9.890   4.060  70.258  1.00  0.00    -0.205 A  
HETATM   27  C   UNL     1      -9.563   4.993  68.065  1.00  0.00    -0.181 A  
HETATM   28 CL   UNL     1      -9.550   7.578  67.452  1.00  0.00    -0.174 Cl 
HETATM   29 CL   UNL     1      -9.414   2.308  68.267  1.00  0.00    -0.264 Cl 
HETATM   30  C   UNL     1      -9.638   3.889  68.904  1.00  0.00    -0.130 A  
ENDBRANCH  21  23
BRANCH  21  31
HETATM   31  C   UNL     1     -10.906   7.818  71.999  1.00  0.00    -0.245 C  
BRANCH  31  32
HETATM   32  N   UNL     1     -12.335   7.958  72.167  1.00  0.00    -0.306 NA 
HETATM   33  C   UNL     1     -13.022   9.060  72.576  1.00  0.00    -0.361 A  
HETATM   34  C   UNL     1     -14.360   7.619  71.859  1.00  0.00    -0.404 A  
HETATM   35  N   UNL     1     -14.308   8.869  72.405  1.00  0.00    -0.551 NA 
HETATM   36  N   UNL     1     -13.177   7.022  71.695  1.00  0.00    -0.359 NA 
ENDBRANCH  31  32
ENDBRANCH  21  31
ENDBRANCH  17  18
ENDBRANCH  16  17
ENDBRANCH  13  16
ENDBRANCH   7  10
ENDBRANCH   2   4
TORSDOF 8
ENDMDL
MODEL       57
REMARK 921   NORMALIZED FREE ENERGY PREDICTED BY IDOCK:   -5.67 KCAL/MOL
REMARK 922        TOTAL FREE ENERGY PREDICTED BY IDOCK:   -9.49 KCAL/MOL
REMARK 923 INTER-LIGAND FREE ENERGY PREDICTED BY IDOCK:   -8.88 KCAL/MOL
REMARK 924 INTRA-LIGAND FREE ENERGY PREDICTED BY IDOCK:   -0.61 KCAL/MOL
REMARK 927      BINDING AFFINITY PREDICTED BY RF-SCORE:    0.00 PKD
ROOT
HETATM    1  C   UNL     1     -10.603  18.021  67.722  1.00  0.00    -0.409 C  
HETATM    2  C   UNL     1     -10.538  16.502  67.982  1.00  0.00    -0.328 C  
HETATM    3  C   UNL     1     -11.175  16.265  69.361  1.00  0.00    -0.311 C  
ENDROOT
BRANCH   2   4
HETATM    4  N   UNL     1     -11.206  15.761  66.886  1.00  0.00    -0.136 NA 
HETATM    5  C   UNL     1     -10.261  15.379  65.802  1.00  0.00    -0.354 C  
HETATM    6  C   UNL     1      -9.287  14.236  66.160  1.00  0.00    -0.160 C  
HETATM    7  N   UNL     1     -10.052  13.050  66.580  1.00  0.00    -0.264 NA 
HETATM    8  C   UNL     1     -11.909  14.514  67.301  1.00  0.00    -0.392 C  
HETATM    9  C   UNL     1     -11.005  13.303  67.671  1.00  0.00    -0.262 C  
BRANCH   7  10
HETATM   10  C   UNL     1      -9.504  11.791  66.391  1.00  0.00    -0.221 A  
HETATM   11  C   UNL     1     -10.058  10.882  65.488  1.00  0.00    -0.325 A  
HETATM   12  C   UNL     1      -9.649   9.550  65.441  1.00  0.00    -0.342 A  
HETATM   13  C   UNL     1      -8.664   9.070  66.303  1.00  0.00    -0.135 A  
HETATM   14  C   UNL     1      -8.449  11.325  67.190  1.00  0.00    -0.149 A  
HETATM   15  C   UNL     1      -8.037   9.979  67.155  1.00  0.00    -0.117 A  
BRANCH  13  16
HETATM   16  O   UNL     1      -8.278   7.750  66.390  1.00  0.00    -0.107 OA 
BRANCH  16  17
HETATM   17  C   UNL     1      -9.368   6.822  66.347  1.00  0.00    -0.136 C  
BRANCH  17  18
HETATM   18  C   UNL     1     -10.458   7.096  67.377  1.00  0.00    -0.284 C  
HETATM   19  C   UNL     1     -11.023   5.849  68.006  1.00  0.00    -0.155 C  
HETATM   20  O   UNL     1     -11.354   6.252  69.335  1.00  0.00    -0.412 OA 
HETATM   21  C   UNL     1     -10.439   7.319  69.687  1.00  0.00    -0.231 C  
HETATM   22  O   UNL     1      -9.866   7.817  68.464  1.00  0.00    -0.163 OA 
BRANCH  21  23
HETATM   23  C   UNL     1     -11.189   8.467  70.365  1.00  0.00    -0.224 A  
HETATM   24  C   UNL     1     -10.867   9.801  70.030  1.00  0.00    -0.319 A  
HETATM   25  C   UNL     1     -12.217   8.277  71.314  1.00  0.00    -0.270 A  
HETATM   26  C   UNL     1     -11.567  10.884  70.566  1.00  0.00    -0.397 A  
HETATM   27  C   UNL     1     -12.932   9.363  71.838  1.00  0.00    -0.502 A  
HETATM   28 CL   UNL     1     -12.649   6.724  71.942  1.00  0.00    -0.369 Cl 
HETATM   29 CL   UNL     1     -13.505  11.987  72.079  1.00  0.00    -0.493 Cl 
HETATM   30  C   UNL     1     -12.611  10.659  71.452  1.00  0.00    -0.421 A  
ENDBRANCH  21  23
BRANCH  21  31
HETATM   31  C   UNL     1      -9.295   6.709  70.531  1.00  0.00    -0.166 C  
BRANCH  31  32
HETATM   32  N   UNL     1      -8.120   6.314  69.788  1.00  0.00    -0.118 NA 
HETATM   33  C   UNL     1      -6.900   6.919  69.775  1.00  0.00    -0.051 A  
HETATM   34  C   UNL     1      -6.781   5.065  68.810  1.00  0.00    -0.050 A  
HETATM   35  N   UNL     1      -6.035   6.157  69.150  1.00  0.00    -0.023 NA 
HETATM   36  N   UNL     1      -8.062   5.116  69.180  1.00  0.00    -0.084 NA 
ENDBRANCH  31  32
ENDBRANCH  21  31
ENDBRANCH  17  18
ENDBRANCH  16  17
ENDBRANCH  13  16
ENDBRANCH   7  10
ENDBRANCH   2   4
TORSDOF 8
ENDMDL
MODEL       58
REMARK 921   NORMALIZED FREE ENERGY PREDICTED BY IDOCK:   -5.66 KCAL/MOL
REMARK 922        TOTAL FREE ENERGY PREDICTED BY IDOCK:   -9.48 KCAL/MOL
REMARK 923 INTER-LIGAND FREE ENERGY PREDICTED BY IDOCK:   -8.38 KCAL/MOL
REMARK 924 INTRA-LIGAND FREE ENERGY PREDICTED BY IDOCK:   -1.10 KCAL/MOL
REMARK 927      BINDING AFFINITY PREDICTED BY RF-SCORE:    0.00 PKD
ROOT
HETATM    1  C   UNL     1      -9.345   2.571  67.392  1.00  0.00    -0.142 C  
HETATM    2  C   UNL     1      -8.620   3.865  66.972  1.00  0.00    -0.106 C  
HETATM    3  C   UNL     1      -7.208   3.452  66.523  1.00  0.00    -0.063 C  
ENDROOT
BRANCH   2   4
HETATM    4  N   UNL     1      -9.391   4.572  65.922  1.00  0.00    -0.148 NA 
HETATM    5  C   UNL     1     -10.731   5.009  66.400  1.00  0.00    -0.178 C  
HETATM    6  C   UNL     1     -10.713   6.204  67.378  1.00  0.00    -0.322 C  
HETATM    7  N   UNL     1     -10.024   7.344  66.753  1.00  0.00    -0.231 NA 
HETATM    8  C   UNL     1      -8.726   5.776  65.349  1.00  0.00    -0.119 C  
HETATM    9  C   UNL     1      -8.672   7.034  66.263  1.00  0.00    -0.146 C  
BRANCH   7  10
HETATM   10  C   UNL     1     -10.365   8.632  67.134  1.00  0.00    -0.299 A  
HETATM   11  C   UNL     1     -10.867   8.906  68.408  1.00  0.00    -0.043 A  
HETATM   12  C   UNL     1     -11.408  10.149  68.733  1.00  0.00    -0.172 A  
HETATM   13  C   UNL     1     -11.470  11.175  67.790  1.00  0.00    -0.272 A  
HETATM   14  C   UNL     1     -10.345   9.696  66.220  1.00  0.00    -0.230 A  
HETATM   15  C   UNL     1     -10.898  10.952  66.537  1.00  0.00    -0.234 A  
BRANCH  13  16
HETATM   16  O   UNL     1     -12.080  12.393  68.000  1.00  0.00    -0.398 OA 
BRANCH  16  17
HETATM   17  C   UNL     1     -11.753  12.998  69.256  1.00  0.00    -0.320 C  
BRANCH  17  18
HETATM   18  C   UNL     1     -10.767  14.157  69.149  1.00  0.00    -0.194 C  
HETATM   19  C   UNL     1      -9.330  13.720  69.040  1.00  0.00     0.239 C  
HETATM   20  O   UNL     1      -8.726  14.719  68.219  1.00  0.00    -0.157 OA 
HETATM   21  C   UNL     1      -9.768  15.229  67.351  1.00  0.00    -0.208 C  
HETATM   22  O   UNL     1     -11.033  14.849  67.924  1.00  0.00    -0.268 OA 
BRANCH  21  23
HETATM   23  C   UNL     1      -9.713  16.757  67.288  1.00  0.00    -0.250 A  
HETATM   24  C   UNL     1     -10.820  17.511  67.735  1.00  0.00    -0.251 A  
HETATM   25  C   UNL     1      -8.596  17.480  66.816  1.00  0.00    -0.253 A  
HETATM   26  C   UNL     1     -10.796  18.908  67.764  1.00  0.00    -0.349 A  
HETATM   27  C   UNL     1      -8.564  18.881  66.864  1.00  0.00    -0.300 A  
HETATM   28 CL   UNL     1      -7.210  16.725  66.107  1.00  0.00    -0.143 Cl 
HETATM   29 CL   UNL     1      -9.609  21.303  67.427  1.00  0.00    -0.202 Cl 
HETATM   30  C   UNL     1      -9.659  19.586  67.348  1.00  0.00    -0.334 A  
ENDBRANCH  21  23
BRANCH  21  31
HETATM   31  C   UNL     1      -9.638  14.523  65.981  1.00  0.00    -0.275 C  
BRANCH  31  32
HETATM   32  N   UNL     1     -10.718  14.768  65.053  1.00  0.00    -0.407 NA 
HETATM   33  C   UNL     1     -11.709  13.910  64.682  1.00  0.00    -0.397 A  
HETATM   34  C   UNL     1     -12.139  15.834  63.977  1.00  0.00     0.206 A  
HETATM   35  N   UNL     1     -12.616  14.554  63.989  1.00  0.00    -0.799 NA 
HETATM   36  N   UNL     1     -10.980  16.012  64.616  1.00  0.00    -0.621 NA 
ENDBRANCH  31  32
ENDBRANCH  21  31
ENDBRANCH  17  18
ENDBRANCH  16  17
ENDBRANCH  13  16
ENDBRANCH   7  10
ENDBRANCH   2   4
TORSDOF 8
ENDMDL
MODEL       59
REMARK 921   NORMALIZED FREE ENERGY PREDICTED BY IDOCK:   -5.64 KCAL/MOL
REMARK 922        TOTAL FREE ENERGY PREDICTED BY IDOCK:   -9.45 KCAL/MOL
REMARK 923 INTER-LIGAND FREE ENERGY PREDICTED BY IDOCK:   -9.79 KCAL/MOL
REMARK 924 INTRA-LIGAND FREE ENERGY PREDICTED BY IDOCK:    0.34 KCAL/MOL
REMARK 927      BINDING AFFINITY PREDICTED BY RF-SCORE:    0.00 PKD
ROOT
HETATM    1  C   UNL     1      -8.657   1.994  64.938  1.00  0.00    -0.099 C  
HETATM    2  C   UNL     1      -8.833   3.523  65.036  1.00  0.00    -0.124 C  
HETATM    3  C   UNL     1     -10.248   3.836  64.522  1.00  0.00    -0.209 C  
ENDROOT
BRANCH   2   4
HETATM    4  N   UNL     1      -8.593   3.983  66.424  1.00  0.00    -0.109 NA 
HETATM    5  C   UNL     1      -7.689   5.164  66.481  1.00  0.00    -0.092 C  
HETATM    6  C   UNL     1      -8.323   6.491  66.011  1.00  0.00    -0.133 C  
HETATM    7  N   UNL     1      -9.534   6.766  66.800  1.00  0.00    -0.158 NA 
HETATM    8  C   UNL     1      -9.816   4.342  67.195  1.00  0.00    -0.163 C  
HETATM    9  C   UNL     1     -10.517   5.672  66.795  1.00  0.00    -0.291 C  
BRANCH   7  10
HETATM   10  C   UNL     1      -9.932   8.080  66.991  1.00  0.00    -0.254 A  
HETATM   11  C   UNL     1     -10.614   8.475  68.143  1.00  0.00    -0.181 A  
HETATM   12  C   UNL     1     -11.201   9.735  68.255  1.00  0.00    -0.074 A  
HETATM   13  C   UNL     1     -11.130  10.656  67.210  1.00  0.00    -0.243 A  
HETATM   14  C   UNL     1      -9.784   9.044  65.983  1.00  0.00    -0.339 A  
HETATM   15  C   UNL     1     -10.382  10.315  66.084  1.00  0.00    -0.253 A  
BRANCH  13  16
HETATM   16  O   UNL     1     -11.768  11.877  67.201  1.00  0.00    -0.528 OA 
BRANCH  16  17
HETATM   17  C   UNL     1     -11.748  12.553  68.464  1.00  0.00    -0.324 C  
BRANCH  17  18
HETATM   18  C   UNL     1     -10.747  13.701  68.538  1.00  0.00    -0.255 C  
HETATM   19  C   UNL     1      -9.314  13.264  68.382  1.00  0.00    -0.157 C  
HETATM   20  O   UNL     1      -8.687  14.364  67.722  1.00  0.00    -0.164 OA 
HETATM   21  C   UNL     1      -9.711  15.009  66.926  1.00  0.00    -0.238 C  
HETATM   22  O   UNL     1     -10.988  14.568  67.423  1.00  0.00    -0.288 OA 
BRANCH  21  23
HETATM   23  C   UNL     1      -9.636  16.529  67.086  1.00  0.00    -0.243 A  
HETATM   24  C   UNL     1     -10.318  17.359  66.168  1.00  0.00    -0.329 A  
HETATM   25  C   UNL     1      -8.927  17.171  68.125  1.00  0.00    -0.240 A  
HETATM   26  C   UNL     1     -10.340  18.749  66.310  1.00  0.00    -0.497 A  
HETATM   27  C   UNL     1      -8.966  18.565  68.276  1.00  0.00    -0.332 A  
HETATM   28 CL   UNL     1      -7.928  16.323  69.254  1.00  0.00    -0.218 Cl 
HETATM   29 CL   UNL     1      -9.744  21.051  67.578  1.00  0.00    -0.408 Cl 
HETATM   30  C   UNL     1      -9.681  19.344  67.376  1.00  0.00    -0.328 A  
ENDBRANCH  21  23
BRANCH  21  31
HETATM   31  C   UNL     1      -9.572  14.508  65.469  1.00  0.00    -0.082 C  
BRANCH  31  32
HETATM   32  N   UNL     1     -10.804  14.095  64.836  1.00  0.00    -0.389 NA 
HETATM   33  C   UNL     1     -11.930  14.835  64.644  1.00  0.00    -0.440 A  
HETATM   34  C   UNL     1     -12.069  13.044  63.569  1.00  0.00    -0.542 A  
HETATM   35  N   UNL     1     -12.755  14.189  63.856  1.00  0.00    -0.670 NA 
HETATM   36  N   UNL     1     -10.870  12.943  64.147  1.00  0.00    -0.393 NA 
ENDBRANCH  31  32
ENDBRANCH  21  31
ENDBRANCH  17  18
ENDBRANCH  16  17
ENDBRANCH  13  16
ENDBRANCH   7  10
ENDBRANCH   2   4
TORSDOF 8
ENDMDL
MODEL       60
REMARK 921   NORMALIZED FREE ENERGY PREDICTED BY IDOCK:   -5.64 KCAL/MOL
REMARK 922        TOTAL FREE ENERGY PREDICTED BY IDOCK:   -9.45 KCAL/MOL
REMARK 923 INTER-LIGAND FREE ENERGY PREDICTED BY IDOCK:   -9.57 KCAL/MOL
REMARK 924 INTRA-LIGAND FREE ENERGY PREDICTED BY IDOCK:    0.12 KCAL/MOL
REMARK 927      BINDING AFFINITY PREDICTED BY RF-SCORE:    0.00 PKD
ROOT
HETATM    1  C   UNL     1      -6.489  20.976  67.673  1.00  0.00    -0.417 C  
HETATM    2  C   UNL     1      -7.914  20.464  67.379  1.00  0.00    -0.323 C  
HETATM    3  C   UNL     1      -7.829  19.656  66.074  1.00  0.00    -0.335 C  
ENDROOT
BRANCH   2   4
HETATM    4  N   UNL     1      -8.428  19.681  68.528  1.00  0.00    -0.330 NA 
HETATM    5  C   UNL     1      -9.912  19.572  68.520  1.00  0.00    -0.446 C  
HETATM    6  C   UNL     1     -10.488  18.624  67.446  1.00  0.00    -0.423 C  
HETATM    7  N   UNL     1      -9.902  17.283  67.605  1.00  0.00    -0.272 NA 
HETATM    8  C   UNL     1      -7.896  18.294  68.640  1.00  0.00    -0.296 C  
HETATM    9  C   UNL     1      -8.431  17.265  67.602  1.00  0.00    -0.209 C  
BRANCH   7  10
HETATM   10  C   UNL     1     -10.628  16.175  67.198  1.00  0.00    -0.294 A  
HETATM   11  C   UNL     1     -11.357  15.407  68.108  1.00  0.00    -0.353 A  
HETATM   12  C   UNL     1     -11.916  14.180  67.753  1.00  0.00    -0.389 A  
HETATM   13  C   UNL     1     -11.766  13.668  66.465  1.00  0.00    -0.382 A  
HETATM   14  C   UNL     1     -10.561  15.699  65.881  1.00  0.00    -0.354 A  
HETATM   15  C   UNL     1     -11.114  14.456  65.516  1.00  0.00    -0.326 A  
BRANCH  13  16
HETATM   16  O   UNL     1     -12.197  12.422  66.064  1.00  0.00    -0.636 OA 
BRANCH  16  17
HETATM   17  C   UNL     1     -11.162  11.597  65.517  1.00  0.00    -0.205 C  
BRANCH  17  18
HETATM   18  C   UNL     1     -10.970  10.274  66.250  1.00  0.00     0.201 C  
HETATM   19  C   UNL     1      -9.683   9.572  65.903  1.00  0.00    -0.282 C  
HETATM   20  O   UNL     1      -9.318   8.902  67.110  1.00  0.00    -0.138 OA 
HETATM   21  C   UNL     1      -9.859   9.687  68.201  1.00  0.00    -0.150 C  
HETATM   22  O   UNL     1     -10.866  10.557  67.650  1.00  0.00    -0.256 OA 
BRANCH  21  23
HETATM   23  C   UNL     1     -10.528   8.778  69.235  1.00  0.00    -0.228 A  
HETATM   24  C   UNL     1     -10.406   7.376  69.109  1.00  0.00    -0.208 A  
HETATM   25  C   UNL     1     -11.263   9.260  70.340  1.00  0.00    -0.247 A  
HETATM   26  C   UNL     1     -10.938   6.504  70.062  1.00  0.00    -0.388 A  
HETATM   27  C   UNL     1     -11.779   8.384  71.305  1.00  0.00    -0.325 A  
HETATM   28 CL   UNL     1     -11.628  10.934  70.577  1.00  0.00    -0.418 Cl 
HETATM   29 CL   UNL     1     -12.219   5.944  72.365  1.00  0.00    -0.197 Cl 
HETATM   30  C   UNL     1     -11.604   7.013  71.167  1.00  0.00    -0.312 A  
ENDBRANCH  21  23
BRANCH  21  31
HETATM   31  C   UNL     1      -8.724  10.574  68.762  1.00  0.00    -0.154 C  
BRANCH  31  32
HETATM   32  N   UNL     1      -7.537  10.655  67.941  1.00  0.00    -0.091 NA 
HETATM   33  C   UNL     1      -7.206  11.630  67.049  1.00  0.00    -0.143 A  
HETATM   34  C   UNL     1      -5.566  10.367  67.358  1.00  0.00    -0.041 A  
HETATM   35  N   UNL     1      -5.968  11.465  66.653  1.00  0.00    -0.143 NA 
HETATM   36  N   UNL     1      -6.493   9.837  68.159  1.00  0.00    -0.056 NA 
ENDBRANCH  31  32
ENDBRANCH  21  31
ENDBRANCH  17  18
ENDBRANCH  16  17
ENDBRANCH  13  16
ENDBRANCH   7  10
ENDBRANCH   2   4
TORSDOF 8
ENDMDL
MODEL       61
REMARK 921   NORMALIZED FREE ENERGY PREDICTED BY IDOCK:   -5.63 KCAL/MOL
REMARK 922        TOTAL FREE ENERGY PREDICTED BY IDOCK:   -9.44 KCAL/MOL
REMARK 923 INTER-LIGAND FREE ENERGY PREDICTED BY IDOCK:   -8.83 KCAL/MOL
REMARK 924 INTRA-LIGAND FREE ENERGY PREDICTED BY IDOCK:   -0.61 KCAL/MOL
REMARK 927      BINDING AFFINITY PREDICTED BY RF-SCORE:    0.00 PKD
ROOT
HETATM    1  C   UNL     1      -6.263   1.978  72.664  1.00  0.00    -0.009 C  
HETATM    2  C   UNL     1      -7.233   2.796  71.787  1.00  0.00    -0.039 C  
HETATM    3  C   UNL     1      -6.911   2.440  70.327  1.00  0.00    -0.033 C  
ENDROOT
BRANCH   2   4
HETATM    4  N   UNL     1      -8.637   2.515  72.170  1.00  0.00    -0.065 NA 
HETATM    5  C   UNL     1      -9.036   3.217  73.420  1.00  0.00    -0.086 C  
HETATM    6  C   UNL     1      -9.242   4.740  73.271  1.00  0.00    -0.114 C  
HETATM    7  N   UNL     1     -10.243   5.003  72.225  1.00  0.00    -0.195 NA 
HETATM    8  C   UNL     1      -9.656   2.860  71.139  1.00  0.00    -0.156 C  
HETATM    9  C   UNL     1      -9.938   4.376  70.930  1.00  0.00    -0.172 C  
BRANCH   7  10
HETATM   10  C   UNL     1     -11.006   6.158  72.294  1.00  0.00    -0.260 A  
HETATM   11  C   UNL     1     -12.283   6.223  71.735  1.00  0.00    -0.218 A  
HETATM   12  C   UNL     1     -12.973   7.428  71.612  1.00  0.00    -0.409 A  
HETATM   13  C   UNL     1     -12.407   8.627  72.047  1.00  0.00    -0.371 A  
HETATM   14  C   UNL     1     -10.482   7.352  72.814  1.00  0.00    -0.323 A  
HETATM   15  C   UNL     1     -11.168   8.575  72.686  1.00  0.00    -0.229 A  
BRANCH  13  16
HETATM   16  O   UNL     1     -12.977   9.869  71.869  1.00  0.00    -0.399 OA 
BRANCH  16  17
HETATM   17  C   UNL     1     -12.990  10.313  70.508  1.00  0.00    -0.186 C  
BRANCH  17  18
HETATM   18  C   UNL     1     -11.845  11.255  70.151  1.00  0.00    -0.364 C  
HETATM   19  C   UNL     1     -10.535  10.551  69.914  1.00  0.00    -0.164 C  
HETATM   20  O   UNL     1      -9.891  11.344  68.917  1.00  0.00    -0.191 OA 
HETATM   21  C   UNL     1     -10.942  11.960  68.133  1.00  0.00    -0.227 C  
HETATM   22  O   UNL     1     -12.159  11.874  68.897  1.00  0.00    -0.281 OA 
BRANCH  21  23
HETATM   23  C   UNL     1     -10.635  13.440  67.892  1.00  0.00    -0.253 A  
HETATM   24  C   UNL     1     -11.666  14.395  68.034  1.00  0.00    -0.374 A  
HETATM   25  C   UNL     1      -9.356  13.926  67.546  1.00  0.00    -0.217 A  
HETATM   26  C   UNL     1     -11.423  15.764  67.894  1.00  0.00    -0.221 A  
HETATM   27  C   UNL     1      -9.109  15.301  67.424  1.00  0.00    -0.201 A  
HETATM   28 CL   UNL     1      -8.012  12.892  67.199  1.00  0.00    -0.144 Cl 
HETATM   29 CL   UNL     1      -9.831  17.899  67.483  1.00  0.00    -0.298 Cl 
HETATM   30  C   UNL     1     -10.141  16.212  67.610  1.00  0.00    -0.248 A  
ENDBRANCH  21  23
BRANCH  21  31
HETATM   31  C   UNL     1     -11.132  11.124  66.846  1.00  0.00    -0.247 C  
BRANCH  31  32
HETATM   32  N   UNL     1     -11.247  11.887  65.623  1.00  0.00    -0.322 NA 
HETATM   33  C   UNL     1     -10.396  11.891  64.560  1.00  0.00    -0.292 A  
HETATM   34  C   UNL     1     -12.154  12.913  64.063  1.00  0.00    -0.455 A  
HETATM   35  N   UNL     1     -10.939  12.545  63.562  1.00  0.00    -0.454 NA 
HETATM   36  N   UNL     1     -12.387  12.533  65.321  1.00  0.00    -0.612 NA 
ENDBRANCH  31  32
ENDBRANCH  21  31
ENDBRANCH  17  18
ENDBRANCH  16  17
ENDBRANCH  13  16
ENDBRANCH   7  10
ENDBRANCH   2   4
TORSDOF 8
ENDMDL
MODEL       62
REMARK 921   NORMALIZED FREE ENERGY PREDICTED BY IDOCK:   -5.63 KCAL/MOL
REMARK 922        TOTAL FREE ENERGY PREDICTED BY IDOCK:   -9.43 KCAL/MOL
REMARK 923 INTER-LIGAND FREE ENERGY PREDICTED BY IDOCK:   -8.44 KCAL/MOL
REMARK 924 INTRA-LIGAND FREE ENERGY PREDICTED BY IDOCK:   -0.99 KCAL/MOL
REMARK 927      BINDING AFFINITY PREDICTED BY RF-SCORE:    0.00 PKD
ROOT
HETATM    1  C   UNL     1      -6.202   2.014  64.818  1.00  0.00    -0.018 C  
HETATM    2  C   UNL     1      -7.483   2.871  64.863  1.00  0.00    -0.075 C  
HETATM    3  C   UNL     1      -8.558   2.095  64.084  1.00  0.00    -0.084 C  
ENDROOT
BRANCH   2   4
HETATM    4  N   UNL     1      -7.862   3.161  66.266  1.00  0.00    -0.077 NA 
HETATM    5  C   UNL     1      -7.044   4.253  66.859  1.00  0.00    -0.067 C  
HETATM    6  C   UNL     1      -7.373   5.669  66.338  1.00  0.00    -0.078 C  
HETATM    7  N   UNL     1      -8.800   5.955  66.557  1.00  0.00    -0.124 NA 
HETATM    8  C   UNL     1      -9.289   3.533  66.473  1.00  0.00    -0.173 C  
HETATM    9  C   UNL     1      -9.710   4.950  65.987  1.00  0.00    -0.188 C  
BRANCH   7  10
HETATM   10  C   UNL     1      -9.207   7.270  66.727  1.00  0.00    -0.155 A  
HETATM   11  C   UNL     1     -10.021   7.648  67.796  1.00  0.00    -0.219 A  
HETATM   12  C   UNL     1     -10.606   8.912  67.863  1.00  0.00    -0.244 A  
HETATM   13  C   UNL     1     -10.401   9.853  66.855  1.00  0.00    -0.235 A  
HETATM   14  C   UNL     1      -8.930   8.252  65.765  1.00  0.00    -0.185 A  
HETATM   15  C   UNL     1      -9.525   9.527  65.820  1.00  0.00    -0.314 A  
BRANCH  13  16
HETATM   16  O   UNL     1     -11.023  11.082  66.795  1.00  0.00    -0.267 OA 
BRANCH  16  17
HETATM   17  C   UNL     1     -10.700  11.840  65.624  1.00  0.00    -0.280 C  
BRANCH  17  18
HETATM   18  C   UNL     1     -10.882  13.345  65.788  1.00  0.00    -0.275 C  
HETATM   19  C   UNL     1     -12.132  13.724  66.539  1.00  0.00    -0.443 C  
HETATM   20  O   UNL     1     -11.768  14.915  67.237  1.00  0.00    -0.362 OA 
HETATM   21  C   UNL     1     -10.343  14.832  67.486  1.00  0.00    -0.238 C  
HETATM   22  O   UNL     1      -9.807  13.832  66.599  1.00  0.00    -0.267 OA 
BRANCH  21  23
HETATM   23  C   UNL     1      -9.665  16.166  67.166  1.00  0.00    -0.236 A  
HETATM   24  C   UNL     1     -10.460  17.299  66.882  1.00  0.00    -0.272 A  
HETATM   25  C   UNL     1      -8.265  16.347  67.150  1.00  0.00    -0.180 A  
HETATM   26  C   UNL     1      -9.894  18.555  66.652  1.00  0.00    -0.370 A  
HETATM   27  C   UNL     1      -7.699  17.613  66.938  1.00  0.00    -0.245 A  
HETATM   28 CL   UNL     1      -7.140  15.047  67.340  1.00  0.00    -0.224 Cl 
HETATM   29 CL   UNL     1      -7.820  20.265  66.465  1.00  0.00    -0.304 Cl 
HETATM   30  C   UNL     1      -8.516  18.710  66.702  1.00  0.00    -0.292 A  
ENDBRANCH  21  23
BRANCH  21  31
HETATM   31  C   UNL     1     -10.138  14.337  68.936  1.00  0.00    -0.175 C  
BRANCH  31  32
HETATM   32  N   UNL     1     -11.208  14.651  69.855  1.00  0.00    -0.250 NA 
HETATM   33  C   UNL     1     -11.561  15.876  70.335  1.00  0.00    -0.371 A  
HETATM   34  C   UNL     1     -13.026  14.469  70.842  1.00  0.00    -0.361 A  
HETATM   35  N   UNL     1     -12.701  15.788  70.976  1.00  0.00    -0.455 NA 
HETATM   36  N   UNL     1     -12.141  13.734  70.164  1.00  0.00    -0.340 NA 
ENDBRANCH  31  32
ENDBRANCH  21  31
ENDBRANCH  17  18
ENDBRANCH  16  17
ENDBRANCH  13  16
ENDBRANCH   7  10
ENDBRANCH   2   4
TORSDOF 8
ENDMDL
MODEL       63
REMARK 921   NORMALIZED FREE ENERGY PREDICTED BY IDOCK:   -5.57 KCAL/MOL
REMARK 922        TOTAL FREE ENERGY PREDICTED BY IDOCK:   -9.35 KCAL/MOL
REMARK 923 INTER-LIGAND FREE ENERGY PREDICTED BY IDOCK:   -8.52 KCAL/MOL
REMARK 924 INTRA-LIGAND FREE ENERGY PREDICTED BY IDOCK:   -0.83 KCAL/MOL
REMARK 927      BINDING AFFINITY PREDICTED BY RF-SCORE:    0.00 PKD
ROOT
HETATM    1  C   UNL     1      -9.138   3.951  66.056  1.00  0.00    -0.148 C  
HETATM    2  C   UNL     1      -9.497   3.608  67.516  1.00  0.00    -0.191 C  
HETATM    3  C   UNL     1      -9.356   2.084  67.657  1.00  0.00    -0.155 C  
ENDROOT
BRANCH   2   4
HETATM    4  N   UNL     1      -8.637   4.371  68.451  1.00  0.00    -0.093 NA 
HETATM    5  C   UNL     1      -8.622   5.828  68.149  1.00  0.00    -0.108 C  
HETATM    6  C   UNL     1      -9.919   6.581  68.518  1.00  0.00    -0.142 C  
HETATM    7  N   UNL     1     -10.215   6.383  69.946  1.00  0.00    -0.177 NA 
HETATM    8  C   UNL     1      -8.991   4.235  69.892  1.00  0.00    -0.096 C  
HETATM    9  C   UNL     1     -10.280   4.972  70.357  1.00  0.00    -0.254 C  
BRANCH   7  10
HETATM   10  C   UNL     1     -10.924   7.358  70.630  1.00  0.00    -0.256 A  
HETATM   11  C   UNL     1     -12.224   7.130  71.084  1.00  0.00    -0.405 A  
HETATM   12  C   UNL     1     -13.020   8.160  71.583  1.00  0.00    -0.352 A  
HETATM   13  C   UNL     1     -12.545   9.469  71.647  1.00  0.00    -0.388 A  
HETATM   14  C   UNL     1     -10.420   8.658  70.784  1.00  0.00    -0.249 A  
HETATM   15  C   UNL     1     -11.220   9.706  71.278  1.00  0.00    -0.446 A  
BRANCH  13  16
HETATM   16  O   UNL     1     -13.300  10.557  72.029  1.00  0.00    -0.434 OA 
BRANCH  16  17
HETATM   17  C   UNL     1     -12.617  11.810  71.908  1.00  0.00     0.042 C  
BRANCH  17  18
HETATM   18  C   UNL     1     -12.869  12.530  70.588  1.00  0.00     0.065 C  
HETATM   19  C   UNL     1     -12.895  14.031  70.715  1.00  0.00    -0.285 C  
HETATM   20  O   UNL     1     -12.368  14.492  69.471  1.00  0.00    -0.291 OA 
HETATM   21  C   UNL     1     -11.462  13.465  68.997  1.00  0.00    -0.301 C  
HETATM   22  O   UNL     1     -11.763  12.257  69.719  1.00  0.00    -0.308 OA 
BRANCH  21  23
HETATM   23  C   UNL     1     -11.686  13.199  67.507  1.00  0.00    -0.414 A  
HETATM   24  C   UNL     1     -12.399  14.141  66.733  1.00  0.00    -0.333 A  
HETATM   25  C   UNL     1     -11.202  12.055  66.836  1.00  0.00    -0.320 A  
HETATM   26  C   UNL     1     -12.572  13.981  65.356  1.00  0.00    -0.529 A  
HETATM   27  C   UNL     1     -11.359  11.905  65.451  1.00  0.00    -0.334 A  
HETATM   28 CL   UNL     1     -10.428  10.738  67.648  1.00  0.00    -0.236 Cl 
HETATM   29 CL   UNL     1     -12.204  12.697  63.016  1.00  0.00    -0.308 Cl 
HETATM   30  C   UNL     1     -12.032  12.873  64.718  1.00  0.00    -0.396 A  
ENDBRANCH  21  23
BRANCH  21  31
HETATM   31  C   UNL     1     -10.021  13.890  69.366  1.00  0.00     0.400 C  
BRANCH  31  32
HETATM   32  N   UNL     1      -9.386  14.798  68.438  1.00  0.00    -0.191 NA 
HETATM   33  C   UNL     1      -8.527  14.489  67.428  1.00  0.00    -0.205 A  
HETATM   34  C   UNL     1      -9.117  16.491  67.268  1.00  0.00    -0.204 A  
HETATM   35  N   UNL     1      -8.328  15.547  66.678  1.00  0.00    -0.269 NA 
HETATM   36  N   UNL     1      -9.784  16.079  68.348  1.00  0.00    -0.209 NA 
ENDBRANCH  31  32
ENDBRANCH  21  31
ENDBRANCH  17  18
ENDBRANCH  16  17
ENDBRANCH  13  16
ENDBRANCH   7  10
ENDBRANCH   2   4
TORSDOF 8
ENDMDL
MODEL       64
REMARK 921   NORMALIZED FREE ENERGY PREDICTED BY IDOCK:   -5.55 KCAL/MOL
REMARK 922        TOTAL FREE ENERGY PREDICTED BY IDOCK:   -9.32 KCAL/MOL
REMARK 923 INTER-LIGAND FREE ENERGY PREDICTED BY IDOCK:   -8.67 KCAL/MOL
REMARK 924 INTRA-LIGAND FREE ENERGY PREDICTED BY IDOCK:   -0.65 KCAL/MOL
REMARK 927      BINDING AFFINITY PREDICTED BY RF-SCORE:    0.00 PKD
ROOT
HETATM    1  C   UNL     1     -10.571   1.666  72.828  1.00  0.00    -0.234 C  
HETATM    2  C   UNL     1     -10.397   3.197  72.757  1.00  0.00    -0.157 C  
HETATM    3  C   UNL     1     -10.677   3.736  74.170  1.00  0.00    -0.258 C  
ENDROOT
BRANCH   2   4
HETATM    4  N   UNL     1      -9.048   3.540  72.249  1.00  0.00    -0.099 NA 
HETATM    5  C   UNL     1      -8.890   3.228  70.803  1.00  0.00    -0.082 C  
HETATM    6  C   UNL     1      -9.638   4.182  69.847  1.00  0.00    -0.211 C  
HETATM    7  N   UNL     1      -9.207   5.567  70.095  1.00  0.00    -0.138 NA 
HETATM    8  C   UNL     1      -8.647   4.964  72.427  1.00  0.00    -0.123 C  
HETATM    9  C   UNL     1      -9.343   5.998  71.495  1.00  0.00    -0.149 C  
BRANCH   7  10
HETATM   10  C   UNL     1      -9.258   6.487  69.059  1.00  0.00    -0.130 A  
HETATM   11  C   UNL     1      -8.249   7.434  68.875  1.00  0.00    -0.129 A  
HETATM   12  C   UNL     1      -8.387   8.490  67.976  1.00  0.00    -0.127 A  
HETATM   13  C   UNL     1      -9.549   8.643  67.220  1.00  0.00    -0.167 A  
HETATM   14  C   UNL     1     -10.383   6.593  68.229  1.00  0.00    -0.220 A  
HETATM   15  C   UNL     1     -10.535   7.662  67.325  1.00  0.00    -0.396 A  
BRANCH  13  16
HETATM   16  O   UNL     1      -9.805   9.712  66.388  1.00  0.00    -0.208 OA 
BRANCH  16  17
HETATM   17  C   UNL     1     -10.900  10.530  66.814  1.00  0.00    -0.142 C  
BRANCH  17  18
HETATM   18  C   UNL     1     -10.532  11.554  67.883  1.00  0.00    -0.184 C  
HETATM   19  C   UNL     1      -9.274  12.323  67.574  1.00  0.00    -0.181 C  
HETATM   20  O   UNL     1      -9.508  13.611  68.144  1.00  0.00    -0.205 OA 
HETATM   21  C   UNL     1     -10.941  13.826  68.110  1.00  0.00    -0.246 C  
HETATM   22  O   UNL     1     -11.566  12.544  67.919  1.00  0.00    -0.305 OA 
BRANCH  21  23
HETATM   23  C   UNL     1     -11.427  14.400  69.443  1.00  0.00    -0.330 A  
HETATM   24  C   UNL     1     -12.642  13.938  69.996  1.00  0.00    -0.226 A  
HETATM   25  C   UNL     1     -10.718  15.373  70.181  1.00  0.00    -0.308 A  
HETATM   26  C   UNL     1     -13.097  14.377  71.241  1.00  0.00    -0.421 A  
HETATM   27  C   UNL     1     -11.166  15.798  71.439  1.00  0.00    -0.354 A  
HETATM   28 CL   UNL     1      -9.287  16.148  69.594  1.00  0.00    -0.084 Cl 
HETATM   29 CL   UNL     1     -12.881  15.797  73.521  1.00  0.00    -0.641 Cl 
HETATM   30  C   UNL     1     -12.346  15.290  71.967  1.00  0.00    -0.365 A  
ENDBRANCH  21  23
BRANCH  21  31
HETATM   31  C   UNL     1     -11.265  14.700  66.876  1.00  0.00    -0.343 C  
BRANCH  31  32
HETATM   32  N   UNL     1     -10.338  15.779  66.621  1.00  0.00    -0.285 NA 
HETATM   33  C   UNL     1      -9.212  15.747  65.856  1.00  0.00    -0.302 A  
HETATM   34  C   UNL     1      -9.655  17.725  66.379  1.00  0.00    -0.283 A  
HETATM   35  N   UNL     1      -8.750  16.963  65.696  1.00  0.00    -0.363 NA 
HETATM   36  N   UNL     1     -10.644  17.043  66.961  1.00  0.00    -0.272 NA 
ENDBRANCH  31  32
ENDBRANCH  21  31
ENDBRANCH  17  18
ENDBRANCH  16  17
ENDBRANCH  13  16
ENDBRANCH   7  10
ENDBRANCH   2   4
TORSDOF 8
ENDMDL
MODEL       65
REMARK 921   NORMALIZED FREE ENERGY PREDICTED BY IDOCK:   -5.53 KCAL/MOL
REMARK 922        TOTAL FREE ENERGY PREDICTED BY IDOCK:   -9.30 KCAL/MOL
REMARK 923 INTER-LIGAND FREE ENERGY PREDICTED BY IDOCK:   -9.24 KCAL/MOL
REMARK 924 INTRA-LIGAND FREE ENERGY PREDICTED BY IDOCK:   -0.06 KCAL/MOL
REMARK 927      BINDING AFFINITY PREDICTED BY RF-SCORE:    0.00 PKD
ROOT
HETATM    1  C   UNL     1     -10.179  19.896  68.579  1.00  0.00    -0.529 C  
HETATM    2  C   UNL     1      -8.845  20.227  67.878  1.00  0.00    -0.158 C  
HETATM    3  C   UNL     1      -7.752  19.442  68.623  1.00  0.00    -0.394 C  
ENDROOT
BRANCH   2   4
HETATM    4  N   UNL     1      -8.926  19.904  66.434  1.00  0.00    -0.366 NA 
HETATM    5  C   UNL     1      -7.929  18.878  66.026  1.00  0.00    -0.162 C  
HETATM    6  C   UNL     1      -8.241  17.442  66.500  1.00  0.00    -0.276 C  
HETATM    7  N   UNL     1      -9.574  17.043  66.019  1.00  0.00    -0.484 NA 
HETATM    8  C   UNL     1     -10.255  19.420  65.966  1.00  0.00    -0.457 C  
HETATM    9  C   UNL     1     -10.651  17.975  66.388  1.00  0.00    -0.250 C  
BRANCH   7  10
HETATM   10  C   UNL     1      -9.839  15.701  65.798  1.00  0.00    -0.351 A  
HETATM   11  C   UNL     1     -10.830  15.291  64.905  1.00  0.00    -0.444 A  
HETATM   12  C   UNL     1     -11.249  13.963  64.829  1.00  0.00    -0.369 A  
HETATM   13  C   UNL     1     -10.689  12.986  65.652  1.00  0.00    -0.275 A  
HETATM   14  C   UNL     1      -9.216  14.698  66.556  1.00  0.00    -0.294 A  
HETATM   15  C   UNL     1      -9.640  13.356  66.493  1.00  0.00    -0.277 A  
BRANCH  13  16
HETATM   16  O   UNL     1     -11.117  11.677  65.712  1.00  0.00    -0.302 OA 
BRANCH  16  17
HETATM   17  C   UNL     1     -10.143  10.726  65.267  1.00  0.00    -0.290 C  
BRANCH  17  18
HETATM   18  C   UNL     1     -10.089   9.453  66.104  1.00  0.00    -0.254 C  
HETATM   19  C   UNL     1      -8.813   8.672  65.936  1.00  0.00    -0.184 C  
HETATM   20  O   UNL     1      -8.600   8.076  67.216  1.00  0.00    -0.123 OA 
HETATM   21  C   UNL     1      -9.201   8.963  68.192  1.00  0.00    -0.139 C  
HETATM   22  O   UNL     1     -10.105   9.833  67.485  1.00  0.00    -0.174 OA 
BRANCH  21  23
HETATM   23  C   UNL     1     -10.012   8.163  69.214  1.00  0.00    -0.188 A  
HETATM   24  C   UNL     1      -9.904   6.754  69.237  1.00  0.00    -0.160 A  
HETATM   25  C   UNL     1     -10.868   8.754  70.168  1.00  0.00    -0.227 A  
HETATM   26  C   UNL     1     -10.567   5.982  70.193  1.00  0.00    -0.341 A  
HETATM   27  C   UNL     1     -11.517   7.980  71.140  1.00  0.00    -0.302 A  
HETATM   28 CL   UNL     1     -11.225  10.447  70.199  1.00  0.00    -0.366 Cl 
HETATM   29 CL   UNL     1     -12.135   5.655  72.361  1.00  0.00    -0.164 Cl 
HETATM   30  C   UNL     1     -11.355   6.600  71.154  1.00  0.00    -0.306 A  
ENDBRANCH  21  23
BRANCH  21  31
HETATM   31  C   UNL     1      -8.080   9.837  68.800  1.00  0.00    -0.102 C  
BRANCH  31  32
HETATM   32  N   UNL     1      -7.282   9.198  69.821  1.00  0.00    -0.058 NA 
HETATM   33  C   UNL     1      -6.234   8.346  69.646  1.00  0.00    -0.036 A  
HETATM   34  C   UNL     1      -6.353   8.917  71.656  1.00  0.00    -0.074 A  
HETATM   35  N   UNL     1      -5.635   8.140  70.794  1.00  0.00    -0.029 NA 
HETATM   36  N   UNL     1      -7.370   9.583  71.106  1.00  0.00    -0.332 NA 
ENDBRANCH  31  32
ENDBRANCH  21  31
ENDBRANCH  17  18
ENDBRANCH  16  17
ENDBRANCH  13  16
ENDBRANCH   7  10
ENDBRANCH   2   4
TORSDOF 8
ENDMDL
MODEL       66
REMARK 921   NORMALIZED FREE ENERGY PREDICTED BY IDOCK:   -5.52 KCAL/MOL
REMARK 922        TOTAL FREE ENERGY PREDICTED BY IDOCK:   -9.28 KCAL/MOL
REMARK 923 INTER-LIGAND FREE ENERGY PREDICTED BY IDOCK:   -8.61 KCAL/MOL
REMARK 924 INTRA-LIGAND FREE ENERGY PREDICTED BY IDOCK:   -0.67 KCAL/MOL
REMARK 927      BINDING AFFINITY PREDICTED BY RF-SCORE:    0.00 PKD
ROOT
HETATM    1  C   UNL     1      -8.631   2.538  71.817  1.00  0.00    -0.092 C  
HETATM    2  C   UNL     1      -7.634   2.919  70.704  1.00  0.00    -0.039 C  
HETATM    3  C   UNL     1      -6.376   2.064  70.930  1.00  0.00    -0.023 C  
ENDROOT
BRANCH   2   4
HETATM    4  N   UNL     1      -8.250   2.725  69.370  1.00  0.00    -0.050 NA 
HETATM    5  C   UNL     1      -9.623   3.292  69.291  1.00  0.00    -0.040 C  
HETATM    6  C   UNL     1      -9.687   4.834  69.243  1.00  0.00    -0.196 C  
HETATM    7  N   UNL     1      -8.892   5.326  68.106  1.00  0.00    -0.105 NA 
HETATM    8  C   UNL     1      -7.483   3.298  68.228  1.00  0.00    -0.053 C  
HETATM    9  C   UNL     1      -7.501   4.848  68.094  1.00  0.00    -0.074 C  
BRANCH   7  10
HETATM   10  C   UNL     1      -9.236   6.529  67.511  1.00  0.00    -0.113 A  
HETATM   11  C   UNL     1      -8.407   7.140  66.569  1.00  0.00    -0.117 A  
HETATM   12  C   UNL     1      -8.635   8.440  66.121  1.00  0.00    -0.157 A  
HETATM   13  C   UNL     1      -9.709   9.188  66.602  1.00  0.00    -0.223 A  
HETATM   14  C   UNL     1     -10.367   7.251  67.920  1.00  0.00    -0.253 A  
HETATM   15  C   UNL     1     -10.599   8.569  67.480  1.00  0.00    -0.284 A  
BRANCH  13  16
HETATM   16  O   UNL     1      -9.944  10.509  66.290  1.00  0.00    -0.204 OA 
BRANCH  16  17
HETATM   17  C   UNL     1      -8.797  11.354  66.439  1.00  0.00    -0.192 C  
BRANCH  17  18
HETATM   18  C   UNL     1      -8.897  12.336  67.600  1.00  0.00    -0.175 C  
HETATM   19  C   UNL     1      -8.088  13.591  67.402  1.00  0.00    -0.176 C  
HETATM   20  O   UNL     1      -8.846  14.601  68.067  1.00  0.00    -0.159 OA 
HETATM   21  C   UNL     1     -10.234  14.190  68.000  1.00  0.00    -0.232 C  
HETATM   22  O   UNL     1     -10.254  12.787  67.682  1.00  0.00    -0.213 OA 
BRANCH  21  23
HETATM   23  C   UNL     1     -10.915  14.381  69.358  1.00  0.00    -0.261 A  
HETATM   24  C   UNL     1     -10.784  15.615  70.033  1.00  0.00    -0.345 A  
HETATM   25  C   UNL     1     -11.697  13.388  69.986  1.00  0.00    -0.227 A  
HETATM   26  C   UNL     1     -11.441  15.865  71.240  1.00  0.00    -0.489 A  
HETATM   27  C   UNL     1     -12.371  13.647  71.188  1.00  0.00    -0.403 A  
HETATM   28 CL   UNL     1     -11.854  11.778  69.372  1.00  0.00    -0.380 Cl 
HETATM   29 CL   UNL     1     -13.096  15.209  73.263  1.00  0.00    -0.601 Cl 
HETATM   30  C   UNL     1     -12.249  14.887  71.801  1.00  0.00    -0.348 A  
ENDBRANCH  21  23
BRANCH  21  31
HETATM   31  C   UNL     1     -10.903  14.951  66.832  1.00  0.00    -0.319 C  
BRANCH  31  32
HETATM   32  N   UNL     1     -11.365  14.125  65.740  1.00  0.00    -0.312 NA 
HETATM   33  C   UNL     1     -10.710  13.833  64.581  1.00  0.00    -0.414 A  
HETATM   34  C   UNL     1     -12.408  12.621  64.759  1.00  0.00    -0.489 A  
HETATM   35  N   UNL     1     -11.355  12.893  63.934  1.00  0.00    -0.415 NA 
HETATM   36  N   UNL     1     -12.455  13.350  65.876  1.00  0.00    -0.432 NA 
ENDBRANCH  31  32
ENDBRANCH  21  31
ENDBRANCH  17  18
ENDBRANCH  16  17
ENDBRANCH  13  16
ENDBRANCH   7  10
ENDBRANCH   2   4
TORSDOF 8
ENDMDL
MODEL       67
REMARK 921   NORMALIZED FREE ENERGY PREDICTED BY IDOCK:   -5.52 KCAL/MOL
REMARK 922        TOTAL FREE ENERGY PREDICTED BY IDOCK:   -9.28 KCAL/MOL
REMARK 923 INTER-LIGAND FREE ENERGY PREDICTED BY IDOCK:   -8.95 KCAL/MOL
REMARK 924 INTRA-LIGAND FREE ENERGY PREDICTED BY IDOCK:   -0.33 KCAL/MOL
REMARK 927      BINDING AFFINITY PREDICTED BY RF-SCORE:    0.00 PKD
ROOT
HETATM    1  C   UNL     1      -9.608   1.551  72.269  1.00  0.00    -0.152 C  
HETATM    2  C   UNL     1      -8.900   2.857  72.682  1.00  0.00    -0.082 C  
HETATM    3  C   UNL     1      -7.668   2.447  73.505  1.00  0.00    -0.046 C  
ENDROOT
BRANCH   2   4
HETATM    4  N   UNL     1      -8.569   3.667  71.486  1.00  0.00    -0.082 NA 
HETATM    5  C   UNL     1      -9.776   4.021  70.690  1.00  0.00    -0.196 C  
HETATM    6  C   UNL     1     -10.684   5.094  71.328  1.00  0.00    -0.072 C  
HETATM    7  N   UNL     1      -9.900   6.311  71.591  1.00  0.00    -0.165 NA 
HETATM    8  C   UNL     1      -7.849   4.942  71.761  1.00  0.00    -0.107 C  
HETATM    9  C   UNL     1      -8.690   6.086  72.396  1.00  0.00    -0.126 C  
BRANCH   7  10
HETATM   10  C   UNL     1     -10.542   7.540  71.598  1.00  0.00    -0.205 A  
HETATM   11  C   UNL     1     -11.782   7.710  72.216  1.00  0.00    -0.371 A  
HETATM   12  C   UNL     1     -12.531   8.875  72.053  1.00  0.00    -0.461 A  
HETATM   13  C   UNL     1     -12.067   9.922  71.257  1.00  0.00    -0.394 A  
HETATM   14  C   UNL     1     -10.040   8.633  70.877  1.00  0.00    -0.262 A  
HETATM   15  C   UNL     1     -10.794   9.808  70.698  1.00  0.00    -0.396 A  
BRANCH  13  16
HETATM   16  O   UNL     1     -12.789  11.058  70.963  1.00  0.00    -0.359 OA 
BRANCH  16  17
HETATM   17  C   UNL     1     -11.986  12.159  70.523  1.00  0.00    -0.216 C  
BRANCH  17  18
HETATM   18  C   UNL     1     -12.030  12.398  69.018  1.00  0.00    -0.241 C  
HETATM   19  C   UNL     1     -12.392  13.811  68.641  1.00  0.00     0.021 C  
HETATM   20  O   UNL     1     -11.666  14.044  67.434  1.00  0.00    -0.345 OA 
HETATM   21  C   UNL     1     -10.480  13.214  67.496  1.00  0.00    -0.228 C  
HETATM   22  O   UNL     1     -10.706  12.211  68.504  1.00  0.00    -0.217 OA 
BRANCH  21  23
HETATM   23  C   UNL     1     -10.253  12.503  66.160  1.00  0.00    -0.269 A  
HETATM   24  C   UNL     1      -9.240  11.523  66.057  1.00  0.00    -0.229 A  
HETATM   25  C   UNL     1     -11.016  12.757  65.000  1.00  0.00    -0.289 A  
HETATM   26  C   UNL     1      -9.037  10.796  64.882  1.00  0.00    -0.221 A  
HETATM   27  C   UNL     1     -10.824  12.013  63.827  1.00  0.00    -0.481 A  
HETATM   28 CL   UNL     1     -12.202  14.013  64.903  1.00  0.00    -0.431 Cl 
HETATM   29 CL   UNL     1      -9.627  10.104  62.345  1.00  0.00    -0.243 Cl 
HETATM   30  C   UNL     1      -9.845  11.030  63.778  1.00  0.00    -0.330 A  
ENDBRANCH  21  23
BRANCH  21  31
HETATM   31  C   UNL     1      -9.300  14.098  67.963  1.00  0.00    -0.203 C  
BRANCH  31  32
HETATM   32  N   UNL     1      -9.240  15.414  67.369  1.00  0.00    -0.194 NA 
HETATM   33  C   UNL     1      -8.844  15.741  66.108  1.00  0.00    -0.311 A  
HETATM   34  C   UNL     1      -9.716  17.406  67.029  1.00  0.00    -0.276 A  
HETATM   35  N   UNL     1      -9.121  17.000  65.870  1.00  0.00    -0.533 NA 
HETATM   36  N   UNL     1      -9.811  16.469  67.976  1.00  0.00    -0.236 NA 
ENDBRANCH  31  32
ENDBRANCH  21  31
ENDBRANCH  17  18
ENDBRANCH  16  17
ENDBRANCH  13  16
ENDBRANCH   7  10
ENDBRANCH   2   4
TORSDOF 8
ENDMDL
MODEL       68
REMARK 921   NORMALIZED FREE ENERGY PREDICTED BY IDOCK:   -5.48 KCAL/MOL
REMARK 922        TOTAL FREE ENERGY PREDICTED BY IDOCK:   -9.22 KCAL/MOL
REMARK 923 INTER-LIGAND FREE ENERGY PREDICTED BY IDOCK:   -8.17 KCAL/MOL
REMARK 924 INTRA-LIGAND FREE ENERGY PREDICTED BY IDOCK:   -1.05 KCAL/MOL
REMARK 927      BINDING AFFINITY PREDICTED BY RF-SCORE:    0.00 PKD
ROOT
HETATM    1  C   UNL     1      -9.770  20.247  66.181  1.00  0.00    -0.427 C  
HETATM    2  C   UNL     1      -8.582  19.446  66.751  1.00  0.00    -0.311 C  
HETATM    3  C   UNL     1      -7.361  20.380  66.705  1.00  0.00    -0.328 C  
ENDROOT
BRANCH   2   4
HETATM    4  N   UNL     1      -8.898  18.951  68.111  1.00  0.00    -0.298 NA 
HETATM    5  C   UNL     1     -10.321  18.540  68.249  1.00  0.00    -0.344 C  
HETATM    6  C   UNL     1     -10.688  17.219  67.539  1.00  0.00    -0.278 C  
HETATM    7  N   UNL     1      -9.819  16.137  68.030  1.00  0.00    -0.229 NA 
HETATM    8  C   UNL     1      -8.072  17.800  68.575  1.00  0.00    -0.297 C  
HETATM    9  C   UNL     1      -8.381  16.423  67.919  1.00  0.00    -0.171 C  
BRANCH   7  10
HETATM   10  C   UNL     1     -10.289  14.833  68.015  1.00  0.00    -0.237 A  
HETATM   11  C   UNL     1      -9.448  13.752  68.284  1.00  0.00    -0.214 A  
HETATM   12  C   UNL     1      -9.851  12.435  68.068  1.00  0.00    -0.205 A  
HETATM   13  C   UNL     1     -11.121  12.145  67.569  1.00  0.00    -0.275 A  
HETATM   14  C   UNL     1     -11.595  14.531  67.602  1.00  0.00    -0.402 A  
HETATM   15  C   UNL     1     -12.007  13.204  67.372  1.00  0.00    -0.379 A  
BRANCH  13  16
HETATM   16  O   UNL     1     -11.558  10.882  67.231  1.00  0.00    -0.475 OA 
BRANCH  16  17
HETATM   17  C   UNL     1     -10.510   9.993  66.829  1.00  0.00    -0.198 C  
BRANCH  17  18
HETATM   18  C   UNL     1     -10.616   8.596  67.431  1.00  0.00    -0.228 C  
HETATM   19  C   UNL     1     -10.036   7.515  66.556  1.00  0.00    -0.138 C  
HETATM   20  O   UNL     1      -9.524   6.558  67.483  1.00  0.00    -0.124 OA 
HETATM   21  C   UNL     1      -9.158   7.291  68.678  1.00  0.00    -0.133 C  
HETATM   22  O   UNL     1      -9.821   8.568  68.622  1.00  0.00    -0.161 OA 
BRANCH  21  23
HETATM   23  C   UNL     1      -9.647   6.555  69.928  1.00  0.00    -0.163 A  
HETATM   24  C   UNL     1     -10.324   7.275  70.938  1.00  0.00    -0.210 A  
HETATM   25  C   UNL     1      -9.476   5.169  70.136  1.00  0.00    -0.168 A  
HETATM   26  C   UNL     1     -10.851   6.640  72.065  1.00  0.00    -0.263 A  
HETATM   27  C   UNL     1     -10.022   4.530  71.258  1.00  0.00    -0.258 A  
HETATM   28 CL   UNL     1      -8.557   4.159  69.074  1.00  0.00    -0.102 Cl 
HETATM   29 CL   UNL     1     -11.404   4.477  73.574  1.00  0.00    -0.389 Cl 
HETATM   30  C   UNL     1     -10.716   5.267  72.210  1.00  0.00    -0.223 A  
ENDBRANCH  21  23
BRANCH  21  31
HETATM   31  C   UNL     1      -7.634   7.546  68.637  1.00  0.00    -0.110 C  
BRANCH  31  32
HETATM   32  N   UNL     1      -7.230   8.917  68.849  1.00  0.00    -0.072 NA 
HETATM   33  C   UNL     1      -6.954   9.860  67.906  1.00  0.00    -0.081 A  
HETATM   34  C   UNL     1      -7.056  10.758  69.794  1.00  0.00    -0.124 A  
HETATM   35  N   UNL     1      -6.826  11.033  68.477  1.00  0.00    -0.061 NA 
HETATM   36  N   UNL     1      -7.308   9.476  70.070  1.00  0.00    -0.098 NA 
ENDBRANCH  31  32
ENDBRANCH  21  31
ENDBRANCH  17  18
ENDBRANCH  16  17
ENDBRANCH  13  16
ENDBRANCH   7  10
ENDBRANCH   2   4
TORSDOF 8
ENDMDL
MODEL       69
REMARK 921   NORMALIZED FREE ENERGY PREDICTED BY IDOCK:   -5.44 KCAL/MOL
REMARK 922        TOTAL FREE ENERGY PREDICTED BY IDOCK:   -9.16 KCAL/MOL
REMARK 923 INTER-LIGAND FREE ENERGY PREDICTED BY IDOCK:   -8.36 KCAL/MOL
REMARK 924 INTRA-LIGAND FREE ENERGY PREDICTED BY IDOCK:   -0.80 KCAL/MOL
REMARK 927      BINDING AFFINITY PREDICTED BY RF-SCORE:    0.00 PKD
ROOT
HETATM    1  C   UNL     1      -9.737   4.179  73.280  1.00  0.00    -0.151 C  
HETATM    2  C   UNL     1      -9.095   4.215  71.878  1.00  0.00    -0.122 C  
HETATM    3  C   UNL     1      -8.162   2.996  71.791  1.00  0.00    -0.062 C  
ENDROOT
BRANCH   2   4
HETATM    4  N   UNL     1     -10.144   4.234  70.831  1.00  0.00    -0.151 NA 
HETATM    5  C   UNL     1     -10.970   5.471  70.878  1.00  0.00    -0.124 C  
HETATM    6  C   UNL     1     -10.259   6.747  70.376  1.00  0.00    -0.192 C  
HETATM    7  N   UNL     1      -9.778   6.535  69.002  1.00  0.00    -0.135 NA 
HETATM    8  C   UNL     1      -9.646   4.104  69.433  1.00  0.00    -0.194 C  
HETATM    9  C   UNL     1      -8.924   5.348  68.839  1.00  0.00    -0.117 C  
BRANCH   7  10
HETATM   10  C   UNL     1      -9.650   7.625  68.155  1.00  0.00    -0.149 A  
HETATM   11  C   UNL     1      -8.410   8.008  67.642  1.00  0.00    -0.128 A  
HETATM   12  C   UNL     1      -8.234   9.214  66.966  1.00  0.00    -0.116 A  
HETATM   13  C   UNL     1      -9.300  10.094  66.777  1.00  0.00    -0.160 A  
HETATM   14  C   UNL     1     -10.736   8.470  67.880  1.00  0.00    -0.148 A  
HETATM   15  C   UNL     1     -10.566   9.694  67.207  1.00  0.00    -0.315 A  
BRANCH  13  16
HETATM   16  O   UNL     1      -9.189  11.346  66.212  1.00  0.00    -0.196 OA 
BRANCH  16  17
HETATM   17  C   UNL     1      -8.102  12.122  66.730  1.00  0.00    -0.055 C  
BRANCH  17  18
HETATM   18  C   UNL     1      -8.488  13.034  67.890  1.00  0.00    -0.185 C  
HETATM   19  C   UNL     1      -7.739  14.340  67.906  1.00  0.00    -0.152 C  
HETATM   20  O   UNL     1      -8.675  15.269  68.452  1.00  0.00    -0.160 OA 
HETATM   21  C   UNL     1      -9.995  14.786  68.098  1.00  0.00    -0.221 C  
HETATM   22  O   UNL     1      -9.862  13.402  67.723  1.00  0.00    -0.221 OA 
BRANCH  21  23
HETATM   23  C   UNL     1     -10.936  14.865  69.302  1.00  0.00    -0.279 A  
HETATM   24  C   UNL     1     -10.767  15.901  70.248  1.00  0.00    -0.313 A  
HETATM   25  C   UNL     1     -11.995  13.960  69.527  1.00  0.00    -0.343 A  
HETATM   26  C   UNL     1     -11.640  16.060  71.327  1.00  0.00    -0.506 A  
HETATM   27  C   UNL     1     -12.882  14.132  70.599  1.00  0.00    -0.356 A  
HETATM   28 CL   UNL     1     -12.266  12.558  68.550  1.00  0.00    -0.096 Cl 
HETATM   29 CL   UNL     1     -13.809  15.408  72.787  1.00  0.00    -0.590 Cl 
HETATM   30  C   UNL     1     -12.707  15.186  71.486  1.00  0.00    -0.358 A  
ENDBRANCH  21  23
BRANCH  21  31
HETATM   31  C   UNL     1     -10.474  15.570  66.854  1.00  0.00    -0.301 C  
BRANCH  31  32
HETATM   32  N   UNL     1     -10.055  16.952  66.794  1.00  0.00    -0.284 NA 
HETATM   33  C   UNL     1     -10.476  17.985  67.575  1.00  0.00    -0.396 A  
HETATM   34  C   UNL     1      -8.824  18.586  66.439  1.00  0.00    -0.256 A  
HETATM   35  N   UNL     1      -9.723  19.037  67.362  1.00  0.00    -0.308 NA 
HETATM   36  N   UNL     1      -8.987  17.316  66.062  1.00  0.00    -0.520 NA 
ENDBRANCH  31  32
ENDBRANCH  21  31
ENDBRANCH  17  18
ENDBRANCH  16  17
ENDBRANCH  13  16
ENDBRANCH   7  10
ENDBRANCH   2   4
TORSDOF 8
ENDMDL
MODEL       70
REMARK 921   NORMALIZED FREE ENERGY PREDICTED BY IDOCK:   -5.38 KCAL/MOL
REMARK 922        TOTAL FREE ENERGY PREDICTED BY IDOCK:   -9.07 KCAL/MOL
REMARK 923 INTER-LIGAND FREE ENERGY PREDICTED BY IDOCK:   -8.17 KCAL/MOL
REMARK 924 INTRA-LIGAND FREE ENERGY PREDICTED BY IDOCK:   -0.91 KCAL/MOL
REMARK 927      BINDING AFFINITY PREDICTED BY RF-SCORE:    0.00 PKD
ROOT
HETATM    1  C   UNL     1      -9.201  19.477  66.250  1.00  0.00    -0.416 C  
HETATM    2  C   UNL     1      -9.206  18.220  67.143  1.00  0.00    -0.264 C  
HETATM    3  C   UNL     1      -8.927  18.698  68.577  1.00  0.00    -0.364 C  
ENDROOT
BRANCH   2   4
HETATM    4  N   UNL     1     -10.488  17.490  67.002  1.00  0.00    -0.319 NA 
HETATM    5  C   UNL     1     -10.556  16.702  65.741  1.00  0.00    -0.268 C  
HETATM    6  C   UNL     1      -9.679  15.432  65.721  1.00  0.00    -0.350 C  
HETATM    7  N   UNL     1     -10.038  14.566  66.857  1.00  0.00    -0.254 NA 
HETATM    8  C   UNL     1     -10.810  16.551  68.113  1.00  0.00    -0.345 C  
HETATM    9  C   UNL     1      -9.981  15.236  68.165  1.00  0.00    -0.221 C  
BRANCH   7  10
HETATM   10  C   UNL     1      -9.851  13.197  66.748  1.00  0.00    -0.251 A  
HETATM   11  C   UNL     1      -8.640  12.597  67.098  1.00  0.00    -0.199 A  
HETATM   12  C   UNL     1      -8.367  11.263  66.799  1.00  0.00    -0.156 A  
HETATM   13  C   UNL     1      -9.301  10.471  66.132  1.00  0.00    -0.176 A  
HETATM   14  C   UNL     1     -10.820  12.370  66.162  1.00  0.00    -0.308 A  
HETATM   15  C   UNL     1     -10.549  11.024  65.848  1.00  0.00    -0.270 A  
BRANCH  13  16
HETATM   16  O   UNL     1      -9.070   9.179  65.710  1.00  0.00    -0.183 OA 
BRANCH  16  17
HETATM   17  C   UNL     1      -8.494   8.334  66.713  1.00  0.00    -0.122 C  
BRANCH  17  18
HETATM   18  C   UNL     1      -9.504   7.778  67.711  1.00  0.00    -0.143 C  
HETATM   19  C   UNL     1     -10.803   7.350  67.080  1.00  0.00    -0.270 C  
HETATM   20  O   UNL     1     -11.229   6.246  67.879  1.00  0.00    -0.323 OA 
HETATM   21  C   UNL     1     -10.028   5.627  68.404  1.00  0.00    -0.156 C  
HETATM   22  O   UNL     1      -8.956   6.578  68.269  1.00  0.00    -0.123 OA 
BRANCH  21  23
HETATM   23  C   UNL     1     -10.197   5.307  69.891  1.00  0.00    -0.364 A  
HETATM   24  C   UNL     1      -9.754   4.061  70.389  1.00  0.00    -0.263 A  
HETATM   25  C   UNL     1     -10.765   6.203  70.823  1.00  0.00    -0.266 A  
HETATM   26  C   UNL     1      -9.821   3.747  71.748  1.00  0.00    -0.244 A  
HETATM   27  C   UNL     1     -10.814   5.894  72.190  1.00  0.00    -0.290 A  
HETATM   28 CL   UNL     1     -11.481   7.711  70.371  1.00  0.00    -0.239 Cl 
HETATM   29 CL   UNL     1     -10.372   4.307  74.326  1.00  0.00    -0.261 Cl 
HETATM   30  C   UNL     1     -10.332   4.674  72.646  1.00  0.00    -0.196 A  
ENDBRANCH  21  23
BRANCH  21  31
HETATM   31  C   UNL     1      -9.692   4.405  67.518  1.00  0.00    -0.163 C  
BRANCH  31  32
HETATM   32  N   UNL     1      -8.465   4.507  66.762  1.00  0.00    -0.105 NA 
HETATM   33  C   UNL     1      -7.232   4.042  67.108  1.00  0.00    -0.068 A  
HETATM   34  C   UNL     1      -7.219   4.660  65.108  1.00  0.00    -0.067 A  
HETATM   35  N   UNL     1      -6.420   4.139  66.084  1.00  0.00    -0.036 NA 
HETATM   36  N   UNL     1      -8.479   4.902  65.477  1.00  0.00    -0.125 NA 
ENDBRANCH  31  32
ENDBRANCH  21  31
ENDBRANCH  17  18
ENDBRANCH  16  17
ENDBRANCH  13  16
ENDBRANCH   7  10
ENDBRANCH   2   4
TORSDOF 8
ENDMDL
MODEL       71
REMARK 921   NORMALIZED FREE ENERGY PREDICTED BY IDOCK:   -5.33 KCAL/MOL
REMARK 922        TOTAL FREE ENERGY PREDICTED BY IDOCK:   -9.00 KCAL/MOL
REMARK 923 INTER-LIGAND FREE ENERGY PREDICTED BY IDOCK:   -8.82 KCAL/MOL
REMARK 924 INTRA-LIGAND FREE ENERGY PREDICTED BY IDOCK:   -0.18 KCAL/MOL
REMARK 927      BINDING AFFINITY PREDICTED BY RF-SCORE:    0.00 PKD
ROOT
HETATM    1  C   UNL     1     -10.194   5.431  68.186  1.00  0.00    -0.226 C  
HETATM    2  C   UNL     1      -9.616   4.562  67.050  1.00  0.00    -0.190 C  
HETATM    3  C   UNL     1     -10.612   4.647  65.883  1.00  0.00    -0.265 C  
ENDROOT
BRANCH   2   4
HETATM    4  N   UNL     1      -8.250   5.015  66.697  1.00  0.00    -0.108 NA 
HETATM    5  C   UNL     1      -8.250   6.006  65.587  1.00  0.00    -0.139 C  
HETATM    6  C   UNL     1      -8.760   7.412  65.971  1.00  0.00    -0.153 C  
HETATM    7  N   UNL     1      -7.963   7.937  67.092  1.00  0.00    -0.115 NA 
HETATM    8  C   UNL     1      -7.474   5.623  67.815  1.00  0.00    -0.077 C  
HETATM    9  C   UNL     1      -7.912   7.047  68.262  1.00  0.00    -0.123 C  
BRANCH   7  10
HETATM   10  C   UNL     1      -7.815   9.308  67.232  1.00  0.00    -0.099 A  
HETATM   11  C   UNL     1      -8.317  10.196  66.279  1.00  0.00    -0.130 A  
HETATM   12  C   UNL     1      -7.996  11.552  66.298  1.00  0.00     0.019 A  
HETATM   13  C   UNL     1      -7.152  12.078  67.275  1.00  0.00    -0.149 A  
HETATM   14  C   UNL     1      -7.043   9.859  68.265  1.00  0.00    -0.076 A  
HETATM   15  C   UNL     1      -6.706  11.226  68.286  1.00  0.00    -0.059 A  
BRANCH  13  16
HETATM   16  O   UNL     1      -6.706  13.382  67.303  1.00  0.00    -0.196 OA 
BRANCH  16  17
HETATM   17  C   UNL     1      -7.754  14.353  67.392  1.00  0.00    -0.185 C  
BRANCH  17  18
HETATM   18  C   UNL     1      -8.655  14.185  68.611  1.00  0.00    -0.126 C  
HETATM   19  C   UNL     1      -9.011  15.485  69.283  1.00  0.00    -0.267 C  
HETATM   20  O   UNL     1     -10.326  15.263  69.791  1.00  0.00    -0.255 OA 
HETATM   21  C   UNL     1     -10.953  14.296  68.913  1.00  0.00    -0.257 C  
HETATM   22  O   UNL     1      -9.906  13.651  68.163  1.00  0.00    -0.223 OA 
BRANCH  21  23
HETATM   23  C   UNL     1     -11.683  13.227  69.728  1.00  0.00    -0.354 A  
HETATM   24  C   UNL     1     -11.507  11.863  69.402  1.00  0.00    -0.366 A  
HETATM   25  C   UNL     1     -12.529  13.519  70.820  1.00  0.00    -0.353 A  
HETATM   26  C   UNL     1     -12.095  10.845  70.156  1.00  0.00    -0.431 A  
HETATM   27  C   UNL     1     -13.103  12.496  71.588  1.00  0.00    -0.414 A  
HETATM   28 CL   UNL     1     -12.966  15.130  71.274  1.00  0.00    -0.432 Cl 
HETATM   29 CL   UNL     1     -13.561   9.913  72.216  1.00  0.00    -0.430 Cl 
HETATM   30  C   UNL     1     -12.874  11.166  71.259  1.00  0.00    -0.412 A  
ENDBRANCH  21  23
BRANCH  21  31
HETATM   31  C   UNL     1     -11.846  15.065  67.912  1.00  0.00    -0.218 C  
BRANCH  31  32
HETATM   32  N   UNL     1     -11.832  14.563  66.557  1.00  0.00    -0.377 NA 
HETATM   33  C   UNL     1     -12.607  13.577  66.025  1.00  0.00    -0.348 A  
HETATM   34  C   UNL     1     -11.571  14.564  64.497  1.00  0.00    -0.377 A  
HETATM   35  N   UNL     1     -12.452  13.546  64.724  1.00  0.00    -0.582 NA 
HETATM   36  N   UNL     1     -11.164  15.215  65.589  1.00  0.00    -0.324 NA 
ENDBRANCH  31  32
ENDBRANCH  21  31
ENDBRANCH  17  18
ENDBRANCH  16  17
ENDBRANCH  13  16
ENDBRANCH   7  10
ENDBRANCH   2   4
TORSDOF 8
ENDMDL
MODEL       72
REMARK 921   NORMALIZED FREE ENERGY PREDICTED BY IDOCK:   -5.31 KCAL/MOL
REMARK 922        TOTAL FREE ENERGY PREDICTED BY IDOCK:   -8.96 KCAL/MOL
REMARK 923 INTER-LIGAND FREE ENERGY PREDICTED BY IDOCK:   -9.13 KCAL/MOL
REMARK 924 INTRA-LIGAND FREE ENERGY PREDICTED BY IDOCK:    0.17 KCAL/MOL
REMARK 927      BINDING AFFINITY PREDICTED BY RF-SCORE:    0.00 PKD
ROOT
HETATM    1  C   UNL     1     -11.127   5.338  72.871  1.00  0.00    -0.365 C  
HETATM    2  C   UNL     1     -10.135   4.244  73.313  1.00  0.00    -0.145 C  
HETATM    3  C   UNL     1     -10.979   3.022  73.715  1.00  0.00    -0.313 C  
ENDROOT
BRANCH   2   4
HETATM    4  N   UNL     1      -9.162   3.961  72.232  1.00  0.00    -0.114 NA 
HETATM    5  C   UNL     1      -9.810   3.867  70.896  1.00  0.00    -0.143 C  
HETATM    6  C   UNL     1     -10.277   5.215  70.304  1.00  0.00    -0.271 C  
HETATM    7  N   UNL     1      -9.136   6.142  70.228  1.00  0.00    -0.152 NA 
HETATM    8  C   UNL     1      -8.053   4.948  72.102  1.00  0.00    -0.111 C  
HETATM    9  C   UNL     1      -8.431   6.334  71.504  1.00  0.00    -0.130 C  
BRANCH   7  10
HETATM   10  C   UNL     1      -9.133   7.131  69.257  1.00  0.00    -0.137 A  
HETATM   11  C   UNL     1      -8.011   7.930  69.034  1.00  0.00    -0.122 A  
HETATM   12  C   UNL     1      -8.061   9.057  68.215  1.00  0.00    -0.109 A  
HETATM   13  C   UNL     1      -9.246   9.433  67.582  1.00  0.00    -0.127 A  
HETATM   14  C   UNL     1     -10.296   7.461  68.544  1.00  0.00    -0.221 A  
HETATM   15  C   UNL     1     -10.358   8.603  67.723  1.00  0.00    -0.303 A  
BRANCH  13  16
HETATM   16  O   UNL     1      -9.405  10.585  66.843  1.00  0.00    -0.157 OA 
BRANCH  16  17
HETATM   17  C   UNL     1      -8.723  11.722  67.384  1.00  0.00    -0.162 C  
BRANCH  17  18
HETATM   18  C   UNL     1      -9.124  13.048  66.747  1.00  0.00    -0.210 C  
HETATM   19  C   UNL     1     -10.167  12.910  65.670  1.00  0.00    -0.285 C  
HETATM   20  O   UNL     1     -10.926  14.116  65.766  1.00  0.00    -0.293 OA 
HETATM   21  C   UNL     1     -10.852  14.544  67.148  1.00  0.00    -0.296 C  
HETATM   22  O   UNL     1      -9.745  13.853  67.756  1.00  0.00    -0.215 OA 
BRANCH  21  23
HETATM   23  C   UNL     1     -10.577  16.047  67.229  1.00  0.00    -0.313 A  
HETATM   24  C   UNL     1     -10.469  16.799  66.038  1.00  0.00    -0.300 A  
HETATM   25  C   UNL     1     -10.437  16.752  68.444  1.00  0.00    -0.339 A  
HETATM   26  C   UNL     1     -10.288  18.184  66.056  1.00  0.00    -0.360 A  
HETATM   27  C   UNL     1     -10.275  18.144  68.462  1.00  0.00    -0.399 A  
HETATM   28 CL   UNL     1     -10.405  15.976  69.990  1.00  0.00    -0.257 Cl 
HETATM   29 CL   UNL     1     -10.037  20.564  67.295  1.00  0.00    -0.519 Cl 
HETATM   30  C   UNL     1     -10.213  18.853  67.270  1.00  0.00    -0.390 A  
ENDBRANCH  21  23
BRANCH  21  31
HETATM   31  C   UNL     1     -12.145  14.086  67.861  1.00  0.00    -0.279 C  
BRANCH  31  32
HETATM   32  N   UNL     1     -11.994  12.960  68.754  1.00  0.00    -0.298 NA 
HETATM   33  C   UNL     1     -11.860  12.983  70.109  1.00  0.00    -0.252 A  
HETATM   34  C   UNL     1     -12.174  11.017  69.464  1.00  0.00    -0.282 A  
HETATM   35  N   UNL     1     -11.957  11.765  70.585  1.00  0.00    -0.308 NA 
HETATM   36  N   UNL     1     -12.205  11.705  68.320  1.00  0.00    -0.452 NA 
ENDBRANCH  31  32
ENDBRANCH  21  31
ENDBRANCH  17  18
ENDBRANCH  16  17
ENDBRANCH  13  16
ENDBRANCH   7  10
ENDBRANCH   2   4
TORSDOF 8
ENDMDL
MODEL       73
REMARK 921   NORMALIZED FREE ENERGY PREDICTED BY IDOCK:   -5.23 KCAL/MOL
REMARK 922        TOTAL FREE ENERGY PREDICTED BY IDOCK:   -8.85 KCAL/MOL
REMARK 923 INTER-LIGAND FREE ENERGY PREDICTED BY IDOCK:   -7.91 KCAL/MOL
REMARK 924 INTRA-LIGAND FREE ENERGY PREDICTED BY IDOCK:   -0.94 KCAL/MOL
REMARK 927      BINDING AFFINITY PREDICTED BY RF-SCORE:    0.00 PKD
ROOT
HETATM    1  C   UNL     1      -9.810   4.148  73.073  1.00  0.00    -0.178 C  
HETATM    2  C   UNL     1      -9.103   4.425  71.731  1.00  0.00    -0.127 C  
HETATM    3  C   UNL     1      -8.030   3.336  71.568  1.00  0.00    -0.057 C  
ENDROOT
BRANCH   2   4
HETATM    4  N   UNL     1     -10.088   4.455  70.625  1.00  0.00    -0.178 NA 
HETATM    5  C   UNL     1     -10.973   5.650  70.686  1.00  0.00    -0.188 C  
HETATM    6  C   UNL     1     -10.295   6.981  70.296  1.00  0.00    -0.203 C  
HETATM    7  N   UNL     1      -9.725   6.867  68.944  1.00  0.00    -0.142 NA 
HETATM    8  C   UNL     1      -9.504   4.424  69.254  1.00  0.00    -0.179 C  
HETATM    9  C   UNL     1      -8.808   5.730  68.772  1.00  0.00    -0.110 C  
BRANCH   7  10
HETATM   10  C   UNL     1      -9.600   8.007  68.165  1.00  0.00    -0.153 A  
HETATM   11  C   UNL     1      -8.362   8.415  67.664  1.00  0.00    -0.130 A  
HETATM   12  C   UNL     1      -8.187   9.660  67.062  1.00  0.00    -0.117 A  
HETATM   13  C   UNL     1      -9.250  10.554  66.938  1.00  0.00    -0.155 A  
HETATM   14  C   UNL     1     -10.684   8.872  67.953  1.00  0.00    -0.185 A  
HETATM   15  C   UNL     1     -10.513  10.135  67.355  1.00  0.00    -0.310 A  
BRANCH  13  16
HETATM   16  O   UNL     1      -9.138  11.839  66.451  1.00  0.00    -0.208 OA 
BRANCH  16  17
HETATM   17  C   UNL     1      -8.015  12.561  66.970  1.00  0.00    -0.085 C  
BRANCH  17  18
HETATM   18  C   UNL     1      -8.361  13.509  68.113  1.00  0.00    -0.167 C  
HETATM   19  C   UNL     1      -7.641  14.830  68.041  1.00  0.00    -0.125 C  
HETATM   20  O   UNL     1      -8.569  15.760  68.599  1.00  0.00    -0.173 OA 
HETATM   21  C   UNL     1      -9.894  15.237  68.332  1.00  0.00    -0.216 C  
HETATM   22  O   UNL     1      -9.749  13.843  68.003  1.00  0.00    -0.213 OA 
BRANCH  21  23
HETATM   23  C   UNL     1     -10.774  15.344  69.579  1.00  0.00    -0.269 A  
HETATM   24  C   UNL     1     -10.733  16.521  70.359  1.00  0.00     0.017 A  
HETATM   25  C   UNL     1     -11.655  14.327  70.003  1.00  0.00    -0.261 A  
HETATM   26  C   UNL     1     -11.565  16.699  71.467  1.00  0.00     0.038 A  
HETATM   27  C   UNL     1     -12.504  14.513  71.103  1.00  0.00    -0.411 A  
HETATM   28 CL   UNL     1     -11.737  12.771  69.251  1.00  0.00    -0.360 Cl 
HETATM   29 CL   UNL     1     -13.521  15.936  73.157  1.00  0.00    -0.678 Cl 
HETATM   30  C   UNL     1     -12.463  15.701  71.821  1.00  0.00    -0.438 A  
ENDBRANCH  21  23
BRANCH  21  31
HETATM   31  C   UNL     1     -10.452  15.962  67.085  1.00  0.00    -0.313 C  
BRANCH  31  32
HETATM   32  N   UNL     1     -11.231  15.140  66.188  1.00  0.00    -0.313 NA 
HETATM   33  C   UNL     1     -10.812  14.522  65.049  1.00  0.00    -0.412 A  
HETATM   34  C   UNL     1     -12.725  13.841  65.561  1.00  0.00    -0.488 A  
HETATM   35  N   UNL     1     -11.743  13.703  64.622  1.00  0.00    -0.371 NA 
HETATM   36  N   UNL     1     -12.456  14.710  66.538  1.00  0.00    -0.059 NA 
ENDBRANCH  31  32
ENDBRANCH  21  31
ENDBRANCH  17  18
ENDBRANCH  16  17
ENDBRANCH  13  16
ENDBRANCH   7  10
ENDBRANCH   2   4
TORSDOF 8
ENDMDL
MODEL       74
REMARK 921   NORMALIZED FREE ENERGY PREDICTED BY IDOCK:   -5.23 KCAL/MOL
REMARK 922        TOTAL FREE ENERGY PREDICTED BY IDOCK:   -8.85 KCAL/MOL
REMARK 923 INTER-LIGAND FREE ENERGY PREDICTED BY IDOCK:   -7.80 KCAL/MOL
REMARK 924 INTRA-LIGAND FREE ENERGY PREDICTED BY IDOCK:   -1.05 KCAL/MOL
REMARK 927      BINDING AFFINITY PREDICTED BY RF-SCORE:    0.00 PKD
ROOT
HETATM    1  C   UNL     1      -9.736  20.306  66.996  1.00  0.00    -0.598 C  
HETATM    2  C   UNL     1      -9.124  18.987  67.509  1.00  0.00    -0.288 C  
HETATM    3  C   UNL     1      -8.313  19.339  68.767  1.00  0.00    -0.386 C  
ENDROOT
BRANCH   2   4
HETATM    4  N   UNL     1     -10.188  17.985  67.753  1.00  0.00    -0.359 NA 
HETATM    5  C   UNL     1     -10.357  17.047  66.610  1.00  0.00    -0.299 C  
HETATM    6  C   UNL     1      -9.228  16.005  66.452  1.00  0.00    -0.305 C  
HETATM    7  N   UNL     1      -9.091  15.234  67.698  1.00  0.00    -0.181 NA 
HETATM    8  C   UNL     1     -10.004  17.147  68.971  1.00  0.00    -0.273 C  
HETATM    9  C   UNL     1      -8.892  16.061  68.899  1.00  0.00    -0.233 C  
BRANCH   7  10
HETATM   10  C   UNL     1      -8.609  13.936  67.640  1.00  0.00    -0.190 A  
HETATM   11  C   UNL     1      -9.407  12.846  67.991  1.00  0.00    -0.213 A  
HETATM   12  C   UNL     1      -8.877  11.564  68.139  1.00  0.00    -0.165 A  
HETATM   13  C   UNL     1      -7.518  11.321  67.941  1.00  0.00    -0.094 A  
HETATM   14  C   UNL     1      -7.263  13.667  67.351  1.00  0.00    -0.108 A  
HETATM   15  C   UNL     1      -6.718  12.378  67.507  1.00  0.00    -0.146 A  
BRANCH  13  16
HETATM   16  O   UNL     1      -6.901  10.110  68.166  1.00  0.00    -0.066 OA 
BRANCH  16  17
HETATM   17  C   UNL     1      -6.597   9.859  69.543  1.00  0.00    -0.051 C  
BRANCH  17  18
HETATM   18  C   UNL     1      -7.099   8.513  70.054  1.00  0.00    -0.046 C  
HETATM   19  C   UNL     1      -7.836   8.602  71.364  1.00  0.00    -0.129 C  
HETATM   20  O   UNL     1      -8.817   7.567  71.280  1.00  0.00    -0.132 OA 
HETATM   21  C   UNL     1      -9.130   7.405  69.875  1.00  0.00    -0.141 C  
HETATM   22  O   UNL     1      -8.069   8.022  69.122  1.00  0.00    -0.115 OA 
BRANCH  21  23
HETATM   23  C   UNL     1      -9.177   5.921  69.505  1.00  0.00    -0.149 A  
HETATM   24  C   UNL     1      -8.924   4.949  70.498  1.00  0.00    -0.159 A  
HETATM   25  C   UNL     1      -9.479   5.448  68.209  1.00  0.00    -0.119 A  
HETATM   26  C   UNL     1      -9.022   3.581  70.230  1.00  0.00    -0.173 A  
HETATM   27  C   UNL     1      -9.596   4.075  67.946  1.00  0.00    -0.199 A  
HETATM   28 CL   UNL     1      -9.682   6.491  66.844  1.00  0.00    -0.186 Cl 
HETATM   29 CL   UNL     1      -9.545   1.470  68.640  1.00  0.00    -0.220 Cl 
HETATM   30  C   UNL     1      -9.378   3.151  68.960  1.00  0.00    -0.160 A  
ENDBRANCH  21  23
BRANCH  21  31
HETATM   31  C   UNL     1     -10.433   8.183  69.581  1.00  0.00    -0.224 C  
BRANCH  31  32
HETATM   32  N   UNL     1     -11.469   8.057  70.582  1.00  0.00    -0.264 NA 
HETATM   33  C   UNL     1     -12.025   9.046  71.334  1.00  0.00    -0.332 A  
HETATM   34  C   UNL     1     -13.126   7.280  71.561  1.00  0.00    -0.384 A  
HETATM   35  N   UNL     1     -13.069   8.580  71.976  1.00  0.00    -0.355 NA 
HETATM   36  N   UNL     1     -12.167   6.915  70.708  1.00  0.00    -0.364 NA 
ENDBRANCH  31  32
ENDBRANCH  21  31
ENDBRANCH  17  18
ENDBRANCH  16  17
ENDBRANCH  13  16
ENDBRANCH   7  10
ENDBRANCH   2   4
TORSDOF 8
ENDMDL
MODEL       75
REMARK 921   NORMALIZED FREE ENERGY PREDICTED BY IDOCK:   -5.18 KCAL/MOL
REMARK 922        TOTAL FREE ENERGY PREDICTED BY IDOCK:   -8.78 KCAL/MOL
REMARK 923 INTER-LIGAND FREE ENERGY PREDICTED BY IDOCK:   -7.75 KCAL/MOL
REMARK 924 INTRA-LIGAND FREE ENERGY PREDICTED BY IDOCK:   -1.03 KCAL/MOL
REMARK 927      BINDING AFFINITY PREDICTED BY RF-SCORE:    0.00 PKD
ROOT
HETATM    1  C   UNL     1     -12.402  16.051  74.087  1.00  0.00    -0.716 C  
HETATM    2  C   UNL     1     -12.213  15.177  72.831  1.00  0.00    -0.386 C  
HETATM    3  C   UNL     1     -13.060  13.912  73.045  1.00  0.00    -0.249 C  
ENDROOT
BRANCH   2   4
HETATM    4  N   UNL     1     -12.581  15.937  71.613  1.00  0.00    -0.450 NA 
HETATM    5  C   UNL     1     -11.390  16.362  70.829  1.00  0.00    -0.183 C  
HETATM    6  C   UNL     1     -10.676  15.226  70.065  1.00  0.00    -0.279 C  
HETATM    7  N   UNL     1     -11.633  14.554  69.171  1.00  0.00    -0.280 NA 
HETATM    8  C   UNL     1     -13.484  15.221  70.668  1.00  0.00    -0.208 C  
HETATM    9  C   UNL     1     -12.845  14.065  69.846  1.00  0.00     0.159 C  
BRANCH   7  10
HETATM   10  C   UNL     1     -11.167  13.946  68.016  1.00  0.00    -0.271 A  
HETATM   11  C   UNL     1     -10.124  14.499  67.271  1.00  0.00    -0.247 A  
HETATM   12  C   UNL     1      -9.787  14.018  66.007  1.00  0.00    -0.316 A  
HETATM   13  C   UNL     1     -10.487  12.958  65.432  1.00  0.00    -0.292 A  
HETATM   14  C   UNL     1     -11.804  12.821  67.472  1.00  0.00    -0.402 A  
HETATM   15  C   UNL     1     -11.477  12.335  66.192  1.00  0.00    -0.429 A  
BRANCH  13  16
HETATM   16  O   UNL     1     -10.285  12.492  64.150  1.00  0.00    -0.359 OA 
BRANCH  16  17
HETATM   17  C   UNL     1     -10.685  11.130  63.957  1.00  0.00    -0.339 C  
BRANCH  17  18
HETATM   18  C   UNL     1      -9.587  10.114  64.249  1.00  0.00    -0.290 C  
HETATM   19  C   UNL     1      -8.302  10.734  64.732  1.00  0.00     0.004 C  
HETATM   20  O   UNL     1      -7.764   9.761  65.628  1.00  0.00    -0.107 OA 
HETATM   21  C   UNL     1      -8.891   9.040  66.185  1.00  0.00    -0.164 C  
HETATM   22  O   UNL     1     -10.026   9.290  65.335  1.00  0.00    -0.165 OA 
BRANCH  21  23
HETATM   23  C   UNL     1      -8.617   7.535  66.185  1.00  0.00    -0.159 A  
HETATM   24  C   UNL     1      -7.366   7.056  65.735  1.00  0.00    -0.079 A  
HETATM   25  C   UNL     1      -9.547   6.571  66.630  1.00  0.00    -0.160 A  
HETATM   26  C   UNL     1      -7.039   5.699  65.779  1.00  0.00    -0.067 A  
HETATM   27  C   UNL     1      -9.211   5.211  66.692  1.00  0.00    -0.129 A  
HETATM   28 CL   UNL     1     -11.170   6.962  67.086  1.00  0.00    -0.366 Cl 
HETATM   29 CL   UNL     1      -7.539   3.119  66.376  1.00  0.00    -0.076 Cl 
HETATM   30  C   UNL     1      -7.956   4.785  66.278  1.00  0.00    -0.103 A  
ENDBRANCH  21  23
BRANCH  21  31
HETATM   31  C   UNL     1      -9.202   9.639  67.577  1.00  0.00    -0.133 C  
BRANCH  31  32
HETATM   32  N   UNL     1      -8.119  10.373  68.191  1.00  0.00    -0.109 NA 
HETATM   33  C   UNL     1      -7.991  11.723  68.312  1.00  0.00    -0.147 A  
HETATM   34  C   UNL     1      -6.531  10.769  69.468  1.00  0.00    -0.089 A  
HETATM   35  N   UNL     1      -6.986  12.003  69.105  1.00  0.00    -0.093 NA 
HETATM   36  N   UNL     1      -7.193   9.741  68.933  1.00  0.00    -0.070 NA 
ENDBRANCH  31  32
ENDBRANCH  21  31
ENDBRANCH  17  18
ENDBRANCH  16  17
ENDBRANCH  13  16
ENDBRANCH   7  10
ENDBRANCH   2   4
TORSDOF 8
ENDMDL
MODEL       76
REMARK 921   NORMALIZED FREE ENERGY PREDICTED BY IDOCK:   -5.18 KCAL/MOL
REMARK 922        TOTAL FREE ENERGY PREDICTED BY IDOCK:   -8.77 KCAL/MOL
REMARK 923 INTER-LIGAND FREE ENERGY PREDICTED BY IDOCK:   -7.88 KCAL/MOL
REMARK 924 INTRA-LIGAND FREE ENERGY PREDICTED BY IDOCK:   -0.89 KCAL/MOL
REMARK 927      BINDING AFFINITY PREDICTED BY RF-SCORE:    0.00 PKD
ROOT
HETATM    1  C   UNL     1      -9.798  20.282  66.107  1.00  0.00    -0.440 C  
HETATM    2  C   UNL     1      -8.630  19.495  66.736  1.00  0.00    -0.318 C  
HETATM    3  C   UNL     1      -7.417  20.439  66.742  1.00  0.00    -0.329 C  
ENDROOT
BRANCH   2   4
HETATM    4  N   UNL     1      -9.005  19.005  68.083  1.00  0.00    -0.303 NA 
HETATM    5  C   UNL     1     -10.419  18.546  68.147  1.00  0.00    -0.325 C  
HETATM    6  C   UNL     1     -10.700  17.205  67.436  1.00  0.00    -0.242 C  
HETATM    7  N   UNL     1      -9.825  16.160  67.989  1.00  0.00    -0.229 NA 
HETATM    8  C   UNL     1      -8.168  17.888  68.607  1.00  0.00    -0.275 C  
HETATM    9  C   UNL     1      -8.393  16.494  67.954  1.00  0.00    -0.173 C  
BRANCH   7  10
HETATM   10  C   UNL     1     -10.249  14.840  67.965  1.00  0.00    -0.226 A  
HETATM   11  C   UNL     1      -9.370  13.787  68.223  1.00  0.00    -0.209 A  
HETATM   12  C   UNL     1      -9.727  12.459  67.998  1.00  0.00    -0.210 A  
HETATM   13  C   UNL     1     -10.987  12.128  67.500  1.00  0.00    -0.257 A  
HETATM   14  C   UNL     1     -11.545  14.496  67.553  1.00  0.00    -0.403 A  
HETATM   15  C   UNL     1     -11.911  13.157  67.314  1.00  0.00    -0.420 A  
BRANCH  13  16
HETATM   16  O   UNL     1     -11.381  10.854  67.154  1.00  0.00    -0.394 OA 
BRANCH  16  17
HETATM   17  C   UNL     1     -10.299   9.923  67.036  1.00  0.00    -0.239 C  
BRANCH  17  18
HETATM   18  C   UNL     1     -10.512   8.623  67.803  1.00  0.00    -0.224 C  
HETATM   19  C   UNL     1     -10.340   7.388  66.958  1.00  0.00    -0.314 C  
HETATM   20  O   UNL     1      -9.811   6.419  67.863  1.00  0.00    -0.120 OA 
HETATM   21  C   UNL     1      -9.065   7.153  68.867  1.00  0.00    -0.131 C  
HETATM   22  O   UNL     1      -9.489   8.527  68.801  1.00  0.00    -0.143 OA 
BRANCH  21  23
HETATM   23  C   UNL     1      -9.385   6.621  70.266  1.00  0.00    -0.160 A  
HETATM   24  C   UNL     1     -10.075   5.396  70.403  1.00  0.00    -0.314 A  
HETATM   25  C   UNL     1      -9.014   7.283  71.457  1.00  0.00    -0.129 A  
HETATM   26  C   UNL     1     -10.330   4.832  71.655  1.00  0.00    -0.215 A  
HETATM   27  C   UNL     1      -9.254   6.707  72.712  1.00  0.00    -0.146 A  
HETATM   28 CL   UNL     1      -8.287   8.852  71.481  1.00  0.00    -0.203 Cl 
HETATM   29 CL   UNL     1     -10.173   4.766  74.344  1.00  0.00    -0.268 Cl 
HETATM   30  C   UNL     1      -9.900   5.481  72.804  1.00  0.00    -0.164 A  
ENDBRANCH  21  23
BRANCH  21  31
HETATM   31  C   UNL     1      -7.568   7.100  68.485  1.00  0.00    -0.115 C  
BRANCH  31  32
HETATM   32  N   UNL     1      -7.064   5.792  68.134  1.00  0.00    -0.072 NA 
HETATM   33  C   UNL     1      -6.680   5.350  66.904  1.00  0.00    -0.062 A  
HETATM   34  C   UNL     1      -6.116   3.959  68.363  1.00  0.00    -0.031 A  
HETATM   35  N   UNL     1      -6.088   4.185  67.018  1.00  0.00    -0.027 NA 
HETATM   36  N   UNL     1      -6.703   4.915  69.087  1.00  0.00    -0.047 NA 
ENDBRANCH  31  32
ENDBRANCH  21  31
ENDBRANCH  17  18
ENDBRANCH  16  17
ENDBRANCH  13  16
ENDBRANCH   7  10
ENDBRANCH   2   4
TORSDOF 8
ENDMDL
MODEL       77
REMARK 921   NORMALIZED FREE ENERGY PREDICTED BY IDOCK:   -5.15 KCAL/MOL
REMARK 922        TOTAL FREE ENERGY PREDICTED BY IDOCK:   -8.73 KCAL/MOL
REMARK 923 INTER-LIGAND FREE ENERGY PREDICTED BY IDOCK:   -7.90 KCAL/MOL
REMARK 924 INTRA-LIGAND FREE ENERGY PREDICTED BY IDOCK:   -0.83 KCAL/MOL
REMARK 927      BINDING AFFINITY PREDICTED BY RF-SCORE:    0.00 PKD
ROOT
HETATM    1  C   UNL     1      -9.211  19.197  66.300  1.00  0.00    -0.335 C  
HETATM    2  C   UNL     1      -9.377  18.113  67.383  1.00  0.00    -0.254 C  
HETATM    3  C   UNL     1      -9.189  18.814  68.738  1.00  0.00    -0.342 C  
ENDROOT
BRANCH   2   4
HETATM    4  N   UNL     1     -10.689  17.438  67.242  1.00  0.00    -0.276 NA 
HETATM    5  C   UNL     1     -10.755  16.575  66.032  1.00  0.00    -0.177 C  
HETATM    6  C   UNL     1      -9.943  15.265  66.123  1.00  0.00    -0.302 C  
HETATM    7  N   UNL     1     -10.381  14.493  67.297  1.00  0.00    -0.259 NA 
HETATM    8  C   UNL     1     -11.093  16.589  68.398  1.00  0.00    -0.333 C  
HETATM    9  C   UNL     1     -10.333  15.242  68.562  1.00  0.00    -0.231 C  
BRANCH   7  10
HETATM   10  C   UNL     1     -10.260  13.112  67.282  1.00  0.00    -0.243 A  
HETATM   11  C   UNL     1      -9.383  12.468  66.408  1.00  0.00    -0.209 A  
HETATM   12  C   UNL     1      -9.402  11.084  66.234  1.00  0.00    -0.206 A  
HETATM   13  C   UNL     1     -10.307  10.285  66.932  1.00  0.00    -0.239 A  
HETATM   14  C   UNL     1     -11.102  12.294  68.049  1.00  0.00    -0.285 A  
HETATM   15  C   UNL     1     -11.135  10.897  67.873  1.00  0.00    -0.362 A  
BRANCH  13  16
HETATM   16  O   UNL     1     -10.459   8.928  66.742  1.00  0.00    -0.260 OA 
BRANCH  16  17
HETATM   17  C   UNL     1      -9.303   8.285  66.194  1.00  0.00    -0.188 C  
BRANCH  17  18
HETATM   18  C   UNL     1      -8.546   7.415  67.191  1.00  0.00    -0.118 C  
HETATM   19  C   UNL     1      -7.214   7.986  67.603  1.00  0.00    -0.091 C  
HETATM   20  O   UNL     1      -7.057   7.557  68.955  1.00  0.00    -0.074 OA 
HETATM   21  C   UNL     1      -8.391   7.422  69.506  1.00  0.00    -0.132 C  
HETATM   22  O   UNL     1      -9.311   7.363  68.400  1.00  0.00    -0.144 OA 
BRANCH  21  23
HETATM   23  C   UNL     1      -8.513   6.118  70.299  1.00  0.00    -0.126 A  
HETATM   24  C   UNL     1      -7.396   5.633  71.015  1.00  0.00    -0.085 A  
HETATM   25  C   UNL     1      -9.701   5.359  70.375  1.00  0.00    -0.192 A  
HETATM   26  C   UNL     1      -7.474   4.487  71.810  1.00  0.00    -0.074 A  
HETATM   27  C   UNL     1      -9.783   4.220  71.188  1.00  0.00    -0.259 A  
HETATM   28 CL   UNL     1     -11.121   5.727  69.458  1.00  0.00    -0.395 Cl 
HETATM   29 CL   UNL     1      -8.785   2.412  72.923  1.00  0.00    -0.070 Cl 
HETATM   30  C   UNL     1      -8.674   3.797  71.909  1.00  0.00    -0.095 A  
ENDBRANCH  21  23
BRANCH  21  31
HETATM   31  C   UNL     1      -8.706   8.700  70.317  1.00  0.00    -0.147 C  
BRANCH  31  32
HETATM   32  N   UNL     1      -9.830   8.599  71.220  1.00  0.00    -0.214 NA 
HETATM   33  C   UNL     1     -11.146   8.802  70.937  1.00  0.00    -0.268 A  
HETATM   34  C   UNL     1     -10.954   7.959  72.844  1.00  0.00    -0.388 A  
HETATM   35  N   UNL     1     -11.881   8.418  71.953  1.00  0.00    -0.312 NA 
HETATM   36  N   UNL     1      -9.685   8.050  72.439  1.00  0.00    -0.214 NA 
ENDBRANCH  31  32
ENDBRANCH  21  31
ENDBRANCH  17  18
ENDBRANCH  16  17
ENDBRANCH  13  16
ENDBRANCH   7  10
ENDBRANCH   2   4
TORSDOF 8
ENDMDL
MODEL       78
REMARK 921   NORMALIZED FREE ENERGY PREDICTED BY IDOCK:   -5.15 KCAL/MOL
REMARK 922        TOTAL FREE ENERGY PREDICTED BY IDOCK:   -8.73 KCAL/MOL
REMARK 923 INTER-LIGAND FREE ENERGY PREDICTED BY IDOCK:   -8.43 KCAL/MOL
REMARK 924 INTRA-LIGAND FREE ENERGY PREDICTED BY IDOCK:   -0.30 KCAL/MOL
REMARK 927      BINDING AFFINITY PREDICTED BY RF-SCORE:    0.00 PKD
ROOT
HETATM    1  C   UNL     1      -9.885   3.413  71.925  1.00  0.00    -0.238 C  
HETATM    2  C   UNL     1      -9.218   4.759  71.578  1.00  0.00    -0.142 C  
HETATM    3  C   UNL     1      -7.700   4.522  71.628  1.00  0.00    -0.083 C  
ENDROOT
BRANCH   2   4
HETATM    4  N   UNL     1      -9.697   5.250  70.265  1.00  0.00    -0.180 NA 
HETATM    5  C   UNL     1     -11.117   5.695  70.309  1.00  0.00    -0.134 C  
HETATM    6  C   UNL     1     -11.356   7.031  71.045  1.00  0.00    -0.287 C  
HETATM    7  N   UNL     1     -10.535   8.087  70.431  1.00  0.00    -0.214 NA 
HETATM    8  C   UNL     1      -8.913   6.376  69.684  1.00  0.00    -0.137 C  
HETATM    9  C   UNL     1      -9.101   7.766  70.357  1.00  0.00    -0.155 C  
BRANCH   7  10
HETATM   10  C   UNL     1     -10.968   9.402  70.492  1.00  0.00    -0.274 A  
HETATM   11  C   UNL     1     -12.164   9.746  71.124  1.00  0.00    -0.453 A  
HETATM   12  C   UNL     1     -12.714  11.022  71.012  1.00  0.00    -0.485 A  
HETATM   13  C   UNL     1     -12.085  12.012  70.257  1.00  0.00    -0.312 A  
HETATM   14  C   UNL     1     -10.294  10.427  69.812  1.00  0.00    -0.252 A  
HETATM   15  C   UNL     1     -10.847  11.716  69.686  1.00  0.00    -0.001 A  
BRANCH  13  16
HETATM   16  O   UNL     1     -12.613  13.261  70.012  1.00  0.00    -0.151 OA 
BRANCH  16  17
HETATM   17  C   UNL     1     -11.970  13.965  68.944  1.00  0.00    -0.358 C  
BRANCH  17  18
HETATM   18  C   UNL     1     -11.938  13.199  67.626  1.00  0.00    -0.315 C  
HETATM   19  C   UNL     1     -12.786  13.818  66.546  1.00  0.00    -0.024 C  
HETATM   20  O   UNL     1     -12.083  13.519  65.340  1.00  0.00    -0.368 OA 
HETATM   21  C   UNL     1     -10.680  13.424  65.689  1.00  0.00    -0.277 C  
HETATM   22  O   UNL     1     -10.600  13.254  67.117  1.00  0.00    -0.256 OA 
BRANCH  21  23
HETATM   23  C   UNL     1     -10.044  12.200  65.027  1.00  0.00    -0.289 A  
HETATM   24  C   UNL     1     -10.586  11.703  63.820  1.00  0.00    -0.473 A  
HETATM   25  C   UNL     1      -8.916  11.528  65.545  1.00  0.00    -0.031 A  
HETATM   26  C   UNL     1     -10.003  10.632  63.138  1.00  0.00    -0.286 A  
HETATM   27  C   UNL     1      -8.320  10.466  64.851  1.00  0.00    -0.165 A  
HETATM   28 CL   UNL     1      -8.206  11.912  67.076  1.00  0.00    -0.167 Cl 
HETATM   29 CL   UNL     1      -8.114   8.744  62.785  1.00  0.00    -0.166 Cl 
HETATM   30  C   UNL     1      -8.860  10.032  63.646  1.00  0.00    -0.232 A  
ENDBRANCH  21  23
BRANCH  21  31
HETATM   31  C   UNL     1     -10.006  14.770  65.335  1.00  0.00    -0.334 C  
BRANCH  31  32
HETATM   32  N   UNL     1      -9.527  15.538  66.462  1.00  0.00    -0.252 NA 
HETATM   33  C   UNL     1      -8.285  15.514  67.019  1.00  0.00    -0.240 A  
HETATM   34  C   UNL     1      -9.382  17.113  67.807  1.00  0.00    -0.245 A  
HETATM   35  N   UNL     1      -8.169  16.493  67.884  1.00  0.00    -0.166 NA 
HETATM   36  N   UNL     1     -10.246  16.564  66.950  1.00  0.00    -0.290 NA 
ENDBRANCH  31  32
ENDBRANCH  21  31
ENDBRANCH  17  18
ENDBRANCH  16  17
ENDBRANCH  13  16
ENDBRANCH   7  10
ENDBRANCH   2   4
TORSDOF 8
ENDMDL
MODEL       79
REMARK 921   NORMALIZED FREE ENERGY PREDICTED BY IDOCK:   -5.14 KCAL/MOL
REMARK 922        TOTAL FREE ENERGY PREDICTED BY IDOCK:   -8.72 KCAL/MOL
REMARK 923 INTER-LIGAND FREE ENERGY PREDICTED BY IDOCK:   -7.93 KCAL/MOL
REMARK 924 INTRA-LIGAND FREE ENERGY PREDICTED BY IDOCK:   -0.80 KCAL/MOL
REMARK 927      BINDING AFFINITY PREDICTED BY RF-SCORE:    0.00 PKD
ROOT
HETATM    1  C   UNL     1      -9.533   2.385  70.419  1.00  0.00    -0.169 C  
HETATM    2  C   UNL     1      -9.091   3.856  70.550  1.00  0.00    -0.116 C  
HETATM    3  C   UNL     1      -9.063   4.174  72.054  1.00  0.00    -0.160 C  
ENDROOT
BRANCH   2   4
HETATM    4  N   UNL     1      -7.787   4.066  69.877  1.00  0.00    -0.052 NA 
HETATM    5  C   UNL     1      -7.855   3.802  68.415  1.00  0.00    -0.068 C  
HETATM    6  C   UNL     1      -8.601   4.877  67.594  1.00  0.00    -0.103 C  
HETATM    7  N   UNL     1      -7.980   6.192  67.824  1.00  0.00    -0.105 NA 
HETATM    8  C   UNL     1      -7.200   5.426  70.041  1.00  0.00    -0.063 C  
HETATM    9  C   UNL     1      -7.883   6.572  69.241  1.00  0.00    -0.110 C  
BRANCH   7  10
HETATM   10  C   UNL     1      -8.054   7.156  66.831  1.00  0.00    -0.116 A  
HETATM   11  C   UNL     1      -6.940   7.913  66.466  1.00  0.00    -0.071 A  
HETATM   12  C   UNL     1      -7.047   9.021  65.626  1.00  0.00    -0.081 A  
HETATM   13  C   UNL     1      -8.282   9.419  65.115  1.00  0.00    -0.135 A  
HETATM   14  C   UNL     1      -9.278   7.506  66.240  1.00  0.00    -0.194 A  
HETATM   15  C   UNL     1      -9.396   8.629  65.398  1.00  0.00    -0.022 A  
BRANCH  13  16
HETATM   16  O   UNL     1      -8.487  10.557  64.365  1.00  0.00    -0.174 OA 
BRANCH  16  17
HETATM   17  C   UNL     1      -9.317  11.533  65.005  1.00  0.00    -0.089 C  
BRANCH  17  18
HETATM   18  C   UNL     1      -9.278  11.479  66.529  1.00  0.00    -0.194 C  
HETATM   19  C   UNL     1      -8.528  12.625  67.155  1.00  0.00    -0.186 C  
HETATM   20  O   UNL     1      -9.208  12.852  68.389  1.00  0.00    -0.198 OA 
HETATM   21  C   UNL     1     -10.585  12.446  68.185  1.00  0.00    -0.216 C  
HETATM   22  O   UNL     1     -10.620  11.616  67.009  1.00  0.00    -0.218 OA 
BRANCH  21  23
HETATM   23  C   UNL     1     -11.079  11.614  69.370  1.00  0.00    -0.268 A  
HETATM   24  C   UNL     1     -12.142  12.101  70.164  1.00  0.00    -0.368 A  
HETATM   25  C   UNL     1     -10.542  10.357  69.722  1.00  0.00    -0.258 A  
HETATM   26  C   UNL     1     -12.678  11.351  71.215  1.00  0.00    -0.498 A  
HETATM   27  C   UNL     1     -11.093   9.598  70.764  1.00  0.00    -0.403 A  
HETATM   28 CL   UNL     1      -9.154   9.671  68.949  1.00  0.00    -0.139 Cl 
HETATM   29 CL   UNL     1     -12.852   9.150  72.759  1.00  0.00    -0.291 Cl 
HETATM   30  C   UNL     1     -12.164  10.093  71.496  1.00  0.00    -0.380 A  
ENDBRANCH  21  23
BRANCH  21  31
HETATM   31  C   UNL     1     -11.420  13.714  67.894  1.00  0.00    -0.314 C  
BRANCH  31  32
HETATM   32  N   UNL     1     -11.671  13.984  66.497  1.00  0.00    -0.374 NA 
HETATM   33  C   UNL     1     -12.770  13.645  65.767  1.00  0.00    -0.416 A  
HETATM   34  C   UNL     1     -11.568  14.959  64.667  1.00  0.00    -0.395 A  
HETATM   35  N   UNL     1     -12.725  14.238  64.599  1.00  0.00    -0.662 NA 
HETATM   36  N   UNL     1     -10.889  14.834  65.809  1.00  0.00    -0.318 NA 
ENDBRANCH  31  32
ENDBRANCH  21  31
ENDBRANCH  17  18
ENDBRANCH  16  17
ENDBRANCH  13  16
ENDBRANCH   7  10
ENDBRANCH   2   4
TORSDOF 8
ENDMDL
MODEL       80
REMARK 921   NORMALIZED FREE ENERGY PREDICTED BY IDOCK:   -5.11 KCAL/MOL
REMARK 922        TOTAL FREE ENERGY PREDICTED BY IDOCK:   -8.67 KCAL/MOL
REMARK 923 INTER-LIGAND FREE ENERGY PREDICTED BY IDOCK:   -7.63 KCAL/MOL
REMARK 924 INTRA-LIGAND FREE ENERGY PREDICTED BY IDOCK:   -1.03 KCAL/MOL
REMARK 927      BINDING AFFINITY PREDICTED BY RF-SCORE:    0.00 PKD
ROOT
HETATM    1  C   UNL     1     -10.852  15.578  64.831  1.00  0.00    -0.447 C  
HETATM    2  C   UNL     1      -9.736  14.832  65.588  1.00  0.00    -0.278 C  
HETATM    3  C   UNL     1      -8.816  15.909  66.187  1.00  0.00    -0.363 C  
ENDROOT
BRANCH   2   4
HETATM    4  N   UNL     1     -10.318  13.921  66.602  1.00  0.00    -0.275 NA 
HETATM    5  C   UNL     1     -10.996  12.747  65.987  1.00  0.00    -0.278 C  
HETATM    6  C   UNL     1     -10.045  11.688  65.388  1.00  0.00    -0.259 C  
HETATM    7  N   UNL     1      -9.110  11.222  66.425  1.00  0.00    -0.186 NA 
HETATM    8  C   UNL     1      -9.352  13.383  67.601  1.00  0.00    -0.217 C  
HETATM    9  C   UNL     1      -8.361  12.300  67.087  1.00  0.00    -0.183 C  
BRANCH   7  10
HETATM   10  C   UNL     1      -8.588   9.941  66.337  1.00  0.00    -0.128 A  
HETATM   11  C   UNL     1      -9.341   8.880  65.831  1.00  0.00    -0.301 A  
HETATM   12  C   UNL     1      -8.909   7.558  65.930  1.00  0.00    -0.157 A  
HETATM   13  C   UNL     1      -7.698   7.243  66.546  1.00  0.00    -0.093 A  
HETATM   14  C   UNL     1      -7.329   9.625  66.870  1.00  0.00    -0.091 A  
HETATM   15  C   UNL     1      -6.890   8.292  66.983  1.00  0.00    -0.070 A  
BRANCH  13  16
HETATM   16  O   UNL     1      -7.249   5.960  66.775  1.00  0.00    -0.068 OA 
BRANCH  16  17
HETATM   17  C   UNL     1      -7.514   5.480  68.099  1.00  0.00    -0.073 C  
BRANCH  17  18
HETATM   18  C   UNL     1      -8.908   5.819  68.615  1.00  0.00    -0.110 C  
HETATM   19  C   UNL     1      -9.647   4.634  69.180  1.00  0.00    -0.175 C  
HETATM   20  O   UNL     1     -10.445   5.191  70.225  1.00  0.00    -0.275 OA 
HETATM   21  C   UNL     1      -9.734   6.355  70.716  1.00  0.00    -0.180 C  
HETATM   22  O   UNL     1      -8.761   6.719  69.719  1.00  0.00    -0.139 OA 
BRANCH  21  23
HETATM   23  C   UNL     1     -10.695   7.532  70.897  1.00  0.00    -0.244 A  
HETATM   24  C   UNL     1     -11.999   7.296  71.387  1.00  0.00    -0.354 A  
HETATM   25  C   UNL     1     -10.351   8.872  70.616  1.00  0.00    -0.215 A  
HETATM   26  C   UNL     1     -12.891   8.341  71.637  1.00  0.00    -0.350 A  
HETATM   27  C   UNL     1     -11.240   9.922  70.885  1.00  0.00    -0.433 A  
HETATM   28 CL   UNL     1      -8.852   9.331  69.884  1.00  0.00    -0.175 Cl 
HETATM   29 CL   UNL     1     -13.580  10.944  71.754  1.00  0.00    -0.234 Cl 
HETATM   30  C   UNL     1     -12.500   9.652  71.404  1.00  0.00    -0.373 A  
ENDBRANCH  21  23
BRANCH  21  31
HETATM   31  C   UNL     1      -8.970   5.944  71.996  1.00  0.00    -0.137 C  
BRANCH  31  32
HETATM   32  N   UNL     1      -8.221   7.001  72.636  1.00  0.00    -0.108 NA 
HETATM   33  C   UNL     1      -8.464   7.580  73.844  1.00  0.00    -0.206 A  
HETATM   34  C   UNL     1      -6.595   8.193  73.130  1.00  0.00    -0.094 A  
HETATM   35  N   UNL     1      -7.457   8.351  74.176  1.00  0.00    -0.303 NA 
HETATM   36  N   UNL     1      -7.020   7.377  72.163  1.00  0.00    -0.062 NA 
ENDBRANCH  31  32
ENDBRANCH  21  31
ENDBRANCH  17  18
ENDBRANCH  16  17
ENDBRANCH  13  16
ENDBRANCH   7  10
ENDBRANCH   2   4
TORSDOF 8
ENDMDL
MODEL       81
REMARK 921   NORMALIZED FREE ENERGY PREDICTED BY IDOCK:   -5.10 KCAL/MOL
REMARK 922        TOTAL FREE ENERGY PREDICTED BY IDOCK:   -8.66 KCAL/MOL
REMARK 923 INTER-LIGAND FREE ENERGY PREDICTED BY IDOCK:   -8.39 KCAL/MOL
REMARK 924 INTRA-LIGAND FREE ENERGY PREDICTED BY IDOCK:   -0.26 KCAL/MOL
REMARK 927      BINDING AFFINITY PREDICTED BY RF-SCORE:    0.00 PKD
ROOT
HETATM    1  C   UNL     1      -8.728   2.897  66.547  1.00  0.00    -0.134 C  
HETATM    2  C   UNL     1      -9.320   3.095  67.957  1.00  0.00    -0.194 C  
HETATM    3  C   UNL     1      -9.560   1.690  68.533  1.00  0.00    -0.188 C  
ENDROOT
BRANCH   2   4
HETATM    4  N   UNL     1      -8.416   3.928  68.785  1.00  0.00    -0.077 NA 
HETATM    5  C   UNL     1      -8.295   5.319  68.269  1.00  0.00    -0.097 C  
HETATM    6  C   UNL     1      -9.538   6.207  68.496  1.00  0.00    -0.119 C  
HETATM    7  N   UNL     1      -9.860   6.246  69.932  1.00  0.00    -0.165 NA 
HETATM    8  C   UNL     1      -8.792   4.036  70.222  1.00  0.00    -0.086 C  
HETATM    9  C   UNL     1     -10.029   4.921  70.547  1.00  0.00    -0.241 C  
BRANCH   7  10
HETATM   10  C   UNL     1     -10.504   7.359  70.449  1.00  0.00    -0.221 A  
HETATM   11  C   UNL     1     -11.842   7.309  70.844  1.00  0.00    -0.351 A  
HETATM   12  C   UNL     1     -12.558   8.462  71.166  1.00  0.00    -0.156 A  
HETATM   13  C   UNL     1     -11.959   9.720  71.104  1.00  0.00    -0.376 A  
HETATM   14  C   UNL     1      -9.883   8.617  70.479  1.00  0.00    -0.210 A  
HETATM   15  C   UNL     1     -10.601   9.787  70.794  1.00  0.00    -0.371 A  
BRANCH  13  16
HETATM   16  O   UNL     1     -12.622  10.911  71.305  1.00  0.00    -0.377 OA 
BRANCH  16  17
HETATM   17  C   UNL     1     -11.920  12.058  70.813  1.00  0.00    -0.050 C  
BRANCH  17  18
HETATM   18  C   UNL     1     -11.981  12.221  69.298  1.00  0.00    -0.253 C  
HETATM   19  C   UNL     1     -12.465  13.576  68.855  1.00  0.00     0.252 C  
HETATM   20  O   UNL     1     -11.760  13.815  67.637  1.00  0.00    -0.325 OA 
HETATM   21  C   UNL     1     -10.506  13.096  67.736  1.00  0.00    -0.228 C  
HETATM   22  O   UNL     1     -10.645  12.127  68.791  1.00  0.00    -0.229 OA 
BRANCH  21  23
HETATM   23  C   UNL     1     -10.214  12.346  66.434  1.00  0.00    -0.253 A  
HETATM   24  C   UNL     1      -8.979  11.679  66.279  1.00  0.00    -0.194 A  
HETATM   25  C   UNL     1     -11.126  12.262  65.360  1.00  0.00    -0.311 A  
HETATM   26  C   UNL     1      -8.690  10.922  65.140  1.00  0.00    -0.130 A  
HETATM   27  C   UNL     1     -10.843  11.487  64.226  1.00  0.00    -0.421 A  
HETATM   28 CL   UNL     1     -12.624  13.125  65.320  1.00  0.00    -0.546 Cl 
HETATM   29 CL   UNL     1      -9.297   9.844  62.747  1.00  0.00    -0.294 Cl 
HETATM   30  C   UNL     1      -9.632  10.812  64.128  1.00  0.00    -0.284 A  
ENDBRANCH  21  23
BRANCH  21  31
HETATM   31  C   UNL     1      -9.410  14.102  68.159  1.00  0.00    -0.206 C  
BRANCH  31  32
HETATM   32  N   UNL     1      -9.510  15.414  67.561  1.00  0.00    -0.204 NA 
HETATM   33  C   UNL     1      -9.345  15.748  66.251  1.00  0.00    -0.325 A  
HETATM   34  C   UNL     1     -10.128  17.379  67.304  1.00  0.00    -0.310 A  
HETATM   35  N   UNL     1      -9.717  16.991  66.061  1.00  0.00    -0.483 NA 
HETATM   36  N   UNL     1     -10.019  16.448  68.254  1.00  0.00    -0.237 NA 
ENDBRANCH  31  32
ENDBRANCH  21  31
ENDBRANCH  17  18
ENDBRANCH  16  17
ENDBRANCH  13  16
ENDBRANCH   7  10
ENDBRANCH   2   4
TORSDOF 8
ENDMDL
MODEL       82
REMARK 921   NORMALIZED FREE ENERGY PREDICTED BY IDOCK:   -5.09 KCAL/MOL
REMARK 922        TOTAL FREE ENERGY PREDICTED BY IDOCK:   -8.64 KCAL/MOL
REMARK 923 INTER-LIGAND FREE ENERGY PREDICTED BY IDOCK:   -8.60 KCAL/MOL
REMARK 924 INTRA-LIGAND FREE ENERGY PREDICTED BY IDOCK:   -0.05 KCAL/MOL
REMARK 927      BINDING AFFINITY PREDICTED BY RF-SCORE:    0.00 PKD
ROOT
HETATM    1  C   UNL     1      -9.168   4.299  74.468  1.00  0.00    -0.115 C  
HETATM    2  C   UNL     1      -8.988   4.209  72.939  1.00  0.00    -0.105 C  
HETATM    3  C   UNL     1      -8.301   2.863  72.656  1.00  0.00    -0.071 C  
ENDROOT
BRANCH   2   4
HETATM    4  N   UNL     1     -10.295   4.362  72.256  1.00  0.00    -0.182 NA 
HETATM    5  C   UNL     1     -11.280   5.116  73.078  1.00  0.00    -0.322 C  
HETATM    6  C   UNL     1     -11.009   6.633  73.186  1.00  0.00    -0.231 C  
HETATM    7  N   UNL     1     -10.948   7.221  71.838  1.00  0.00    -0.227 NA 
HETATM    8  C   UNL     1     -10.241   5.034  70.927  1.00  0.00    -0.217 C  
HETATM    9  C   UNL     1      -9.983   6.568  70.941  1.00  0.00    -0.184 C  
BRANCH   7  10
HETATM   10  C   UNL     1     -11.294   8.552  71.666  1.00  0.00    -0.295 A  
HETATM   11  C   UNL     1     -12.508   9.056  72.136  1.00  0.00    -0.450 A  
HETATM   12  C   UNL     1     -12.959  10.329  71.789  1.00  0.00    -0.574 A  
HETATM   13  C   UNL     1     -12.209  11.153  70.950  1.00  0.00    -0.364 A  
HETATM   14  C   UNL     1     -10.503   9.421  70.900  1.00  0.00    -0.381 A  
HETATM   15  C   UNL     1     -10.955  10.704  70.537  1.00  0.00    -0.059 A  
BRANCH  13  16
HETATM   16  O   UNL     1     -12.631  12.378  70.479  1.00  0.00    -0.206 OA 
BRANCH  16  17
HETATM   17  C   UNL     1     -11.685  13.026  69.620  1.00  0.00    -0.297 C  
BRANCH  17  18
HETATM   18  C   UNL     1     -11.581  12.407  68.231  1.00  0.00    -0.333 C  
HETATM   19  C   UNL     1     -12.375  13.139  67.181  1.00  0.00    -0.031 C  
HETATM   20  O   UNL     1     -11.609  12.972  65.988  1.00  0.00    -0.331 OA 
HETATM   21  C   UNL     1     -10.225  12.841  66.398  1.00  0.00    -0.253 C  
HETATM   22  O   UNL     1     -10.219  12.517  67.801  1.00  0.00    -0.208 OA 
BRANCH  21  23
HETATM   23  C   UNL     1      -9.549  11.695  65.641  1.00  0.00    -0.252 A  
HETATM   24  C   UNL     1      -8.474  11.004  66.243  1.00  0.00    -0.165 A  
HETATM   25  C   UNL     1      -9.948  11.264  64.358  1.00  0.00    -0.288 A  
HETATM   26  C   UNL     1      -7.868   9.907  65.626  1.00  0.00    -0.127 A  
HETATM   27  C   UNL     1      -9.352  10.151  63.747  1.00  0.00    -0.336 A  
HETATM   28 CL   UNL     1     -11.151  12.077  63.417  1.00  0.00    -0.483 Cl 
HETATM   29 CL   UNL     1      -7.609   8.095  63.649  1.00  0.00    -0.124 Cl 
HETATM   30  C   UNL     1      -8.324   9.473  64.389  1.00  0.00    -0.171 A  
ENDBRANCH  21  23
BRANCH  21  31
HETATM   31  C   UNL     1      -9.542  14.217  66.227  1.00  0.00    -0.288 C  
BRANCH  31  32
HETATM   32  N   UNL     1      -8.756  14.663  67.355  1.00  0.00    -0.185 NA 
HETATM   33  C   UNL     1      -9.170  15.412  68.414  1.00  0.00    -0.192 A  
HETATM   34  C   UNL     1      -7.253  14.658  68.787  1.00  0.00    -0.124 A  
HETATM   35  N   UNL     1      -8.233  15.437  69.331  1.00  0.00    -0.249 NA 
HETATM   36  N   UNL     1      -7.529  14.162  67.579  1.00  0.00    -0.175 NA 
ENDBRANCH  31  32
ENDBRANCH  21  31
ENDBRANCH  17  18
ENDBRANCH  16  17
ENDBRANCH  13  16
ENDBRANCH   7  10
ENDBRANCH   2   4
TORSDOF 8
ENDMDL
MODEL       83
REMARK 921   NORMALIZED FREE ENERGY PREDICTED BY IDOCK:   -5.09 KCAL/MOL
REMARK 922        TOTAL FREE ENERGY PREDICTED BY IDOCK:   -8.64 KCAL/MOL
REMARK 923 INTER-LIGAND FREE ENERGY PREDICTED BY IDOCK:   -7.45 KCAL/MOL
REMARK 924 INTRA-LIGAND FREE ENERGY PREDICTED BY IDOCK:   -1.18 KCAL/MOL
REMARK 927      BINDING AFFINITY PREDICTED BY RF-SCORE:    0.00 PKD
ROOT
HETATM    1  C   UNL     1     -12.243  13.458  63.399  1.00  0.00    -0.419 C  
HETATM    2  C   UNL     1     -11.476  14.058  64.595  1.00  0.00    -0.383 C  
HETATM    3  C   UNL     1     -11.410  15.576  64.357  1.00  0.00    -0.260 C  
ENDROOT
BRANCH   2   4
HETATM    4  N   UNL     1     -12.134  13.687  65.870  1.00  0.00    -0.411 NA 
HETATM    5  C   UNL     1     -12.148  12.216  66.093  1.00  0.00     0.015 C  
HETATM    6  C   UNL     1     -10.782  11.601  66.466  1.00  0.00    -0.272 C  
HETATM    7  N   UNL     1     -10.251  12.270  67.665  1.00  0.00    -0.200 NA 
HETATM    8  C   UNL     1     -11.541  14.300  67.091  1.00  0.00    -0.380 C  
HETATM    9  C   UNL     1     -10.166  13.734  67.549  1.00  0.00    -0.241 C  
BRANCH   7  10
HETATM   10  C   UNL     1      -9.400  11.572  68.507  1.00  0.00    -0.170 A  
HETATM   11  C   UNL     1      -8.015  11.612  68.340  1.00  0.00    -0.140 A  
HETATM   12  C   UNL     1      -7.165  10.756  69.040  1.00  0.00    -0.096 A  
HETATM   13  C   UNL     1      -7.671   9.819  69.940  1.00  0.00    -0.157 A  
HETATM   14  C   UNL     1      -9.894  10.693  69.482  1.00  0.00    -0.115 A  
HETATM   15  C   UNL     1      -9.044   9.819  70.186  1.00  0.00    -0.240 A  
BRANCH  13  16
HETATM   16  O   UNL     1      -6.910   8.873  70.592  1.00  0.00    -0.043 OA 
BRANCH  16  17
HETATM   17  C   UNL     1      -7.681   7.874  71.269  1.00  0.00    -0.086 C  
BRANCH  17  18
HETATM   18  C   UNL     1      -7.778   6.550  70.519  1.00  0.00    -0.105 C  
HETATM   19  C   UNL     1      -8.013   5.363  71.417  1.00  0.00    -0.115 C  
HETATM   20  O   UNL     1      -8.806   4.480  70.623  1.00  0.00    -0.095 OA 
HETATM   21  C   UNL     1      -9.566   5.311  69.711  1.00  0.00    -0.167 C  
HETATM   22  O   UNL     1      -8.935   6.605  69.677  1.00  0.00    -0.141 OA 
BRANCH  21  23
HETATM   23  C   UNL     1      -9.533   4.726  68.298  1.00  0.00    -0.191 A  
HETATM   24  C   UNL     1      -8.944   3.460  68.084  1.00  0.00    -0.182 A  
HETATM   25  C   UNL     1     -10.078   5.376  67.170  1.00  0.00    -0.198 A  
HETATM   26  C   UNL     1      -8.948   2.850  66.827  1.00  0.00    -0.174 A  
HETATM   27  C   UNL     1     -10.099   4.755  65.913  1.00  0.00    -0.265 A  
HETATM   28 CL   UNL     1     -10.714   6.984  67.219  1.00  0.00    -0.388 Cl 
HETATM   29 CL   UNL     1      -9.593   2.722  64.214  1.00  0.00    -0.150 Cl 
HETATM   30  C   UNL     1      -9.545   3.492  65.751  1.00  0.00    -0.104 A  
ENDBRANCH  21  23
BRANCH  21  31
HETATM   31  C   UNL     1     -10.985   5.493  70.300  1.00  0.00    -0.136 C  
BRANCH  31  32
HETATM   32  N   UNL     1     -11.153   6.634  71.170  1.00  0.00    -0.266 NA 
HETATM   33  C   UNL     1     -11.720   7.835  70.868  1.00  0.00    -0.265 A  
HETATM   34  C   UNL     1     -11.404   7.702  72.933  1.00  0.00    -0.341 A  
HETATM   35  N   UNL     1     -11.878   8.538  71.963  1.00  0.00    -0.336 NA 
HETATM   36  N   UNL     1     -10.949   6.526  72.494  1.00  0.00    -0.238 NA 
ENDBRANCH  31  32
ENDBRANCH  21  31
ENDBRANCH  17  18
ENDBRANCH  16  17
ENDBRANCH  13  16
ENDBRANCH   7  10
ENDBRANCH   2   4
TORSDOF 8
ENDMDL
MODEL       84
REMARK 921   NORMALIZED FREE ENERGY PREDICTED BY IDOCK:   -5.07 KCAL/MOL
REMARK 922        TOTAL FREE ENERGY PREDICTED BY IDOCK:   -8.62 KCAL/MOL
REMARK 923 INTER-LIGAND FREE ENERGY PREDICTED BY IDOCK:   -8.42 KCAL/MOL
REMARK 924 INTRA-LIGAND FREE ENERGY PREDICTED BY IDOCK:   -0.20 KCAL/MOL
REMARK 927      BINDING AFFINITY PREDICTED BY RF-SCORE:    0.00 PKD
ROOT
HETATM    1  C   UNL     1      -9.219   2.864  70.722  1.00  0.00    -0.205 C  
HETATM    2  C   UNL     1      -9.290   3.399  72.167  1.00  0.00    -0.119 C  
HETATM    3  C   UNL     1      -7.858   3.347  72.725  1.00  0.00    -0.068 C  
ENDROOT
BRANCH   2   4
HETATM    4  N   UNL     1      -9.884   4.756  72.187  1.00  0.00    -0.166 NA 
HETATM    5  C   UNL     1      -8.900   5.800  72.584  1.00  0.00    -0.125 C  
HETATM    6  C   UNL     1      -7.840   6.135  71.512  1.00  0.00    -0.102 C  
HETATM    7  N   UNL     1      -8.510   6.546  70.267  1.00  0.00    -0.134 NA 
HETATM    8  C   UNL     1     -10.487   5.203  70.900  1.00  0.00    -0.187 C  
HETATM    9  C   UNL     1      -9.492   5.574  69.763  1.00  0.00    -0.149 C  
BRANCH   7  10
HETATM   10  C   UNL     1      -7.859   7.413  69.404  1.00  0.00    -0.122 A  
HETATM   11  C   UNL     1      -6.867   8.285  69.858  1.00  0.00    -0.043 A  
HETATM   12  C   UNL     1      -6.356   9.301  69.051  1.00  0.00    -0.043 A  
HETATM   13  C   UNL     1      -6.821   9.488  67.750  1.00  0.00    -0.078 A  
HETATM   14  C   UNL     1      -8.255   7.548  68.065  1.00  0.00    -0.124 A  
HETATM   15  C   UNL     1      -7.751   8.577  67.247  1.00  0.00    -0.097 A  
BRANCH  13  16
HETATM   16  O   UNL     1      -6.444  10.527  66.927  1.00  0.00    -0.071 OA 
BRANCH  16  17
HETATM   17  C   UNL     1      -7.539  11.317  66.449  1.00  0.00    -0.072 C  
BRANCH  17  18
HETATM   18  C   UNL     1      -8.116  12.273  67.488  1.00  0.00    -0.170 C  
HETATM   19  C   UNL     1      -7.574  13.675  67.385  1.00  0.00    -0.130 C  
HETATM   20  O   UNL     1      -8.667  14.498  67.793  1.00  0.00    -0.160 OA 
HETATM   21  C   UNL     1      -9.878  13.781  67.450  1.00  0.00    -0.238 C  
HETATM   22  O   UNL     1      -9.519  12.404  67.234  1.00  0.00    -0.183 OA 
BRANCH  21  23
HETATM   23  C   UNL     1     -10.880  13.838  68.606  1.00  0.00    -0.280 A  
HETATM   24  C   UNL     1     -11.420  12.636  69.116  1.00  0.00    -0.359 A  
HETATM   25  C   UNL     1     -11.297  15.038  69.220  1.00  0.00    -0.296 A  
HETATM   26  C   UNL     1     -12.284  12.626  70.214  1.00  0.00    -0.347 A  
HETATM   27  C   UNL     1     -12.149  15.026  70.334  1.00  0.00    -0.384 A  
HETATM   28 CL   UNL     1     -10.846  16.604  68.641  1.00  0.00    -0.340 Cl 
HETATM   29 CL   UNL     1     -13.654  13.807  72.211  1.00  0.00    -0.601 Cl 
HETATM   30  C   UNL     1     -12.628  13.820  70.831  1.00  0.00    -0.356 A  
ENDBRANCH  21  23
BRANCH  21  31
HETATM   31  C   UNL     1     -10.407  14.347  66.111  1.00  0.00    -0.298 C  
BRANCH  31  32
HETATM   32  N   UNL     1     -11.109  13.402  65.273  1.00  0.00    -0.287 NA 
HETATM   33  C   UNL     1     -12.439  13.107  65.284  1.00  0.00    -0.495 A  
HETATM   34  C   UNL     1     -11.534  12.238  63.608  1.00  0.00    -0.490 A  
HETATM   35  N   UNL     1     -12.734  12.360  64.247  1.00  0.00    -0.685 NA 
HETATM   36  N   UNL     1     -10.511  12.859  64.199  1.00  0.00    -0.420 NA 
ENDBRANCH  31  32
ENDBRANCH  21  31
ENDBRANCH  17  18
ENDBRANCH  16  17
ENDBRANCH  13  16
ENDBRANCH   7  10
ENDBRANCH   2   4
TORSDOF 8
ENDMDL
MODEL       85
REMARK 921   NORMALIZED FREE ENERGY PREDICTED BY IDOCK:   -5.04 KCAL/MOL
REMARK 922        TOTAL FREE ENERGY PREDICTED BY IDOCK:   -8.58 KCAL/MOL
REMARK 923 INTER-LIGAND FREE ENERGY PREDICTED BY IDOCK:   -8.33 KCAL/MOL
REMARK 924 INTRA-LIGAND FREE ENERGY PREDICTED BY IDOCK:   -0.25 KCAL/MOL
REMARK 927      BINDING AFFINITY PREDICTED BY RF-SCORE:    0.00 PKD
ROOT
HETATM    1  C   UNL     1      -8.757   2.997  72.952  1.00  0.00    -0.085 C  
HETATM    2  C   UNL     1      -9.920   4.000  72.814  1.00  0.00    -0.150 C  
HETATM    3  C   UNL     1     -11.197   3.254  73.235  1.00  0.00    -0.190 C  
ENDROOT
BRANCH   2   4
HETATM    4  N   UNL     1      -9.653   5.216  73.618  1.00  0.00    -0.132 NA 
HETATM    5  C   UNL     1      -8.337   5.831  73.295  1.00  0.00    -0.116 C  
HETATM    6  C   UNL     1      -8.275   6.558  71.934  1.00  0.00    -0.108 C  
HETATM    7  N   UNL     1      -9.322   7.591  71.879  1.00  0.00    -0.142 NA 
HETATM    8  C   UNL     1     -10.672   6.295  73.495  1.00  0.00    -0.242 C  
HETATM    9  C   UNL     1     -10.677   7.090  72.158  1.00  0.00    -0.218 C  
BRANCH   7  10
HETATM   10  C   UNL     1      -9.126   8.710  71.085  1.00  0.00    -0.209 A  
HETATM   11  C   UNL     1     -10.199   9.482  70.636  1.00  0.00    -0.364 A  
HETATM   12  C   UNL     1     -10.037  10.477  69.674  1.00  0.00    -0.177 A  
HETATM   13  C   UNL     1      -8.786  10.740  69.115  1.00  0.00    -0.091 A  
HETATM   14  C   UNL     1      -7.857   9.042  70.589  1.00  0.00    -0.147 A  
HETATM   15  C   UNL     1      -7.686  10.039  69.609  1.00  0.00    -0.158 A  
BRANCH  13  16
HETATM   16  O   UNL     1      -8.560  11.632  68.089  1.00  0.00    -0.145 OA 
BRANCH  16  17
HETATM   17  C   UNL     1      -9.673  11.790  67.202  1.00  0.00    -0.183 C  
BRANCH  17  18
HETATM   18  C   UNL     1     -10.211  13.215  67.129  1.00  0.00    -0.244 C  
HETATM   19  C   UNL     1     -11.638  13.346  67.594  1.00  0.00    -0.340 C  
HETATM   20  O   UNL     1     -11.693  14.648  68.179  1.00  0.00    -0.317 OA 
HETATM   21  C   UNL     1     -10.364  14.934  68.680  1.00  0.00    -0.237 C  
HETATM   22  O   UNL     1      -9.455  14.019  68.042  1.00  0.00    -0.193 OA 
BRANCH  21  23
HETATM   23  C   UNL     1      -9.947  16.359  68.308  1.00  0.00    -0.243 A  
HETATM   24  C   UNL     1     -10.889  17.224  67.708  1.00  0.00    -0.261 A  
HETATM   25  C   UNL     1      -8.657  16.882  68.543  1.00  0.00    -0.251 A  
HETATM   26  C   UNL     1     -10.581  18.554  67.412  1.00  0.00    -0.463 A  
HETATM   27  C   UNL     1      -8.355  18.222  68.263  1.00  0.00    -0.316 A  
HETATM   28 CL   UNL     1      -7.344  15.929  69.142  1.00  0.00    -0.186 Cl 
HETATM   29 CL   UNL     1      -8.955  20.702  67.389  1.00  0.00    -0.423 Cl 
HETATM   30  C   UNL     1      -9.321  19.053  67.710  1.00  0.00    -0.302 A  
ENDBRANCH  21  23
BRANCH  21  31
HETATM   31  C   UNL     1     -10.350  14.635  70.198  1.00  0.00     0.302 C  
BRANCH  31  32
HETATM   32  N   UNL     1     -11.563  14.971  70.907  1.00  0.00    -0.305 NA 
HETATM   33  C   UNL     1     -11.679  15.604  72.107  1.00  0.00    -0.483 A  
HETATM   34  C   UNL     1     -13.559  15.463  71.199  1.00  0.00    -0.462 A  
HETATM   35  N   UNL     1     -12.933  15.915  72.324  1.00  0.00    -0.442 NA 
HETATM   36  N   UNL     1     -12.761  14.878  70.303  1.00  0.00    -0.306 NA 
ENDBRANCH  31  32
ENDBRANCH  21  31
ENDBRANCH  17  18
ENDBRANCH  16  17
ENDBRANCH  13  16
ENDBRANCH   7  10
ENDBRANCH   2   4
TORSDOF 8
ENDMDL
MODEL       86
REMARK 921   NORMALIZED FREE ENERGY PREDICTED BY IDOCK:   -5.04 KCAL/MOL
REMARK 922        TOTAL FREE ENERGY PREDICTED BY IDOCK:   -8.57 KCAL/MOL
REMARK 923 INTER-LIGAND FREE ENERGY PREDICTED BY IDOCK:   -7.77 KCAL/MOL
REMARK 924 INTRA-LIGAND FREE ENERGY PREDICTED BY IDOCK:   -0.80 KCAL/MOL
REMARK 927      BINDING AFFINITY PREDICTED BY RF-SCORE:    0.00 PKD
ROOT
HETATM    1  C   UNL     1      -8.089  20.302  66.496  1.00  0.00    -0.269 C  
HETATM    2  C   UNL     1      -8.019  18.802  66.846  1.00  0.00    -0.252 C  
HETATM    3  C   UNL     1      -6.648  18.568  67.502  1.00  0.00    -0.198 C  
ENDROOT
BRANCH   2   4
HETATM    4  N   UNL     1      -9.161  18.418  67.709  1.00  0.00    -0.274 NA 
HETATM    5  C   UNL     1     -10.318  17.910  66.925  1.00  0.00    -0.355 C  
HETATM    6  C   UNL     1     -10.128  16.500  66.324  1.00  0.00    -0.333 C  
HETATM    7  N   UNL     1      -9.811  15.545  67.398  1.00  0.00    -0.223 NA 
HETATM    8  C   UNL     1      -8.857  17.388  68.742  1.00  0.00    -0.220 C  
HETATM    9  C   UNL     1      -8.660  15.933  68.228  1.00  0.00    -0.176 C  
BRANCH   7  10
HETATM   10  C   UNL     1     -10.159  14.213  67.242  1.00  0.00    -0.256 A  
HETATM   11  C   UNL     1     -11.421  13.839  66.778  1.00  0.00    -0.367 A  
HETATM   12  C   UNL     1     -11.856  12.515  66.815  1.00  0.00    -0.416 A  
HETATM   13  C   UNL     1     -11.039  11.504  67.323  1.00  0.00    -0.293 A  
HETATM   14  C   UNL     1      -9.309  13.180  67.664  1.00  0.00    -0.205 A  
HETATM   15  C   UNL     1      -9.743  11.841  67.714  1.00  0.00    -0.185 A  
BRANCH  13  16
HETATM   16  O   UNL     1     -11.430  10.193  67.489  1.00  0.00    -0.249 OA 
BRANCH  16  17
HETATM   17  C   UNL     1     -10.645   9.254  66.746  1.00  0.00    -0.137 C  
BRANCH  17  18
HETATM   18  C   UNL     1     -10.038   8.143  67.596  1.00  0.00    -0.207 C  
HETATM   19  C   UNL     1      -8.533   8.176  67.648  1.00  0.00    -0.131 C  
HETATM   20  O   UNL     1      -8.221   7.687  68.952  1.00  0.00    -0.125 OA 
HETATM   21  C   UNL     1      -9.338   8.038  69.806  1.00  0.00    -0.159 C  
HETATM   22  O   UNL     1     -10.454   8.347  68.951  1.00  0.00    -0.218 OA 
BRANCH  21  23
HETATM   23  C   UNL     1      -9.729   6.852  70.690  1.00  0.00    -0.180 A  
HETATM   24  C   UNL     1      -9.919   7.052  72.076  1.00  0.00    -0.172 A  
HETATM   25  C   UNL     1      -9.932   5.544  70.200  1.00  0.00    -0.221 A  
HETATM   26  C   UNL     1     -10.343   6.020  72.917  1.00  0.00    -0.219 A  
HETATM   27  C   UNL     1     -10.377   4.514  71.040  1.00  0.00    -0.082 A  
HETATM   28 CL   UNL     1      -9.615   5.088  68.561  1.00  0.00    -0.185 Cl 
HETATM   29 CL   UNL     1     -11.157   3.500  73.415  1.00  0.00    -0.307 Cl 
HETATM   30  C   UNL     1     -10.590   4.760  72.391  1.00  0.00    -0.180 A  
ENDBRANCH  21  23
BRANCH  21  31
HETATM   31  C   UNL     1      -8.964   9.323  70.580  1.00  0.00    -0.250 C  
BRANCH  31  32
HETATM   32  N   UNL     1      -7.552   9.514  70.818  1.00  0.00    -0.281 NA 
HETATM   33  C   UNL     1      -6.686   8.656  71.424  1.00  0.00    -0.076 A  
HETATM   34  C   UNL     1      -5.621  10.221  70.532  1.00  0.00    -0.078 A  
HETATM   35  N   UNL     1      -5.457   9.085  71.270  1.00  0.00    -0.038 NA 
HETATM   36  N   UNL     1      -6.886  10.524  70.231  1.00  0.00    -0.252 NA 
ENDBRANCH  31  32
ENDBRANCH  21  31
ENDBRANCH  17  18
ENDBRANCH  16  17
ENDBRANCH  13  16
ENDBRANCH   7  10
ENDBRANCH   2   4
TORSDOF 8
ENDMDL
MODEL       87
REMARK 921   NORMALIZED FREE ENERGY PREDICTED BY IDOCK:   -5.03 KCAL/MOL
REMARK 922        TOTAL FREE ENERGY PREDICTED BY IDOCK:   -8.56 KCAL/MOL
REMARK 923 INTER-LIGAND FREE ENERGY PREDICTED BY IDOCK:   -7.50 KCAL/MOL
REMARK 924 INTRA-LIGAND FREE ENERGY PREDICTED BY IDOCK:   -1.06 KCAL/MOL
REMARK 927      BINDING AFFINITY PREDICTED BY RF-SCORE:    0.00 PKD
ROOT
HETATM    1  C   UNL     1     -10.471   5.590  74.112  1.00  0.00    -0.297 C  
HETATM    2  C   UNL     1      -9.588   4.956  73.018  1.00  0.00    -0.135 C  
HETATM    3  C   UNL     1      -9.600   3.439  73.269  1.00  0.00    -0.146 C  
ENDROOT
BRANCH   2   4
HETATM    4  N   UNL     1     -10.080   5.337  71.673  1.00  0.00    -0.192 NA 
HETATM    5  C   UNL     1     -10.443   6.778  71.589  1.00  0.00    -0.209 C  
HETATM    6  C   UNL     1      -9.244   7.750  71.572  1.00  0.00    -0.137 C  
HETATM    7  N   UNL     1      -8.347   7.408  70.455  1.00  0.00    -0.130 NA 
HETATM    8  C   UNL     1      -9.135   5.067  70.552  1.00  0.00    -0.138 C  
HETATM    9  C   UNL     1      -7.900   6.007  70.450  1.00  0.00    -0.106 C  
BRANCH   7  10
HETATM   10  C   UNL     1      -7.574   8.404  69.880  1.00  0.00    -0.076 A  
HETATM   11  C   UNL     1      -6.814   9.278  70.659  1.00  0.00    -0.094 A  
HETATM   12  C   UNL     1      -6.203  10.407  70.115  1.00  0.00    -0.108 A  
HETATM   13  C   UNL     1      -6.331  10.710  68.759  1.00  0.00    -0.047 A  
HETATM   14  C   UNL     1      -7.621   8.664  68.502  1.00  0.00    -0.095 A  
HETATM   15  C   UNL     1      -7.015   9.807  67.946  1.00  0.00    -0.078 A  
BRANCH  13  16
HETATM   16  O   UNL     1      -5.847  11.856  68.166  1.00  0.00    -0.049 OA 
BRANCH  16  17
HETATM   17  C   UNL     1      -6.854  12.651  67.530  1.00  0.00    -0.151 C  
BRANCH  17  18
HETATM   18  C   UNL     1      -7.611  13.572  68.481  1.00  0.00    -0.129 C  
HETATM   19  C   UNL     1      -7.111  14.992  68.473  1.00  0.00    -0.110 C  
HETATM   20  O   UNL     1      -8.280  15.772  68.723  1.00  0.00    -0.165 OA 
HETATM   21  C   UNL     1      -9.402  15.020  68.198  1.00  0.00    -0.187 C  
HETATM   22  O   UNL     1      -8.966  13.658  68.025  1.00  0.00    -0.173 OA 
BRANCH  21  23
HETATM   23  C   UNL     1     -10.564  15.025  69.194  1.00  0.00    -0.251 A  
HETATM   24  C   UNL     1     -10.466  15.800  70.371  1.00  0.00    -0.169 A  
HETATM   25  C   UNL     1     -11.761  14.303  69.001  1.00  0.00    -0.317 A  
HETATM   26  C   UNL     1     -11.524  15.895  71.278  1.00  0.00    -0.489 A  
HETATM   27  C   UNL     1     -12.829  14.414  69.903  1.00  0.00     0.041 A  
HETATM   28 CL   UNL     1     -12.001  13.200  67.690  1.00  0.00    -0.391 Cl 
HETATM   29 CL   UNL     1     -14.029  15.370  72.121  1.00  0.00    -0.607 Cl 
HETATM   30  C   UNL     1     -12.709  15.218  71.029  1.00  0.00    -0.424 A  
ENDBRANCH  21  23
BRANCH  21  31
HETATM   31  C   UNL     1      -9.748  15.587  66.801  1.00  0.00    -0.239 C  
BRANCH  31  32
HETATM   32  N   UNL     1      -9.807  17.028  66.716  1.00  0.00    -0.266 NA 
HETATM   33  C   UNL     1     -10.773  17.853  67.208  1.00  0.00    -0.267 A  
HETATM   34  C   UNL     1      -9.132  18.986  66.572  1.00  0.00    -0.334 A  
HETATM   35  N   UNL     1     -10.378  19.100  67.118  1.00  0.00    -0.391 NA 
HETATM   36  N   UNL     1      -8.740  17.738  66.309  1.00  0.00    -0.445 NA 
ENDBRANCH  31  32
ENDBRANCH  21  31
ENDBRANCH  17  18
ENDBRANCH  16  17
ENDBRANCH  13  16
ENDBRANCH   7  10
ENDBRANCH   2   4
TORSDOF 8
ENDMDL
MODEL       88
REMARK 921   NORMALIZED FREE ENERGY PREDICTED BY IDOCK:   -5.02 KCAL/MOL
REMARK 922        TOTAL FREE ENERGY PREDICTED BY IDOCK:   -8.55 KCAL/MOL
REMARK 923 INTER-LIGAND FREE ENERGY PREDICTED BY IDOCK:   -8.31 KCAL/MOL
REMARK 924 INTRA-LIGAND FREE ENERGY PREDICTED BY IDOCK:   -0.23 KCAL/MOL
REMARK 927      BINDING AFFINITY PREDICTED BY RF-SCORE:    0.00 PKD
ROOT
HETATM    1  C   UNL     1      -8.724  19.759  66.421  1.00  0.00    -0.412 C  
HETATM    2  C   UNL     1      -9.281  18.426  66.959  1.00  0.00    -0.274 C  
HETATM    3  C   UNL     1     -10.761  18.672  67.296  1.00  0.00    -0.449 C  
ENDROOT
BRANCH   2   4
HETATM    4  N   UNL     1      -9.071  17.342  65.970  1.00  0.00    -0.517 NA 
HETATM    5  C   UNL     1      -8.201  16.255  66.496  1.00  0.00    -0.309 C  
HETATM    6  C   UNL     1      -8.865  15.344  67.552  1.00  0.00    -0.180 C  
HETATM    7  N   UNL     1     -10.094  14.757  66.993  1.00  0.00    -0.243 NA 
HETATM    8  C   UNL     1     -10.315  16.691  65.469  1.00  0.00    -0.247 C  
HETATM    9  C   UNL     1     -11.046  15.745  66.464  1.00  0.00    -0.079 C  
BRANCH   7  10
HETATM   10  C   UNL     1     -10.530  13.529  67.465  1.00  0.00    -0.237 A  
HETATM   11  C   UNL     1     -11.072  13.390  68.744  1.00  0.00    -0.297 A  
HETATM   12  C   UNL     1     -11.318  12.138  69.306  1.00  0.00    -0.327 A  
HETATM   13  C   UNL     1     -11.029  10.966  68.607  1.00  0.00    -0.227 A  
HETATM   14  C   UNL     1     -10.330  12.350  66.732  1.00  0.00    -0.239 A  
HETATM   15  C   UNL     1     -10.566  11.081  67.296  1.00  0.00    -0.287 A  
BRANCH  13  16
HETATM   16  O   UNL     1     -11.146   9.696  69.128  1.00  0.00    -0.192 OA 
BRANCH  16  17
HETATM   17  C   UNL     1     -10.535   8.680  68.325  1.00  0.00    -0.184 C  
BRANCH  17  18
HETATM   18  C   UNL     1      -9.979   7.507  69.125  1.00  0.00    -0.179 C  
HETATM   19  C   UNL     1      -8.495   7.590  69.368  1.00  0.00    -0.133 C  
HETATM   20  O   UNL     1      -8.318   6.974  70.644  1.00  0.00    -0.124 OA 
HETATM   21  C   UNL     1      -9.546   7.189  71.382  1.00  0.00    -0.161 C  
HETATM   22  O   UNL     1     -10.566   7.547  70.431  1.00  0.00    -0.220 OA 
BRANCH  21  23
HETATM   23  C   UNL     1      -9.981   5.900  72.085  1.00  0.00    -0.196 A  
HETATM   24  C   UNL     1     -11.291   5.800  72.604  1.00  0.00    -0.349 A  
HETATM   25  C   UNL     1      -9.145   4.773  72.238  1.00  0.00    -0.126 A  
HETATM   26  C   UNL     1     -11.761   4.623  73.192  1.00  0.00    -0.182 A  
HETATM   27  C   UNL     1      -9.623   3.586  72.810  1.00  0.00    -0.182 A  
HETATM   28 CL   UNL     1      -7.475   4.765  71.786  1.00  0.00    -0.077 Cl 
HETATM   29 CL   UNL     1     -11.521   2.050  73.955  1.00  0.00    -0.200 Cl 
HETATM   30  C   UNL     1     -10.930   3.514  73.274  1.00  0.00    -0.168 A  
ENDBRANCH  21  23
BRANCH  21  31
HETATM   31  C   UNL     1      -9.334   8.396  72.325  1.00  0.00    -0.286 C  
BRANCH  31  32
HETATM   32  N   UNL     1      -8.060   8.432  73.007  1.00  0.00    -0.342 NA 
HETATM   33  C   UNL     1      -7.682   7.718  74.103  1.00  0.00    -0.175 A  
HETATM   34  C   UNL     1      -6.016   8.676  73.274  1.00  0.00    -0.098 A  
HETATM   35  N   UNL     1      -6.394   7.864  74.304  1.00  0.00    -0.095 NA 
HETATM   36  N   UNL     1      -7.001   9.049  72.454  1.00  0.00    -0.318 NA 
ENDBRANCH  31  32
ENDBRANCH  21  31
ENDBRANCH  17  18
ENDBRANCH  16  17
ENDBRANCH  13  16
ENDBRANCH   7  10
ENDBRANCH   2   4
TORSDOF 8
ENDMDL
MODEL       89
REMARK 921   NORMALIZED FREE ENERGY PREDICTED BY IDOCK:   -5.01 KCAL/MOL
REMARK 922        TOTAL FREE ENERGY PREDICTED BY IDOCK:   -8.53 KCAL/MOL
REMARK 923 INTER-LIGAND FREE ENERGY PREDICTED BY IDOCK:   -7.38 KCAL/MOL
REMARK 924 INTRA-LIGAND FREE ENERGY PREDICTED BY IDOCK:   -1.15 KCAL/MOL
REMARK 927      BINDING AFFINITY PREDICTED BY RF-SCORE:    0.00 PKD
ROOT
HETATM    1  C   UNL     1      -6.061   3.649  64.542  1.00  0.00    -0.023 C  
HETATM    2  C   UNL     1      -6.806   3.311  65.849  1.00  0.00    -0.052 C  
HETATM    3  C   UNL     1      -6.785   1.780  65.983  1.00  0.00    -0.031 C  
ENDROOT
BRANCH   2   4
HETATM    4  N   UNL     1      -6.183   4.014  66.995  1.00  0.00    -0.031 NA 
HETATM    5  C   UNL     1      -6.414   5.484  66.953  1.00  0.00    -0.044 C  
HETATM    6  C   UNL     1      -7.854   5.925  67.295  1.00  0.00    -0.102 C  
HETATM    7  N   UNL     1      -8.225   5.411  68.624  1.00  0.00    -0.094 NA 
HETATM    8  C   UNL     1      -6.623   3.549  68.341  1.00  0.00    -0.041 C  
HETATM    9  C   UNL     1      -8.060   3.957  68.775  1.00  0.00    -0.070 C  
BRANCH   7  10
HETATM   10  C   UNL     1      -9.157   6.104  69.380  1.00  0.00    -0.134 A  
HETATM   11  C   UNL     1     -10.501   5.728  69.405  1.00  0.00    -0.360 A  
HETATM   12  C   UNL     1     -11.479   6.532  69.987  1.00  0.00    -0.476 A  
HETATM   13  C   UNL     1     -11.150   7.756  70.570  1.00  0.00    -0.257 A  
HETATM   14  C   UNL     1      -8.820   7.290  70.050  1.00  0.00    -0.141 A  
HETATM   15  C   UNL     1      -9.803   8.113  70.632  1.00  0.00    -0.196 A  
BRANCH  13  16
HETATM   16  O   UNL     1     -12.067   8.653  71.073  1.00  0.00    -0.287 OA 
BRANCH  16  17
HETATM   17  C   UNL     1     -11.566   9.989  71.196  1.00  0.00    -0.378 C  
BRANCH  17  18
HETATM   18  C   UNL     1     -12.101  10.953  70.143  1.00  0.00    -0.349 C  
HETATM   19  C   UNL     1     -12.327  12.349  70.661  1.00  0.00    -0.279 C  
HETATM   20  O   UNL     1     -12.050  13.184  69.536  1.00  0.00    -0.293 OA 
HETATM   21  C   UNL     1     -11.080  12.479  68.723  1.00  0.00    -0.270 C  
HETATM   22  O   UNL     1     -11.100  11.097  69.129  1.00  0.00    -0.213 OA 
BRANCH  21  23
HETATM   23  C   UNL     1     -11.469  12.547  67.245  1.00  0.00    -0.416 A  
HETATM   24  C   UNL     1     -12.393  13.526  66.815  1.00  0.00    -0.326 A  
HETATM   25  C   UNL     1     -10.942  11.688  66.257  1.00  0.00    -0.289 A  
HETATM   26  C   UNL     1     -12.730  13.677  65.467  1.00  0.00    -0.514 A  
HETATM   27  C   UNL     1     -11.265  11.853  64.903  1.00  0.00    -0.350 A  
HETATM   28 CL   UNL     1      -9.907  10.350  66.621  1.00  0.00    -0.239 Cl 
HETATM   29 CL   UNL     1     -12.525  13.067  62.850  1.00  0.00     0.003 Cl 
HETATM   30  C   UNL     1     -12.148  12.853  64.515  1.00  0.00    -0.413 A  
ENDBRANCH  21  23
BRANCH  21  31
HETATM   31  C   UNL     1      -9.679  13.047  69.048  1.00  0.00     0.342 C  
BRANCH  31  32
HETATM   32  N   UNL     1      -9.497  14.450  68.753  1.00  0.00    -0.193 NA 
HETATM   33  C   UNL     1      -9.648  15.506  69.599  1.00  0.00    -0.262 A  
HETATM   34  C   UNL     1      -8.751  16.149  67.820  1.00  0.00    -0.172 A  
HETATM   35  N   UNL     1      -9.197  16.597  69.030  1.00  0.00    -0.252 NA 
HETATM   36  N   UNL     1      -8.914  14.841  67.606  1.00  0.00    -0.177 NA 
ENDBRANCH  31  32
ENDBRANCH  21  31
ENDBRANCH  17  18
ENDBRANCH  16  17
ENDBRANCH  13  16
ENDBRANCH   7  10
ENDBRANCH   2   4
TORSDOF 8
ENDMDL
MODEL       90
REMARK 921   NORMALIZED FREE ENERGY PREDICTED BY IDOCK:   -5.00 KCAL/MOL
REMARK 922        TOTAL FREE ENERGY PREDICTED BY IDOCK:   -8.51 KCAL/MOL
REMARK 923 INTER-LIGAND FREE ENERGY PREDICTED BY IDOCK:   -7.77 KCAL/MOL
REMARK 924 INTRA-LIGAND FREE ENERGY PREDICTED BY IDOCK:   -0.75 KCAL/MOL
REMARK 927      BINDING AFFINITY PREDICTED BY RF-SCORE:    0.00 PKD
ROOT
HETATM    1  C   UNL     1      -7.973  19.684  67.467  1.00  0.00    -0.316 C  
HETATM    2  C   UNL     1      -8.945  18.513  67.221  1.00  0.00    -0.270 C  
HETATM    3  C   UNL     1     -10.319  19.137  66.926  1.00  0.00    -0.504 C  
ENDROOT
BRANCH   2   4
HETATM    4  N   UNL     1      -8.442  17.645  66.129  1.00  0.00    -0.490 NA 
HETATM    5  C   UNL     1      -7.103  17.072  66.432  1.00  0.00    -0.250 C  
HETATM    6  C   UNL     1      -7.100  15.956  67.499  1.00  0.00    -0.179 C  
HETATM    7  N   UNL     1      -8.011  14.875  67.086  1.00  0.00    -0.210 NA 
HETATM    8  C   UNL     1      -9.327  16.502  65.769  1.00  0.00    -0.075 C  
HETATM    9  C   UNL     1      -9.379  15.324  66.784  1.00  0.00    -0.243 C  
BRANCH   7  10
HETATM   10  C   UNL     1      -7.765  13.582  67.519  1.00  0.00    -0.175 A  
HETATM   11  C   UNL     1      -7.229  13.325  68.782  1.00  0.00    -0.088 A  
HETATM   12  C   UNL     1      -6.783  12.056  69.148  1.00  0.00    -0.101 A  
HETATM   13  C   UNL     1      -6.854  10.985  68.258  1.00  0.00    -0.067 A  
HETATM   14  C   UNL     1      -7.919  12.481  66.662  1.00  0.00     0.186 A  
HETATM   15  C   UNL     1      -7.463  11.198  67.021  1.00  0.00    -0.132 A  
BRANCH  13  16
HETATM   16  O   UNL     1      -6.343   9.729  68.504  1.00  0.00    -0.047 OA 
BRANCH  16  17
HETATM   17  C   UNL     1      -7.323   8.778  68.935  1.00  0.00    -0.078 C  
BRANCH  17  18
HETATM   18  C   UNL     1      -8.758   9.287  68.862  1.00  0.00    -0.131 C  
HETATM   19  C   UNL     1      -9.670   8.409  68.046  1.00  0.00    -0.158 C  
HETATM   20  O   UNL     1     -10.940   8.539  68.686  1.00  0.00    -0.010 OA 
HETATM   21  C   UNL     1     -10.674   8.815  70.083  1.00  0.00    -0.224 C  
HETATM   22  O   UNL     1      -9.306   9.253  70.185  1.00  0.00    -0.192 OA 
BRANCH  21  23
HETATM   23  C   UNL     1     -11.575   9.945  70.586  1.00  0.00    -0.413 A  
HETATM   24  C   UNL     1     -12.474   9.697  71.648  1.00  0.00    -0.494 A  
HETATM   25  C   UNL     1     -11.555  11.254  70.058  1.00  0.00    -0.321 A  
HETATM   26  C   UNL     1     -13.268  10.710  72.191  1.00  0.00    -0.379 A  
HETATM   27  C   UNL     1     -12.339  12.274  70.616  1.00  0.00    -0.375 A  
HETATM   28 CL   UNL     1     -10.620  11.702  68.673  1.00  0.00    -0.220 Cl 
HETATM   29 CL   UNL     1     -14.123  13.258  72.383  1.00  0.00    -0.573 Cl 
HETATM   30  C   UNL     1     -13.181  12.000  71.686  1.00  0.00    -0.260 A  
ENDBRANCH  21  23
BRANCH  21  31
HETATM   31  C   UNL     1     -10.806   7.489  70.867  1.00  0.00    -0.240 C  
BRANCH  31  32
HETATM   32  N   UNL     1      -9.692   7.166  71.730  1.00  0.00    -0.158 NA 
HETATM   33  C   UNL     1      -9.537   7.486  73.045  1.00  0.00    -0.215 A  
HETATM   34  C   UNL     1      -8.060   6.119  72.471  1.00  0.00    -0.104 A  
HETATM   35  N   UNL     1      -8.504   6.847  73.537  1.00  0.00    -0.125 NA 
HETATM   36  N   UNL     1      -8.756   6.282  71.344  1.00  0.00    -0.135 NA 
ENDBRANCH  31  32
ENDBRANCH  21  31
ENDBRANCH  17  18
ENDBRANCH  16  17
ENDBRANCH  13  16
ENDBRANCH   7  10
ENDBRANCH   2   4
TORSDOF 8
ENDMDL
MODEL       91
REMARK 921   NORMALIZED FREE ENERGY PREDICTED BY IDOCK:   -4.98 KCAL/MOL
REMARK 922        TOTAL FREE ENERGY PREDICTED BY IDOCK:   -8.48 KCAL/MOL
REMARK 923 INTER-LIGAND FREE ENERGY PREDICTED BY IDOCK:   -9.22 KCAL/MOL
REMARK 924 INTRA-LIGAND FREE ENERGY PREDICTED BY IDOCK:    0.73 KCAL/MOL
REMARK 927      BINDING AFFINITY PREDICTED BY RF-SCORE:    0.00 PKD
ROOT
HETATM    1  C   UNL     1      -9.472   3.624  67.843  1.00  0.00    -0.224 C  
HETATM    2  C   UNL     1      -8.039   4.162  68.030  1.00  0.00    -0.089 C  
HETATM    3  C   UNL     1      -7.209   3.008  68.616  1.00  0.00    -0.049 C  
ENDROOT
BRANCH   2   4
HETATM    4  N   UNL     1      -7.509   4.679  66.746  1.00  0.00    -0.085 NA 
HETATM    5  C   UNL     1      -8.588   4.963  65.761  1.00  0.00    -0.128 C  
HETATM    6  C   UNL     1      -9.435   6.217  66.068  1.00  0.00    -0.010 C  
HETATM    7  N   UNL     1      -8.556   7.392  66.179  1.00  0.00    -0.140 NA 
HETATM    8  C   UNL     1      -6.688   5.918  66.851  1.00  0.00    -0.058 C  
HETATM    9  C   UNL     1      -7.461   7.234  67.149  1.00  0.00    -0.105 C  
BRANCH   7  10
HETATM   10  C   UNL     1      -9.061   8.645  65.873  1.00  0.00    -0.205 A  
HETATM   11  C   UNL     1      -9.999   9.273  66.694  1.00  0.00    -0.333 A  
HETATM   12  C   UNL     1     -10.669  10.429  66.295  1.00  0.00    -0.107 A  
HETATM   13  C   UNL     1     -10.426  11.007  65.049  1.00  0.00    -0.277 A  
HETATM   14  C   UNL     1      -8.754   9.283  64.662  1.00  0.00    -0.223 A  
HETATM   15  C   UNL     1      -9.432  10.445  64.247  1.00  0.00    -0.349 A  
BRANCH  13  16
HETATM   16  O   UNL     1     -11.117  12.085  64.540  1.00  0.00    -0.306 OA 
BRANCH  16  17
HETATM   17  C   UNL     1     -10.561  13.355  64.901  1.00  0.00    -0.385 C  
BRANCH  17  18
HETATM   18  C   UNL     1     -10.266  13.503  66.390  1.00  0.00    -0.291 C  
HETATM   19  C   UNL     1      -8.916  14.103  66.682  1.00  0.00    -0.169 C  
HETATM   20  O   UNL     1      -9.120  14.844  67.886  1.00  0.00    -0.177 OA 
HETATM   21  C   UNL     1     -10.509  15.258  67.888  1.00  0.00    -0.253 C  
HETATM   22  O   UNL     1     -11.207  14.436  66.934  1.00  0.00    -0.314 OA 
BRANCH  21  23
HETATM   23  C   UNL     1     -11.134  15.025  69.266  1.00  0.00    -0.280 A  
HETATM   24  C   UNL     1     -11.055  16.040  70.245  1.00  0.00    -0.380 A  
HETATM   25  C   UNL     1     -11.814  13.841  69.625  1.00  0.00    -0.333 A  
HETATM   26  C   UNL     1     -11.668  15.907  71.493  1.00  0.00    -0.545 A  
HETATM   27  C   UNL     1     -12.445  13.717  70.871  1.00  0.00    -0.448 A  
HETATM   28 CL   UNL     1     -11.891  12.447  68.605  1.00  0.00    -0.359 Cl 
HETATM   29 CL   UNL     1     -13.174  14.606  73.310  1.00  0.00    -0.528 Cl 
HETATM   30  C   UNL     1     -12.379  14.754  71.792  1.00  0.00    -0.346 A  
ENDBRANCH  21  23
BRANCH  21  31
HETATM   31  C   UNL     1     -10.574  16.720  67.390  1.00  0.00    -0.291 C  
BRANCH  31  32
HETATM   32  N   UNL     1      -9.316  17.432  67.393  1.00  0.00    -0.235 NA 
HETATM   33  C   UNL     1      -8.610  17.873  68.471  1.00  0.00    -0.293 A  
HETATM   34  C   UNL     1      -7.446  18.056  66.742  1.00  0.00    -0.214 A  
HETATM   35  N   UNL     1      -7.427  18.286  68.087  1.00  0.00    -0.254 NA 
HETATM   36  N   UNL     1      -8.581  17.534  66.272  1.00  0.00    -0.431 NA 
ENDBRANCH  31  32
ENDBRANCH  21  31
ENDBRANCH  17  18
ENDBRANCH  16  17
ENDBRANCH  13  16
ENDBRANCH   7  10
ENDBRANCH   2   4
TORSDOF 8
ENDMDL
MODEL       92
REMARK 921   NORMALIZED FREE ENERGY PREDICTED BY IDOCK:   -4.95 KCAL/MOL
REMARK 922        TOTAL FREE ENERGY PREDICTED BY IDOCK:   -8.44 KCAL/MOL
REMARK 923 INTER-LIGAND FREE ENERGY PREDICTED BY IDOCK:   -7.46 KCAL/MOL
REMARK 924 INTRA-LIGAND FREE ENERGY PREDICTED BY IDOCK:   -0.98 KCAL/MOL
REMARK 927      BINDING AFFINITY PREDICTED BY RF-SCORE:    0.00 PKD
ROOT
HETATM    1  C   UNL     1     -10.365  20.011  68.484  1.00  0.00    -0.425 C  
HETATM    2  C   UNL     1     -10.254  18.971  67.351  1.00  0.00    -0.394 C  
HETATM    3  C   UNL     1     -10.518  19.723  66.036  1.00  0.00    -0.609 C  
ENDROOT
BRANCH   2   4
HETATM    4  N   UNL     1      -8.933  18.299  67.393  1.00  0.00    -0.255 NA 
HETATM    5  C   UNL     1      -8.786  17.413  68.580  1.00  0.00    -0.277 C  
HETATM    6  C   UNL     1      -9.599  16.102  68.516  1.00  0.00    -0.215 C  
HETATM    7  N   UNL     1      -9.235  15.354  67.302  1.00  0.00    -0.203 NA 
HETATM    8  C   UNL     1      -8.602  17.474  66.198  1.00  0.00    -0.133 C  
HETATM    9  C   UNL     1      -9.367  16.127  66.057  1.00  0.00    -0.333 C  
BRANCH   7  10
HETATM   10  C   UNL     1      -9.351  13.973  67.299  1.00  0.00    -0.230 A  
HETATM   11  C   UNL     1      -8.803  13.193  68.318  1.00  0.00    -0.175 A  
HETATM   12  C   UNL     1      -8.728  11.804  68.223  1.00  0.00    -0.167 A  
HETATM   13  C   UNL     1      -9.202  11.135  67.094  1.00  0.00    -0.158 A  
HETATM   14  C   UNL     1      -9.910  13.288  66.210  1.00  0.00    -0.288 A  
HETATM   15  C   UNL     1      -9.830  11.886  66.101  1.00  0.00    -0.254 A  
BRANCH  13  16
HETATM   16  O   UNL     1      -9.073   9.780  66.878  1.00  0.00    -0.140 OA 
BRANCH  16  17
HETATM   17  C   UNL     1     -10.306   9.121  66.567  1.00  0.00    -0.199 C  
BRANCH  17  18
HETATM   18  C   UNL     1     -10.576   7.880  67.410  1.00  0.00    -0.272 C  
HETATM   19  C   UNL     1     -10.294   6.587  66.689  1.00  0.00    -0.147 C  
HETATM   20  O   UNL     1      -9.847   5.707  67.720  1.00  0.00    -0.119 OA 
HETATM   21  C   UNL     1      -9.225   6.536  68.734  1.00  0.00    -0.131 C  
HETATM   22  O   UNL     1      -9.664   7.889  68.514  1.00  0.00    -0.155 OA 
BRANCH  21  23
HETATM   23  C   UNL     1      -9.682   6.107  70.130  1.00  0.00    -0.194 A  
HETATM   24  C   UNL     1      -9.820   4.733  70.424  1.00  0.00    -0.309 A  
HETATM   25  C   UNL     1      -9.966   7.016  71.172  1.00  0.00    -0.184 A  
HETATM   26  C   UNL     1     -10.167   4.286  71.702  1.00  0.00    -0.160 A  
HETATM   27  C   UNL     1     -10.295   6.566  72.459  1.00  0.00    -0.216 A  
HETATM   28 CL   UNL     1      -9.982   8.732  70.954  1.00  0.00    -0.255 Cl 
HETATM   29 CL   UNL     1     -10.764   4.655  74.303  1.00  0.00    -0.327 Cl 
HETATM   30  C   UNL     1     -10.382   5.205  72.719  1.00  0.00    -0.197 A  
ENDBRANCH  21  23
BRANCH  21  31
HETATM   31  C   UNL     1      -7.695   6.492  68.516  1.00  0.00    -0.105 C  
BRANCH  31  32
HETATM   32  N   UNL     1      -7.031   7.776  68.528  1.00  0.00    -0.069 NA 
HETATM   33  C   UNL     1      -6.749   8.557  69.607  1.00  0.00    -0.040 A  
HETATM   34  C   UNL     1      -5.768   9.306  67.916  1.00  0.00    -0.038 A  
HETATM   35  N   UNL     1      -5.961   9.542  69.247  1.00  0.00    -0.034 NA 
HETATM   36  N   UNL     1      -6.403   8.237  67.432  1.00  0.00    -0.056 NA 
ENDBRANCH  31  32
ENDBRANCH  21  31
ENDBRANCH  17  18
ENDBRANCH  16  17
ENDBRANCH  13  16
ENDBRANCH   7  10
ENDBRANCH   2   4
TORSDOF 8
ENDMDL
MODEL       93
REMARK 921   NORMALIZED FREE ENERGY PREDICTED BY IDOCK:   -4.93 KCAL/MOL
REMARK 922        TOTAL FREE ENERGY PREDICTED BY IDOCK:   -8.41 KCAL/MOL
REMARK 923 INTER-LIGAND FREE ENERGY PREDICTED BY IDOCK:   -8.90 KCAL/MOL
REMARK 924 INTRA-LIGAND FREE ENERGY PREDICTED BY IDOCK:    0.49 KCAL/MOL
REMARK 927      BINDING AFFINITY PREDICTED BY RF-SCORE:    0.00 PKD
ROOT
HETATM    1  C   UNL     1     -13.159  15.968  73.615  1.00  0.00    -0.609 C  
HETATM    2  C   UNL     1     -12.660  16.045  72.158  1.00  0.00    -0.422 C  
HETATM    3  C   UNL     1     -11.219  15.507  72.159  1.00  0.00    -0.292 C  
ENDROOT
BRANCH   2   4
HETATM    4  N   UNL     1     -13.570  15.297  71.259  1.00  0.00    -0.494 NA 
HETATM    5  C   UNL     1     -12.850  14.666  70.120  1.00  0.00    -0.135 C  
HETATM    6  C   UNL     1     -11.994  13.436  70.494  1.00  0.00    -0.255 C  
HETATM    7  N   UNL     1     -12.840  12.428  71.154  1.00  0.00    -0.277 NA 
HETATM    8  C   UNL     1     -14.365  14.221  71.914  1.00  0.00    -0.513 C  
HETATM    9  C   UNL     1     -13.585  12.936  72.317  1.00  0.00    -0.515 C  
BRANCH   7  10
HETATM   10  C   UNL     1     -12.496  11.089  71.059  1.00  0.00    -0.409 A  
HETATM   11  C   UNL     1     -13.199  10.104  71.754  1.00  0.00    -0.542 A  
HETATM   12  C   UNL     1     -12.739   8.791  71.834  1.00  0.00    -0.427 A  
HETATM   13  C   UNL     1     -11.548   8.408  71.220  1.00  0.00    -0.283 A  
HETATM   14  C   UNL     1     -11.348  10.676  70.365  1.00  0.00    -0.389 A  
HETATM   15  C   UNL     1     -10.872   9.354  70.450  1.00  0.00    -0.321 A  
BRANCH  13  16
HETATM   16  O   UNL     1     -10.974   7.160  71.337  1.00  0.00    -0.231 OA 
BRANCH  16  17
HETATM   17  C   UNL     1      -9.607   7.106  70.912  1.00  0.00    -0.167 C  
BRANCH  17  18
HETATM   18  C   UNL     1      -9.376   6.250  69.673  1.00  0.00    -0.143 C  
HETATM   19  C   UNL     1     -10.627   5.595  69.148  1.00  0.00    -0.264 C  
HETATM   20  O   UNL     1     -10.425   5.545  67.735  1.00  0.00    -0.205 OA 
HETATM   21  C   UNL     1      -9.570   6.665  67.398  1.00  0.00    -0.126 C  
HETATM   22  O   UNL     1      -8.944   7.114  68.615  1.00  0.00    -0.132 OA 
BRANCH  21  23
HETATM   23  C   UNL     1      -8.469   6.227  66.429  1.00  0.00    -0.125 A  
HETATM   24  C   UNL     1      -8.714   5.159  65.537  1.00  0.00    -0.147 A  
HETATM   25  C   UNL     1      -7.201   6.843  66.357  1.00  0.00    -0.075 A  
HETATM   26  C   UNL     1      -7.770   4.764  64.586  1.00  0.00    -0.078 A  
HETATM   27  C   UNL     1      -6.262   6.458  65.389  1.00  0.00    -0.034 A  
HETATM   28 CL   UNL     1      -6.680   8.070  67.459  1.00  0.00    -0.067 Cl 
HETATM   29 CL   UNL     1      -5.410   4.976  63.303  1.00  0.00    -0.012 Cl 
HETATM   30  C   UNL     1      -6.555   5.430  64.503  1.00  0.00    -0.042 A  
ENDBRANCH  21  23
BRANCH  21  31
HETATM   31  C   UNL     1     -10.467   7.812  66.876  1.00  0.00    -0.317 C  
BRANCH  31  32
HETATM   32  N   UNL     1      -9.767   9.007  66.464  1.00  0.00    -0.222 NA 
HETATM   33  C   UNL     1      -9.279  10.002  67.257  1.00  0.00    -0.141 A  
HETATM   34  C   UNL     1      -8.573  10.245  65.301  1.00  0.00    -0.165 A  
HETATM   35  N   UNL     1      -8.530  10.808  66.544  1.00  0.00    -0.141 NA 
HETATM   36  N   UNL     1      -9.318   9.141  65.204  1.00  0.00    -0.180 NA 
ENDBRANCH  31  32
ENDBRANCH  21  31
ENDBRANCH  17  18
ENDBRANCH  16  17
ENDBRANCH  13  16
ENDBRANCH   7  10
ENDBRANCH   2   4
TORSDOF 8
ENDMDL
MODEL       94
REMARK 921   NORMALIZED FREE ENERGY PREDICTED BY IDOCK:   -4.92 KCAL/MOL
REMARK 922        TOTAL FREE ENERGY PREDICTED BY IDOCK:   -8.39 KCAL/MOL
REMARK 923 INTER-LIGAND FREE ENERGY PREDICTED BY IDOCK:   -7.70 KCAL/MOL
REMARK 924 INTRA-LIGAND FREE ENERGY PREDICTED BY IDOCK:   -0.69 KCAL/MOL
REMARK 927      BINDING AFFINITY PREDICTED BY RF-SCORE:    0.00 PKD
ROOT
HETATM    1  C   UNL     1      -5.745  18.979  70.198  1.00  0.00    -0.267 C  
HETATM    2  C   UNL     1      -6.789  19.011  69.064  1.00  0.00    -0.318 C  
HETATM    3  C   UNL     1      -6.705  20.409  68.429  1.00  0.00    -0.289 C  
ENDROOT
BRANCH   2   4
HETATM    4  N   UNL     1      -6.543  17.909  68.104  1.00  0.00    -0.193 NA 
HETATM    5  C   UNL     1      -6.473  16.581  68.772  1.00  0.00    -0.152 C  
HETATM    6  C   UNL     1      -7.829  16.028  69.263  1.00  0.00    -0.222 C  
HETATM    7  N   UNL     1      -8.771  15.957  68.134  1.00  0.00    -0.169 NA 
HETATM    8  C   UNL     1      -7.546  17.786  67.009  1.00  0.00    -0.204 C  
HETATM    9  C   UNL     1      -8.941  17.226  67.411  1.00  0.00    -0.222 C  
BRANCH   7  10
HETATM   10  C   UNL     1      -9.782  15.009  68.157  1.00  0.00    -0.215 A  
HETATM   11  C   UNL     1     -10.556  14.797  69.299  1.00  0.00    -0.248 A  
HETATM   12  C   UNL     1     -11.428  13.714  69.406  1.00  0.00    -0.343 A  
HETATM   13  C   UNL     1     -11.560  12.792  68.367  1.00  0.00    -0.325 A  
HETATM   14  C   UNL     1      -9.989  14.132  67.081  1.00  0.00    -0.255 A  
HETATM   15  C   UNL     1     -10.860  13.031  67.185  1.00  0.00    -0.278 A  
BRANCH  13  16
HETATM   16  O   UNL     1     -12.318  11.644  68.434  1.00  0.00    -0.417 OA 
BRANCH  16  17
HETATM   17  C   UNL     1     -12.019  10.815  69.563  1.00  0.00    -0.292 C  
BRANCH  17  18
HETATM   18  C   UNL     1     -10.869   9.840  69.330  1.00  0.00    -0.232 C  
HETATM   19  C   UNL     1     -10.210   9.369  70.600  1.00  0.00    -0.288 C  
HETATM   20  O   UNL     1      -9.800   8.035  70.303  1.00  0.00    -0.182 OA 
HETATM   21  C   UNL     1     -10.731   7.524  69.316  1.00  0.00    -0.176 C  
HETATM   22  O   UNL     1     -11.411   8.654  68.738  1.00  0.00     0.344 OA 
BRANCH  21  23
HETATM   23  C   UNL     1      -9.981   6.796  68.199  1.00  0.00    -0.161 A  
HETATM   24  C   UNL     1     -10.569   5.664  67.591  1.00  0.00    -0.279 A  
HETATM   25  C   UNL     1      -8.718   7.198  67.714  1.00  0.00    -0.125 A  
HETATM   26  C   UNL     1      -9.959   5.005  66.521  1.00  0.00    -0.249 A  
HETATM   27  C   UNL     1      -8.116   6.548  66.628  1.00  0.00    -0.110 A  
HETATM   28 CL   UNL     1      -7.792   8.474  68.428  1.00  0.00    -0.104 Cl 
HETATM   29 CL   UNL     1      -8.014   4.681  64.683  1.00  0.00    -0.094 Cl 
HETATM   30  C   UNL     1      -8.744   5.463  66.030  1.00  0.00    -0.137 A  
ENDBRANCH  21  23
BRANCH  21  31
HETATM   31  C   UNL     1     -11.784   6.664  70.052  1.00  0.00    -0.317 C  
BRANCH  31  32
HETATM   32  N   UNL     1     -11.315   5.995  71.244  1.00  0.00    -0.266 NA 
HETATM   33  C   UNL     1     -11.895   5.985  72.476  1.00  0.00    -0.186 A  
HETATM   34  C   UNL     1     -10.344   4.580  72.412  1.00  0.00    -0.191 A  
HETATM   35  N   UNL     1     -11.292   5.107  73.241  1.00  0.00    -0.319 NA 
HETATM   36  N   UNL     1     -10.320   5.093  71.180  1.00  0.00    -0.221 NA 
ENDBRANCH  31  32
ENDBRANCH  21  31
ENDBRANCH  17  18
ENDBRANCH  16  17
ENDBRANCH  13  16
ENDBRANCH   7  10
ENDBRANCH   2   4
TORSDOF 8
ENDMDL
MODEL       95
REMARK 921   NORMALIZED FREE ENERGY PREDICTED BY IDOCK:   -4.92 KCAL/MOL
REMARK 922        TOTAL FREE ENERGY PREDICTED BY IDOCK:   -8.39 KCAL/MOL
REMARK 923 INTER-LIGAND FREE ENERGY PREDICTED BY IDOCK:   -8.56 KCAL/MOL
REMARK 924 INTRA-LIGAND FREE ENERGY PREDICTED BY IDOCK:    0.17 KCAL/MOL
REMARK 927      BINDING AFFINITY PREDICTED BY RF-SCORE:    0.00 PKD
ROOT
HETATM    1  C   UNL     1     -12.678  15.029  73.898  1.00  0.00    -0.535 C  
HETATM    2  C   UNL     1     -13.007  15.926  72.688  1.00  0.00    -0.466 C  
HETATM    3  C   UNL     1     -11.663  16.312  72.049  1.00  0.00    -0.528 C  
ENDROOT
BRANCH   2   4
HETATM    4  N   UNL     1     -13.925  15.225  71.759  1.00  0.00    -0.499 NA 
HETATM    5  C   UNL     1     -13.351  15.084  70.394  1.00  0.00    -0.020 C  
HETATM    6  C   UNL     1     -12.217  14.043  70.270  1.00  0.00    -0.361 C  
HETATM    7  N   UNL     1     -12.699  12.732  70.733  1.00  0.00    -0.197 NA 
HETATM    8  C   UNL     1     -14.345  13.863  72.191  1.00  0.00    -0.438 C  
HETATM    9  C   UNL     1     -13.268  12.745  72.090  1.00  0.00    -0.441 C  
BRANCH   7  10
HETATM   10  C   UNL     1     -12.132  11.580  70.210  1.00  0.00    -0.359 A  
HETATM   11  C   UNL     1     -11.683  10.548  71.036  1.00  0.00    -0.384 A  
HETATM   12  C   UNL     1     -10.927   9.487  70.541  1.00  0.00    -0.348 A  
HETATM   13  C   UNL     1     -10.586   9.415  69.191  1.00  0.00    -0.218 A  
HETATM   14  C   UNL     1     -11.866  11.454  68.838  1.00  0.00    -0.413 A  
HETATM   15  C   UNL     1     -11.094  10.390  68.332  1.00  0.00    -0.322 A  
BRANCH  13  16
HETATM   16  O   UNL     1      -9.759   8.458  68.643  1.00  0.00    -0.158 OA 
BRANCH  16  17
HETATM   17  C   UNL     1      -8.383   8.850  68.573  1.00  0.00    -0.125 C  
BRANCH  17  18
HETATM   18  C   UNL     1      -8.150  10.340  68.799  1.00  0.00    -0.120 C  
HETATM   19  C   UNL     1      -6.861  10.648  69.516  1.00  0.00    -0.109 C  
HETATM   20  O   UNL     1      -6.453  11.902  68.970  1.00  0.00    -0.072 OA 
HETATM   21  C   UNL     1      -6.977  11.959  67.621  1.00  0.00    -0.112 C  
HETATM   22  O   UNL     1      -8.012  10.963  67.517  1.00  0.00    -0.112 OA 
BRANCH  21  23
HETATM   23  C   UNL     1      -7.603  13.328  67.346  1.00  0.00    -0.137 A  
HETATM   24  C   UNL     1      -8.918  13.401  66.836  1.00  0.00    -0.216 A  
HETATM   25  C   UNL     1      -6.942  14.552  67.587  1.00  0.00    -0.184 A  
HETATM   26  C   UNL     1      -9.561  14.624  66.633  1.00  0.00    -0.294 A  
HETATM   27  C   UNL     1      -7.595  15.778  67.401  1.00  0.00    -0.220 A  
HETATM   28 CL   UNL     1      -5.287  14.653  68.080  1.00  0.00    -0.115 Cl 
HETATM   29 CL   UNL     1      -9.709  17.313  66.731  1.00  0.00    -0.270 Cl 
HETATM   30  C   UNL     1      -8.904  15.808  66.937  1.00  0.00    -0.245 A  
ENDBRANCH  21  23
BRANCH  21  31
HETATM   31  C   UNL     1      -5.841  11.563  66.649  1.00  0.00    -0.137 C  
BRANCH  31  32
HETATM   32  N   UNL     1      -6.065  10.349  65.896  1.00  0.00    -0.102 NA 
HETATM   33  C   UNL     1      -5.606   9.098  66.178  1.00  0.00    -0.048 A  
HETATM   34  C   UNL     1      -7.020   9.003  64.637  1.00  0.00    -0.085 A  
HETATM   35  N   UNL     1      -6.184   8.227  65.387  1.00  0.00    -0.045 NA 
HETATM   36  N   UNL     1      -6.981  10.308  64.914  1.00  0.00    -0.127 NA 
ENDBRANCH  31  32
ENDBRANCH  21  31
ENDBRANCH  17  18
ENDBRANCH  16  17
ENDBRANCH  13  16
ENDBRANCH   7  10
ENDBRANCH   2   4
TORSDOF 8
ENDMDL
MODEL       96
REMARK 921   NORMALIZED FREE ENERGY PREDICTED BY IDOCK:   -4.90 KCAL/MOL
REMARK 922        TOTAL FREE ENERGY PREDICTED BY IDOCK:   -8.36 KCAL/MOL
REMARK 923 INTER-LIGAND FREE ENERGY PREDICTED BY IDOCK:   -8.99 KCAL/MOL
REMARK 924 INTRA-LIGAND FREE ENERGY PREDICTED BY IDOCK:    0.63 KCAL/MOL
REMARK 927      BINDING AFFINITY PREDICTED BY RF-SCORE:    0.00 PKD
ROOT
HETATM    1  C   UNL     1      -9.612  19.425  69.305  1.00  0.00    -0.275 C  
HETATM    2  C   UNL     1      -8.466  20.215  68.641  1.00  0.00     0.160 C  
HETATM    3  C   UNL     1      -7.167  19.455  68.959  1.00  0.00    -0.397 C  
ENDROOT
BRANCH   2   4
HETATM    4  N   UNL     1      -8.719  20.371  67.189  1.00  0.00    -0.337 NA 
HETATM    5  C   UNL     1      -7.877  19.463  66.365  1.00  0.00    -0.302 C  
HETATM    6  C   UNL     1      -8.288  17.975  66.411  1.00  0.00    -0.246 C  
HETATM    7  N   UNL     1      -9.695  17.840  66.001  1.00  0.00    -0.533 NA 
HETATM    8  C   UNL     1     -10.130  20.151  66.765  1.00  0.00    -0.457 C  
HETATM    9  C   UNL     1     -10.629  18.677  66.769  1.00  0.00    -0.371 C  
BRANCH   7  10
HETATM   10  C   UNL     1     -10.117  16.657  65.414  1.00  0.00    -0.018 A  
HETATM   11  C   UNL     1     -11.347  16.566  64.761  1.00  0.00    -0.078 A  
HETATM   12  C   UNL     1     -11.874  15.341  64.353  1.00  0.00    -0.288 A  
HETATM   13  C   UNL     1     -11.188  14.150  64.586  1.00  0.00    -0.368 A  
HETATM   14  C   UNL     1      -9.390  15.466  65.562  1.00  0.00    -0.037 A  
HETATM   15  C   UNL     1      -9.919  14.224  65.161  1.00  0.00    -0.266 A  
BRANCH  13  16
HETATM   16  O   UNL     1     -11.684  12.895  64.308  1.00  0.00    -0.341 OA 
BRANCH  16  17
HETATM   17  C   UNL     1     -12.509  12.353  65.346  1.00  0.00    -0.106 C  
BRANCH  17  18
HETATM   18  C   UNL     1     -11.785  11.378  66.269  1.00  0.00     0.393 C  
HETATM   19  C   UNL     1     -10.336  11.172  65.914  1.00  0.00    -0.259 C  
HETATM   20  O   UNL     1      -9.700  10.946  67.172  1.00  0.00    -0.171 OA 
HETATM   21  C   UNL     1     -10.477  11.662  68.164  1.00  0.00    -0.195 C  
HETATM   22  O   UNL     1     -11.761  11.950  67.582  1.00  0.00    -0.460 OA 
BRANCH  21  23
HETATM   23  C   UNL     1     -10.699  10.790  69.402  1.00  0.00    -0.272 A  
HETATM   24  C   UNL     1     -11.997  10.675  69.947  1.00  0.00    -0.385 A  
HETATM   25  C   UNL     1      -9.671  10.062  70.040  1.00  0.00    -0.175 A  
HETATM   26  C   UNL     1     -12.267   9.838  71.032  1.00  0.00    -0.436 A  
HETATM   27  C   UNL     1      -9.947   9.208  71.117  1.00  0.00    -0.377 A  
HETATM   28 CL   UNL     1      -8.004  10.189  69.594  1.00  0.00    -0.172 Cl 
HETATM   29 CL   UNL     1     -11.583   8.026  72.906  1.00  0.00    -0.397 Cl 
HETATM   30  C   UNL     1     -11.244   9.092  71.599  1.00  0.00    -0.377 A  
ENDBRANCH  21  23
BRANCH  21  31
HETATM   31  C   UNL     1      -9.771  13.009  68.444  1.00  0.00    -0.192 C  
BRANCH  31  32
HETATM   32  N   UNL     1     -10.629  14.070  68.922  1.00  0.00    -0.245 NA 
HETATM   33  C   UNL     1     -11.109  15.133  68.219  1.00  0.00    -0.291 A  
HETATM   34  C   UNL     1     -12.070  15.020  70.075  1.00  0.00    -0.337 A  
HETATM   35  N   UNL     1     -12.014  15.760  68.930  1.00  0.00    -0.343 NA 
HETATM   36  N   UNL     1     -11.240  13.975  70.115  1.00  0.00    -0.041 NA 
ENDBRANCH  31  32
ENDBRANCH  21  31
ENDBRANCH  17  18
ENDBRANCH  16  17
ENDBRANCH  13  16
ENDBRANCH   7  10
ENDBRANCH   2   4
TORSDOF 8
ENDMDL
MODEL       97
REMARK 921   NORMALIZED FREE ENERGY PREDICTED BY IDOCK:   -4.86 KCAL/MOL
REMARK 922        TOTAL FREE ENERGY PREDICTED BY IDOCK:   -8.31 KCAL/MOL
REMARK 923 INTER-LIGAND FREE ENERGY PREDICTED BY IDOCK:   -7.44 KCAL/MOL
REMARK 924 INTRA-LIGAND FREE ENERGY PREDICTED BY IDOCK:   -0.86 KCAL/MOL
REMARK 927      BINDING AFFINITY PREDICTED BY RF-SCORE:    0.00 PKD
ROOT
HETATM    1  C   UNL     1     -11.392  16.445  71.140  1.00  0.00    -0.191 C  
HETATM    2  C   UNL     1     -12.161  15.403  71.978  1.00  0.00    -0.399 C  
HETATM    3  C   UNL     1     -12.787  16.165  73.158  1.00  0.00    -0.559 C  
ENDROOT
BRANCH   2   4
HETATM    4  N   UNL     1     -13.154  14.695  71.136  1.00  0.00    -0.351 NA 
HETATM    5  C   UNL     1     -12.529  14.021  69.967  1.00  0.00    -0.281 C  
HETATM    6  C   UNL     1     -11.716  12.753  70.306  1.00  0.00    -0.107 C  
HETATM    7  N   UNL     1     -12.573  11.793  71.020  1.00  0.00    -0.359 NA 
HETATM    8  C   UNL     1     -13.964  13.664  71.844  1.00  0.00    -0.324 C  
HETATM    9  C   UNL     1     -13.227  12.345  72.216  1.00  0.00    -0.287 C  
BRANCH   7  10
HETATM   10  C   UNL     1     -12.300  10.438  70.919  1.00  0.00    -0.381 A  
HETATM   11  C   UNL     1     -13.013   9.494  71.660  1.00  0.00    -0.483 A  
HETATM   12  C   UNL     1     -12.615   8.159  71.729  1.00  0.00    -0.360 A  
HETATM   13  C   UNL     1     -11.478   7.713  71.055  1.00  0.00    -0.276 A  
HETATM   14  C   UNL     1     -11.213   9.964  70.170  1.00  0.00    -0.347 A  
HETATM   15  C   UNL     1     -10.798   8.620  70.242  1.00  0.00    -0.250 A  
BRANCH  13  16
HETATM   16  O   UNL     1     -10.961   6.440  71.154  1.00  0.00    -0.251 OA 
BRANCH  16  17
HETATM   17  C   UNL     1     -11.089   5.666  69.956  1.00  0.00    -0.128 C  
BRANCH  17  18
HETATM   18  C   UNL     1      -9.795   5.532  69.162  1.00  0.00    -0.167 C  
HETATM   19  C   UNL     1      -9.345   4.106  68.975  1.00  0.00    -0.165 C  
HETATM   20  O   UNL     1      -8.706   4.109  67.698  1.00  0.00    -0.102 OA 
HETATM   21  C   UNL     1      -9.343   5.150  66.918  1.00  0.00    -0.128 C  
HETATM   22  O   UNL     1     -10.041   6.013  67.835  1.00  0.00    -0.133 OA 
BRANCH  21  23
HETATM   23  C   UNL     1      -8.293   5.986  66.182  1.00  0.00    -0.126 A  
HETATM   24  C   UNL     1      -7.033   5.418  65.891  1.00  0.00    -0.066 A  
HETATM   25  C   UNL     1      -8.512   7.312  65.751  1.00  0.00    -0.143 A  
HETATM   26  C   UNL     1      -6.065   6.112  65.161  1.00  0.00    -0.030 A  
HETATM   27  C   UNL     1      -7.547   8.001  65.003  1.00  0.00    -0.104 A  
HETATM   28 CL   UNL     1      -9.939   8.210  66.137  1.00  0.00    -0.139 Cl 
HETATM   29 CL   UNL     1      -5.162   8.232  63.765  1.00  0.00    -0.048 Cl 
HETATM   30  C   UNL     1      -6.334   7.394  64.702  1.00  0.00    -0.037 A  
ENDBRANCH  21  23
BRANCH  21  31
HETATM   31  C   UNL     1     -10.396   4.486  66.000  1.00  0.00    -0.243 C  
BRANCH  31  32
HETATM   32  N   UNL     1      -9.870   3.850  64.813  1.00  0.00    -0.188 NA 
HETATM   33  C   UNL     1      -9.307   2.614  64.710  1.00  0.00    -0.139 A  
HETATM   34  C   UNL     1      -9.645   3.400  62.799  1.00  0.00    -0.099 A  
HETATM   35  N   UNL     1      -9.142   2.308  63.446  1.00  0.00    -0.092 NA 
HETATM   36  N   UNL     1     -10.102   4.369  63.595  1.00  0.00     0.040 NA 
ENDBRANCH  31  32
ENDBRANCH  21  31
ENDBRANCH  17  18
ENDBRANCH  16  17
ENDBRANCH  13  16
ENDBRANCH   7  10
ENDBRANCH   2   4
TORSDOF 8
ENDMDL
MODEL       98
REMARK 921   NORMALIZED FREE ENERGY PREDICTED BY IDOCK:   -4.83 KCAL/MOL
REMARK 922        TOTAL FREE ENERGY PREDICTED BY IDOCK:   -8.27 KCAL/MOL
REMARK 923 INTER-LIGAND FREE ENERGY PREDICTED BY IDOCK:   -8.07 KCAL/MOL
REMARK 924 INTRA-LIGAND FREE ENERGY PREDICTED BY IDOCK:   -0.19 KCAL/MOL
REMARK 927      BINDING AFFINITY PREDICTED BY RF-SCORE:    0.00 PKD
ROOT
HETATM    1  C   UNL     1     -10.187  15.689  65.462  1.00  0.00    -0.414 C  
HETATM    2  C   UNL     1     -11.617  15.182  65.737  1.00  0.00    -0.097 C  
HETATM    3  C   UNL     1     -12.096  14.498  64.446  1.00  0.00    -0.492 C  
ENDROOT
BRANCH   2   4
HETATM    4  N   UNL     1     -11.631  14.290  66.920  1.00  0.00    -0.369 NA 
HETATM    5  C   UNL     1     -12.130  12.926  66.596  1.00  0.00    -0.289 C  
HETATM    6  C   UNL     1     -11.151  12.052  65.782  1.00  0.00    -0.324 C  
HETATM    7  N   UNL     1      -9.872  11.943  66.502  1.00  0.00    -0.201 NA 
HETATM    8  C   UNL     1     -10.316  14.115  67.598  1.00  0.00    -0.241 C  
HETATM    9  C   UNL     1      -9.268  13.237  66.854  1.00  0.00    -0.241 C  
BRANCH   7  10
HETATM   10  C   UNL     1      -9.085  10.817  66.316  1.00  0.00    -0.175 A  
HETATM   11  C   UNL     1      -9.440   9.823  65.403  1.00  0.00    -0.333 A  
HETATM   12  C   UNL     1      -8.778   8.597  65.356  1.00  0.00    -0.208 A  
HETATM   13  C   UNL     1      -7.727   8.315  66.228  1.00  0.00    -0.097 A  
HETATM   14  C   UNL     1      -7.968  10.563  67.126  1.00  0.00    -0.116 A  
HETATM   15  C   UNL     1      -7.300   9.324  67.091  1.00  0.00    -0.091 A  
BRANCH  13  16
HETATM   16  O   UNL     1      -7.091   7.095  66.316  1.00  0.00    -0.070 OA 
BRANCH  16  17
HETATM   17  C   UNL     1      -7.202   6.472  67.600  1.00  0.00    -0.090 C  
BRANCH  17  18
HETATM   18  C   UNL     1      -8.627   6.411  68.140  1.00  0.00    -0.117 C  
HETATM   19  C   UNL     1      -9.153   5.009  68.297  1.00  0.00    -0.115 C  
HETATM   20  O   UNL     1     -10.021   5.089  69.428  1.00  0.00    -0.188 OA 
HETATM   21  C   UNL     1      -9.507   6.150  70.271  1.00  0.00    -0.160 C  
HETATM   22  O   UNL     1      -8.619   6.949  69.467  1.00  0.00    -0.132 OA 
BRANCH  21  23
HETATM   23  C   UNL     1     -10.646   7.048  70.758  1.00  0.00    -0.240 A  
HETATM   24  C   UNL     1     -11.983   6.613  70.614  1.00  0.00    -0.404 A  
HETATM   25  C   UNL     1     -10.445   8.303  71.370  1.00  0.00    -0.219 A  
HETATM   26  C   UNL     1     -13.056   7.361  71.103  1.00  0.00    -0.276 A  
HETATM   27  C   UNL     1     -11.521   9.044  71.878  1.00  0.00    -0.440 A  
HETATM   28 CL   UNL     1      -8.891   9.052  71.507  1.00  0.00    -0.241 Cl 
HETATM   29 CL   UNL     1     -14.135   9.465  72.397  1.00  0.00    -0.369 Cl 
HETATM   30  C   UNL     1     -12.819   8.564  71.753  1.00  0.00    -0.348 A  
ENDBRANCH  21  23
BRANCH  21  31
HETATM   31  C   UNL     1      -8.670   5.502  71.399  1.00  0.00    -0.132 C  
BRANCH  31  32
HETATM   32  N   UNL     1      -9.429   4.995  72.519  1.00  0.00    -0.141 NA 
HETATM   33  C   UNL     1     -10.045   3.786  72.629  1.00  0.00    -0.163 A  
HETATM   34  C   UNL     1     -10.038   4.747  74.489  1.00  0.00    -0.235 A  
HETATM   35  N   UNL     1     -10.452   3.607  73.863  1.00  0.00    -0.170 NA 
HETATM   36  N   UNL     1      -9.407   5.626  73.707  1.00  0.00    -0.136 NA 
ENDBRANCH  31  32
ENDBRANCH  21  31
ENDBRANCH  17  18
ENDBRANCH  16  17
ENDBRANCH  13  16
ENDBRANCH   7  10
ENDBRANCH   2   4
TORSDOF 8
ENDMDL
MODEL       99
REMARK 921   NORMALIZED FREE ENERGY PREDICTED BY IDOCK:   -4.83 KCAL/MOL
REMARK 922        TOTAL FREE ENERGY PREDICTED BY IDOCK:   -8.26 KCAL/MOL
REMARK 923 INTER-LIGAND FREE ENERGY PREDICTED BY IDOCK:   -7.78 KCAL/MOL
REMARK 924 INTRA-LIGAND FREE ENERGY PREDICTED BY IDOCK:   -0.48 KCAL/MOL
REMARK 927      BINDING AFFINITY PREDICTED BY RF-SCORE:    0.00 PKD
ROOT
HETATM    1  C   UNL     1      -7.757   1.966  64.573  1.00  0.00    -0.064 C  
HETATM    2  C   UNL     1      -6.599   2.984  64.554  1.00  0.00    -0.035 C  
HETATM    3  C   UNL     1      -5.329   2.212  64.948  1.00  0.00    -0.008 C  
ENDROOT
BRANCH   2   4
HETATM    4  N   UNL     1      -6.507   3.637  63.227  1.00  0.00    -0.025 NA 
HETATM    5  C   UNL     1      -7.819   4.162  62.761  1.00  0.00    -0.066 C  
HETATM    6  C   UNL     1      -8.311   5.427  63.497  1.00  0.00    -0.097 C  
HETATM    7  N   UNL     1      -7.296   6.487  63.388  1.00  0.00    -0.061 NA 
HETATM    8  C   UNL     1      -5.539   4.766  63.142  1.00  0.00    -0.013 C  
HETATM    9  C   UNL     1      -5.958   6.088  63.848  1.00  0.00    -0.022 C  
BRANCH   7  10
HETATM   10  C   UNL     1      -7.698   7.813  63.430  1.00  0.00    -0.135 A  
HETATM   11  C   UNL     1      -7.398   8.631  64.521  1.00  0.00    -0.099 A  
HETATM   12  C   UNL     1      -7.970   9.894  64.672  1.00  0.00    -0.141 A  
HETATM   13  C   UNL     1      -8.872  10.392  63.732  1.00  0.00    -0.212 A  
HETATM   14  C   UNL     1      -8.532   8.357  62.442  1.00  0.00    -0.151 A  
HETATM   15  C   UNL     1      -9.121   9.628  62.592  1.00  0.00    -0.267 A  
BRANCH  13  16
HETATM   16  O   UNL     1      -9.556  11.581  63.860  1.00  0.00    -0.238 OA 
BRANCH  16  17
HETATM   17  C   UNL     1     -10.618  11.540  64.820  1.00  0.00    -0.305 C  
BRANCH  17  18
HETATM   18  C   UNL     1     -10.146  11.380  66.261  1.00  0.00    -0.224 C  
HETATM   19  C   UNL     1      -9.417  12.585  66.795  1.00  0.00    -0.231 C  
HETATM   20  O   UNL     1      -9.749  12.603  68.184  1.00  0.00    -0.210 OA 
HETATM   21  C   UNL     1     -11.057  11.992  68.306  1.00  0.00    -0.243 C  
HETATM   22  O   UNL     1     -11.306  11.257  67.093  1.00  0.00    -0.379 OA 
BRANCH  21  23
HETATM   23  C   UNL     1     -11.080  11.004  69.475  1.00  0.00    -0.322 A  
HETATM   24  C   UNL     1     -12.233  10.915  70.286  1.00  0.00    -0.432 A  
HETATM   25  C   UNL     1     -10.005  10.146  69.793  1.00  0.00    -0.220 A  
HETATM   26  C   UNL     1     -12.332   9.983  71.322  1.00  0.00    -0.496 A  
HETATM   27  C   UNL     1     -10.113   9.198  70.821  1.00  0.00    -0.333 A  
HETATM   28 CL   UNL     1      -8.471  10.213  68.996  1.00  0.00    -0.140 Cl 
HETATM   29 CL   UNL     1     -11.417   7.934  72.815  1.00  0.00    -0.455 Cl 
HETATM   30  C   UNL     1     -11.279   9.114  71.571  1.00  0.00    -0.360 A  
ENDBRANCH  21  23
BRANCH  21  31
HETATM   31  C   UNL     1     -12.108  13.122  68.398  1.00  0.00    -0.181 C  
BRANCH  31  32
HETATM   32  N   UNL     1     -11.621  14.379  68.919  1.00  0.00    -0.287 NA 
HETATM   33  C   UNL     1     -11.386  15.531  68.232  1.00  0.00    -0.357 A  
HETATM   34  C   UNL     1     -11.275  15.900  70.289  1.00  0.00    -0.380 A  
HETATM   35  N   UNL     1     -11.151  16.509  69.074  1.00  0.00    -0.311 NA 
HETATM   36  N   UNL     1     -11.562  14.597  70.245  1.00  0.00    -0.278 NA 
ENDBRANCH  31  32
ENDBRANCH  21  31
ENDBRANCH  17  18
ENDBRANCH  16  17
ENDBRANCH  13  16
ENDBRANCH   7  10
ENDBRANCH   2   4
TORSDOF 8
ENDMDL
MODEL      100
REMARK 921   NORMALIZED FREE ENERGY PREDICTED BY IDOCK:   -4.83 KCAL/MOL
REMARK 922        TOTAL FREE ENERGY PREDICTED BY IDOCK:   -8.26 KCAL/MOL
REMARK 923 INTER-LIGAND FREE ENERGY PREDICTED BY IDOCK:   -7.50 KCAL/MOL
REMARK 924 INTRA-LIGAND FREE ENERGY PREDICTED BY IDOCK:   -0.76 KCAL/MOL
REMARK 927      BINDING AFFINITY PREDICTED BY RF-SCORE:    0.00 PKD
ROOT
HETATM    1  C   UNL     1      -9.740   1.611  71.904  1.00  0.00    -0.195 C  
HETATM    2  C   UNL     1      -9.271   2.451  73.109  1.00  0.00    -0.080 C  
HETATM    3  C   UNL     1      -8.484   1.500  74.026  1.00  0.00    -0.050 C  
ENDROOT
BRANCH   2   4
HETATM    4  N   UNL     1      -8.482   3.618  72.650  1.00  0.00    -0.089 NA 
HETATM    5  C   UNL     1      -8.950   4.137  71.336  1.00  0.00    -0.118 C  
HETATM    6  C   UNL     1     -10.295   4.894  71.377  1.00  0.00    -0.151 C  
HETATM    7  N   UNL     1     -10.205   6.007  72.336  1.00  0.00    -0.187 NA 
HETATM    8  C   UNL     1      -8.462   4.778  73.586  1.00  0.00    -0.105 C  
HETATM    9  C   UNL     1      -9.775   5.607  73.684  1.00  0.00    -0.153 C  
BRANCH   7  10
HETATM   10  C   UNL     1     -10.997   7.129  72.144  1.00  0.00    -0.241 A  
HETATM   11  C   UNL     1     -12.381   7.027  71.992  1.00  0.00    -0.302 A  
HETATM   12  C   UNL     1     -13.158   8.113  71.592  1.00  0.00    -0.358 A  
HETATM   13  C   UNL     1     -12.578   9.353  71.325  1.00  0.00    -0.325 A  
HETATM   14  C   UNL     1     -10.433   8.401  71.965  1.00  0.00    -0.384 A  
HETATM   15  C   UNL     1     -11.210   9.500  71.551  1.00  0.00    -0.437 A  
BRANCH  13  16
HETATM   16  O   UNL     1     -13.259  10.443  70.828  1.00  0.00    -0.375 OA 
BRANCH  16  17
HETATM   17  C   UNL     1     -12.476  11.641  70.771  1.00  0.00    -0.330 C  
BRANCH  17  18
HETATM   18  C   UNL     1     -12.056  12.041  69.361  1.00  0.00    -0.202 C  
HETATM   19  C   UNL     1     -11.483  13.431  69.272  1.00  0.00    -0.290 C  
HETATM   20  O   UNL     1     -10.512  13.340  68.230  1.00  0.00    -0.237 OA 
HETATM   21  C   UNL     1     -10.032  11.973  68.229  1.00  0.00    -0.203 C  
HETATM   22  O   UNL     1     -10.985  11.178  68.959  1.00  0.00    -0.205 OA 
BRANCH  21  23
HETATM   23  C   UNL     1      -9.957  11.433  66.799  1.00  0.00    -0.238 A  
HETATM   24  C   UNL     1     -10.051  12.330  65.712  1.00  0.00    -0.274 A  
HETATM   25  C   UNL     1      -9.780  10.067  66.487  1.00  0.00    -0.200 A  
HETATM   26  C   UNL     1      -9.919  11.899  64.389  1.00  0.00    -0.260 A  
HETATM   27  C   UNL     1      -9.629   9.639  65.161  1.00  0.00    -0.324 A  
HETATM   28 CL   UNL     1      -9.781   8.816  67.682  1.00  0.00    -0.196 Cl 
HETATM   29 CL   UNL     1      -9.480  10.032  62.497  1.00  0.00    -0.292 Cl 
HETATM   30  C   UNL     1      -9.688  10.558  64.121  1.00  0.00    -0.327 A  
ENDBRANCH  21  23
BRANCH  21  31
HETATM   31  C   UNL     1      -8.693  11.934  69.002  1.00  0.00     0.309 C  
BRANCH  31  32
HETATM   32  N   UNL     1      -7.504  11.931  68.182  1.00  0.00    -0.092 NA 
HETATM   33  C   UNL     1      -6.914  12.992  67.565  1.00  0.00    -0.151 A  
HETATM   34  C   UNL     1      -5.654  11.324  67.461  1.00  0.00    -0.047 A  
HETATM   35  N   UNL     1      -5.746  12.633  67.088  1.00  0.00    -0.335 NA 
HETATM   36  N   UNL     1      -6.705  10.850  68.132  1.00  0.00    -0.062 NA 
ENDBRANCH  31  32
ENDBRANCH  21  31
ENDBRANCH  17  18
ENDBRANCH  16  17
ENDBRANCH  13  16
ENDBRANCH   7  10
ENDBRANCH   2   4
TORSDOF 8
ENDMDL
MODEL      101
REMARK 921   NORMALIZED FREE ENERGY PREDICTED BY IDOCK:   -4.81 KCAL/MOL
REMARK 922        TOTAL FREE ENERGY PREDICTED BY IDOCK:   -8.23 KCAL/MOL
REMARK 923 INTER-LIGAND FREE ENERGY PREDICTED BY IDOCK:   -8.06 KCAL/MOL
REMARK 924 INTRA-LIGAND FREE ENERGY PREDICTED BY IDOCK:   -0.17 KCAL/MOL
REMARK 927      BINDING AFFINITY PREDICTED BY RF-SCORE:    0.00 PKD
ROOT
HETATM    1  C   UNL     1     -11.204  16.333  69.994  1.00  0.00    -0.324 C  
HETATM    2  C   UNL     1     -11.784  15.394  71.072  1.00  0.00    -0.364 C  
HETATM    3  C   UNL     1     -12.247  16.291  72.232  1.00  0.00    -0.503 C  
ENDROOT
BRANCH   2   4
HETATM    4  N   UNL     1     -12.867  14.560  70.501  1.00  0.00    -0.342 NA 
HETATM    5  C   UNL     1     -12.361  13.578  69.503  1.00  0.00    -0.147 C  
HETATM    6  C   UNL     1     -11.580  12.389  70.101  1.00  0.00    -0.077 C  
HETATM    7  N   UNL     1     -12.421  11.691  71.087  1.00  0.00    -0.349 NA 
HETATM    8  C   UNL     1     -13.665  13.788  71.495  1.00  0.00    -0.211 C  
HETATM    9  C   UNL     1     -12.959  12.562  72.143  1.00  0.00    -0.214 C  
BRANCH   7  10
HETATM   10  C   UNL     1     -12.214  10.339  71.316  1.00  0.00    -0.395 A  
HETATM   11  C   UNL     1     -13.253   9.503  71.727  1.00  0.00    -0.505 A  
HETATM   12  C   UNL     1     -13.019   8.199  72.161  1.00  0.00    -0.287 A  
HETATM   13  C   UNL     1     -11.727   7.676  72.202  1.00  0.00    -0.311 A  
HETATM   14  C   UNL     1     -10.930   9.777  71.271  1.00  0.00    -0.331 A  
HETATM   15  C   UNL     1     -10.684   8.464  71.717  1.00  0.00    -0.355 A  
BRANCH  13  16
HETATM   16  O   UNL     1     -11.401   6.438  72.712  1.00  0.00    -0.251 OA 
BRANCH  16  17
HETATM   17  C   UNL     1     -11.002   5.487  71.719  1.00  0.00    -0.182 C  
BRANCH  17  18
HETATM   18  C   UNL     1      -9.955   6.011  70.742  1.00  0.00    -0.191 C  
HETATM   19  C   UNL     1      -8.768   5.098  70.581  1.00  0.00    -0.127 C  
HETATM   20  O   UNL     1      -8.369   5.284  69.223  1.00  0.00    -0.090 OA 
HETATM   21  C   UNL     1      -9.564   5.640  68.485  1.00  0.00    -0.130 C  
HETATM   22  O   UNL     1     -10.553   6.064  69.442  1.00  0.00    -0.232 OA 
BRANCH  21  23
HETATM   23  C   UNL     1      -9.281   6.811  67.541  1.00  0.00    -0.122 A  
HETATM   24  C   UNL     1     -10.332   7.685  67.184  1.00  0.00    -0.385 A  
HETATM   25  C   UNL     1      -8.006   7.091  67.004  1.00  0.00    -0.116 A  
HETATM   26  C   UNL     1     -10.114   8.808  66.383  1.00  0.00    -0.313 A  
HETATM   27  C   UNL     1      -7.785   8.229  66.215  1.00  0.00    -0.097 A  
HETATM   28 CL   UNL     1      -6.638   6.055  67.223  1.00  0.00    -0.050 Cl 
HETATM   29 CL   UNL     1      -8.557  10.494  64.970  1.00  0.00    -0.183 Cl 
HETATM   30  C   UNL     1      -8.836   9.087  65.919  1.00  0.00    -0.175 A  
ENDBRANCH  21  23
BRANCH  21  31
HETATM   31  C   UNL     1     -10.095   4.366  67.788  1.00  0.00     0.042 C  
BRANCH  31  32
HETATM   32  N   UNL     1      -9.511   4.076  66.499  1.00  0.00    -0.182 NA 
HETATM   33  C   UNL     1      -8.488   3.220  66.221  1.00  0.00    -0.108 A  
HETATM   34  C   UNL     1      -9.387   3.850  64.439  1.00  0.00    -0.153 A  
HETATM   35  N   UNL     1      -8.378   3.069  64.924  1.00  0.00    -0.093 NA 
HETATM   36  N   UNL     1     -10.107   4.486  65.366  1.00  0.00    -0.205 NA 
ENDBRANCH  31  32
ENDBRANCH  21  31
ENDBRANCH  17  18
ENDBRANCH  16  17
ENDBRANCH  13  16
ENDBRANCH   7  10
ENDBRANCH   2   4
TORSDOF 8
ENDMDL
MODEL      102
REMARK 921   NORMALIZED FREE ENERGY PREDICTED BY IDOCK:   -4.75 KCAL/MOL
REMARK 922        TOTAL FREE ENERGY PREDICTED BY IDOCK:   -8.15 KCAL/MOL
REMARK 923 INTER-LIGAND FREE ENERGY PREDICTED BY IDOCK:   -7.93 KCAL/MOL
REMARK 924 INTRA-LIGAND FREE ENERGY PREDICTED BY IDOCK:   -0.22 KCAL/MOL
REMARK 927      BINDING AFFINITY PREDICTED BY RF-SCORE:    0.00 PKD
ROOT
HETATM    1  C   UNL     1      -9.424   2.183  70.474  1.00  0.00    -0.172 C  
HETATM    2  C   UNL     1      -8.466   3.300  70.012  1.00  0.00    -0.052 C  
HETATM    3  C   UNL     1      -7.143   3.082  70.764  1.00  0.00    -0.033 C  
ENDROOT
BRANCH   2   4
HETATM    4  N   UNL     1      -8.319   3.277  68.537  1.00  0.00    -0.072 NA 
HETATM    5  C   UNL     1      -9.499   3.856  67.841  1.00  0.00    -0.173 C  
HETATM    6  C   UNL     1      -9.622   5.392  67.937  1.00  0.00    -0.129 C  
HETATM    7  N   UNL     1      -8.395   6.019  67.419  1.00  0.00    -0.106 NA 
HETATM    8  C   UNL     1      -7.119   3.985  68.008  1.00  0.00    -0.059 C  
HETATM    9  C   UNL     1      -7.160   5.539  68.056  1.00  0.00    -0.067 C  
BRANCH   7  10
HETATM   10  C   UNL     1      -8.467   7.288  66.868  1.00  0.00    -0.119 A  
HETATM   11  C   UNL     1      -9.691   7.871  66.535  1.00  0.00    -0.279 A  
HETATM   12  C   UNL     1      -9.767   9.049  65.793  1.00  0.00    -0.254 A  
HETATM   13  C   UNL     1      -8.614   9.694  65.349  1.00  0.00    -0.151 A  
HETATM   14  C   UNL     1      -7.311   7.992  66.498  1.00  0.00    -0.084 A  
HETATM   15  C   UNL     1      -7.379   9.177  65.740  1.00  0.00    -0.090 A  
BRANCH  13  16
HETATM   16  O   UNL     1      -8.605  10.801  64.527  1.00  0.00    -0.147 OA 
BRANCH  16  17
HETATM   17  C   UNL     1      -9.494  11.842  64.946  1.00  0.00     0.018 C  
BRANCH  17  18
HETATM   18  C   UNL     1      -9.653  11.953  66.458  1.00  0.00    -0.214 C  
HETATM   19  C   UNL     1      -8.935  13.135  67.056  1.00  0.00    -0.228 C  
HETATM   20  O   UNL     1      -9.757  13.517  68.159  1.00  0.00    -0.221 OA 
HETATM   21  C   UNL     1     -11.113  13.138  67.818  1.00  0.00    -0.262 C  
HETATM   22  O   UNL     1     -11.038  12.186  66.740  1.00  0.00    -0.268 OA 
BRANCH  21  23
HETATM   23  C   UNL     1     -11.795  12.457  69.007  1.00  0.00    -0.349 A  
HETATM   24  C   UNL     1     -11.958  11.054  69.005  1.00  0.00    -0.364 A  
HETATM   25  C   UNL     1     -12.268  13.154  70.140  1.00  0.00    -0.290 A  
HETATM   26  C   UNL     1     -12.510  10.376  70.095  1.00  0.00    -0.247 A  
HETATM   27  C   UNL     1     -12.804  12.471  71.241  1.00  0.00    -0.337 A  
HETATM   28 CL   UNL     1     -12.274  14.880  70.255  1.00  0.00    -0.362 Cl 
HETATM   29 CL   UNL     1     -13.547  10.250  72.578  1.00  0.00    -0.085 Cl 
HETATM   30  C   UNL     1     -12.911  11.087  71.217  1.00  0.00    -0.425 A  
ENDBRANCH  21  23
BRANCH  21  31
HETATM   31  C   UNL     1     -11.844  14.394  67.289  1.00  0.00    -0.405 C  
BRANCH  31  32
HETATM   32  N   UNL     1     -10.986  15.477  66.865  1.00  0.00    -0.302 NA 
HETATM   33  C   UNL     1     -10.580  15.770  65.598  1.00  0.00    -0.377 A  
HETATM   34  C   UNL     1     -10.067  17.338  66.887  1.00  0.00    -0.304 A  
HETATM   35  N   UNL     1      -9.984  16.937  65.585  1.00  0.00    -0.583 NA 
HETATM   36  N   UNL     1     -10.673  16.476  67.707  1.00  0.00    -0.337 NA 
ENDBRANCH  31  32
ENDBRANCH  21  31
ENDBRANCH  17  18
ENDBRANCH  16  17
ENDBRANCH  13  16
ENDBRANCH   7  10
ENDBRANCH   2   4
TORSDOF 8
ENDMDL
MODEL      103
REMARK 921   NORMALIZED FREE ENERGY PREDICTED BY IDOCK:   -4.69 KCAL/MOL
REMARK 922        TOTAL FREE ENERGY PREDICTED BY IDOCK:   -8.05 KCAL/MOL
REMARK 923 INTER-LIGAND FREE ENERGY PREDICTED BY IDOCK:   -7.70 KCAL/MOL
REMARK 924 INTRA-LIGAND FREE ENERGY PREDICTED BY IDOCK:   -0.36 KCAL/MOL
REMARK 927      BINDING AFFINITY PREDICTED BY RF-SCORE:    0.00 PKD
ROOT
HETATM    1  C   UNL     1     -10.837  17.372  68.211  1.00  0.00    -0.256 C  
HETATM    2  C   UNL     1     -11.002  15.854  68.427  1.00  0.00    -0.331 C  
HETATM    3  C   UNL     1     -11.998  15.681  69.585  1.00  0.00    -0.367 C  
ENDROOT
BRANCH   2   4
HETATM    4  N   UNL     1     -11.435  15.198  67.171  1.00  0.00    -0.299 NA 
HETATM    5  C   UNL     1     -10.328  15.077  66.184  1.00  0.00    -0.299 C  
HETATM    6  C   UNL     1      -9.264  14.012  66.528  1.00  0.00    -0.218 C  
HETATM    7  N   UNL     1      -9.913  12.702  66.696  1.00  0.00    -0.237 NA 
HETATM    8  C   UNL     1     -12.015  13.836  67.334  1.00  0.00    -0.388 C  
HETATM    9  C   UNL     1     -11.013  12.696  67.673  1.00  0.00    -0.241 C  
BRANCH   7  10
HETATM   10  C   UNL     1      -9.189  11.550  66.432  1.00  0.00    -0.208 A  
HETATM   11  C   UNL     1      -9.735  10.498  65.694  1.00  0.00    -0.289 A  
HETATM   12  C   UNL     1      -9.103   9.259  65.600  1.00  0.00    -0.268 A  
HETATM   13  C   UNL     1      -7.890   9.021  66.246  1.00  0.00    -0.099 A  
HETATM   14  C   UNL     1      -7.926  11.333  67.001  1.00  0.00    -0.150 A  
HETATM   15  C   UNL     1      -7.285  10.081  66.919  1.00  0.00    -0.091 A  
BRANCH  13  16
HETATM   16  O   UNL     1      -7.255   7.798  66.288  1.00  0.00    -0.072 OA 
BRANCH  16  17
HETATM   17  C   UNL     1      -8.110   6.688  65.992  1.00  0.00    -0.122 C  
BRANCH  17  18
HETATM   18  C   UNL     1      -9.373   6.633  66.844  1.00  0.00    -0.148 C  
HETATM   19  C   UNL     1      -9.977   5.257  66.942  1.00  0.00    -0.194 C  
HETATM   20  O   UNL     1     -10.552   5.223  68.248  1.00  0.00    -0.120 OA 
HETATM   21  C   UNL     1      -9.763   6.117  69.073  1.00  0.00    -0.135 C  
HETATM   22  O   UNL     1      -9.013   6.971  68.189  1.00  0.00    -0.128 OA 
BRANCH  21  23
HETATM   23  C   UNL     1     -10.674   7.000  69.929  1.00  0.00    -0.265 A  
HETATM   24  C   UNL     1     -11.896   6.477  70.409  1.00  0.00    -0.378 A  
HETATM   25  C   UNL     1     -10.359   8.327  70.292  1.00  0.00    -0.209 A  
HETATM   26  C   UNL     1     -12.731   7.216  71.250  1.00  0.00    -0.412 A  
HETATM   27  C   UNL     1     -11.188   9.061  71.152  1.00  0.00    -0.375 A  
HETATM   28 CL   UNL     1      -8.976   9.172  69.686  1.00  0.00    -0.147 Cl 
HETATM   29 CL   UNL     1     -13.366   9.391  72.708  1.00  0.00    -0.286 Cl 
HETATM   30  C   UNL     1     -12.363   8.498  71.635  1.00  0.00    -0.326 A  
ENDBRANCH  21  23
BRANCH  21  31
HETATM   31  C   UNL     1      -8.754   5.263  69.875  1.00  0.00    -0.105 C  
BRANCH  31  32
HETATM   32  N   UNL     1      -8.412   5.775  71.183  1.00  0.00    -0.126 NA 
HETATM   33  C   UNL     1      -8.901   5.374  72.389  1.00  0.00    -0.131 A  
HETATM   34  C   UNL     1      -7.269   6.653  72.677  1.00  0.00    -0.080 A  
HETATM   35  N   UNL     1      -8.204   5.924  73.354  1.00  0.00    -0.115 NA 
HETATM   36  N   UNL     1      -7.357   6.592  71.347  1.00  0.00    -0.082 NA 
ENDBRANCH  31  32
ENDBRANCH  21  31
ENDBRANCH  17  18
ENDBRANCH  16  17
ENDBRANCH  13  16
ENDBRANCH   7  10
ENDBRANCH   2   4
TORSDOF 8
ENDMDL
MODEL      104
REMARK 921   NORMALIZED FREE ENERGY PREDICTED BY IDOCK:   -4.69 KCAL/MOL
REMARK 922        TOTAL FREE ENERGY PREDICTED BY IDOCK:   -8.05 KCAL/MOL
REMARK 923 INTER-LIGAND FREE ENERGY PREDICTED BY IDOCK:   -8.34 KCAL/MOL
REMARK 924 INTRA-LIGAND FREE ENERGY PREDICTED BY IDOCK:    0.29 KCAL/MOL
REMARK 927      BINDING AFFINITY PREDICTED BY RF-SCORE:    0.00 PKD
ROOT
HETATM    1  C   UNL     1     -10.305  19.791  65.844  1.00  0.00    -0.582 C  
HETATM    2  C   UNL     1      -9.669  20.416  67.102  1.00  0.00    -0.460 C  
HETATM    3  C   UNL     1     -10.321  19.727  68.312  1.00  0.00    -0.536 C  
ENDROOT
BRANCH   2   4
HETATM    4  N   UNL     1      -8.195  20.271  67.062  1.00  0.00    -0.325 NA 
HETATM    5  C   UNL     1      -7.635  19.805  68.360  1.00  0.00    -0.301 C  
HETATM    6  C   UNL     1      -7.905  18.320  68.688  1.00  0.00    -0.296 C  
HETATM    7  N   UNL     1      -7.386  17.473  67.602  1.00  0.00    -0.179 NA 
HETATM    8  C   UNL     1      -7.676  19.346  66.015  1.00  0.00    -0.296 C  
HETATM    9  C   UNL     1      -7.894  17.827  66.268  1.00  0.00    -0.264 C  
BRANCH   7  10
HETATM   10  C   UNL     1      -6.981  16.179  67.889  1.00  0.00    -0.135 A  
HETATM   11  C   UNL     1      -7.765  15.325  68.667  1.00  0.00    -0.135 A  
HETATM   12  C   UNL     1      -7.280  14.105  69.137  1.00  0.00    -0.086 A  
HETATM   13  C   UNL     1      -5.982  13.688  68.846  1.00  0.00    -0.085 A  
HETATM   14  C   UNL     1      -5.710  15.711  67.522  1.00  0.00    -0.083 A  
HETATM   15  C   UNL     1      -5.210  14.485  68.000  1.00  0.00    -0.105 A  
BRANCH  13  16
HETATM   16  O   UNL     1      -5.395  12.549  69.354  1.00  0.00    -0.069 OA 
BRANCH  16  17
HETATM   17  C   UNL     1      -6.114  11.345  69.064  1.00  0.00    -0.054 C  
BRANCH  17  18
HETATM   18  C   UNL     1      -6.718  11.305  67.665  1.00  0.00    -0.073 C  
HETATM   19  C   UNL     1      -6.209  10.167  66.820  1.00  0.00    -0.068 C  
HETATM   20  O   UNL     1      -7.323   9.823  65.995  1.00  0.00    -0.096 OA 
HETATM   21  C   UNL     1      -8.516  10.161  66.746  1.00  0.00    -0.126 C  
HETATM   22  O   UNL     1      -8.123  11.061  67.799  1.00  0.00    -0.112 OA 
BRANCH  21  23
HETATM   23  C   UNL     1      -9.524  10.885  65.851  1.00  0.00    -0.241 A  
HETATM   24  C   UNL     1     -10.340  11.899  66.403  1.00  0.00    -0.252 A  
HETATM   25  C   UNL     1      -9.686  10.612  64.476  1.00  0.00    -0.309 A  
HETATM   26  C   UNL     1     -11.226  12.638  65.616  1.00  0.00    -0.344 A  
HETATM   27  C   UNL     1     -10.563  11.367  63.684  1.00  0.00    -0.476 A  
HETATM   28 CL   UNL     1      -8.873   9.318  63.665  1.00  0.00    -0.194 Cl 
HETATM   29 CL   UNL     1     -12.376  13.323  63.277  1.00  0.00    -0.477 Cl 
HETATM   30  C   UNL     1     -11.319  12.383  64.255  1.00  0.00    -0.360 A  
ENDBRANCH  21  23
BRANCH  21  31
HETATM   31  C   UNL     1      -9.050   8.867  67.403  1.00  0.00    -0.132 C  
BRANCH  31  32
HETATM   32  N   UNL     1      -9.632   9.035  68.715  1.00  0.00    -0.151 NA 
HETATM   33  C   UNL     1      -9.039   8.818  69.922  1.00  0.00    -0.157 A  
HETATM   34  C   UNL     1     -10.873   9.789  70.199  1.00  0.00    -0.291 A  
HETATM   35  N   UNL     1      -9.809   9.274  70.881  1.00  0.00    -0.285 NA 
HETATM   36  N   UNL     1     -10.809   9.665  68.871  1.00  0.00    -0.206 NA 
ENDBRANCH  31  32
ENDBRANCH  21  31
ENDBRANCH  17  18
ENDBRANCH  16  17
ENDBRANCH  13  16
ENDBRANCH   7  10
ENDBRANCH   2   4
TORSDOF 8
ENDMDL
MODEL      105
REMARK 921   NORMALIZED FREE ENERGY PREDICTED BY IDOCK:   -4.68 KCAL/MOL
REMARK 922        TOTAL FREE ENERGY PREDICTED BY IDOCK:   -8.04 KCAL/MOL
REMARK 923 INTER-LIGAND FREE ENERGY PREDICTED BY IDOCK:   -7.52 KCAL/MOL
REMARK 924 INTRA-LIGAND FREE ENERGY PREDICTED BY IDOCK:   -0.52 KCAL/MOL
REMARK 927      BINDING AFFINITY PREDICTED BY RF-SCORE:    0.00 PKD
ROOT
HETATM    1  C   UNL     1     -11.002  16.575  69.709  1.00  0.00    -0.292 C  
HETATM    2  C   UNL     1     -11.548  15.563  70.736  1.00  0.00    -0.367 C  
HETATM    3  C   UNL     1     -11.932  16.371  71.987  1.00  0.00    -0.437 C  
ENDROOT
BRANCH   2   4
HETATM    4  N   UNL     1     -12.676  14.796  70.158  1.00  0.00    -0.269 NA 
HETATM    5  C   UNL     1     -12.217  13.705  69.256  1.00  0.00    -0.238 C  
HETATM    6  C   UNL     1     -11.587  12.492  69.973  1.00  0.00    -0.130 C  
HETATM    7  N   UNL     1     -12.542  11.945  70.950  1.00  0.00    -0.318 NA 
HETATM    8  C   UNL     1     -13.595  14.173  71.151  1.00  0.00    -0.191 C  
HETATM    9  C   UNL     1     -13.047  12.934  71.915  1.00  0.00    -0.373 C  
BRANCH   7  10
HETATM   10  C   UNL     1     -12.480  10.599  71.276  1.00  0.00    -0.410 A  
HETATM   11  C   UNL     1     -11.572   9.740  70.655  1.00  0.00    -0.389 A  
HETATM   12  C   UNL     1     -11.639   8.357  70.816  1.00  0.00    -0.252 A  
HETATM   13  C   UNL     1     -12.626   7.774  71.611  1.00  0.00    -0.332 A  
HETATM   14  C   UNL     1     -13.411  10.013  72.146  1.00  0.00    -0.469 A  
HETATM   15  C   UNL     1     -13.492   8.617  72.308  1.00  0.00    -0.414 A  
BRANCH  13  16
HETATM   16  O   UNL     1     -12.824   6.416  71.739  1.00  0.00    -0.210 OA 
BRANCH  16  17
HETATM   17  C   UNL     1     -11.857   5.764  72.571  1.00  0.00    -0.166 C  
BRANCH  17  18
HETATM   18  C   UNL     1     -10.664   6.640  72.940  1.00  0.00    -0.255 C  
HETATM   19  C   UNL     1     -10.049   6.293  74.271  1.00  0.00    -0.335 C  
HETATM   20  O   UNL     1      -8.661   6.580  74.096  1.00  0.00    -0.127 OA 
HETATM   21  C   UNL     1      -8.371   6.387  72.689  1.00  0.00    -0.122 C  
HETATM   22  O   UNL     1      -9.626   6.398  71.983  1.00  0.00    -0.153 OA 
BRANCH  21  23
HETATM   23  C   UNL     1      -7.515   7.538  72.156  1.00  0.00    -0.080 A  
HETATM   24  C   UNL     1      -7.981   8.301  71.062  1.00  0.00    -0.105 A  
HETATM   25  C   UNL     1      -6.268   7.904  72.707  1.00  0.00    -0.066 A  
HETATM   26  C   UNL     1      -7.272   9.404  70.581  1.00  0.00    -0.134 A  
HETATM   27  C   UNL     1      -5.567   9.023  72.235  1.00  0.00    -0.069 A  
HETATM   28 CL   UNL     1      -5.483   7.001  73.956  1.00  0.00    -0.050 Cl 
HETATM   29 CL   UNL     1      -5.226  11.158  70.623  1.00  0.00    -0.098 Cl 
HETATM   30  C   UNL     1      -6.078   9.773  71.184  1.00  0.00    -0.038 A  
ENDBRANCH  21  23
BRANCH  21  31
HETATM   31  C   UNL     1      -7.744   4.984  72.518  1.00  0.00    -0.097 C  
BRANCH  31  32
HETATM   32  N   UNL     1      -8.638   3.962  72.023  1.00  0.00    -0.098 NA 
HETATM   33  C   UNL     1      -8.952   3.686  70.726  1.00  0.00    -0.092 A  
HETATM   34  C   UNL     1      -9.689   2.172  71.970  1.00  0.00    -0.131 A  
HETATM   35  N   UNL     1      -9.628   2.565  70.664  1.00  0.00    -0.127 NA 
HETATM   36  N   UNL     1      -9.097   2.996  72.837  1.00  0.00    -0.086 NA 
ENDBRANCH  31  32
ENDBRANCH  21  31
ENDBRANCH  17  18
ENDBRANCH  16  17
ENDBRANCH  13  16
ENDBRANCH   7  10
ENDBRANCH   2   4
TORSDOF 8
ENDMDL
MODEL      106
REMARK 921   NORMALIZED FREE ENERGY PREDICTED BY IDOCK:   -4.68 KCAL/MOL
REMARK 922        TOTAL FREE ENERGY PREDICTED BY IDOCK:   -8.04 KCAL/MOL
REMARK 923 INTER-LIGAND FREE ENERGY PREDICTED BY IDOCK:   -7.24 KCAL/MOL
REMARK 924 INTRA-LIGAND FREE ENERGY PREDICTED BY IDOCK:   -0.80 KCAL/MOL
REMARK 927      BINDING AFFINITY PREDICTED BY RF-SCORE:    0.00 PKD
ROOT
HETATM    1  C   UNL     1      -7.072   1.672  62.740  1.00  0.00    -0.027 C  
HETATM    2  C   UNL     1      -7.772   2.666  63.689  1.00  0.00    -0.068 C  
HETATM    3  C   UNL     1      -9.200   2.137  63.903  1.00  0.00    -0.110 C  
ENDROOT
BRANCH   2   4
HETATM    4  N   UNL     1      -7.001   2.811  64.946  1.00  0.00    -0.048 NA 
HETATM    5  C   UNL     1      -6.159   4.038  64.956  1.00  0.00    -0.023 C  
HETATM    6  C   UNL     1      -6.938   5.360  65.127  1.00  0.00    -0.057 C  
HETATM    7  N   UNL     1      -7.736   5.306  66.363  1.00  0.00    -0.091 NA 
HETATM    8  C   UNL     1      -7.818   2.841  66.192  1.00  0.00    -0.081 C  
HETATM    9  C   UNL     1      -8.630   4.142  66.452  1.00  0.00    -0.113 C  
BRANCH   7  10
HETATM   10  C   UNL     1      -8.035   6.487  67.025  1.00  0.00    -0.112 A  
HETATM   11  C   UNL     1      -9.149   6.592  67.859  1.00  0.00    -0.114 A  
HETATM   12  C   UNL     1      -9.578   7.820  68.361  1.00  0.00    -0.157 A  
HETATM   13  C   UNL     1      -8.905   9.000  68.046  1.00  0.00    -0.129 A  
HETATM   14  C   UNL     1      -7.309   7.663  66.788  1.00  0.00    -0.089 A  
HETATM   15  C   UNL     1      -7.741   8.909  67.284  1.00  0.00    -0.092 A  
BRANCH  13  16
HETATM   16  O   UNL     1      -9.323  10.260  68.416  1.00  0.00    -0.136 OA 
BRANCH  16  17
HETATM   17  C   UNL     1      -8.287  11.248  68.386  1.00  0.00    -0.152 C  
BRANCH  17  18
HETATM   18  C   UNL     1      -8.589  12.439  67.484  1.00  0.00    -0.177 C  
HETATM   19  C   UNL     1      -9.315  12.069  66.217  1.00  0.00    -0.223 C  
HETATM   20  O   UNL     1     -10.143  13.200  65.948  1.00  0.00    -0.283 OA 
HETATM   21  C   UNL     1     -10.448  13.805  67.229  1.00  0.00    -0.264 C  
HETATM   22  O   UNL     1      -9.493  13.303  68.183  1.00  0.00    -0.212 OA 
BRANCH  21  23
HETATM   23  C   UNL     1     -10.292  15.326  67.155  1.00  0.00    -0.265 A  
HETATM   24  C   UNL     1      -9.766  16.025  68.263  1.00  0.00    -0.214 A  
HETATM   25  C   UNL     1     -10.633  16.091  66.019  1.00  0.00    -0.316 A  
HETATM   26  C   UNL     1      -9.539  17.403  68.223  1.00  0.00    -0.292 A  
HETATM   27  C   UNL     1     -10.387  17.471  65.972  1.00  0.00    -0.309 A  
HETATM   28 CL   UNL     1     -11.413  15.423  64.626  1.00  0.00    -0.387 Cl 
HETATM   29 CL   UNL     1      -9.509  19.804  67.000  1.00  0.00    -0.441 Cl 
HETATM   30  C   UNL     1      -9.831  18.116  67.069  1.00  0.00    -0.322 A  
ENDBRANCH  21  23
BRANCH  21  31
HETATM   31  C   UNL     1     -11.851  13.322  67.665  1.00  0.00    -0.357 C  
BRANCH  31  32
HETATM   32  N   UNL     1     -11.939  12.813  69.015  1.00  0.00    -0.277 NA 
HETATM   33  C   UNL     1     -12.208  13.512  70.152  1.00  0.00    -0.330 A  
HETATM   34  C   UNL     1     -12.269  11.458  70.553  1.00  0.00    -0.386 A  
HETATM   35  N   UNL     1     -12.408  12.680  71.146  1.00  0.00    -0.250 NA 
HETATM   36  N   UNL     1     -11.982  11.490  69.250  1.00  0.00    -0.336 NA 
ENDBRANCH  31  32
ENDBRANCH  21  31
ENDBRANCH  17  18
ENDBRANCH  16  17
ENDBRANCH  13  16
ENDBRANCH   7  10
ENDBRANCH   2   4
TORSDOF 8
ENDMDL
MODEL      107
REMARK 921   NORMALIZED FREE ENERGY PREDICTED BY IDOCK:   -4.68 KCAL/MOL
REMARK 922        TOTAL FREE ENERGY PREDICTED BY IDOCK:   -8.04 KCAL/MOL
REMARK 923 INTER-LIGAND FREE ENERGY PREDICTED BY IDOCK:   -8.22 KCAL/MOL
REMARK 924 INTRA-LIGAND FREE ENERGY PREDICTED BY IDOCK:    0.18 KCAL/MOL
REMARK 927      BINDING AFFINITY PREDICTED BY RF-SCORE:    0.00 PKD
ROOT
HETATM    1  C   UNL     1      -9.253   5.004  66.263  1.00  0.00    -0.144 C  
HETATM    2  C   UNL     1      -9.706   4.329  67.573  1.00  0.00    -0.148 C  
HETATM    3  C   UNL     1      -8.446   3.725  68.215  1.00  0.00    -0.108 C  
ENDROOT
BRANCH   2   4
HETATM    4  N   UNL     1     -10.404   5.305  68.443  1.00  0.00    -0.142 NA 
HETATM    5  C   UNL     1      -9.522   5.842  69.514  1.00  0.00    -0.138 C  
HETATM    6  C   UNL     1      -8.448   6.841  69.030  1.00  0.00    -0.128 C  
HETATM    7  N   UNL     1      -9.095   7.959  68.326  1.00  0.00    -0.135 NA 
HETATM    8  C   UNL     1     -10.987   6.480  67.737  1.00  0.00    -0.316 C  
HETATM    9  C   UNL     1      -9.977   7.546  67.224  1.00  0.00    -0.210 C  
BRANCH   7  10
HETATM   10  C   UNL     1      -8.478   9.200  68.318  1.00  0.00    -0.125 A  
HETATM   11  C   UNL     1      -8.201   9.868  67.124  1.00  0.00    -0.121 A  
HETATM   12  C   UNL     1      -7.399  11.009  67.089  1.00  0.00    -0.116 A  
HETATM   13  C   UNL     1      -6.838  11.529  68.255  1.00  0.00    -0.066 A  
HETATM   14  C   UNL     1      -7.988   9.782  69.497  1.00  0.00    -0.137 A  
HETATM   15  C   UNL     1      -7.170  10.928  69.469  1.00  0.00    -0.113 A  
BRANCH  13  16
HETATM   16  O   UNL     1      -5.955  12.587  68.292  1.00  0.00    -0.054 OA 
BRANCH  16  17
HETATM   17  C   UNL     1      -6.496  13.813  67.786  1.00  0.00    -0.170 C  
BRANCH  17  18
HETATM   18  C   UNL     1      -7.526  14.462  68.704  1.00  0.00    -0.126 C  
HETATM   19  C   UNL     1      -7.509  15.968  68.661  1.00  0.00    -0.166 C  
HETATM   20  O   UNL     1      -8.872  16.336  68.877  1.00  0.00    -0.231 OA 
HETATM   21  C   UNL     1      -9.682  15.250  68.362  1.00  0.00    -0.213 C  
HETATM   22  O   UNL     1      -8.828  14.098  68.231  1.00  0.00    -0.175 OA 
BRANCH  21  23
HETATM   23  C   UNL     1     -10.802  14.904  69.346  1.00  0.00    -0.274 A  
HETATM   24  C   UNL     1     -11.384  15.930  70.124  1.00  0.00    -0.369 A  
HETATM   25  C   UNL     1     -11.315  13.600  69.519  1.00  0.00    -0.214 A  
HETATM   26  C   UNL     1     -12.456  15.680  70.985  1.00  0.00    -0.501 A  
HETATM   27  C   UNL     1     -12.402  13.355  70.369  1.00  0.00    -0.382 A  
HETATM   28 CL   UNL     1     -10.634  12.206  68.754  1.00  0.00    -0.246 Cl 
HETATM   29 CL   UNL     1     -14.322  14.097  72.112  1.00  0.00    -0.630 Cl 
HETATM   30  C   UNL     1     -12.974  14.397  71.088  1.00  0.00    -0.349 A  
ENDBRANCH  21  23
BRANCH  21  31
HETATM   31  C   UNL     1     -10.166  15.644  66.947  1.00  0.00    -0.281 C  
BRANCH  31  32
HETATM   32  N   UNL     1     -10.975  14.654  66.272  1.00  0.00    -0.321 NA 
HETATM   33  C   UNL     1     -10.557  13.676  65.422  1.00  0.00    -0.317 A  
HETATM   34  C   UNL     1     -12.563  13.362  65.929  1.00  0.00    -0.348 A  
HETATM   35  N   UNL     1     -11.545  12.851  65.177  1.00  0.00    -0.318 NA 
HETATM   36  N   UNL     1     -12.260  14.466  66.616  1.00  0.00    -0.389 NA 
ENDBRANCH  31  32
ENDBRANCH  21  31
ENDBRANCH  17  18
ENDBRANCH  16  17
ENDBRANCH  13  16
ENDBRANCH   7  10
ENDBRANCH   2   4
TORSDOF 8
ENDMDL
MODEL      108
REMARK 921   NORMALIZED FREE ENERGY PREDICTED BY IDOCK:   -4.68 KCAL/MOL
REMARK 922        TOTAL FREE ENERGY PREDICTED BY IDOCK:   -8.04 KCAL/MOL
REMARK 923 INTER-LIGAND FREE ENERGY PREDICTED BY IDOCK:   -8.22 KCAL/MOL
REMARK 924 INTRA-LIGAND FREE ENERGY PREDICTED BY IDOCK:    0.18 KCAL/MOL
REMARK 927      BINDING AFFINITY PREDICTED BY RF-SCORE:    0.00 PKD
ROOT
HETATM    1  C   UNL     1     -10.344  19.601  65.893  1.00  0.00    -0.584 C  
HETATM    2  C   UNL     1      -9.627  20.368  67.022  1.00  0.00    -0.431 C  
HETATM    3  C   UNL     1     -10.314  19.960  68.335  1.00  0.00    -0.507 C  
ENDROOT
BRANCH   2   4
HETATM    4  N   UNL     1      -8.173  20.079  67.001  1.00  0.00    -0.309 NA 
HETATM    5  C   UNL     1      -7.655  19.680  68.337  1.00  0.00    -0.327 C  
HETATM    6  C   UNL     1      -8.064  18.264  68.797  1.00  0.00    -0.241 C  
HETATM    7  N   UNL     1      -7.634  17.276  67.794  1.00  0.00    -0.178 NA 
HETATM    8  C   UNL     1      -7.751  19.018  66.043  1.00  0.00    -0.229 C  
HETATM    9  C   UNL     1      -8.113  17.556  66.431  1.00  0.00    -0.274 C  
BRANCH   7  10
HETATM   10  C   UNL     1      -7.354  15.981  68.199  1.00  0.00    -0.127 A  
HETATM   11  C   UNL     1      -6.717  15.718  69.413  1.00  0.00    -0.184 A  
HETATM   12  C   UNL     1      -6.243  14.447  69.735  1.00  0.00    -0.139 A  
HETATM   13  C   UNL     1      -6.386  13.381  68.848  1.00  0.00    -0.099 A  
HETATM   14  C   UNL     1      -7.577  14.884  67.352  1.00  0.00    -0.232 A  
HETATM   15  C   UNL     1      -7.093  13.600  67.665  1.00  0.00    -0.179 A  
BRANCH  13  16
HETATM   16  O   UNL     1      -5.857  12.124  69.045  1.00  0.00    -0.059 OA 
BRANCH  16  17
HETATM   17  C   UNL     1      -6.368  11.453  70.203  1.00  0.00    -0.099 C  
BRANCH  17  18
HETATM   18  C   UNL     1      -6.741   9.995  69.962  1.00  0.00    -0.112 C  
HETATM   19  C   UNL     1      -6.667   9.139  71.199  1.00  0.00    -0.090 C  
HETATM   20  O   UNL     1      -7.700   8.172  71.015  1.00  0.00    -0.079 OA 
HETATM   21  C   UNL     1      -8.718   8.803  70.198  1.00  0.00    -0.149 C  
HETATM   22  O   UNL     1      -8.118   9.952  69.571  1.00  0.00    -0.121 OA 
BRANCH  21  23
HETATM   23  C   UNL     1      -9.189   7.850  69.098  1.00  0.00    -0.144 A  
HETATM   24  C   UNL     1      -8.680   6.533  69.055  1.00  0.00    -0.128 A  
HETATM   25  C   UNL     1     -10.133   8.203  68.109  1.00  0.00    -0.198 A  
HETATM   26  C   UNL     1      -9.128   5.602  68.115  1.00  0.00    -0.111 A  
HETATM   27  C   UNL     1     -10.595   7.263  67.178  1.00  0.00    -0.416 A  
HETATM   28 CL   UNL     1     -10.758   9.806  67.927  1.00  0.00    -0.309 Cl 
HETATM   29 CL   UNL     1     -10.685   4.808  66.064  1.00  0.00    -0.321 Cl 
HETATM   30  C   UNL     1     -10.099   5.965  67.193  1.00  0.00    -0.177 A  
ENDBRANCH  21  23
BRANCH  21  31
HETATM   31  C   UNL     1      -9.839   9.308  71.136  1.00  0.00    -0.272 C  
BRANCH  31  32
HETATM   32  N   UNL     1     -10.775   8.300  71.582  1.00  0.00    -0.241 NA 
HETATM   33  C   UNL     1     -12.092   8.185  71.257  1.00  0.00    -0.288 A  
HETATM   34  C   UNL     1     -11.458   6.460  72.259  1.00  0.00    -0.298 A  
HETATM   35  N   UNL     1     -12.555   7.035  71.685  1.00  0.00    -0.369 NA 
HETATM   36  N   UNL     1     -10.345   7.198  72.220  1.00  0.00    -0.197 NA 
ENDBRANCH  31  32
ENDBRANCH  21  31
ENDBRANCH  17  18
ENDBRANCH  16  17
ENDBRANCH  13  16
ENDBRANCH   7  10
ENDBRANCH   2   4
TORSDOF 8
ENDMDL
MODEL      109
REMARK 921   NORMALIZED FREE ENERGY PREDICTED BY IDOCK:   -4.62 KCAL/MOL
REMARK 922        TOTAL FREE ENERGY PREDICTED BY IDOCK:   -7.96 KCAL/MOL
REMARK 923 INTER-LIGAND FREE ENERGY PREDICTED BY IDOCK:   -7.15 KCAL/MOL
REMARK 924 INTRA-LIGAND FREE ENERGY PREDICTED BY IDOCK:   -0.81 KCAL/MOL
REMARK 927      BINDING AFFINITY PREDICTED BY RF-SCORE:    0.00 PKD
ROOT
HETATM    1  C   UNL     1     -10.384  19.895  65.915  1.00  0.00    -0.567 C  
HETATM    2  C   UNL     1      -9.288  18.957  66.460  1.00  0.00    -0.335 C  
HETATM    3  C   UNL     1      -7.953  19.702  66.298  1.00  0.00    -0.339 C  
ENDROOT
BRANCH   2   4
HETATM    4  N   UNL     1      -9.586  18.574  67.861  1.00  0.00    -0.292 NA 
HETATM    5  C   UNL     1     -10.771  17.681  67.964  1.00  0.00    -0.328 C  
HETATM    6  C   UNL     1     -10.538  16.234  67.479  1.00  0.00    -0.310 C  
HETATM    7  N   UNL     1      -9.414  15.639  68.220  1.00  0.00    -0.198 NA 
HETATM    8  C   UNL     1      -8.473  17.896  68.583  1.00  0.00    -0.266 C  
HETATM    9  C   UNL     1      -8.174  16.428  68.166  1.00  0.00    -0.170 C  
BRANCH   7  10
HETATM   10  C   UNL     1      -9.377  14.266  68.404  1.00  0.00    -0.208 A  
HETATM   11  C   UNL     1      -8.169  13.583  68.552  1.00  0.00    -0.104 A  
HETATM   12  C   UNL     1      -8.104  12.190  68.528  1.00  0.00    -0.112 A  
HETATM   13  C   UNL     1      -9.253  11.420  68.351  1.00  0.00    -0.183 A  
HETATM   14  C   UNL     1     -10.539  13.485  68.321  1.00  0.00    -0.259 A  
HETATM   15  C   UNL     1     -10.481  12.078  68.285  1.00  0.00    -0.218 A  
BRANCH  13  16
HETATM   16  O   UNL     1      -9.261  10.049  68.213  1.00  0.00    -0.128 OA 
BRANCH  16  17
HETATM   17  C   UNL     1     -10.506   9.519  67.742  1.00  0.00    -0.254 C  
BRANCH  17  18
HETATM   18  C   UNL     1     -10.716   8.045  68.068  1.00  0.00    -0.047 C  
HETATM   19  C   UNL     1     -10.906   7.178  66.851  1.00  0.00    -0.237 C  
HETATM   20  O   UNL     1     -10.324   5.928  67.222  1.00  0.00    -0.173 OA 
HETATM   21  C   UNL     1      -9.282   6.225  68.184  1.00  0.00    -0.110 C  
HETATM   22  O   UNL     1      -9.519   7.554  68.683  1.00  0.00    -0.146 OA 
BRANCH  21  23
HETATM   23  C   UNL     1      -9.350   5.254  69.364  1.00  0.00    -0.172 A  
HETATM   24  C   UNL     1      -9.400   5.763  70.681  1.00  0.00    -0.186 A  
HETATM   25  C   UNL     1      -9.382   3.850  69.220  1.00  0.00    -0.172 A  
HETATM   26  C   UNL     1      -9.533   4.923  71.790  1.00  0.00    -0.199 A  
HETATM   27  C   UNL     1      -9.535   3.009  70.332  1.00  0.00    -0.218 A  
HETATM   28 CL   UNL     1      -9.193   3.050  67.698  1.00  0.00    -0.222 Cl 
HETATM   29 CL   UNL     1      -9.831   2.518  72.967  1.00  0.00    -0.160 Cl 
HETATM   30  C   UNL     1      -9.621   3.550  71.608  1.00  0.00    -0.158 A  
ENDBRANCH  21  23
BRANCH  21  31
HETATM   31  C   UNL     1      -7.928   6.235  67.436  1.00  0.00    -0.109 C  
BRANCH  31  32
HETATM   32  N   UNL     1      -8.009   6.478  66.013  1.00  0.00    -0.107 NA 
HETATM   33  C   UNL     1      -7.874   7.667  65.362  1.00  0.00    -0.115 A  
HETATM   34  C   UNL     1      -7.880   6.098  63.976  1.00  0.00    -0.117 A  
HETATM   35  N   UNL     1      -7.803   7.458  64.070  1.00  0.00    -0.130 NA 
HETATM   36  N   UNL     1      -8.007   5.456  65.140  1.00  0.00    -0.105 NA 
ENDBRANCH  31  32
ENDBRANCH  21  31
ENDBRANCH  17  18
ENDBRANCH  16  17
ENDBRANCH  13  16
ENDBRANCH   7  10
ENDBRANCH   2   4
TORSDOF 8
ENDMDL
MODEL      110
REMARK 921   NORMALIZED FREE ENERGY PREDICTED BY IDOCK:   -4.62 KCAL/MOL
REMARK 922        TOTAL FREE ENERGY PREDICTED BY IDOCK:   -7.95 KCAL/MOL
REMARK 923 INTER-LIGAND FREE ENERGY PREDICTED BY IDOCK:   -6.55 KCAL/MOL
REMARK 924 INTRA-LIGAND FREE ENERGY PREDICTED BY IDOCK:   -1.40 KCAL/MOL
REMARK 927      BINDING AFFINITY PREDICTED BY RF-SCORE:    0.00 PKD
ROOT
HETATM    1  C   UNL     1      -9.654  11.604  63.164  1.00  0.00    -0.348 C  
HETATM    2  C   UNL     1      -9.855  12.140  64.596  1.00  0.00    -0.128 C  
HETATM    3  C   UNL     1     -10.584  13.487  64.463  1.00  0.00    -0.439 C  
ENDROOT
BRANCH   2   4
HETATM    4  N   UNL     1     -10.587  11.149  65.420  1.00  0.00    -0.252 NA 
HETATM    5  C   UNL     1      -9.832   9.878  65.583  1.00  0.00    -0.298 C  
HETATM    6  C   UNL     1      -8.615   9.962  66.530  1.00  0.00    -0.124 C  
HETATM    7  N   UNL     1      -9.049  10.443  67.851  1.00  0.00    -0.131 NA 
HETATM    8  C   UNL     1     -10.953  11.609  66.789  1.00  0.00    -0.290 C  
HETATM    9  C   UNL     1      -9.789  11.714  67.815  1.00  0.00    -0.179 C  
BRANCH   7  10
HETATM   10  C   UNL     1      -8.332  10.068  68.976  1.00  0.00    -0.134 A  
HETATM   11  C   UNL     1      -6.962   9.810  68.914  1.00  0.00    -0.062 A  
HETATM   12  C   UNL     1      -6.273   9.233  69.980  1.00  0.00    -0.043 A  
HETATM   13  C   UNL     1      -6.933   8.886  71.159  1.00  0.00    -0.089 A  
HETATM   14  C   UNL     1      -8.971   9.803  70.197  1.00  0.00    -0.235 A  
HETATM   15  C   UNL     1      -8.285   9.212  71.275  1.00  0.00    -0.084 A  
BRANCH  13  16
HETATM   16  O   UNL     1      -6.349   8.221  72.215  1.00  0.00    -0.054 OA 
BRANCH  16  17
HETATM   17  C   UNL     1      -7.211   7.271  72.852  1.00  0.00    -0.072 C  
BRANCH  17  18
HETATM   18  C   UNL     1      -7.337   5.949  72.104  1.00  0.00    -0.094 C  
HETATM   19  C   UNL     1      -7.436   4.749  73.010  1.00  0.00    -0.090 C  
HETATM   20  O   UNL     1      -8.274   3.843  72.294  1.00  0.00    -0.088 OA 
HETATM   21  C   UNL     1      -9.154   4.650  71.473  1.00  0.00    -0.135 C  
HETATM   22  O   UNL     1      -8.576   5.966  71.385  1.00  0.00    -0.127 OA 
BRANCH  21  23
HETATM   23  C   UNL     1      -9.245   4.074  70.058  1.00  0.00    -0.215 A  
HETATM   24  C   UNL     1      -9.243   4.951  68.950  1.00  0.00    -0.164 A  
HETATM   25  C   UNL     1      -9.317   2.692  69.780  1.00  0.00    -0.115 A  
HETATM   26  C   UNL     1      -9.254   4.475  67.636  1.00  0.00    -0.160 A  
HETATM   27  C   UNL     1      -9.309   2.215  68.462  1.00  0.00    -0.244 A  
HETATM   28 CL   UNL     1      -9.466   1.486  71.011  1.00  0.00    -0.176 Cl 
HETATM   29 CL   UNL     1      -9.233   2.519  65.783  1.00  0.00    -0.100 Cl 
HETATM   30  C   UNL     1      -9.266   3.108  67.398  1.00  0.00    -0.188 A  
ENDBRANCH  21  23
BRANCH  21  31
HETATM   31  C   UNL     1     -10.510   4.777  72.205  1.00  0.00    -0.175 C  
BRANCH  31  32
HETATM   32  N   UNL     1     -11.053   6.115  72.274  1.00  0.00    -0.262 NA 
HETATM   33  C   UNL     1     -10.844   7.050  73.242  1.00  0.00    -0.311 A  
HETATM   34  C   UNL     1     -11.824   7.925  71.613  1.00  0.00    -0.288 A  
HETATM   35  N   UNL     1     -11.333   8.203  72.856  1.00  0.00    -0.339 NA 
HETATM   36  N   UNL     1     -11.676   6.660  71.215  1.00  0.00    -0.319 NA 
ENDBRANCH  31  32
ENDBRANCH  21  31
ENDBRANCH  17  18
ENDBRANCH  16  17
ENDBRANCH  13  16
ENDBRANCH   7  10
ENDBRANCH   2   4
TORSDOF 8
ENDMDL
MODEL      111
REMARK 921   NORMALIZED FREE ENERGY PREDICTED BY IDOCK:   -4.59 KCAL/MOL
REMARK 922        TOTAL FREE ENERGY PREDICTED BY IDOCK:   -7.92 KCAL/MOL
REMARK 923 INTER-LIGAND FREE ENERGY PREDICTED BY IDOCK:   -8.12 KCAL/MOL
REMARK 924 INTRA-LIGAND FREE ENERGY PREDICTED BY IDOCK:    0.21 KCAL/MOL
REMARK 927      BINDING AFFINITY PREDICTED BY RF-SCORE:    0.00 PKD
ROOT
HETATM    1  C   UNL     1      -8.942   3.437  74.565  1.00  0.00    -0.097 C  
HETATM    2  C   UNL     1      -8.752   3.168  73.058  1.00  0.00    -0.081 C  
HETATM    3  C   UNL     1      -8.158   1.755  72.936  1.00  0.00    -0.053 C  
ENDROOT
BRANCH   2   4
HETATM    4  N   UNL     1     -10.036   3.335  72.337  1.00  0.00    -0.156 NA 
HETATM    5  C   UNL     1     -10.975   4.241  73.053  1.00  0.00    -0.167 C  
HETATM    6  C   UNL     1     -10.599   5.738  73.002  1.00  0.00    -0.242 C  
HETATM    7  N   UNL     1     -10.480   6.169  71.600  1.00  0.00    -0.216 NA 
HETATM    8  C   UNL     1      -9.919   3.852  70.945  1.00  0.00    -0.064 C  
HETATM    9  C   UNL     1      -9.553   5.357  70.797  1.00  0.00    -0.173 C  
BRANCH   7  10
HETATM   10  C   UNL     1     -10.729   7.494  71.277  1.00  0.00    -0.225 A  
HETATM   11  C   UNL     1     -11.420   8.339  72.147  1.00  0.00    -0.427 A  
HETATM   12  C   UNL     1     -11.859   9.602  71.753  1.00  0.00    -0.391 A  
HETATM   13  C   UNL     1     -11.624  10.073  70.461  1.00  0.00    -0.323 A  
HETATM   14  C   UNL     1     -10.415   8.011  70.011  1.00  0.00    -0.228 A  
HETATM   15  C   UNL     1     -10.863   9.282  69.601  1.00  0.00    -0.228 A  
BRANCH  13  16
HETATM   16  O   UNL     1     -12.111  11.262  69.963  1.00  0.00    -0.306 OA 
BRANCH  16  17
HETATM   17  C   UNL     1     -11.579  11.617  68.682  1.00  0.00    -0.312 C  
BRANCH  17  18
HETATM   18  C   UNL     1     -10.141  12.124  68.726  1.00  0.00    -0.084 C  
HETATM   19  C   UNL     1      -9.226  11.431  67.751  1.00  0.00    -0.159 C  
HETATM   20  O   UNL     1      -8.290  12.442  67.376  1.00  0.00    -0.162 OA 
HETATM   21  C   UNL     1      -8.980  13.711  67.495  1.00  0.00    -0.209 C  
HETATM   22  O   UNL     1     -10.145  13.495  68.313  1.00  0.00    -0.236 OA 
BRANCH  21  23
HETATM   23  C   UNL     1      -8.090  14.741  68.194  1.00  0.00    -0.134 A  
HETATM   24  C   UNL     1      -8.285  16.116  67.937  1.00  0.00    -0.159 A  
HETATM   25  C   UNL     1      -7.073  14.400  69.113  1.00  0.00    -0.127 A  
HETATM   26  C   UNL     1      -7.548  17.100  68.600  1.00  0.00    -0.258 A  
HETATM   27  C   UNL     1      -6.347  15.388  69.792  1.00  0.00    -0.163 A  
HETATM   28 CL   UNL     1      -6.606  12.768  69.445  1.00  0.00    -0.095 Cl 
HETATM   29 CL   UNL     1      -5.720  17.942  70.392  1.00  0.00    -0.211 Cl 
HETATM   30  C   UNL     1      -6.596  16.732  69.541  1.00  0.00    -0.207 A  
ENDBRANCH  21  23
BRANCH  21  31
HETATM   31  C   UNL     1      -9.461  14.127  66.085  1.00  0.00    -0.203 C  
BRANCH  31  32
HETATM   32  N   UNL     1     -10.842  13.821  65.788  1.00  0.00    -0.275 NA 
HETATM   33  C   UNL     1     -11.923  14.639  65.917  1.00  0.00    -0.238 A  
HETATM   34  C   UNL     1     -12.466  12.909  64.870  1.00  0.00    -0.478 A  
HETATM   35  N   UNL     1     -12.969  14.081  65.356  1.00  0.00    -0.743 NA 
HETATM   36  N   UNL     1     -11.169  12.707  65.110  1.00  0.00    -0.293 NA 
ENDBRANCH  31  32
ENDBRANCH  21  31
ENDBRANCH  17  18
ENDBRANCH  16  17
ENDBRANCH  13  16
ENDBRANCH   7  10
ENDBRANCH   2   4
TORSDOF 8
ENDMDL
MODEL      112
REMARK 921   NORMALIZED FREE ENERGY PREDICTED BY IDOCK:   -4.57 KCAL/MOL
REMARK 922        TOTAL FREE ENERGY PREDICTED BY IDOCK:   -7.87 KCAL/MOL
REMARK 923 INTER-LIGAND FREE ENERGY PREDICTED BY IDOCK:   -7.71 KCAL/MOL
REMARK 924 INTRA-LIGAND FREE ENERGY PREDICTED BY IDOCK:   -0.16 KCAL/MOL
REMARK 927      BINDING AFFINITY PREDICTED BY RF-SCORE:    0.00 PKD
ROOT
HETATM    1  C   UNL     1      -6.795   3.478  73.666  1.00  0.00    -0.044 C  
HETATM    2  C   UNL     1      -8.337   3.470  73.681  1.00  0.00    -0.083 C  
HETATM    3  C   UNL     1      -8.764   2.081  74.183  1.00  0.00    -0.062 C  
ENDROOT
BRANCH   2   4
HETATM    4  N   UNL     1      -8.851   4.584  74.513  1.00  0.00    -0.107 NA 
HETATM    5  C   UNL     1      -8.244   5.892  74.147  1.00  0.00    -0.103 C  
HETATM    6  C   UNL     1      -8.738   6.487  72.811  1.00  0.00    -0.124 C  
HETATM    7  N   UNL     1     -10.204   6.622  72.843  1.00  0.00    -0.185 NA 
HETATM    8  C   UNL     1     -10.329   4.772  74.478  1.00  0.00    -0.283 C  
HETATM    9  C   UNL     1     -10.916   5.378  73.170  1.00  0.00    -0.302 C  
BRANCH   7  10
HETATM   10  C   UNL     1     -10.808   7.608  72.079  1.00  0.00    -0.238 A  
HETATM   11  C   UNL     1     -10.054   8.538  71.360  1.00  0.00    -0.302 A  
HETATM   12  C   UNL     1     -10.638   9.654  70.763  1.00  0.00    -0.392 A  
HETATM   13  C   UNL     1     -12.009   9.887  70.863  1.00  0.00    -0.345 A  
HETATM   14  C   UNL     1     -12.198   7.799  72.096  1.00  0.00    -0.325 A  
HETATM   15  C   UNL     1     -12.794   8.929  71.503  1.00  0.00    -0.383 A  
BRANCH  13  16
HETATM   16  O   UNL     1     -12.646  11.015  70.391  1.00  0.00    -0.304 OA 
BRANCH  16  17
HETATM   17  C   UNL     1     -11.776  11.938  69.726  1.00  0.00    -0.331 C  
BRANCH  17  18
HETATM   18  C   UNL     1     -11.579  11.648  68.242  1.00  0.00    -0.310 C  
HETATM   19  C   UNL     1     -12.196  12.682  67.337  1.00  0.00     0.110 C  
HETATM   20  O   UNL     1     -11.327  12.715  66.206  1.00  0.00    -0.295 OA 
HETATM   21  C   UNL     1     -10.009  12.347  66.684  1.00  0.00    -0.225 C  
HETATM   22  O   UNL     1     -10.176  11.710  67.964  1.00  0.00    -0.180 OA 
BRANCH  21  23
HETATM   23  C   UNL     1      -9.355  11.342  65.733  1.00  0.00    -0.247 A  
HETATM   24  C   UNL     1     -10.124  10.762  64.699  1.00  0.00    -0.410 A  
HETATM   25  C   UNL     1      -7.999  10.959  65.812  1.00  0.00    -0.075 A  
HETATM   26  C   UNL     1      -9.560   9.893  63.762  1.00  0.00    -0.065 A  
HETATM   27  C   UNL     1      -7.429  10.102  64.860  1.00  0.00    -0.137 A  
HETATM   28 CL   UNL     1      -6.946  11.463  67.090  1.00  0.00    -0.118 Cl 
HETATM   29 CL   UNL     1      -7.502   8.550  62.655  1.00  0.00    -0.097 Cl 
HETATM   30  C   UNL     1      -8.209   9.583  63.835  1.00  0.00    -0.161 A  
ENDBRANCH  21  23
BRANCH  21  31
HETATM   31  C   UNL     1      -9.199  13.646  66.903  1.00  0.00    -0.250 C  
BRANCH  31  32
HETATM   32  N   UNL     1      -9.852  14.654  67.708  1.00  0.00    -0.214 NA 
HETATM   33  C   UNL     1     -10.736  15.605  67.297  1.00  0.00    -0.305 A  
HETATM   34  C   UNL     1     -10.680  15.549  69.389  1.00  0.00    -0.251 A  
HETATM   35  N   UNL     1     -11.266  16.197  68.339  1.00  0.00    -0.360 NA 
HETATM   36  N   UNL     1      -9.808  14.597  69.051  1.00  0.00    -0.208 NA 
ENDBRANCH  31  32
ENDBRANCH  21  31
ENDBRANCH  17  18
ENDBRANCH  16  17
ENDBRANCH  13  16
ENDBRANCH   7  10
ENDBRANCH   2   4
TORSDOF 8
ENDMDL
MODEL      113
REMARK 921   NORMALIZED FREE ENERGY PREDICTED BY IDOCK:   -4.55 KCAL/MOL
REMARK 922        TOTAL FREE ENERGY PREDICTED BY IDOCK:   -7.85 KCAL/MOL
REMARK 923 INTER-LIGAND FREE ENERGY PREDICTED BY IDOCK:   -7.09 KCAL/MOL
REMARK 924 INTRA-LIGAND FREE ENERGY PREDICTED BY IDOCK:   -0.76 KCAL/MOL
REMARK 927      BINDING AFFINITY PREDICTED BY RF-SCORE:    0.00 PKD
ROOT
HETATM    1  C   UNL     1     -11.804  16.841  72.824  1.00  0.00    -0.123 C  
HETATM    2  C   UNL     1     -12.053  15.345  72.542  1.00  0.00    -0.423 C  
HETATM    3  C   UNL     1     -12.678  14.757  73.818  1.00  0.00    -0.399 C  
ENDROOT
BRANCH   2   4
HETATM    4  N   UNL     1     -12.900  15.180  71.338  1.00  0.00    -0.351 NA 
HETATM    5  C   UNL     1     -12.274  15.762  70.120  1.00  0.00    -0.314 C  
HETATM    6  C   UNL     1     -11.083  14.959  69.555  1.00  0.00    -0.281 C  
HETATM    7  N   UNL     1     -11.509  13.579  69.271  1.00  0.00    -0.279 NA 
HETATM    8  C   UNL     1     -13.261  13.774  71.004  1.00  0.00    -0.152 C  
HETATM    9  C   UNL     1     -12.122  12.891  70.417  1.00  0.00    -0.306 C  
BRANCH   7  10
HETATM   10  C   UNL     1     -10.864  12.864  68.273  1.00  0.00    -0.242 A  
HETATM   11  C   UNL     1      -9.471  12.791  68.213  1.00  0.00    -0.203 A  
HETATM   12  C   UNL     1      -8.810  12.258  67.108  1.00  0.00    -0.194 A  
HETATM   13  C   UNL     1      -9.520  11.775  66.009  1.00  0.00    -0.230 A  
HETATM   14  C   UNL     1     -11.573  12.292  67.207  1.00  0.00    -0.427 A  
HETATM   15  C   UNL     1     -10.913  11.761  66.082  1.00  0.00    -0.355 A  
BRANCH  13  16
HETATM   16  O   UNL     1      -8.943  11.330  64.840  1.00  0.00    -0.108 OA 
BRANCH  16  17
HETATM   17  C   UNL     1      -9.412  10.046  64.413  1.00  0.00    -0.286 C  
BRANCH  17  18
HETATM   18  C   UNL     1      -8.645   8.873  65.014  1.00  0.00    -0.176 C  
HETATM   19  C   UNL     1      -7.314   9.261  65.606  1.00  0.00    -0.093 C  
HETATM   20  O   UNL     1      -7.148   8.362  66.702  1.00  0.00    -0.071 OA 
HETATM   21  C   UNL     1      -8.478   8.023  67.167  1.00  0.00    -0.124 C  
HETATM   22  O   UNL     1      -9.404   8.371  66.120  1.00  0.00    -0.200 OA 
BRANCH  21  23
HETATM   23  C   UNL     1      -8.590   6.517  67.420  1.00  0.00    -0.118 A  
HETATM   24  C   UNL     1      -9.574   6.034  68.310  1.00  0.00    -0.126 A  
HETATM   25  C   UNL     1      -7.764   5.557  66.797  1.00  0.00    -0.100 A  
HETATM   26  C   UNL     1      -9.764   4.667  68.524  1.00  0.00    -0.208 A  
HETATM   27  C   UNL     1      -7.968   4.184  66.997  1.00  0.00    -0.097 A  
HETATM   28 CL   UNL     1      -6.423   5.974  65.786  1.00  0.00    -0.042 Cl 
HETATM   29 CL   UNL     1      -9.236   2.063  68.076  1.00  0.00    -0.216 Cl 
HETATM   30  C   UNL     1      -8.974   3.747  67.850  1.00  0.00    -0.127 A  
ENDBRANCH  21  23
BRANCH  21  31
HETATM   31  C   UNL     1      -8.797   8.908  68.394  1.00  0.00    -0.134 C  
BRANCH  31  32
HETATM   32  N   UNL     1      -7.688   9.145  69.291  1.00  0.00    -0.078 NA 
HETATM   33  C   UNL     1      -7.460  10.246  70.059  1.00  0.00    -0.132 A  
HETATM   34  C   UNL     1      -6.134   8.719  70.599  1.00  0.00    -0.035 A  
HETATM   35  N   UNL     1      -6.472  10.009  70.889  1.00  0.00    -0.293 NA 
HETATM   36  N   UNL     1      -6.851   8.149  69.628  1.00  0.00    -0.041 NA 
ENDBRANCH  31  32
ENDBRANCH  21  31
ENDBRANCH  17  18
ENDBRANCH  16  17
ENDBRANCH  13  16
ENDBRANCH   7  10
ENDBRANCH   2   4
TORSDOF 8
ENDMDL
MODEL      114
REMARK 921   NORMALIZED FREE ENERGY PREDICTED BY IDOCK:   -4.53 KCAL/MOL
REMARK 922        TOTAL FREE ENERGY PREDICTED BY IDOCK:   -7.83 KCAL/MOL
REMARK 923 INTER-LIGAND FREE ENERGY PREDICTED BY IDOCK:   -7.79 KCAL/MOL
REMARK 924 INTRA-LIGAND FREE ENERGY PREDICTED BY IDOCK:   -0.03 KCAL/MOL
REMARK 927      BINDING AFFINITY PREDICTED BY RF-SCORE:    0.00 PKD
ROOT
HETATM    1  C   UNL     1      -9.732  17.162  68.403  1.00  0.00    -0.284 C  
HETATM    2  C   UNL     1      -9.680  16.849  66.894  1.00  0.00    -0.259 C  
HETATM    3  C   UNL     1      -8.383  16.061  66.653  1.00  0.00    -0.331 C  
ENDROOT
BRANCH   2   4
HETATM    4  N   UNL     1     -10.901  16.121  66.475  1.00  0.00    -0.209 NA 
HETATM    5  C   UNL     1     -10.636  15.156  65.373  1.00  0.00    -0.391 C  
HETATM    6  C   UNL     1      -9.864  13.887  65.794  1.00  0.00    -0.239 C  
HETATM    7  N   UNL     1     -10.590  13.203  66.876  1.00  0.00    -0.261 NA 
HETATM    8  C   UNL     1     -11.589  15.360  67.556  1.00  0.00    -0.169 C  
HETATM    9  C   UNL     1     -10.886  14.058  68.036  1.00  0.00    -0.246 C  
BRANCH   7  10
HETATM   10  C   UNL     1     -10.455  11.831  67.019  1.00  0.00    -0.220 A  
HETATM   11  C   UNL     1      -9.942  11.039  65.991  1.00  0.00    -0.285 A  
HETATM   12  C   UNL     1      -9.995   9.646  66.039  1.00  0.00    -0.344 A  
HETATM   13  C   UNL     1     -10.570   8.986  67.125  1.00  0.00    -0.220 A  
HETATM   14  C   UNL     1     -10.947  11.160  68.149  1.00  0.00    -0.292 A  
HETATM   15  C   UNL     1     -11.013   9.755  68.201  1.00  0.00    -0.228 A  
BRANCH  13  16
HETATM   16  O   UNL     1     -10.754   7.623  67.202  1.00  0.00    -0.332 OA 
BRANCH  16  17
HETATM   17  C   UNL     1      -9.555   6.863  67.011  1.00  0.00    -0.158 C  
BRANCH  17  18
HETATM   18  C   UNL     1      -9.191   5.970  68.192  1.00  0.00    -0.116 C  
HETATM   19  C   UNL     1      -7.811   6.224  68.739  1.00  0.00    -0.101 C  
HETATM   20  O   UNL     1      -7.938   5.958  70.136  1.00  0.00    -0.097 OA 
HETATM   21  C   UNL     1      -9.312   6.253  70.492  1.00  0.00    -0.162 C  
HETATM   22  O   UNL     1     -10.077   6.286  69.272  1.00  0.00    -0.161 OA 
BRANCH  21  23
HETATM   23  C   UNL     1      -9.883   5.148  71.383  1.00  0.00    -0.239 A  
HETATM   24  C   UNL     1      -9.179   3.931  71.517  1.00  0.00    -0.189 A  
HETATM   25  C   UNL     1     -11.087   5.274  72.109  1.00  0.00    -0.119 A  
HETATM   26  C   UNL     1      -9.620   2.917  72.372  1.00  0.00    -0.192 A  
HETATM   27  C   UNL     1     -11.518   4.264  72.981  1.00  0.00    -0.107 A  
HETATM   28 CL   UNL     1     -12.144   6.636  71.960  1.00  0.00    -0.365 Cl 
HETATM   29 CL   UNL     1     -11.297   1.870  74.203  1.00  0.00    -0.179 Cl 
HETATM   30  C   UNL     1     -10.777   3.097  73.116  1.00  0.00    -0.161 A  
ENDBRANCH  21  23
BRANCH  21  31
HETATM   31  C   UNL     1      -9.352   7.668  71.114  1.00  0.00    -0.154 C  
BRANCH  31  32
HETATM   32  N   UNL     1      -8.586   7.833  72.328  1.00  0.00    -0.123 NA 
HETATM   33  C   UNL     1      -7.301   8.268  72.450  1.00  0.00    -0.110 A  
HETATM   34  C   UNL     1      -8.199   8.176  74.339  1.00  0.00    -0.194 A  
HETATM   35  N   UNL     1      -7.024   8.482  73.713  1.00  0.00    -0.285 NA 
HETATM   36  N   UNL     1      -9.183   7.774  73.531  1.00  0.00    -0.273 NA 
ENDBRANCH  31  32
ENDBRANCH  21  31
ENDBRANCH  17  18
ENDBRANCH  16  17
ENDBRANCH  13  16
ENDBRANCH   7  10
ENDBRANCH   2   4
TORSDOF 8
ENDMDL
MODEL      115
REMARK 921   NORMALIZED FREE ENERGY PREDICTED BY IDOCK:   -4.52 KCAL/MOL
REMARK 922        TOTAL FREE ENERGY PREDICTED BY IDOCK:   -7.80 KCAL/MOL
REMARK 923 INTER-LIGAND FREE ENERGY PREDICTED BY IDOCK:   -7.89 KCAL/MOL
REMARK 924 INTRA-LIGAND FREE ENERGY PREDICTED BY IDOCK:    0.09 KCAL/MOL
REMARK 927      BINDING AFFINITY PREDICTED BY RF-SCORE:    0.00 PKD
ROOT
HETATM    1  C   UNL     1     -10.285  19.833  68.257  1.00  0.00    -0.569 C  
HETATM    2  C   UNL     1      -9.094  20.104  67.316  1.00  0.00    -0.368 C  
HETATM    3  C   UNL     1      -7.821  19.951  68.165  1.00  0.00    -0.307 C  
ENDROOT
BRANCH   2   4
HETATM    4  N   UNL     1      -9.141  19.192  66.149  1.00  0.00    -0.454 NA 
HETATM    5  C   UNL     1      -7.838  18.514  65.907  1.00  0.00    -0.050 C  
HETATM    6  C   UNL     1      -7.483  17.408  66.924  1.00  0.00    -0.209 C  
HETATM    7  N   UNL     1      -8.557  16.402  66.955  1.00  0.00    -0.183 NA 
HETATM    8  C   UNL     1     -10.175  18.122  66.221  1.00  0.00    -0.395 C  
HETATM    9  C   UNL     1      -9.894  16.958  67.214  1.00  0.00    -0.265 C  
BRANCH   7  10
HETATM   10  C   UNL     1      -8.250  15.096  67.301  1.00  0.00    -0.208 A  
HETATM   11  C   UNL     1      -9.242  14.122  67.425  1.00  0.00    -0.204 A  
HETATM   12  C   UNL     1      -8.977  12.867  67.971  1.00  0.00    -0.196 A  
HETATM   13  C   UNL     1      -7.699  12.535  68.421  1.00  0.00    -0.136 A  
HETATM   14  C   UNL     1      -6.948  14.722  67.668  1.00  0.00    -0.204 A  
HETATM   15  C   UNL     1      -6.674  13.461  68.230  1.00  0.00    -0.105 A  
BRANCH  13  16
HETATM   16  O   UNL     1      -7.379  11.359  69.065  1.00  0.00    -0.113 OA 
BRANCH  16  17
HETATM   17  C   UNL     1      -8.396  10.354  68.979  1.00  0.00    -0.150 C  
BRANCH  17  18
HETATM   18  C   UNL     1      -8.015   9.029  69.630  1.00  0.00    -0.093 C  
HETATM   19  C   UNL     1      -7.161   9.183  70.861  1.00  0.00    -0.105 C  
HETATM   20  O   UNL     1      -7.551   8.091  71.692  1.00  0.00    -0.071 OA 
HETATM   21  C   UNL     1      -8.932   7.794  71.368  1.00  0.00    -0.133 C  
HETATM   22  O   UNL     1      -9.218   8.406  70.096  1.00  0.00    -0.155 OA 
BRANCH  21  23
HETATM   23  C   UNL     1      -9.137   6.284  71.227  1.00  0.00    -0.148 A  
HETATM   24  C   UNL     1      -9.861   5.781  70.123  1.00  0.00    -0.240 A  
HETATM   25  C   UNL     1      -8.624   5.337  72.139  1.00  0.00    -0.126 A  
HETATM   26  C   UNL     1     -10.018   4.410  69.909  1.00  0.00    -0.233 A  
HETATM   27  C   UNL     1      -8.765   3.961  71.914  1.00  0.00    -0.120 A  
HETATM   28 CL   UNL     1      -7.831   5.776  73.613  1.00  0.00    -0.104 Cl 
HETATM   29 CL   UNL     1      -9.602   1.816  70.509  1.00  0.00    -0.164 Cl 
HETATM   30  C   UNL     1      -9.450   3.505  70.795  1.00  0.00    -0.170 A  
ENDBRANCH  21  23
BRANCH  21  31
HETATM   31  C   UNL     1      -9.830   8.469  72.431  1.00  0.00    -0.288 C  
BRANCH  31  32
HETATM   32  N   UNL     1     -11.130   8.894  71.963  1.00  0.00    -0.371 NA 
HETATM   33  C   UNL     1     -12.311   8.225  72.065  1.00  0.00    -0.349 A  
HETATM   34  C   UNL     1     -12.662  10.186  71.421  1.00  0.00    -0.425 A  
HETATM   35  N   UNL     1     -13.298   9.015  71.715  1.00  0.00    -0.373 NA 
HETATM   36  N   UNL     1     -11.334  10.160  71.558  1.00  0.00    -0.104 NA 
ENDBRANCH  31  32
ENDBRANCH  21  31
ENDBRANCH  17  18
ENDBRANCH  16  17
ENDBRANCH  13  16
ENDBRANCH   7  10
ENDBRANCH   2   4
TORSDOF 8
ENDMDL
MODEL      116
REMARK 921   NORMALIZED FREE ENERGY PREDICTED BY IDOCK:   -4.50 KCAL/MOL
REMARK 922        TOTAL FREE ENERGY PREDICTED BY IDOCK:   -7.78 KCAL/MOL
REMARK 923 INTER-LIGAND FREE ENERGY PREDICTED BY IDOCK:   -7.32 KCAL/MOL
REMARK 924 INTRA-LIGAND FREE ENERGY PREDICTED BY IDOCK:   -0.46 KCAL/MOL
REMARK 927      BINDING AFFINITY PREDICTED BY RF-SCORE:    0.00 PKD
ROOT
HETATM    1  C   UNL     1      -5.392  19.282  70.758  1.00  0.00    -0.243 C  
HETATM    2  C   UNL     1      -6.411  19.191  69.604  1.00  0.00    -0.257 C  
HETATM    3  C   UNL     1      -6.532  20.605  69.013  1.00  0.00    -0.136 C  
ENDROOT
BRANCH   2   4
HETATM    4  N   UNL     1      -5.984  18.171  68.617  1.00  0.00    -0.192 NA 
HETATM    5  C   UNL     1      -6.106  16.785  69.144  1.00  0.00    -0.180 C  
HETATM    6  C   UNL     1      -7.553  16.259  69.260  1.00  0.00    -0.203 C  
HETATM    7  N   UNL     1      -8.214  16.340  67.947  1.00  0.00    -0.149 NA 
HETATM    8  C   UNL     1      -6.713  18.202  67.318  1.00  0.00    -0.190 C  
HETATM    9  C   UNL     1      -8.178  17.678  67.337  1.00  0.00    -0.212 C  
BRANCH   7  10
HETATM   10  C   UNL     1      -9.231  15.448  67.646  1.00  0.00    -0.187 A  
HETATM   11  C   UNL     1     -10.251  15.171  68.557  1.00  0.00    -0.231 A  
HETATM   12  C   UNL     1     -11.155  14.129  68.355  1.00  0.00    -0.273 A  
HETATM   13  C   UNL     1     -11.072  13.315  67.225  1.00  0.00    -0.279 A  
HETATM   14  C   UNL     1      -9.211  14.686  66.468  1.00  0.00    -0.294 A  
HETATM   15  C   UNL     1     -10.113  13.625  66.261  1.00  0.00    -0.301 A  
BRANCH  13  16
HETATM   16  O   UNL     1     -11.858  12.205  67.003  1.00  0.00    -0.547 OA 
BRANCH  16  17
HETATM   17  C   UNL     1     -11.665  11.155  67.957  1.00  0.00    -0.212 C  
BRANCH  17  18
HETATM   18  C   UNL     1     -10.341  10.414  67.805  1.00  0.00    -0.206 C  
HETATM   19  C   UNL     1      -9.542  10.335  69.080  1.00  0.00    -0.218 C  
HETATM   20  O   UNL     1      -8.863   9.083  68.987  1.00  0.00    -0.133 OA 
HETATM   21  C   UNL     1      -9.700   8.215  68.182  1.00  0.00    -0.161 C  
HETATM   22  O   UNL     1     -10.634   9.052  67.473  1.00  0.00    -0.265 OA 
BRANCH  21  23
HETATM   23  C   UNL     1      -8.857   7.463  67.151  1.00  0.00    -0.126 A  
HETATM   24  C   UNL     1      -7.508   7.833  66.954  1.00  0.00    -0.094 A  
HETATM   25  C   UNL     1      -9.344   6.388  66.377  1.00  0.00    -0.147 A  
HETATM   26  C   UNL     1      -6.675   7.135  66.076  1.00  0.00    -0.053 A  
HETATM   27  C   UNL     1      -8.503   5.676  65.511  1.00  0.00    -0.146 A  
HETATM   28 CL   UNL     1     -11.001   5.888  66.388  1.00  0.00    -0.164 Cl 
HETATM   29 CL   UNL     1      -6.135   5.156  64.329  1.00  0.00    -0.022 Cl 
HETATM   30  C   UNL     1      -7.171   6.045  65.374  1.00  0.00    -0.074 A  
ENDBRANCH  21  23
BRANCH  21  31
HETATM   31  C   UNL     1     -10.509   7.308  69.138  1.00  0.00    -0.215 C  
BRANCH  31  32
HETATM   32  N   UNL     1     -10.542   7.737  70.518  1.00  0.00    -0.222 NA 
HETATM   33  C   UNL     1      -9.593   7.539  71.475  1.00  0.00    -0.154 A  
HETATM   34  C   UNL     1     -11.030   8.891  72.174  1.00  0.00    -0.279 A  
HETATM   35  N   UNL     1      -9.883   8.247  72.539  1.00  0.00    -0.284 NA 
HETATM   36  N   UNL     1     -11.471   8.610  70.945  1.00  0.00    -0.274 NA 
ENDBRANCH  31  32
ENDBRANCH  21  31
ENDBRANCH  17  18
ENDBRANCH  16  17
ENDBRANCH  13  16
ENDBRANCH   7  10
ENDBRANCH   2   4
TORSDOF 8
ENDMDL
MODEL      117
REMARK 921   NORMALIZED FREE ENERGY PREDICTED BY IDOCK:   -4.50 KCAL/MOL
REMARK 922        TOTAL FREE ENERGY PREDICTED BY IDOCK:   -7.77 KCAL/MOL
REMARK 923 INTER-LIGAND FREE ENERGY PREDICTED BY IDOCK:   -8.26 KCAL/MOL
REMARK 924 INTRA-LIGAND FREE ENERGY PREDICTED BY IDOCK:    0.48 KCAL/MOL
REMARK 927      BINDING AFFINITY PREDICTED BY RF-SCORE:    0.00 PKD
ROOT
HETATM    1  C   UNL     1     -10.477  20.009  67.806  1.00  0.00    -0.459 C  
HETATM    2  C   UNL     1      -9.031  19.787  67.319  1.00  0.00    -0.326 C  
HETATM    3  C   UNL     1      -8.255  19.192  68.506  1.00  0.00    -0.399 C  
ENDROOT
BRANCH   2   4
HETATM    4  N   UNL     1      -9.019  18.928  66.112  1.00  0.00    -0.470 NA 
HETATM    5  C   UNL     1      -7.780  18.109  66.012  1.00  0.00    -0.169 C  
HETATM    6  C   UNL     1      -7.695  16.934  67.011  1.00  0.00    -0.195 C  
HETATM    7  N   UNL     1      -8.870  16.063  66.849  1.00  0.00    -0.212 NA 
HETATM    8  C   UNL     1     -10.167  17.986  65.992  1.00  0.00    -0.303 C  
HETATM    9  C   UNL     1     -10.158  16.763  66.955  1.00  0.00    -0.276 C  
BRANCH   7  10
HETATM   10  C   UNL     1      -8.762  14.718  67.167  1.00  0.00    -0.221 A  
HETATM   11  C   UNL     1      -9.887  13.894  67.240  1.00  0.00    -0.244 A  
HETATM   12  C   UNL     1      -9.819  12.602  67.760  1.00  0.00    -0.212 A  
HETATM   13  C   UNL     1      -8.615  12.079  68.231  1.00  0.00    -0.174 A  
HETATM   14  C   UNL     1      -7.538  14.153  67.555  1.00  0.00    -0.200 A  
HETATM   15  C   UNL     1      -7.463  12.852  68.090  1.00  0.00    -0.126 A  
BRANCH  13  16
HETATM   16  O   UNL     1      -8.484  10.855  68.851  1.00  0.00    -0.153 OA 
BRANCH  16  17
HETATM   17  C   UNL     1      -9.505   9.914  68.500  1.00  0.00    -0.146 C  
BRANCH  17  18
HETATM   18  C   UNL     1      -9.014   8.474  68.397  1.00  0.00    -0.139 C  
HETATM   19  C   UNL     1      -8.561   7.895  69.711  1.00  0.00    -0.133 C  
HETATM   20  O   UNL     1      -8.893   6.510  69.612  1.00  0.00    -0.137 OA 
HETATM   21  C   UNL     1     -10.040   6.420  68.730  1.00  0.00    -0.158 C  
HETATM   22  O   UNL     1     -10.122   7.658  68.000  1.00  0.00    -0.172 OA 
BRANCH  21  23
HETATM   23  C   UNL     1      -9.853   5.284  67.723  1.00  0.00    -0.187 A  
HETATM   24  C   UNL     1     -10.002   5.548  66.343  1.00  0.00    -0.203 A  
HETATM   25  C   UNL     1      -9.519   3.962  68.088  1.00  0.00    -0.161 A  
HETATM   26  C   UNL     1      -9.775   4.564  65.377  1.00  0.00    -0.196 A  
HETATM   27  C   UNL     1      -9.273   2.980  67.118  1.00  0.00    -0.204 A  
HETATM   28 CL   UNL     1      -9.431   3.428  69.732  1.00  0.00    -0.244 Cl 
HETATM   29 CL   UNL     1      -9.065   2.089  64.581  1.00  0.00    -0.122 Cl 
HETATM   30  C   UNL     1      -9.391   3.289  65.769  1.00  0.00    -0.123 A  
ENDBRANCH  21  23
BRANCH  21  31
HETATM   31  C   UNL     1     -11.309   6.302  69.606  1.00  0.00    -0.422 C  
BRANCH  31  32
HETATM   32  N   UNL     1     -11.156   6.728  70.979  1.00  0.00    -0.260 NA 
HETATM   33  C   UNL     1     -11.448   7.948  71.510  1.00  0.00    -0.265 A  
HETATM   34  C   UNL     1     -11.045   6.586  73.047  1.00  0.00    -0.198 A  
HETATM   35  N   UNL     1     -11.373   7.891  72.817  1.00  0.00    -0.405 NA 
HETATM   36  N   UNL     1     -10.902   5.836  71.952  1.00  0.00    -0.245 NA 
ENDBRANCH  31  32
ENDBRANCH  21  31
ENDBRANCH  17  18
ENDBRANCH  16  17
ENDBRANCH  13  16
ENDBRANCH   7  10
ENDBRANCH   2   4
TORSDOF 8
ENDMDL
MODEL      118
REMARK 921   NORMALIZED FREE ENERGY PREDICTED BY IDOCK:   -4.50 KCAL/MOL
REMARK 922        TOTAL FREE ENERGY PREDICTED BY IDOCK:   -7.77 KCAL/MOL
REMARK 923 INTER-LIGAND FREE ENERGY PREDICTED BY IDOCK:   -7.73 KCAL/MOL
REMARK 924 INTRA-LIGAND FREE ENERGY PREDICTED BY IDOCK:   -0.04 KCAL/MOL
REMARK 927      BINDING AFFINITY PREDICTED BY RF-SCORE:    0.00 PKD
ROOT
HETATM    1  C   UNL     1     -11.409  15.599  67.447  1.00  0.00    -0.163 C  
HETATM    2  C   UNL     1     -10.908  15.179  66.050  1.00  0.00    -0.335 C  
HETATM    3  C   UNL     1      -9.400  15.476  66.016  1.00  0.00    -0.379 C  
ENDROOT
BRANCH   2   4
HETATM    4  N   UNL     1     -11.238  13.758  65.789  1.00  0.00    -0.295 NA 
HETATM    5  C   UNL     1     -10.038  12.955  65.428  1.00  0.00    -0.251 C  
HETATM    6  C   UNL     1      -9.080  12.655  66.601  1.00  0.00    -0.193 C  
HETATM    7  N   UNL     1      -9.816  11.973  67.678  1.00  0.00    -0.186 NA 
HETATM    8  C   UNL     1     -11.908  13.045  66.913  1.00  0.00    -0.380 C  
HETATM    9  C   UNL     1     -11.014  12.692  68.136  1.00  0.00    -0.236 C  
BRANCH   7  10
HETATM   10  C   UNL     1      -9.133  11.114  68.525  1.00  0.00    -0.175 A  
HETATM   11  C   UNL     1      -9.808  10.298  69.434  1.00  0.00    -0.247 A  
HETATM   12  C   UNL     1      -9.134   9.591  70.429  1.00  0.00    -0.296 A  
HETATM   13  C   UNL     1      -7.747   9.676  70.556  1.00  0.00    -0.128 A  
HETATM   14  C   UNL     1      -7.732  11.121  68.600  1.00  0.00    -0.135 A  
HETATM   15  C   UNL     1      -7.044  10.418  69.608  1.00  0.00    -0.135 A  
BRANCH  13  16
HETATM   16  O   UNL     1      -7.019   9.093  71.571  1.00  0.00    -0.236 OA 
BRANCH  16  17
HETATM   17  C   UNL     1      -7.801   8.282  72.455  1.00  0.00    -0.123 C  
BRANCH  17  18
HETATM   18  C   UNL     1      -7.775   6.795  72.119  1.00  0.00    -0.095 C  
HETATM   19  C   UNL     1      -7.767   5.901  73.332  1.00  0.00    -0.101 C  
HETATM   20  O   UNL     1      -8.492   4.745  72.914  1.00  0.00    -0.110 OA 
HETATM   21  C   UNL     1      -9.434   5.187  71.905  1.00  0.00    -0.147 C  
HETATM   22  O   UNL     1      -8.994   6.475  71.438  1.00  0.00    -0.140 OA 
BRANCH  21  23
HETATM   23  C   UNL     1      -9.437   4.224  70.716  1.00  0.00    -0.241 A  
HETATM   24  C   UNL     1      -9.396   4.742  69.403  1.00  0.00    -0.197 A  
HETATM   25  C   UNL     1      -9.463   2.819  70.848  1.00  0.00    -0.154 A  
HETATM   26  C   UNL     1      -9.327   3.907  68.285  1.00  0.00    -0.221 A  
HETATM   27  C   UNL     1      -9.374   1.982  69.727  1.00  0.00    -0.158 A  
HETATM   28 CL   UNL     1      -9.649   2.014  72.369  1.00  0.00    -0.152 Cl 
HETATM   29 CL   UNL     1      -9.163   1.502  67.081  1.00  0.00    -0.111 Cl 
HETATM   30  C   UNL     1      -9.295   2.530  68.453  1.00  0.00    -0.200 A  
ENDBRANCH  21  23
BRANCH  21  31
HETATM   31  C   UNL     1     -10.811   5.375  72.585  1.00  0.00    -0.256 C  
BRANCH  31  32
HETATM   32  N   UNL     1     -11.528   6.572  72.210  1.00  0.00    -0.279 NA 
HETATM   33  C   UNL     1     -12.631   6.669  71.417  1.00  0.00    -0.202 A  
HETATM   34  C   UNL     1     -12.268   8.507  72.352  1.00  0.00    -0.366 A  
HETATM   35  N   UNL     1     -13.113   7.887  71.477  1.00  0.00    -0.330 NA 
HETATM   36  N   UNL     1     -11.282   7.742  72.827  1.00  0.00    -0.383 NA 
ENDBRANCH  31  32
ENDBRANCH  21  31
ENDBRANCH  17  18
ENDBRANCH  16  17
ENDBRANCH  13  16
ENDBRANCH   7  10
ENDBRANCH   2   4
TORSDOF 8
ENDMDL
MODEL      119
REMARK 921   NORMALIZED FREE ENERGY PREDICTED BY IDOCK:   -4.49 KCAL/MOL
REMARK 922        TOTAL FREE ENERGY PREDICTED BY IDOCK:   -7.76 KCAL/MOL
REMARK 923 INTER-LIGAND FREE ENERGY PREDICTED BY IDOCK:   -6.34 KCAL/MOL
REMARK 924 INTRA-LIGAND FREE ENERGY PREDICTED BY IDOCK:   -1.42 KCAL/MOL
REMARK 927      BINDING AFFINITY PREDICTED BY RF-SCORE:    0.00 PKD
ROOT
HETATM    1  C   UNL     1      -9.201  15.739  66.519  1.00  0.00    -0.314 C  
HETATM    2  C   UNL     1      -7.925  14.986  66.948  1.00  0.00    -0.074 C  
HETATM    3  C   UNL     1      -6.884  16.057  67.313  1.00  0.00    -0.236 C  
ENDROOT
BRANCH   2   4
HETATM    4  N   UNL     1      -8.225  14.050  68.057  1.00  0.00    -0.143 NA 
HETATM    5  C   UNL     1      -9.440  13.232  67.795  1.00  0.00    -0.208 C  
HETATM    6  C   UNL     1      -9.261  12.124  66.734  1.00  0.00    -0.207 C  
HETATM    7  N   UNL     1      -8.152  11.239  67.127  1.00  0.00    -0.143 NA 
HETATM    8  C   UNL     1      -7.131  13.098  68.398  1.00  0.00    -0.107 C  
HETATM    9  C   UNL     1      -6.886  11.940  67.387  1.00  0.00    -0.130 C  
BRANCH   7  10
HETATM   10  C   UNL     1      -8.161   9.918  66.707  1.00  0.00    -0.124 A  
HETATM   11  C   UNL     1      -9.343   9.286  66.316  1.00  0.00    -0.257 A  
HETATM   12  C   UNL     1      -9.403   7.910  66.096  1.00  0.00    -0.188 A  
HETATM   13  C   UNL     1      -8.275   7.107  66.260  1.00  0.00    -0.124 A  
HETATM   14  C   UNL     1      -7.011   9.119  66.780  1.00  0.00    -0.081 A  
HETATM   15  C   UNL     1      -7.065   7.728  66.568  1.00  0.00    -0.078 A  
BRANCH  13  16
HETATM   16  O   UNL     1      -8.274   5.732  66.162  1.00  0.00    -0.106 OA 
BRANCH  16  17
HETATM   17  C   UNL     1      -8.195   5.060  67.424  1.00  0.00    -0.106 C  
BRANCH  17  18
HETATM   18  C   UNL     1      -9.326   5.408  68.386  1.00  0.00    -0.114 C  
HETATM   19  C   UNL     1      -9.735   4.265  69.277  1.00  0.00    -0.170 C  
HETATM   20  O   UNL     1     -10.134   4.899  70.492  1.00  0.00    -0.229 OA 
HETATM   21  C   UNL     1      -9.368   6.125  70.592  1.00  0.00    -0.165 C  
HETATM   22  O   UNL     1      -8.846   6.417  69.283  1.00  0.00    -0.127 OA 
BRANCH  21  23
HETATM   23  C   UNL     1     -10.268   7.287  71.017  1.00  0.00    -0.198 A  
HETATM   24  C   UNL     1     -10.193   8.514  70.320  1.00  0.00    -0.206 A  
HETATM   25  C   UNL     1     -11.202   7.207  72.073  1.00  0.00    -0.251 A  
HETATM   26  C   UNL     1     -11.041   9.583  70.621  1.00  0.00    -0.364 A  
HETATM   27  C   UNL     1     -12.065   8.274  72.361  1.00  0.00    -0.430 A  
HETATM   28 CL   UNL     1     -11.334   5.835  73.118  1.00  0.00    -0.251 Cl 
HETATM   29 CL   UNL     1     -13.062  10.749  71.969  1.00  0.00    -0.569 Cl 
HETATM   30  C   UNL     1     -11.987   9.450  71.627  1.00  0.00    -0.393 A  
ENDBRANCH  21  23
BRANCH  21  31
HETATM   31  C   UNL     1      -8.168   5.864  71.532  1.00  0.00    -0.119 C  
BRANCH  31  32
HETATM   32  N   UNL     1      -6.877   5.801  70.886  1.00  0.00    -0.056 NA 
HETATM   33  C   UNL     1      -6.209   4.690  70.466  1.00  0.00    -0.022 A  
HETATM   34  C   UNL     1      -5.260   6.406  69.732  1.00  0.00    -0.013 A  
HETATM   35  N   UNL     1      -5.173   5.044  69.744  1.00  0.00     0.000 NA 
HETATM   36  N   UNL     1      -6.287   6.914  70.417  1.00  0.00    -0.038 NA 
ENDBRANCH  31  32
ENDBRANCH  21  31
ENDBRANCH  17  18
ENDBRANCH  16  17
ENDBRANCH  13  16
ENDBRANCH   7  10
ENDBRANCH   2   4
TORSDOF 8
ENDMDL
MODEL      120
REMARK 921   NORMALIZED FREE ENERGY PREDICTED BY IDOCK:   -4.49 KCAL/MOL
REMARK 922        TOTAL FREE ENERGY PREDICTED BY IDOCK:   -7.76 KCAL/MOL
REMARK 923 INTER-LIGAND FREE ENERGY PREDICTED BY IDOCK:   -8.24 KCAL/MOL
REMARK 924 INTRA-LIGAND FREE ENERGY PREDICTED BY IDOCK:    0.48 KCAL/MOL
REMARK 927      BINDING AFFINITY PREDICTED BY RF-SCORE:    0.00 PKD
ROOT
HETATM    1  C   UNL     1      -9.046   2.880  68.309  1.00  0.00    -0.221 C  
HETATM    2  C   UNL     1      -8.362   2.213  69.519  1.00  0.00    -0.045 C  
HETATM    3  C   UNL     1      -6.965   1.777  69.049  1.00  0.00    -0.036 C  
ENDROOT
BRANCH   2   4
HETATM    4  N   UNL     1      -8.336   3.142  70.674  1.00  0.00    -0.055 NA 
HETATM    5  C   UNL     1      -7.196   4.097  70.607  1.00  0.00    -0.041 C  
HETATM    6  C   UNL     1      -7.342   5.209  69.546  1.00  0.00    -0.057 C  
HETATM    7  N   UNL     1      -8.589   5.955  69.781  1.00  0.00    -0.127 NA 
HETATM    8  C   UNL     1      -9.568   3.958  70.860  1.00  0.00    -0.188 C  
HETATM    9  C   UNL     1      -9.792   5.112  69.840  1.00  0.00    -0.219 C  
BRANCH   7  10
HETATM   10  C   UNL     1      -8.667   7.281  69.385  1.00  0.00    -0.137 A  
HETATM   11  C   UNL     1      -7.814   8.251  69.913  1.00  0.00    -0.102 A  
HETATM   12  C   UNL     1      -8.016   9.612  69.686  1.00  0.00    -0.137 A  
HETATM   13  C   UNL     1      -9.090  10.060  68.917  1.00  0.00    -0.159 A  
HETATM   14  C   UNL     1      -9.689   7.733  68.537  1.00  0.00    -0.165 A  
HETATM   15  C   UNL     1      -9.907   9.106  68.310  1.00  0.00    -0.181 A  
BRANCH  13  16
HETATM   16  O   UNL     1      -9.419  11.385  68.732  1.00  0.00    -0.186 OA 
BRANCH  16  17
HETATM   17  C   UNL     1      -8.304  12.218  68.392  1.00  0.00    -0.144 C  
BRANCH  17  18
HETATM   18  C   UNL     1      -8.665  13.409  67.511  1.00  0.00    -0.205 C  
HETATM   19  C   UNL     1      -9.413  13.031  66.260  1.00  0.00    -0.192 C  
HETATM   20  O   UNL     1     -10.279  14.142  66.026  1.00  0.00    -0.287 OA 
HETATM   21  C   UNL     1     -10.568  14.723  67.321  1.00  0.00    -0.273 C  
HETATM   22  O   UNL     1      -9.574  14.239  68.244  1.00  0.00    -0.208 OA 
BRANCH  21  23
HETATM   23  C   UNL     1     -10.458  16.249  67.260  1.00  0.00    -0.300 A  
HETATM   24  C   UNL     1     -10.123  16.968  68.428  1.00  0.00    -0.302 A  
HETATM   25  C   UNL     1     -10.659  17.000  66.082  1.00  0.00    -0.194 A  
HETATM   26  C   UNL     1      -9.942  18.354  68.412  1.00  0.00    -0.406 A  
HETATM   27  C   UNL     1     -10.458  18.387  66.062  1.00  0.00    -0.400 A  
HETATM   28 CL   UNL     1     -11.204  16.302  64.596  1.00  0.00    -0.385 Cl 
HETATM   29 CL   UNL     1      -9.822  20.753  67.191  1.00  0.00    -0.532 Cl 
HETATM   30  C   UNL     1     -10.090  19.054  67.223  1.00  0.00    -0.364 A  
ENDBRANCH  21  23
BRANCH  21  31
HETATM   31  C   UNL     1     -11.944  14.195  67.788  1.00  0.00    -0.354 C  
BRANCH  31  32
HETATM   32  N   UNL     1     -12.016  13.796  69.175  1.00  0.00    -0.350 NA 
HETATM   33  C   UNL     1     -12.301  14.579  70.253  1.00  0.00    -0.349 A  
HETATM   34  C   UNL     1     -12.308  12.564  70.820  1.00  0.00    -0.286 A  
HETATM   35  N   UNL     1     -12.477  13.826  71.312  1.00  0.00    -0.357 NA 
HETATM   36  N   UNL     1     -12.024  12.496  69.518  1.00  0.00    -0.293 NA 
ENDBRANCH  31  32
ENDBRANCH  21  31
ENDBRANCH  17  18
ENDBRANCH  16  17
ENDBRANCH  13  16
ENDBRANCH   7  10
ENDBRANCH   2   4
TORSDOF 8
ENDMDL
MODEL      121
REMARK 921   NORMALIZED FREE ENERGY PREDICTED BY IDOCK:   -4.48 KCAL/MOL
REMARK 922        TOTAL FREE ENERGY PREDICTED BY IDOCK:   -7.75 KCAL/MOL
REMARK 923 INTER-LIGAND FREE ENERGY PREDICTED BY IDOCK:   -8.07 KCAL/MOL
REMARK 924 INTRA-LIGAND FREE ENERGY PREDICTED BY IDOCK:    0.32 KCAL/MOL
REMARK 927      BINDING AFFINITY PREDICTED BY RF-SCORE:    0.00 PKD
ROOT
HETATM    1  C   UNL     1      -6.439   2.864  72.899  1.00  0.00    -0.014 C  
HETATM    2  C   UNL     1      -7.832   2.218  73.048  1.00  0.00    -0.046 C  
HETATM    3  C   UNL     1      -8.444   2.789  74.338  1.00  0.00    -0.068 C  
ENDROOT
BRANCH   2   4
HETATM    4  N   UNL     1      -8.652   2.474  71.841  1.00  0.00    -0.067 NA 
HETATM    5  C   UNL     1     -10.070   2.780  72.173  1.00  0.00    -0.140 C  
HETATM    6  C   UNL     1     -10.306   4.175  72.790  1.00  0.00    -0.175 C  
HETATM    7  N   UNL     1      -9.784   5.211  71.883  1.00  0.00    -0.157 NA 
HETATM    8  C   UNL     1      -8.168   3.579  70.967  1.00  0.00    -0.066 C  
HETATM    9  C   UNL     1      -8.375   5.024  71.505  1.00  0.00    -0.119 C  
BRANCH   7  10
HETATM   10  C   UNL     1     -10.356   6.473  71.898  1.00  0.00    -0.200 A  
HETATM   11  C   UNL     1     -11.717   6.659  71.648  1.00  0.00    -0.362 A  
HETATM   12  C   UNL     1     -12.262   7.927  71.453  1.00  0.00    -0.337 A  
HETATM   13  C   UNL     1     -11.461   9.068  71.499  1.00  0.00    -0.337 A  
HETATM   14  C   UNL     1      -9.575   7.630  72.037  1.00  0.00    -0.200 A  
HETATM   15  C   UNL     1     -10.115   8.914  71.831  1.00  0.00    -0.393 A  
BRANCH  13  16
HETATM   16  O   UNL     1     -11.901  10.343  71.217  1.00  0.00    -0.350 OA 
BRANCH  16  17
HETATM   17  C   UNL     1     -11.993  10.629  69.816  1.00  0.00    -0.291 C  
BRANCH  17  18
HETATM   18  C   UNL     1     -10.745  11.281  69.232  1.00  0.00    -0.179 C  
HETATM   19  C   UNL     1      -9.847  10.319  68.499  1.00  0.00    -0.164 C  
HETATM   20  O   UNL     1      -9.272  11.107  67.457  1.00  0.00    -0.151 OA 
HETATM   21  C   UNL     1     -10.236  12.141  67.138  1.00  0.00    -0.210 C  
HETATM   22  O   UNL     1     -11.164  12.221  68.236  1.00  0.00    -0.228 OA 
BRANCH  21  23
HETATM   23  C   UNL     1      -9.541  13.498  67.001  1.00  0.00    -0.248 A  
HETATM   24  C   UNL     1      -8.180  13.620  67.359  1.00  0.00    -0.187 A  
HETATM   25  C   UNL     1     -10.181  14.658  66.515  1.00  0.00    -0.278 A  
HETATM   26  C   UNL     1      -7.480  14.817  67.188  1.00  0.00    -0.069 A  
HETATM   27  C   UNL     1      -9.473  15.853  66.326  1.00  0.00    -0.350 A  
HETATM   28 CL   UNL     1     -11.873  14.727  66.158  1.00  0.00    -0.263 Cl 
HETATM   29 CL   UNL     1      -7.253  17.383  66.399  1.00  0.00    -0.304 Cl 
HETATM   30  C   UNL     1      -8.125  15.923  66.652  1.00  0.00    -0.262 A  
ENDBRANCH  21  23
BRANCH  21  31
HETATM   31  C   UNL     1     -11.023  11.691  65.885  1.00  0.00    -0.280 C  
BRANCH  31  32
HETATM   32  N   UNL     1     -10.215  11.228  64.780  1.00  0.00    -0.271 NA 
HETATM   33  C   UNL     1      -9.617  10.013  64.637  1.00  0.00    -0.297 A  
HETATM   34  C   UNL     1      -9.507  11.071  62.834  1.00  0.00    -0.356 A  
HETATM   35  N   UNL     1      -9.149   9.891  63.419  1.00  0.00    -0.257 NA 
HETATM   36  N   UNL     1     -10.162  11.921  63.629  1.00  0.00    -0.401 NA 
ENDBRANCH  31  32
ENDBRANCH  21  31
ENDBRANCH  17  18
ENDBRANCH  16  17
ENDBRANCH  13  16
ENDBRANCH   7  10
ENDBRANCH   2   4
TORSDOF 8
ENDMDL
MODEL      122
REMARK 921   NORMALIZED FREE ENERGY PREDICTED BY IDOCK:   -4.47 KCAL/MOL
REMARK 922        TOTAL FREE ENERGY PREDICTED BY IDOCK:   -7.74 KCAL/MOL
REMARK 923 INTER-LIGAND FREE ENERGY PREDICTED BY IDOCK:   -7.81 KCAL/MOL
REMARK 924 INTRA-LIGAND FREE ENERGY PREDICTED BY IDOCK:    0.07 KCAL/MOL
REMARK 927      BINDING AFFINITY PREDICTED BY RF-SCORE:    0.00 PKD
ROOT
HETATM    1  C   UNL     1     -10.177  18.243  65.997  1.00  0.00    -0.334 C  
HETATM    2  C   UNL     1      -9.805  16.759  66.189  1.00  0.00    -0.309 C  
HETATM    3  C   UNL     1      -8.974  16.678  67.480  1.00  0.00    -0.204 C  
ENDROOT
BRANCH   2   4
HETATM    4  N   UNL     1     -11.026  15.920  66.218  1.00  0.00    -0.186 NA 
HETATM    5  C   UNL     1     -10.912  14.722  65.342  1.00  0.00    -0.359 C  
HETATM    6  C   UNL     1      -9.978  13.614  65.875  1.00  0.00    -0.291 C  
HETATM    7  N   UNL     1     -10.422  13.197  67.215  1.00  0.00    -0.242 NA 
HETATM    8  C   UNL     1     -11.427  15.429  67.566  1.00  0.00    -0.225 C  
HETATM    9  C   UNL     1     -10.547  14.301  68.178  1.00  0.00    -0.245 C  
BRANCH   7  10
HETATM   10  C   UNL     1     -10.158  11.905  67.642  1.00  0.00    -0.191 A  
HETATM   11  C   UNL     1      -9.193  11.643  68.616  1.00  0.00    -0.112 A  
HETATM   12  C   UNL     1      -8.771  10.345  68.902  1.00  0.00    -0.157 A  
HETATM   13  C   UNL     1      -9.300   9.250  68.219  1.00  0.00    -0.134 A  
HETATM   14  C   UNL     1     -10.753  10.794  67.027  1.00  0.00    -0.320 A  
HETATM   15  C   UNL     1     -10.326   9.481  67.303  1.00  0.00    -0.319 A  
BRANCH  13  16
HETATM   16  O   UNL     1      -8.865   7.951  68.370  1.00  0.00    -0.131 OA 
BRANCH  16  17
HETATM   17  C   UNL     1      -7.648   7.829  69.114  1.00  0.00    -0.099 C  
BRANCH  17  18
HETATM   18  C   UNL     1      -7.708   6.796  70.235  1.00  0.00    -0.101 C  
HETATM   19  C   UNL     1      -6.842   7.139  71.419  1.00  0.00    -0.059 C  
HETATM   20  O   UNL     1      -7.556   6.609  72.535  1.00  0.00    -0.095 OA 
HETATM   21  C   UNL     1      -8.961   6.638  72.181  1.00  0.00    -0.138 C  
HETATM   22  O   UNL     1      -9.044   6.783  70.751  1.00  0.00    -0.150 OA 
BRANCH  21  23
HETATM   23  C   UNL     1      -9.638   5.320  72.566  1.00  0.00    -0.171 A  
HETATM   24  C   UNL     1     -10.813   5.346  73.350  1.00  0.00    -0.347 A  
HETATM   25  C   UNL     1      -9.162   4.052  72.169  1.00  0.00    -0.123 A  
HETATM   26  C   UNL     1     -11.509   4.178  73.671  1.00  0.00    -0.196 A  
HETATM   27  C   UNL     1      -9.871   2.882  72.475  1.00  0.00    -0.220 A  
HETATM   28 CL   UNL     1      -7.669   3.823  71.325  1.00  0.00    -0.058 Cl 
HETATM   29 CL   UNL     1     -11.925   1.517  73.568  1.00  0.00    -0.312 Cl 
HETATM   30  C   UNL     1     -11.045   2.952  73.214  1.00  0.00    -0.128 A  
ENDBRANCH  21  23
BRANCH  21  31
HETATM   31  C   UNL     1      -9.591   7.896  72.822  1.00  0.00    -0.247 C  
BRANCH  31  32
HETATM   32  N   UNL     1     -10.732   8.442  72.123  1.00  0.00    -0.312 NA 
HETATM   33  C   UNL     1     -12.015   7.985  72.138  1.00  0.00    -0.348 A  
HETATM   34  C   UNL     1     -11.942   9.858  71.206  1.00  0.00    -0.402 A  
HETATM   35  N   UNL     1     -12.802   8.856  71.553  1.00  0.00    -0.332 NA 
HETATM   36  N   UNL     1     -10.665   9.649  71.535  1.00  0.00    -0.213 NA 
ENDBRANCH  31  32
ENDBRANCH  21  31
ENDBRANCH  17  18
ENDBRANCH  16  17
ENDBRANCH  13  16
ENDBRANCH   7  10
ENDBRANCH   2   4
TORSDOF 8
ENDMDL
MODEL      123
REMARK 921   NORMALIZED FREE ENERGY PREDICTED BY IDOCK:   -4.44 KCAL/MOL
REMARK 922        TOTAL FREE ENERGY PREDICTED BY IDOCK:   -7.69 KCAL/MOL
REMARK 923 INTER-LIGAND FREE ENERGY PREDICTED BY IDOCK:   -6.95 KCAL/MOL
REMARK 924 INTRA-LIGAND FREE ENERGY PREDICTED BY IDOCK:   -0.74 KCAL/MOL
REMARK 927      BINDING AFFINITY PREDICTED BY RF-SCORE:    0.00 PKD
ROOT
HETATM    1  C   UNL     1      -8.007   2.569  69.045  1.00  0.00    -0.059 C  
HETATM    2  C   UNL     1      -6.721   3.382  68.794  1.00  0.00    -0.045 C  
HETATM    3  C   UNL     1      -5.632   2.769  69.691  1.00  0.00    -0.017 C  
ENDROOT
BRANCH   2   4
HETATM    4  N   UNL     1      -6.376   3.371  67.353  1.00  0.00    -0.036 NA 
HETATM    5  C   UNL     1      -7.545   3.685  66.488  1.00  0.00    -0.080 C  
HETATM    6  C   UNL     1      -7.988   5.164  66.506  1.00  0.00    -0.104 C  
HETATM    7  N   UNL     1      -6.856   6.024  66.126  1.00  0.00    -0.060 NA 
HETATM    8  C   UNL     1      -5.285   4.305  66.955  1.00  0.00    -0.012 C  
HETATM    9  C   UNL     1      -5.646   5.818  66.935  1.00  0.00    -0.016 C  
BRANCH   7  10
HETATM   10  C   UNL     1      -7.108   7.245  65.519  1.00  0.00    -0.064 A  
HETATM   11  C   UNL     1      -6.539   8.426  65.996  1.00  0.00    -0.053 A  
HETATM   12  C   UNL     1      -6.945   9.677  65.533  1.00  0.00    -0.093 A  
HETATM   13  C   UNL     1      -7.945   9.797  64.569  1.00  0.00    -0.144 A  
HETATM   14  C   UNL     1      -8.047   7.368  64.484  1.00  0.00    -0.079 A  
HETATM   15  C   UNL     1      -8.469   8.628  64.018  1.00  0.00    -0.080 A  
BRANCH  13  16
HETATM   16  O   UNL     1      -8.473  10.994  64.135  1.00  0.00     0.033 OA 
BRANCH  16  17
HETATM   17  C   UNL     1      -9.639  11.409  64.856  1.00  0.00    -0.215 C  
BRANCH  17  18
HETATM   18  C   UNL     1      -9.475  11.383  66.371  1.00  0.00    -0.204 C  
HETATM   19  C   UNL     1      -9.018  12.696  66.952  1.00  0.00    -0.213 C  
HETATM   20  O   UNL     1      -9.642  12.742  68.235  1.00  0.00    -0.218 OA 
HETATM   21  C   UNL     1     -10.868  11.978  68.129  1.00  0.00    -0.221 C  
HETATM   22  O   UNL     1     -10.765  11.157  66.950  1.00  0.00    -0.249 OA 
BRANCH  21  23
HETATM   23  C   UNL     1     -11.032  11.056  69.339  1.00  0.00    -0.301 A  
HETATM   24  C   UNL     1     -12.269  11.017  70.020  1.00  0.00    -0.418 A  
HETATM   25  C   UNL     1     -10.009  10.211  69.822  1.00  0.00    -0.220 A  
HETATM   26  C   UNL     1     -12.494  10.143  71.086  1.00  0.00    -0.490 A  
HETATM   27  C   UNL     1     -10.241   9.321  70.880  1.00  0.00    -0.371 A  
HETATM   28 CL   UNL     1      -8.395  10.227  69.199  1.00  0.00    -0.143 Cl 
HETATM   29 CL   UNL     1     -11.774   8.175  72.781  1.00  0.00    -0.426 Cl 
HETATM   30  C   UNL     1     -11.485   9.284  71.498  1.00  0.00    -0.384 A  
ENDBRANCH  21  23
BRANCH  21  31
HETATM   31  C   UNL     1     -12.034  12.971  67.913  1.00  0.00    -0.291 C  
BRANCH  31  32
HETATM   32  N   UNL     1     -11.817  14.302  68.433  1.00  0.00    -0.339 NA 
HETATM   33  C   UNL     1     -11.862  14.707  69.732  1.00  0.00    -0.316 A  
HETATM   34  C   UNL     1     -11.076  16.238  68.542  1.00  0.00    -0.368 A  
HETATM   35  N   UNL     1     -11.411  15.934  69.830  1.00  0.00    -0.323 NA 
HETATM   36  N   UNL     1     -11.307  15.270  67.652  1.00  0.00    -0.329 NA 
ENDBRANCH  31  32
ENDBRANCH  21  31
ENDBRANCH  17  18
ENDBRANCH  16  17
ENDBRANCH  13  16
ENDBRANCH   7  10
ENDBRANCH   2   4
TORSDOF 8
ENDMDL
MODEL      124
REMARK 921   NORMALIZED FREE ENERGY PREDICTED BY IDOCK:   -4.41 KCAL/MOL
REMARK 922        TOTAL FREE ENERGY PREDICTED BY IDOCK:   -7.65 KCAL/MOL
REMARK 923 INTER-LIGAND FREE ENERGY PREDICTED BY IDOCK:   -7.97 KCAL/MOL
REMARK 924 INTRA-LIGAND FREE ENERGY PREDICTED BY IDOCK:    0.32 KCAL/MOL
REMARK 927      BINDING AFFINITY PREDICTED BY RF-SCORE:    0.00 PKD
ROOT
HETATM    1  C   UNL     1      -6.813   4.742  64.123  1.00  0.00    -0.048 C  
HETATM    2  C   UNL     1      -6.661   5.965  63.196  1.00  0.00    -0.032 C  
HETATM    3  C   UNL     1      -8.067   6.292  62.666  1.00  0.00    -0.081 C  
ENDROOT
BRANCH   2   4
HETATM    4  N   UNL     1      -6.026   7.089  63.923  1.00  0.00    -0.036 NA 
HETATM    5  C   UNL     1      -6.613   8.406  63.557  1.00  0.00    -0.084 C  
HETATM    6  C   UNL     1      -8.027   8.666  64.120  1.00  0.00    -0.149 C  
HETATM    7  N   UNL     1      -8.006   8.534  65.586  1.00  0.00    -0.101 NA 
HETATM    8  C   UNL     1      -6.080   6.994  65.409  1.00  0.00    -0.037 C  
HETATM    9  C   UNL     1      -7.466   7.253  66.066  1.00  0.00    -0.080 C  
BRANCH   7  10
HETATM   10  C   UNL     1      -8.921   9.249  66.342  1.00  0.00    -0.154 A  
HETATM   11  C   UNL     1      -9.087   9.007  67.707  1.00  0.00    -0.143 A  
HETATM   12  C   UNL     1     -10.140   9.565  68.431  1.00  0.00    -0.199 A  
HETATM   13  C   UNL     1     -11.077  10.393  67.813  1.00  0.00    -0.299 A  
HETATM   14  C   UNL     1      -9.812  10.156  65.749  1.00  0.00    -0.331 A  
HETATM   15  C   UNL     1     -10.884  10.716  66.470  1.00  0.00    -0.168 A  
BRANCH  13  16
HETATM   16  O   UNL     1     -12.200  10.899  68.431  1.00  0.00    -0.540 OA 
BRANCH  16  17
HETATM   17  C   UNL     1     -11.947  12.052  69.242  1.00  0.00    -0.270 C  
BRANCH  17  18
HETATM   18  C   UNL     1     -11.199  13.167  68.519  1.00  0.00    -0.272 C  
HETATM   19  C   UNL     1     -12.055  13.937  67.548  1.00  0.00    -0.331 C  
HETATM   20  O   UNL     1     -11.523  15.262  67.594  1.00  0.00    -0.331 OA 
HETATM   21  C   UNL     1     -10.968  15.441  68.920  1.00  0.00    -0.261 C  
HETATM   22  O   UNL     1     -10.797  14.133  69.498  1.00  0.00    -0.188 OA 
BRANCH  21  23
HETATM   23  C   UNL     1      -9.594  16.110  68.840  1.00  0.00    -0.245 A  
HETATM   24  C   UNL     1      -8.479  15.479  69.436  1.00  0.00    -0.256 A  
HETATM   25  C   UNL     1      -9.359  17.336  68.181  1.00  0.00    -0.274 A  
HETATM   26  C   UNL     1      -7.191  16.012  69.332  1.00  0.00    -0.213 A  
HETATM   27  C   UNL     1      -8.064  17.859  68.061  1.00  0.00    -0.252 A  
HETATM   28 CL   UNL     1     -10.624  18.310  67.515  1.00  0.00    -0.437 Cl 
HETATM   29 CL   UNL     1      -5.397  17.822  68.459  1.00  0.00    -0.150 Cl 
HETATM   30  C   UNL     1      -6.987  17.189  68.627  1.00  0.00    -0.209 A  
ENDBRANCH  21  23
BRANCH  21  31
HETATM   31  C   UNL     1     -12.007  16.204  69.775  1.00  0.00    -0.052 C  
BRANCH  31  32
HETATM   32  N   UNL     1     -12.472  15.506  70.952  1.00  0.00    -0.411 NA 
HETATM   33  C   UNL     1     -13.568  14.705  71.066  1.00  0.00    -0.276 A  
HETATM   34  C   UNL     1     -12.387  14.537  72.786  1.00  0.00    -0.163 A  
HETATM   35  N   UNL     1     -13.547  14.089  72.223  1.00  0.00    -0.476 NA 
HETATM   36  N   UNL     1     -11.696  15.405  72.044  1.00  0.00    -0.419 NA 
ENDBRANCH  31  32
ENDBRANCH  21  31
ENDBRANCH  17  18
ENDBRANCH  16  17
ENDBRANCH  13  16
ENDBRANCH   7  10
ENDBRANCH   2   4
TORSDOF 8
ENDMDL
MODEL      125
REMARK 921   NORMALIZED FREE ENERGY PREDICTED BY IDOCK:   -4.39 KCAL/MOL
REMARK 922        TOTAL FREE ENERGY PREDICTED BY IDOCK:   -7.62 KCAL/MOL
REMARK 923 INTER-LIGAND FREE ENERGY PREDICTED BY IDOCK:   -7.76 KCAL/MOL
REMARK 924 INTRA-LIGAND FREE ENERGY PREDICTED BY IDOCK:    0.15 KCAL/MOL
REMARK 927      BINDING AFFINITY PREDICTED BY RF-SCORE:    0.00 PKD
ROOT
HETATM    1  C   UNL     1      -7.690  19.338  66.099  1.00  0.00    -0.304 C  
HETATM    2  C   UNL     1      -8.803  20.008  66.930  1.00  0.00    -0.347 C  
HETATM    3  C   UNL     1     -10.073  19.982  66.064  1.00  0.00    -0.559 C  
ENDROOT
BRANCH   2   4
HETATM    4  N   UNL     1      -8.960  19.319  68.233  1.00  0.00    -0.324 NA 
HETATM    5  C   UNL     1     -10.321  18.744  68.410  1.00  0.00    -0.307 C  
HETATM    6  C   UNL     1     -10.611  17.487  67.561  1.00  0.00    -0.333 C  
HETATM    7  N   UNL     1      -9.604  16.453  67.850  1.00  0.00    -0.227 NA 
HETATM    8  C   UNL     1      -7.991  18.216  68.488  1.00  0.00    -0.300 C  
HETATM    9  C   UNL     1      -8.214  16.904  67.682  1.00  0.00    -0.186 C  
BRANCH   7  10
HETATM   10  C   UNL     1      -9.943  15.118  67.698  1.00  0.00    -0.229 A  
HETATM   11  C   UNL     1      -9.958  14.509  66.442  1.00  0.00    -0.304 A  
HETATM   12  C   UNL     1     -10.495  13.237  66.248  1.00  0.00    -0.289 A  
HETATM   13  C   UNL     1     -11.045  12.520  67.309  1.00  0.00    -0.274 A  
HETATM   14  C   UNL     1     -10.413  14.354  68.776  1.00  0.00    -0.244 A  
HETATM   15  C   UNL     1     -10.966  13.073  68.587  1.00  0.00    -0.297 A  
BRANCH  13  16
HETATM   16  O   UNL     1     -11.686  11.306  67.183  1.00  0.00    -0.533 OA 
BRANCH  16  17
HETATM   17  C   UNL     1     -10.910  10.190  67.634  1.00  0.00    -0.290 C  
BRANCH  17  18
HETATM   18  C   UNL     1     -10.444   9.266  66.515  1.00  0.00    -0.134 C  
HETATM   19  C   UNL     1      -9.321   9.836  65.688  1.00  0.00    -0.227 C  
HETATM   20  O   UNL     1      -8.556   8.693  65.307  1.00  0.00    -0.172 OA 
HETATM   21  C   UNL     1      -8.732   7.707  66.354  1.00  0.00    -0.151 C  
HETATM   22  O   UNL     1      -9.892   8.089  67.117  1.00  0.00    -0.171 OA 
BRANCH  21  23
HETATM   23  C   UNL     1      -8.992   6.325  65.751  1.00  0.00    -0.083 A  
HETATM   24  C   UNL     1     -10.123   5.587  66.165  1.00  0.00    -0.135 A  
HETATM   25  C   UNL     1      -8.164   5.731  64.773  1.00  0.00    -0.135 A  
HETATM   26  C   UNL     1     -10.445   4.353  65.596  1.00  0.00    -0.224 A  
HETATM   27  C   UNL     1      -8.498   4.501  64.189  1.00  0.00    -0.121 A  
HETATM   28 CL   UNL     1      -6.669   6.426  64.249  1.00  0.00    -0.037 Cl 
HETATM   29 CL   UNL     1     -10.061   2.327  63.862  1.00  0.00    -0.132 Cl 
HETATM   30  C   UNL     1      -9.642   3.824  64.595  1.00  0.00    -0.173 A  
ENDBRANCH  21  23
BRANCH  21  31
HETATM   31  C   UNL     1      -7.505   7.780  67.292  1.00  0.00    -0.093 C  
BRANCH  31  32
HETATM   32  N   UNL     1      -7.478   6.801  68.354  1.00  0.00    -0.093 NA 
HETATM   33  C   UNL     1      -6.671   5.709  68.461  1.00  0.00    -0.057 A  
HETATM   34  C   UNL     1      -7.693   6.012  70.263  1.00  0.00    -0.097 A  
HETATM   35  N   UNL     1      -6.796   5.182  69.655  1.00  0.00    -0.051 NA 
HETATM   36  N   UNL     1      -8.138   7.018  69.506  1.00  0.00    -0.128 NA 
ENDBRANCH  31  32
ENDBRANCH  21  31
ENDBRANCH  17  18
ENDBRANCH  16  17
ENDBRANCH  13  16
ENDBRANCH   7  10
ENDBRANCH   2   4
TORSDOF 8
ENDMDL
MODEL      126
REMARK 921   NORMALIZED FREE ENERGY PREDICTED BY IDOCK:   -4.39 KCAL/MOL
REMARK 922        TOTAL FREE ENERGY PREDICTED BY IDOCK:   -7.61 KCAL/MOL
REMARK 923 INTER-LIGAND FREE ENERGY PREDICTED BY IDOCK:   -8.33 KCAL/MOL
REMARK 924 INTRA-LIGAND FREE ENERGY PREDICTED BY IDOCK:    0.72 KCAL/MOL
REMARK 927      BINDING AFFINITY PREDICTED BY RF-SCORE:    0.00 PKD
ROOT
HETATM    1  C   UNL     1      -8.869   3.524  65.691  1.00  0.00    -0.129 C  
HETATM    2  C   UNL     1      -8.220   2.248  66.264  1.00  0.00    -0.089 C  
HETATM    3  C   UNL     1      -7.334   1.668  65.150  1.00  0.00    -0.056 C  
ENDROOT
BRANCH   2   4
HETATM    4  N   UNL     1      -7.477   2.560  67.508  1.00  0.00    -0.056 NA 
HETATM    5  C   UNL     1      -7.106   3.998  67.601  1.00  0.00    -0.059 C  
HETATM    6  C   UNL     1      -8.279   4.955  67.905  1.00  0.00    -0.100 C  
HETATM    7  N   UNL     1      -8.942   4.542  69.152  1.00  0.00    -0.095 NA 
HETATM    8  C   UNL     1      -8.187   2.218  68.773  1.00  0.00    -0.055 C  
HETATM    9  C   UNL     1      -9.379   3.137  69.165  1.00  0.00    -0.158 C  
BRANCH   7  10
HETATM   10  C   UNL     1      -9.590   5.496  69.921  1.00  0.00    -0.164 A  
HETATM   11  C   UNL     1     -10.956   5.745  69.775  1.00  0.00    -0.397 A  
HETATM   12  C   UNL     1     -11.573   6.836  70.385  1.00  0.00    -0.422 A  
HETATM   13  C   UNL     1     -10.843   7.729  71.170  1.00  0.00    -0.235 A  
HETATM   14  C   UNL     1      -8.881   6.343  70.786  1.00  0.00    -0.144 A  
HETATM   15  C   UNL     1      -9.495   7.453  71.398  1.00  0.00    -0.160 A  
BRANCH  13  16
HETATM   16  O   UNL     1     -11.355   8.884  71.720  1.00  0.00    -0.314 OA 
BRANCH  16  17
HETATM   17  C   UNL     1     -12.008   9.739  70.775  1.00  0.00    -0.299 C  
BRANCH  17  18
HETATM   18  C   UNL     1     -11.106  10.819  70.188  1.00  0.00    -0.223 C  
HETATM   19  C   UNL     1     -10.093  10.292  69.205  1.00  0.00    -0.227 C  
HETATM   20  O   UNL     1      -9.937  11.355  68.265  1.00  0.00    -0.185 OA 
HETATM   21  C   UNL     1     -11.195  12.073  68.237  1.00  0.00    -0.261 C  
HETATM   22  O   UNL     1     -11.926  11.711  69.424  1.00  0.00    -0.313 OA 
BRANCH  21  23
HETATM   23  C   UNL     1     -10.950  13.584  68.271  1.00  0.00    -0.280 A  
HETATM   24  C   UNL     1     -11.964  14.441  68.754  1.00  0.00    -0.331 A  
HETATM   25  C   UNL     1      -9.745  14.189  67.857  1.00  0.00    -0.224 A  
HETATM   26  C   UNL     1     -11.768  15.819  68.871  1.00  0.00    -0.404 A  
HETATM   27  C   UNL     1      -9.541  15.570  67.993  1.00  0.00    -0.203 A  
HETATM   28 CL   UNL     1      -8.451  13.313  67.115  1.00  0.00    -0.201 Cl 
HETATM   29 CL   UNL     1     -10.288  18.064  68.696  1.00  0.00    -0.363 Cl 
HETATM   30  C   UNL     1     -10.549  16.375  68.510  1.00  0.00    -0.304 A  
ENDBRANCH  21  23
BRANCH  21  31
HETATM   31  C   UNL     1     -12.002  11.579  67.014  1.00  0.00     0.381 C  
BRANCH  31  32
HETATM   32  N   UNL     1     -11.971  12.448  65.860  1.00  0.00    -0.587 NA 
HETATM   33  C   UNL     1     -12.780  13.512  65.597  1.00  0.00    -0.421 A  
HETATM   34  C   UNL     1     -11.191  13.477  64.234  1.00  0.00    -0.360 A  
HETATM   35  N   UNL     1     -12.317  14.174  64.564  1.00  0.00    -0.607 NA 
HETATM   36  N   UNL     1     -10.939  12.413  65.000  1.00  0.00    -0.289 NA 
ENDBRANCH  31  32
ENDBRANCH  21  31
ENDBRANCH  17  18
ENDBRANCH  16  17
ENDBRANCH  13  16
ENDBRANCH   7  10
ENDBRANCH   2   4
TORSDOF 8
ENDMDL
MODEL      127
REMARK 921   NORMALIZED FREE ENERGY PREDICTED BY IDOCK:   -4.36 KCAL/MOL
REMARK 922        TOTAL FREE ENERGY PREDICTED BY IDOCK:   -7.57 KCAL/MOL
REMARK 923 INTER-LIGAND FREE ENERGY PREDICTED BY IDOCK:   -6.42 KCAL/MOL
REMARK 924 INTRA-LIGAND FREE ENERGY PREDICTED BY IDOCK:   -1.15 KCAL/MOL
REMARK 927      BINDING AFFINITY PREDICTED BY RF-SCORE:    0.00 PKD
ROOT
HETATM    1  C   UNL     1     -10.454  19.958  68.146  1.00  0.00    -0.472 C  
HETATM    2  C   UNL     1     -10.329  18.878  67.052  1.00  0.00    -0.404 C  
HETATM    3  C   UNL     1     -10.563  19.587  65.708  1.00  0.00    -0.522 C  
ENDROOT
BRANCH   2   4
HETATM    4  N   UNL     1      -9.014  18.200  67.142  1.00  0.00    -0.252 NA 
HETATM    5  C   UNL     1      -8.891  17.364  68.367  1.00  0.00    -0.271 C  
HETATM    6  C   UNL     1      -9.712  16.057  68.347  1.00  0.00    -0.213 C  
HETATM    7  N   UNL     1      -9.336  15.256  67.170  1.00  0.00    -0.210 NA 
HETATM    8  C   UNL     1      -8.672  17.323  65.988  1.00  0.00    -0.090 C  
HETATM    9  C   UNL     1      -9.445  15.976  65.893  1.00  0.00    -0.316 C  
BRANCH   7  10
HETATM   10  C   UNL     1      -9.463  13.877  67.223  1.00  0.00    -0.239 A  
HETATM   11  C   UNL     1      -8.679  13.106  68.083  1.00  0.00    -0.193 A  
HETATM   12  C   UNL     1      -8.645  11.714  67.999  1.00  0.00    -0.152 A  
HETATM   13  C   UNL     1      -9.398  11.034  67.042  1.00  0.00    -0.172 A  
HETATM   14  C   UNL     1     -10.288  13.182  66.327  1.00  0.00    -0.291 A  
HETATM   15  C   UNL     1     -10.252  11.778  66.228  1.00  0.00    -0.255 A  
BRANCH  13  16
HETATM   16  O   UNL     1      -9.342   9.674  66.826  1.00  0.00    -0.144 OA 
BRANCH  16  17
HETATM   17  C   UNL     1     -10.554   8.984  67.149  1.00  0.00    -0.220 C  
BRANCH  17  18
HETATM   18  C   UNL     1     -10.391   7.909  68.217  1.00  0.00    -0.197 C  
HETATM   19  C   UNL     1     -10.825   6.538  67.767  1.00  0.00    -0.314 C  
HETATM   20  O   UNL     1      -9.950   5.651  68.463  1.00  0.00    -0.138 OA 
HETATM   21  C   UNL     1      -8.713   6.374  68.681  1.00  0.00    -0.122 C  
HETATM   22  O   UNL     1      -8.992   7.775  68.497  1.00  0.00    -0.134 OA 
BRANCH  21  23
HETATM   23  C   UNL     1      -8.218   6.171  70.114  1.00  0.00    -0.120 A  
HETATM   24  C   UNL     1      -7.976   7.297  70.932  1.00  0.00    -0.098 A  
HETATM   25  C   UNL     1      -7.997   4.902  70.692  1.00  0.00    -0.078 A  
HETATM   26  C   UNL     1      -7.591   7.166  72.269  1.00  0.00    -0.089 A  
HETATM   27  C   UNL     1      -7.629   4.771  72.039  1.00  0.00    -0.090 A  
HETATM   28 CL   UNL     1      -8.110   3.423  69.801  1.00  0.00    -0.057 Cl 
HETATM   29 CL   UNL     1      -7.010   5.739  74.479  1.00  0.00    -0.084 Cl 
HETATM   30  C   UNL     1      -7.439   5.903  72.822  1.00  0.00    -0.095 A  
ENDBRANCH  21  23
BRANCH  21  31
HETATM   31  C   UNL     1      -7.708   5.945  67.586  1.00  0.00    -0.097 C  
BRANCH  31  32
HETATM   32  N   UNL     1      -6.990   7.024  66.947  1.00  0.00    -0.068 NA 
HETATM   33  C   UNL     1      -7.187   7.533  65.699  1.00  0.00    -0.066 A  
HETATM   34  C   UNL     1      -5.883   8.772  66.770  1.00  0.00    -0.052 A  
HETATM   35  N   UNL     1      -6.488   8.632  65.554  1.00  0.00    -0.059 NA 
HETATM   36  N   UNL     1      -6.160   7.811  67.654  1.00  0.00    -0.048 NA 
ENDBRANCH  31  32
ENDBRANCH  21  31
ENDBRANCH  17  18
ENDBRANCH  16  17
ENDBRANCH  13  16
ENDBRANCH   7  10
ENDBRANCH   2   4
TORSDOF 8
ENDMDL
MODEL      128
REMARK 921   NORMALIZED FREE ENERGY PREDICTED BY IDOCK:   -4.35 KCAL/MOL
REMARK 922        TOTAL FREE ENERGY PREDICTED BY IDOCK:   -7.56 KCAL/MOL
REMARK 923 INTER-LIGAND FREE ENERGY PREDICTED BY IDOCK:   -7.45 KCAL/MOL
REMARK 924 INTRA-LIGAND FREE ENERGY PREDICTED BY IDOCK:   -0.11 KCAL/MOL
REMARK 927      BINDING AFFINITY PREDICTED BY RF-SCORE:    0.00 PKD
ROOT
HETATM    1  C   UNL     1      -9.831   3.602  74.561  1.00  0.00    -0.178 C  
HETATM    2  C   UNL     1      -9.374   3.870  73.113  1.00  0.00    -0.109 C  
HETATM    3  C   UNL     1      -8.468   2.694  72.714  1.00  0.00    -0.071 C  
ENDROOT
BRANCH   2   4
HETATM    4  N   UNL     1     -10.548   4.041  72.224  1.00  0.00    -0.049 NA 
HETATM    5  C   UNL     1     -11.599   4.901  72.832  1.00  0.00    -0.140 C  
HETATM    6  C   UNL     1     -11.256   6.405  72.888  1.00  0.00    -0.186 C  
HETATM    7  N   UNL     1     -10.951   6.893  71.533  1.00  0.00    -0.234 NA 
HETATM    8  C   UNL     1     -10.248   4.613  70.882  1.00  0.00    -0.143 C  
HETATM    9  C   UNL     1      -9.902   6.130  70.841  1.00  0.00    -0.182 C  
BRANCH   7  10
HETATM   10  C   UNL     1     -11.184   8.224  71.226  1.00  0.00    -0.259 A  
HETATM   11  C   UNL     1     -12.053   9.007  71.988  1.00  0.00    -0.440 A  
HETATM   12  C   UNL     1     -12.456  10.275  71.573  1.00  0.00    -0.524 A  
HETATM   13  C   UNL     1     -12.005  10.814  70.368  1.00  0.00    -0.357 A  
HETATM   14  C   UNL     1     -10.661   8.810  70.063  1.00  0.00    -0.232 A  
HETATM   15  C   UNL     1     -11.071  10.086  69.632  1.00  0.00    -0.300 A  
BRANCH  13  16
HETATM   16  O   UNL     1     -12.434  12.012  69.839  1.00  0.00    -0.101 OA 
BRANCH  16  17
HETATM   17  C   UNL     1     -11.873  12.315  68.556  1.00  0.00    -0.307 C  
BRANCH  17  18
HETATM   18  C   UNL     1     -10.907  13.494  68.564  1.00  0.00    -0.264 C  
HETATM   19  C   UNL     1      -9.458  13.088  68.614  1.00  0.00    -0.001 C  
HETATM   20  O   UNL     1      -8.787  14.104  67.869  1.00  0.00    -0.165 OA 
HETATM   21  C   UNL     1      -9.737  14.597  66.891  1.00  0.00    -0.242 C  
HETATM   22  O   UNL     1     -11.049  14.187  67.318  1.00  0.00    -0.291 OA 
BRANCH  21  23
HETATM   23  C   UNL     1      -9.708  16.126  66.839  1.00  0.00    -0.246 A  
HETATM   24  C   UNL     1      -9.080  16.844  67.881  1.00  0.00    -0.233 A  
HETATM   25  C   UNL     1     -10.266  16.883  65.787  1.00  0.00    -0.268 A  
HETATM   26  C   UNL     1      -8.964  18.236  67.849  1.00  0.00    -0.285 A  
HETATM   27  C   UNL     1     -10.133  18.278  65.746  1.00  0.00    -0.022 A  
HETATM   28 CL   UNL     1     -11.188  16.182  64.502  1.00  0.00    -0.409 Cl 
HETATM   29 CL   UNL     1      -9.291  20.654  66.706  1.00  0.00    -0.367 Cl 
HETATM   30  C   UNL     1      -9.473  18.945  66.770  1.00  0.00    -0.326 A  
ENDBRANCH  21  23
BRANCH  21  31
HETATM   31  C   UNL     1      -9.440  13.901  65.542  1.00  0.00     0.164 C  
BRANCH  31  32
HETATM   32  N   UNL     1      -9.882  12.529  65.443  1.00  0.00    -0.213 NA 
HETATM   33  C   UNL     1     -11.161  12.070  65.356  1.00  0.00    -0.322 A  
HETATM   34  C   UNL     1      -9.822  10.507  64.975  1.00  0.00    -0.306 A  
HETATM   35  N   UNL     1     -11.153  10.790  65.073  1.00  0.00     0.136 NA 
HETATM   36  N   UNL     1      -9.005  11.540  65.193  1.00  0.00     0.018 NA 
ENDBRANCH  31  32
ENDBRANCH  21  31
ENDBRANCH  17  18
ENDBRANCH  16  17
ENDBRANCH  13  16
ENDBRANCH   7  10
ENDBRANCH   2   4
TORSDOF 8
ENDMDL
MODEL      129
REMARK 921   NORMALIZED FREE ENERGY PREDICTED BY IDOCK:   -4.32 KCAL/MOL
REMARK 922        TOTAL FREE ENERGY PREDICTED BY IDOCK:   -7.51 KCAL/MOL
REMARK 923 INTER-LIGAND FREE ENERGY PREDICTED BY IDOCK:   -5.94 KCAL/MOL
REMARK 924 INTRA-LIGAND FREE ENERGY PREDICTED BY IDOCK:   -1.57 KCAL/MOL
REMARK 927      BINDING AFFINITY PREDICTED BY RF-SCORE:    0.00 PKD
ROOT
HETATM    1  C   UNL     1      -9.334  10.053  62.432  1.00  0.00    -0.286 C  
HETATM    2  C   UNL     1      -9.324  10.669  63.846  1.00  0.00    -0.267 C  
HETATM    3  C   UNL     1     -10.210  11.924  63.783  1.00  0.00    -0.442 C  
ENDROOT
BRANCH   2   4
HETATM    4  N   UNL     1      -9.776   9.674  64.846  1.00  0.00    -0.204 NA 
HETATM    5  C   UNL     1      -8.756   8.621  65.100  1.00  0.00    -0.144 C  
HETATM    6  C   UNL     1      -7.533   9.086  65.920  1.00  0.00    -0.094 C  
HETATM    7  N   UNL     1      -7.984   9.646  67.204  1.00  0.00    -0.105 NA 
HETATM    8  C   UNL     1     -10.153  10.235  66.174  1.00  0.00    -0.242 C  
HETATM    9  C   UNL     1      -8.980  10.720  67.075  1.00  0.00    -0.141 C  
BRANCH   7  10
HETATM   10  C   UNL     1      -7.138   9.588  68.301  1.00  0.00    -0.075 A  
HETATM   11  C   UNL     1      -6.270   8.512  68.495  1.00  0.00    -0.053 A  
HETATM   12  C   UNL     1      -5.572   8.336  69.689  1.00  0.00    -0.026 A  
HETATM   13  C   UNL     1      -5.718   9.236  70.745  1.00  0.00    -0.042 A  
HETATM   14  C   UNL     1      -7.208  10.538  69.331  1.00  0.00    -0.117 A  
HETATM   15  C   UNL     1      -6.514  10.363  70.544  1.00  0.00    -0.095 A  
BRANCH  13  16
HETATM   16  O   UNL     1      -5.146   9.079  71.990  1.00  0.00    -0.039 OA 
BRANCH  16  17
HETATM   17  C   UNL     1      -6.085   8.770  73.026  1.00  0.00    -0.056 C  
BRANCH  17  18
HETATM   18  C   UNL     1      -6.578   7.327  73.007  1.00  0.00    -0.064 C  
HETATM   19  C   UNL     1      -6.920   6.788  74.371  1.00  0.00    -0.091 C  
HETATM   20  O   UNL     1      -7.996   5.883  74.126  1.00  0.00    -0.104 OA 
HETATM   21  C   UNL     1      -8.693   6.374  72.954  1.00  0.00    -0.124 C  
HETATM   22  O   UNL     1      -7.813   7.293  72.281  1.00  0.00    -0.091 OA 
BRANCH  21  23
HETATM   23  C   UNL     1      -9.005   5.223  71.995  1.00  0.00    -0.144 A  
HETATM   24  C   UNL     1      -8.620   5.325  70.640  1.00  0.00    -0.126 A  
HETATM   25  C   UNL     1      -9.654   4.033  72.387  1.00  0.00    -0.140 A  
HETATM   26  C   UNL     1      -8.818   4.277  69.738  1.00  0.00    -0.133 A  
HETATM   27  C   UNL     1      -9.835   2.974  71.487  1.00  0.00    -0.192 A  
HETATM   28 CL   UNL     1     -10.314   3.791  73.968  1.00  0.00    -0.220 Cl 
HETATM   29 CL   UNL     1      -9.609   1.788  69.075  1.00  0.00    -0.158 Cl 
HETATM   30  C   UNL     1      -9.406   3.097  70.171  1.00  0.00    -0.168 A  
ENDBRANCH  21  23
BRANCH  21  31
HETATM   31  C   UNL     1      -9.931   7.168  73.431  1.00  0.00    -0.278 C  
BRANCH  31  32
HETATM   32  N   UNL     1     -10.884   7.508  72.399  1.00  0.00    -0.255 NA 
HETATM   33  C   UNL     1     -12.008   6.825  72.046  1.00  0.00    -0.317 A  
HETATM   34  C   UNL     1     -11.992   8.694  71.105  1.00  0.00    -0.279 A  
HETATM   35  N   UNL     1     -12.722   7.546  71.216  1.00  0.00    -0.326 NA 
HETATM   36  N   UNL     1     -10.859   8.716  71.811  1.00  0.00    -0.299 NA 
ENDBRANCH  31  32
ENDBRANCH  21  31
ENDBRANCH  17  18
ENDBRANCH  16  17
ENDBRANCH  13  16
ENDBRANCH   7  10
ENDBRANCH   2   4
TORSDOF 8
ENDMDL
MODEL      130
REMARK 921   NORMALIZED FREE ENERGY PREDICTED BY IDOCK:   -4.30 KCAL/MOL
REMARK 922        TOTAL FREE ENERGY PREDICTED BY IDOCK:   -7.49 KCAL/MOL
REMARK 923 INTER-LIGAND FREE ENERGY PREDICTED BY IDOCK:   -7.68 KCAL/MOL
REMARK 924 INTRA-LIGAND FREE ENERGY PREDICTED BY IDOCK:    0.19 KCAL/MOL
REMARK 927      BINDING AFFINITY PREDICTED BY RF-SCORE:    0.00 PKD
ROOT
HETATM    1  C   UNL     1      -9.412   3.624  65.253  1.00  0.00    -0.162 C  
HETATM    2  C   UNL     1      -8.767   2.528  66.125  1.00  0.00    -0.126 C  
HETATM    3  C   UNL     1      -8.085   1.544  65.161  1.00  0.00    -0.074 C  
ENDROOT
BRANCH   2   4
HETATM    4  N   UNL     1      -7.838   3.131  67.110  1.00  0.00    -0.078 NA 
HETATM    5  C   UNL     1      -7.778   4.614  66.999  1.00  0.00    -0.091 C  
HETATM    6  C   UNL     1      -9.027   5.356  67.523  1.00  0.00    -0.108 C  
HETATM    7  N   UNL     1      -9.270   4.982  68.926  1.00  0.00    -0.109 NA 
HETATM    8  C   UNL     1      -8.137   2.820  68.536  1.00  0.00    -0.060 C  
HETATM    9  C   UNL     1      -9.374   3.533  69.153  1.00  0.00    -0.172 C  
BRANCH   7  10
HETATM   10  C   UNL     1      -9.910   5.882  69.764  1.00  0.00    -0.169 A  
HETATM   11  C   UNL     1     -11.279   6.134  69.654  1.00  0.00    -0.488 A  
HETATM   12  C   UNL     1     -11.892   7.181  70.341  1.00  0.00    -0.235 A  
HETATM   13  C   UNL     1     -11.154   8.025  71.170  1.00  0.00    -0.252 A  
HETATM   14  C   UNL     1      -9.192   6.676  70.671  1.00  0.00    -0.159 A  
HETATM   15  C   UNL     1      -9.802   7.742  71.361  1.00  0.00    -0.195 A  
BRANCH  13  16
HETATM   16  O   UNL     1     -11.663   9.140  71.801  1.00  0.00    -0.346 OA 
BRANCH  16  17
HETATM   17  C   UNL     1     -12.534   9.926  70.979  1.00  0.00    -0.346 C  
BRANCH  17  18
HETATM   18  C   UNL     1     -11.812  10.948  70.109  1.00  0.00    -0.353 C  
HETATM   19  C   UNL     1     -10.317  10.765  70.074  1.00  0.00     0.195 C  
HETATM   20  O   UNL     1      -9.947  11.186  68.762  1.00  0.00    -0.196 OA 
HETATM   21  C   UNL     1     -11.086  10.926  67.905  1.00  0.00    -0.302 C  
HETATM   22  O   UNL     1     -12.235  10.752  68.755  1.00  0.00    -0.460 OA 
BRANCH  21  23
HETATM   23  C   UNL     1     -11.350  12.121  66.986  1.00  0.00    -0.398 A  
HETATM   24  C   UNL     1     -11.510  11.909  65.599  1.00  0.00    -0.314 A  
HETATM   25  C   UNL     1     -11.461  13.451  67.447  1.00  0.00    -0.333 A  
HETATM   26  C   UNL     1     -11.821  12.955  64.726  1.00  0.00    -0.409 A  
HETATM   27  C   UNL     1     -11.792  14.497  66.573  1.00  0.00    -0.367 A  
HETATM   28 CL   UNL     1     -11.161  13.914  69.087  1.00  0.00    -0.284 Cl 
HETATM   29 CL   UNL     1     -12.409  15.522  64.156  1.00  0.00    -0.172 Cl 
HETATM   30  C   UNL     1     -11.981  14.241  65.221  1.00  0.00    -0.389 A  
ENDBRANCH  21  23
BRANCH  21  31
HETATM   31  C   UNL     1     -10.836   9.590  67.167  1.00  0.00    -0.086 C  
BRANCH  31  32
HETATM   32  N   UNL     1      -9.451   9.290  66.883  1.00  0.00    -0.153 NA 
HETATM   33  C   UNL     1      -8.512   8.801  67.740  1.00  0.00    -0.125 A  
HETATM   34  C   UNL     1      -7.776   8.752  65.782  1.00  0.00    -0.094 A  
HETATM   35  N   UNL     1      -7.436   8.464  67.072  1.00  0.00    -0.087 NA 
HETATM   36  N   UNL     1      -9.000   9.259  65.618  1.00  0.00    -0.185 NA 
ENDBRANCH  31  32
ENDBRANCH  21  31
ENDBRANCH  17  18
ENDBRANCH  16  17
ENDBRANCH  13  16
ENDBRANCH   7  10
ENDBRANCH   2   4
TORSDOF 8
ENDMDL
MODEL      131
REMARK 921   NORMALIZED FREE ENERGY PREDICTED BY IDOCK:   -4.28 KCAL/MOL
REMARK 922        TOTAL FREE ENERGY PREDICTED BY IDOCK:   -7.45 KCAL/MOL
REMARK 923 INTER-LIGAND FREE ENERGY PREDICTED BY IDOCK:   -8.31 KCAL/MOL
REMARK 924 INTRA-LIGAND FREE ENERGY PREDICTED BY IDOCK:    0.86 KCAL/MOL
REMARK 927      BINDING AFFINITY PREDICTED BY RF-SCORE:    0.00 PKD
ROOT
HETATM    1  C   UNL     1      -6.976   2.194  74.085  1.00  0.00    -0.027 C  
HETATM    2  C   UNL     1      -8.348   1.833  73.480  1.00  0.00    -0.050 C  
HETATM    3  C   UNL     1      -9.410   2.323  74.479  1.00  0.00    -0.104 C  
ENDROOT
BRANCH   2   4
HETATM    4  N   UNL     1      -8.489   2.425  72.129  1.00  0.00    -0.061 NA 
HETATM    5  C   UNL     1      -9.910   2.675  71.764  1.00  0.00    -0.153 C  
HETATM    6  C   UNL     1     -10.571   3.862  72.498  1.00  0.00    -0.049 C  
HETATM    7  N   UNL     1      -9.786   5.085  72.263  1.00  0.00    -0.154 NA 
HETATM    8  C   UNL     1      -7.761   3.709  71.919  1.00  0.00    -0.058 C  
HETATM    9  C   UNL     1      -8.363   4.964  72.615  1.00  0.00    -0.116 C  
BRANCH   7  10
HETATM   10  C   UNL     1     -10.425   6.315  72.296  1.00  0.00    -0.199 A  
HETATM   11  C   UNL     1     -11.793   6.432  72.044  1.00  0.00    -0.382 A  
HETATM   12  C   UNL     1     -12.405   7.672  71.866  1.00  0.00    -0.337 A  
HETATM   13  C   UNL     1     -11.666   8.853  71.934  1.00  0.00    -0.369 A  
HETATM   14  C   UNL     1      -9.707   7.509  72.455  1.00  0.00    -0.218 A  
HETATM   15  C   UNL     1     -10.315   8.766  72.268  1.00  0.00    -0.320 A  
BRANCH  13  16
HETATM   16  O   UNL     1     -12.173  10.108  71.670  1.00  0.00    -0.382 OA 
BRANCH  16  17
HETATM   17  C   UNL     1     -12.444  10.345  70.284  1.00  0.00    -0.223 C  
BRANCH  17  18
HETATM   18  C   UNL     1     -11.267  10.934  69.513  1.00  0.00    -0.277 C  
HETATM   19  C   UNL     1     -11.207  10.494  68.074  1.00  0.00    -0.294 C  
HETATM   20  O   UNL     1     -10.652  11.619  67.391  1.00  0.00    -0.206 OA 
HETATM   21  C   UNL     1     -11.039  12.795  68.145  1.00  0.00    -0.256 C  
HETATM   22  O   UNL     1     -11.447  12.354  69.454  1.00  0.00    -0.272 OA 
BRANCH  21  23
HETATM   23  C   UNL     1      -9.847  13.741  68.311  1.00  0.00    -0.232 A  
HETATM   24  C   UNL     1      -9.968  14.869  69.152  1.00  0.00    -0.213 A  
HETATM   25  C   UNL     1      -8.602  13.547  67.676  1.00  0.00    -0.185 A  
HETATM   26  C   UNL     1      -8.891  15.726  69.392  1.00  0.00    -0.237 A  
HETATM   27  C   UNL     1      -7.516  14.396  67.932  1.00  0.00    -0.160 A  
HETATM   28 CL   UNL     1      -8.317  12.301  66.511  1.00  0.00    -0.019 Cl 
HETATM   29 CL   UNL     1      -6.324  16.500  69.128  1.00  0.00    -0.172 Cl 
HETATM   30  C   UNL     1      -7.663  15.473  68.797  1.00  0.00    -0.159 A  
ENDBRANCH  21  23
BRANCH  21  31
HETATM   31  C   UNL     1     -12.270  13.424  67.453  1.00  0.00    -0.214 C  
BRANCH  31  32
HETATM   32  N   UNL     1     -12.031  13.956  66.131  1.00  0.00    -0.400 NA 
HETATM   33  C   UNL     1     -12.629  13.587  64.964  1.00  0.00    -0.391 A  
HETATM   34  C   UNL     1     -11.510  15.331  64.664  1.00  0.00    -0.354 A  
HETATM   35  N   UNL     1     -12.306  14.432  64.015  1.00  0.00    -0.748 NA 
HETATM   36  N   UNL     1     -11.314  15.080  65.961  1.00  0.00    -0.313 NA 
ENDBRANCH  31  32
ENDBRANCH  21  31
ENDBRANCH  17  18
ENDBRANCH  16  17
ENDBRANCH  13  16
ENDBRANCH   7  10
ENDBRANCH   2   4
TORSDOF 8
ENDMDL
MODEL      132
REMARK 921   NORMALIZED FREE ENERGY PREDICTED BY IDOCK:   -4.28 KCAL/MOL
REMARK 922        TOTAL FREE ENERGY PREDICTED BY IDOCK:   -7.45 KCAL/MOL
REMARK 923 INTER-LIGAND FREE ENERGY PREDICTED BY IDOCK:   -6.83 KCAL/MOL
REMARK 924 INTRA-LIGAND FREE ENERGY PREDICTED BY IDOCK:   -0.62 KCAL/MOL
REMARK 927      BINDING AFFINITY PREDICTED BY RF-SCORE:    0.00 PKD
ROOT
HETATM    1  C   UNL     1     -13.280  11.530  71.994  1.00  0.00    -0.443 C  
HETATM    2  C   UNL     1     -12.694  10.519  70.988  1.00  0.00    -0.408 C  
HETATM    3  C   UNL     1     -12.093  11.344  69.837  1.00  0.00    -0.404 C  
ENDROOT
BRANCH   2   4
HETATM    4  N   UNL     1     -11.711   9.634  71.657  1.00  0.00    -0.395 NA 
HETATM    5  C   UNL     1     -12.239   8.259  71.867  1.00  0.00    -0.337 C  
HETATM    6  C   UNL     1     -12.341   7.399  70.589  1.00  0.00    -0.044 C  
HETATM    7  N   UNL     1     -11.022   7.321  69.940  1.00  0.00    -0.257 NA 
HETATM    8  C   UNL     1     -10.405   9.490  70.954  1.00  0.00    -0.302 C  
HETATM    9  C   UNL     1     -10.411   8.629  69.658  1.00  0.00    -0.220 C  
BRANCH   7  10
HETATM   10  C   UNL     1     -10.711   6.210  69.172  1.00  0.00    -0.316 A  
HETATM   11  C   UNL     1      -9.886   5.195  69.658  1.00  0.00    -0.286 A  
HETATM   12  C   UNL     1      -9.398   4.184  68.831  1.00  0.00    -0.228 A  
HETATM   13  C   UNL     1      -9.718   4.149  67.474  1.00  0.00    -0.134 A  
HETATM   14  C   UNL     1     -11.104   6.116  67.828  1.00  0.00    -0.306 A  
HETATM   15  C   UNL     1     -10.608   5.104  66.984  1.00  0.00    -0.201 A  
BRANCH  13  16
HETATM   16  O   UNL     1      -9.196   3.247  66.572  1.00  0.00    -0.155 OA 
BRANCH  16  17
HETATM   17  C   UNL     1      -7.804   3.438  66.298  1.00  0.00    -0.084 C  
BRANCH  17  18
HETATM   18  C   UNL     1      -7.424   4.883  65.992  1.00  0.00    -0.082 C  
HETATM   19  C   UNL     1      -5.962   5.069  65.677  1.00  0.00    -0.022 C  
HETATM   20  O   UNL     1      -5.946   6.139  64.732  1.00  0.00    -0.024 OA 
HETATM   21  C   UNL     1      -7.205   6.080  64.016  1.00  0.00    -0.057 C  
HETATM   22  O   UNL     1      -8.107   5.273  64.795  1.00  0.00    -0.110 OA 
BRANCH  21  23
HETATM   23  C   UNL     1      -7.810   7.479  63.883  1.00  0.00    -0.114 A  
HETATM   24  C   UNL     1      -7.955   8.054  62.600  1.00  0.00    -0.151 A  
HETATM   25  C   UNL     1      -8.258   8.245  64.981  1.00  0.00    -0.158 A  
HETATM   26  C   UNL     1      -8.564   9.297  62.416  1.00  0.00    -0.225 A  
HETATM   27  C   UNL     1      -8.887   9.484  64.794  1.00  0.00    -0.244 A  
HETATM   28 CL   UNL     1      -8.037   7.760  66.626  1.00  0.00    -0.109 Cl 
HETATM   29 CL   UNL     1      -9.838  11.507  63.285  1.00  0.00    -0.401 Cl 
HETATM   30  C   UNL     1      -9.047   9.998  63.513  1.00  0.00    -0.272 A  
ENDBRANCH  21  23
BRANCH  21  31
HETATM   31  C   UNL     1      -6.959   5.354  62.673  1.00  0.00    -0.033 C  
BRANCH  31  32
HETATM   32  N   UNL     1      -7.574   4.052  62.552  1.00  0.00    -0.055 NA 
HETATM   33  C   UNL     1      -7.017   2.839  62.823  1.00  0.00    -0.028 A  
HETATM   34  C   UNL     1      -9.076   2.618  62.514  1.00  0.00    -0.084 A  
HETATM   35  N   UNL     1      -7.942   1.911  62.793  1.00  0.00    -0.055 NA 
HETATM   36  N   UNL     1      -8.899   3.932  62.358  1.00  0.00    -0.087 NA 
ENDBRANCH  31  32
ENDBRANCH  21  31
ENDBRANCH  17  18
ENDBRANCH  16  17
ENDBRANCH  13  16
ENDBRANCH   7  10
ENDBRANCH   2   4
TORSDOF 8
ENDMDL
MODEL      133
REMARK 921   NORMALIZED FREE ENERGY PREDICTED BY IDOCK:   -4.25 KCAL/MOL
REMARK 922        TOTAL FREE ENERGY PREDICTED BY IDOCK:   -7.42 KCAL/MOL
REMARK 923 INTER-LIGAND FREE ENERGY PREDICTED BY IDOCK:   -7.62 KCAL/MOL
REMARK 924 INTRA-LIGAND FREE ENERGY PREDICTED BY IDOCK:    0.20 KCAL/MOL
REMARK 927      BINDING AFFINITY PREDICTED BY RF-SCORE:    0.00 PKD
ROOT
HETATM    1  C   UNL     1      -8.464  19.447  67.780  1.00  0.00    -0.345 C  
HETATM    2  C   UNL     1      -8.771  18.520  66.586  1.00  0.00    -0.287 C  
HETATM    3  C   UNL     1      -7.854  17.295  66.734  1.00  0.00    -0.278 C  
ENDROOT
BRANCH   2   4
HETATM    4  N   UNL     1     -10.213  18.179  66.555  1.00  0.00    -0.373 NA 
HETATM    5  C   UNL     1     -10.478  16.898  65.847  1.00  0.00    -0.285 C  
HETATM    6  C   UNL     1     -10.059  15.629  66.622  1.00  0.00    -0.273 C  
HETATM    7  N   UNL     1     -10.728  15.609  67.933  1.00  0.00    -0.286 NA 
HETATM    8  C   UNL     1     -10.870  18.077  67.888  1.00  0.00    -0.209 C  
HETATM    9  C   UNL     1     -10.514  16.822  68.736  1.00  0.00    -0.338 C  
BRANCH   7  10
HETATM   10  C   UNL     1     -10.990  14.390  68.539  1.00  0.00    -0.251 A  
HETATM   11  C   UNL     1     -10.766  13.183  67.874  1.00  0.00    -0.249 A  
HETATM   12  C   UNL     1     -11.217  11.967  68.386  1.00  0.00    -0.312 A  
HETATM   13  C   UNL     1     -11.917  11.910  69.591  1.00  0.00    -0.298 A  
HETATM   14  C   UNL     1     -11.612  14.314  69.794  1.00  0.00    -0.350 A  
HETATM   15  C   UNL     1     -12.080  13.092  70.313  1.00  0.00    -0.388 A  
BRANCH  13  16
HETATM   16  O   UNL     1     -12.484  10.766  70.111  1.00  0.00    -0.323 OA 
BRANCH  16  17
HETATM   17  C   UNL     1     -11.874  10.317  71.326  1.00  0.00    -0.335 C  
BRANCH  17  18
HETATM   18  C   UNL     1     -11.249   8.930  71.231  1.00  0.00    -0.298 C  
HETATM   19  C   UNL     1     -11.175   8.395  69.825  1.00  0.00     0.034 C  
HETATM   20  O   UNL     1      -9.987   7.605  69.817  1.00  0.00    -0.180 OA 
HETATM   21  C   UNL     1      -9.094   8.187  70.798  1.00  0.00    -0.146 C  
HETATM   22  O   UNL     1      -9.885   9.031  71.655  1.00  0.00    -0.306 OA 
BRANCH  21  23
HETATM   23  C   UNL     1      -8.459   7.094  71.660  1.00  0.00    -0.114 A  
HETATM   24  C   UNL     1      -7.139   7.263  72.136  1.00  0.00    -0.067 A  
HETATM   25  C   UNL     1      -9.125   5.907  72.032  1.00  0.00    -0.144 A  
HETATM   26  C   UNL     1      -6.538   6.329  72.983  1.00  0.00    -0.069 A  
HETATM   27  C   UNL     1      -8.528   4.979  72.898  1.00  0.00    -0.115 A  
HETATM   28 CL   UNL     1     -10.688   5.470  71.432  1.00  0.00    -0.309 Cl 
HETATM   29 CL   UNL     1      -6.522   4.073  74.456  1.00  0.00    -0.042 Cl 
HETATM   30  C   UNL     1      -7.243   5.201  73.377  1.00  0.00    -0.086 A  
ENDBRANCH  21  23
BRANCH  21  31
HETATM   31  C   UNL     1      -8.082   9.087  70.051  1.00  0.00    -0.124 C  
BRANCH  31  32
HETATM   32  N   UNL     1      -7.863   8.752  68.662  1.00  0.00    -0.101 NA 
HETATM   33  C   UNL     1      -8.229   9.471  67.564  1.00  0.00    -0.121 A  
HETATM   34  C   UNL     1      -6.956   7.910  66.995  1.00  0.00    -0.074 A  
HETATM   35  N   UNL     1      -7.679   8.953  66.493  1.00  0.00    -0.098 NA 
HETATM   36  N   UNL     1      -7.038   7.748  68.318  1.00  0.00    -0.082 NA 
ENDBRANCH  31  32
ENDBRANCH  21  31
ENDBRANCH  17  18
ENDBRANCH  16  17
ENDBRANCH  13  16
ENDBRANCH   7  10
ENDBRANCH   2   4
TORSDOF 8
ENDMDL
MODEL      134
REMARK 921   NORMALIZED FREE ENERGY PREDICTED BY IDOCK:   -4.23 KCAL/MOL
REMARK 922        TOTAL FREE ENERGY PREDICTED BY IDOCK:   -7.39 KCAL/MOL
REMARK 923 INTER-LIGAND FREE ENERGY PREDICTED BY IDOCK:   -7.58 KCAL/MOL
REMARK 924 INTRA-LIGAND FREE ENERGY PREDICTED BY IDOCK:    0.19 KCAL/MOL
REMARK 927      BINDING AFFINITY PREDICTED BY RF-SCORE:    0.00 PKD
ROOT
HETATM    1  C   UNL     1      -7.436   3.769  74.416  1.00  0.00    -0.062 C  
HETATM    2  C   UNL     1      -8.844   4.222  73.979  1.00  0.00    -0.095 C  
HETATM    3  C   UNL     1      -9.043   5.640  74.539  1.00  0.00    -0.125 C  
ENDROOT
BRANCH   2   4
HETATM    4  N   UNL     1      -8.977   4.143  72.505  1.00  0.00    -0.109 NA 
HETATM    5  C   UNL     1     -10.161   4.891  72.003  1.00  0.00    -0.199 C  
HETATM    6  C   UNL     1     -10.022   6.429  72.040  1.00  0.00    -0.167 C  
HETATM    7  N   UNL     1      -8.829   6.835  71.279  1.00  0.00    -0.136 NA 
HETATM    8  C   UNL     1      -7.800   4.633  71.734  1.00  0.00    -0.098 C  
HETATM    9  C   UNL     1      -7.587   6.174  71.708  1.00  0.00    -0.096 C  
BRANCH   7  10
HETATM   10  C   UNL     1      -8.801   8.087  70.684  1.00  0.00    -0.143 A  
HETATM   11  C   UNL     1      -9.811   8.504  69.816  1.00  0.00    -0.186 A  
HETATM   12  C   UNL     1      -9.692   9.665  69.053  1.00  0.00    -0.169 A  
HETATM   13  C   UNL     1      -8.549  10.460  69.128  1.00  0.00    -0.164 A  
HETATM   14  C   UNL     1      -7.696   8.939  70.825  1.00  0.00    -0.126 A  
HETATM   15  C   UNL     1      -7.564  10.108  70.051  1.00  0.00    -0.164 A  
BRANCH  13  16
HETATM   16  O   UNL     1      -8.310  11.562  68.335  1.00  0.00    -0.143 OA 
BRANCH  16  17
HETATM   17  C   UNL     1      -9.480  12.337  68.050  1.00  0.00    -0.206 C  
BRANCH  17  18
HETATM   18  C   UNL     1      -9.190  13.675  67.379  1.00  0.00    -0.222 C  
HETATM   19  C   UNL     1     -10.179  14.037  66.302  1.00  0.00    -0.296 C  
HETATM   20  O   UNL     1     -10.253  15.462  66.366  1.00  0.00    -0.265 OA 
HETATM   21  C   UNL     1      -9.968  15.831  67.738  1.00  0.00    -0.227 C  
HETATM   22  O   UNL     1      -9.332  14.703  68.367  1.00  0.00    -0.189 OA 
BRANCH  21  23
HETATM   23  C   UNL     1      -8.996  17.012  67.783  1.00  0.00    -0.224 A  
HETATM   24  C   UNL     1      -7.668  16.802  68.217  1.00  0.00    -0.187 A  
HETATM   25  C   UNL     1      -9.342  18.325  67.397  1.00  0.00    -0.261 A  
HETATM   26  C   UNL     1      -6.722  17.830  68.212  1.00  0.00    -0.206 A  
HETATM   27  C   UNL     1      -8.387  19.351  67.373  1.00  0.00    -0.325 A  
HETATM   28 CL   UNL     1     -10.952  18.792  66.969  1.00  0.00    -0.324 Cl 
HETATM   29 CL   UNL     1      -5.906  20.351  67.719  1.00  0.00    -0.237 Cl 
HETATM   30  C   UNL     1      -7.081  19.096  67.770  1.00  0.00    -0.231 A  
ENDBRANCH  21  23
BRANCH  21  31
HETATM   31  C   UNL     1     -11.314  16.078  68.458  1.00  0.00    -0.382 C  
BRANCH  31  32
HETATM   32  N   UNL     1     -11.434  15.480  69.768  1.00  0.00    -0.303 NA 
HETATM   33  C   UNL     1     -11.048  16.009  70.963  1.00  0.00    -0.192 A  
HETATM   34  C   UNL     1     -12.196  14.289  71.288  1.00  0.00    -0.350 A  
HETATM   35  N   UNL     1     -11.506  15.268  71.943  1.00  0.00    -0.434 NA 
HETATM   36  N   UNL     1     -12.180  14.378  69.956  1.00  0.00    -0.336 NA 
ENDBRANCH  31  32
ENDBRANCH  21  31
ENDBRANCH  17  18
ENDBRANCH  16  17
ENDBRANCH  13  16
ENDBRANCH   7  10
ENDBRANCH   2   4
TORSDOF 8
ENDMDL
MODEL      135
REMARK 921   NORMALIZED FREE ENERGY PREDICTED BY IDOCK:   -4.22 KCAL/MOL
REMARK 922        TOTAL FREE ENERGY PREDICTED BY IDOCK:   -7.37 KCAL/MOL
REMARK 923 INTER-LIGAND FREE ENERGY PREDICTED BY IDOCK:   -7.57 KCAL/MOL
REMARK 924 INTRA-LIGAND FREE ENERGY PREDICTED BY IDOCK:    0.21 KCAL/MOL
REMARK 927      BINDING AFFINITY PREDICTED BY RF-SCORE:    0.00 PKD
ROOT
HETATM    1  C   UNL     1      -9.194   1.592  65.943  1.00  0.00     0.018 C  
HETATM    2  C   UNL     1      -7.976   2.533  66.028  1.00  0.00    -0.082 C  
HETATM    3  C   UNL     1      -6.886   1.771  66.800  1.00  0.00    -0.039 C  
ENDROOT
BRANCH   2   4
HETATM    4  N   UNL     1      -7.554   2.957  64.672  1.00  0.00    -0.075 NA 
HETATM    5  C   UNL     1      -8.629   3.687  63.947  1.00  0.00    -0.091 C  
HETATM    6  C   UNL     1      -8.898   5.120  64.455  1.00  0.00    -0.060 C  
HETATM    7  N   UNL     1      -7.653   5.905  64.401  1.00  0.00    -0.081 NA 
HETATM    8  C   UNL     1      -6.341   3.821  64.626  1.00  0.00    -0.027 C  
HETATM    9  C   UNL     1      -6.522   5.289  65.111  1.00  0.00    -0.039 C  
BRANCH   7  10
HETATM   10  C   UNL     1      -7.728   7.279  64.237  1.00  0.00    -0.124 A  
HETATM   11  C   UNL     1      -7.418   8.155  65.279  1.00  0.00    -0.080 A  
HETATM   12  C   UNL     1      -7.687   9.521  65.196  1.00  0.00    -0.112 A  
HETATM   13  C   UNL     1      -8.284  10.068  64.061  1.00  0.00    -0.156 A  
HETATM   14  C   UNL     1      -8.241   7.850  63.063  1.00  0.00    -0.050 A  
HETATM   15  C   UNL     1      -8.525   9.226  62.975  1.00  0.00    -0.212 A  
BRANCH  13  16
HETATM   16  O   UNL     1      -8.676  11.384  63.941  1.00  0.00     0.172 OA 
BRANCH  16  17
HETATM   17  C   UNL     1      -9.893  11.692  64.630  1.00  0.00    -0.227 C  
BRANCH  17  18
HETATM   18  C   UNL     1      -9.770  11.665  66.150  1.00  0.00    -0.229 C  
HETATM   19  C   UNL     1      -9.158  12.914  66.729  1.00  0.00    -0.211 C  
HETATM   20  O   UNL     1      -9.802  13.059  67.995  1.00  0.00    -0.211 OA 
HETATM   21  C   UNL     1     -11.115  12.462  67.865  1.00  0.00    -0.239 C  
HETATM   22  O   UNL     1     -11.093  11.619  66.698  1.00  0.00    -0.287 OA 
BRANCH  21  23
HETATM   23  C   UNL     1     -11.428  11.585  69.080  1.00  0.00    -0.355 A  
HETATM   24  C   UNL     1     -12.272  12.085  70.097  1.00  0.00    -0.309 A  
HETATM   25  C   UNL     1     -10.931  10.275  69.248  1.00  0.00    -0.241 A  
HETATM   26  C   UNL     1     -12.645  11.302  71.193  1.00  0.00    -0.501 A  
HETATM   27  C   UNL     1     -11.321   9.484  70.337  1.00  0.00    -0.318 A  
HETATM   28 CL   UNL     1      -9.781   9.555  68.174  1.00  0.00    -0.160 Cl 
HETATM   29 CL   UNL     1     -12.679   9.016  72.620  1.00  0.00    -0.371 Cl 
HETATM   30  C   UNL     1     -12.184   9.997  71.297  1.00  0.00    -0.402 A  
ENDBRANCH  21  23
BRANCH  21  31
HETATM   31  C   UNL     1     -12.134  13.596  67.610  1.00  0.00    -0.293 C  
BRANCH  31  32
HETATM   32  N   UNL     1     -12.104  14.169  66.283  1.00  0.00    -0.431 NA 
HETATM   33  C   UNL     1     -11.220  15.080  65.789  1.00  0.00    -0.318 A  
HETATM   34  C   UNL     1     -12.389  14.312  64.231  1.00  0.00    -0.377 A  
HETATM   35  N   UNL     1     -11.386  15.201  64.494  1.00  0.00    -0.331 NA 
HETATM   36  N   UNL     1     -12.859  13.657  65.295  1.00  0.00    -0.723 NA 
ENDBRANCH  31  32
ENDBRANCH  21  31
ENDBRANCH  17  18
ENDBRANCH  16  17
ENDBRANCH  13  16
ENDBRANCH   7  10
ENDBRANCH   2   4
TORSDOF 8
ENDMDL
MODEL      136
REMARK 921   NORMALIZED FREE ENERGY PREDICTED BY IDOCK:   -4.21 KCAL/MOL
REMARK 922        TOTAL FREE ENERGY PREDICTED BY IDOCK:   -7.35 KCAL/MOL
REMARK 923 INTER-LIGAND FREE ENERGY PREDICTED BY IDOCK:   -7.77 KCAL/MOL
REMARK 924 INTRA-LIGAND FREE ENERGY PREDICTED BY IDOCK:    0.42 KCAL/MOL
REMARK 927      BINDING AFFINITY PREDICTED BY RF-SCORE:    0.00 PKD
ROOT
HETATM    1  C   UNL     1      -5.853   4.167  64.188  1.00  0.00    -0.014 C  
HETATM    2  C   UNL     1      -6.173   3.875  65.668  1.00  0.00    -0.031 C  
HETATM    3  C   UNL     1      -5.141   4.652  66.502  1.00  0.00    -0.008 C  
ENDROOT
BRANCH   2   4
HETATM    4  N   UNL     1      -7.577   4.239  65.974  1.00  0.00    -0.088 NA 
HETATM    5  C   UNL     1      -7.672   5.348  66.962  1.00  0.00    -0.100 C  
HETATM    6  C   UNL     1      -7.291   6.740  66.414  1.00  0.00    -0.073 C  
HETATM    7  N   UNL     1      -8.128   7.056  65.245  1.00  0.00    -0.130 NA 
HETATM    8  C   UNL     1      -8.399   4.640  64.798  1.00  0.00    -0.127 C  
HETATM    9  C   UNL     1      -8.091   6.036  64.186  1.00  0.00    -0.095 C  
BRANCH   7  10
HETATM   10  C   UNL     1      -8.400   8.382  64.947  1.00  0.00    -0.149 A  
HETATM   11  C   UNL     1      -9.171   9.177  65.797  1.00  0.00    -0.294 A  
HETATM   12  C   UNL     1      -9.626  10.438  65.414  1.00  0.00    -0.303 A  
HETATM   13  C   UNL     1      -9.327  10.957  64.155  1.00  0.00    -0.234 A  
HETATM   14  C   UNL     1      -8.025   8.949  63.720  1.00  0.00    -0.154 A  
HETATM   15  C   UNL     1      -8.488  10.218  63.321  1.00  0.00    -0.181 A  
BRANCH  13  16
HETATM   16  O   UNL     1      -9.821  12.146  63.663  1.00  0.00    -0.339 OA 
BRANCH  16  17
HETATM   17  C   UNL     1     -10.924  12.670  64.411  1.00  0.00    -0.351 C  
BRANCH  17  18
HETATM   18  C   UNL     1     -10.698  14.080  64.945  1.00  0.00    -0.418 C  
HETATM   19  C   UNL     1     -11.893  14.654  65.661  1.00  0.00    -0.273 C  
HETATM   20  O   UNL     1     -11.323  15.486  66.672  1.00  0.00    -0.197 OA 
HETATM   21  C   UNL     1     -10.038  14.908  67.010  1.00  0.00    -0.244 C  
HETATM   22  O   UNL     1      -9.672  14.015  65.942  1.00  0.00    -0.285 OA 
BRANCH  21  23
HETATM   23  C   UNL     1      -8.969  16.000  67.105  1.00  0.00    -0.220 A  
HETATM   24  C   UNL     1      -7.606  15.633  67.172  1.00  0.00    -0.258 A  
HETATM   25  C   UNL     1      -9.261  17.381  67.116  1.00  0.00    -0.237 A  
HETATM   26  C   UNL     1      -6.588  16.590  67.190  1.00  0.00    -0.229 A  
HETATM   27  C   UNL     1      -8.238  18.339  67.116  1.00  0.00    -0.239 A  
HETATM   28 CL   UNL     1     -10.873  18.007  67.178  1.00  0.00    -0.264 Cl 
HETATM   29 CL   UNL     1      -5.656  19.117  67.117  1.00  0.00    -0.167 Cl 
HETATM   30  C   UNL     1      -6.909  17.939  67.141  1.00  0.00    -0.178 A  
ENDBRANCH  21  23
BRANCH  21  31
HETATM   31  C   UNL     1     -10.213  14.065  68.294  1.00  0.00    -0.249 C  
BRANCH  31  32
HETATM   32  N   UNL     1     -11.203  14.554  69.226  1.00  0.00    -0.269 NA 
HETATM   33  C   UNL     1     -12.277  13.884  69.728  1.00  0.00    -0.332 A  
HETATM   34  C   UNL     1     -12.018  15.684  70.765  1.00  0.00    -0.398 A  
HETATM   35  N   UNL     1     -12.821  14.582  70.696  1.00  0.00    -0.353 NA 
HETATM   36  N   UNL     1     -11.015  15.711  69.884  1.00  0.00    -0.288 NA 
ENDBRANCH  31  32
ENDBRANCH  21  31
ENDBRANCH  17  18
ENDBRANCH  16  17
ENDBRANCH  13  16
ENDBRANCH   7  10
ENDBRANCH   2   4
TORSDOF 8
ENDMDL
MODEL      137
REMARK 921   NORMALIZED FREE ENERGY PREDICTED BY IDOCK:   -4.16 KCAL/MOL
REMARK 922        TOTAL FREE ENERGY PREDICTED BY IDOCK:   -7.27 KCAL/MOL
REMARK 923 INTER-LIGAND FREE ENERGY PREDICTED BY IDOCK:   -7.23 KCAL/MOL
REMARK 924 INTRA-LIGAND FREE ENERGY PREDICTED BY IDOCK:   -0.05 KCAL/MOL
REMARK 927      BINDING AFFINITY PREDICTED BY RF-SCORE:    0.00 PKD
ROOT
HETATM    1  C   UNL     1      -9.119   6.018  74.455  1.00  0.00    -0.149 C  
HETATM    2  C   UNL     1     -10.475   6.594  73.999  1.00  0.00    -0.284 C  
HETATM    3  C   UNL     1     -10.160   7.819  73.126  1.00  0.00    -0.390 C  
ENDROOT
BRANCH   2   4
HETATM    4  N   UNL     1     -11.269   5.556  73.299  1.00  0.00    -0.272 NA 
HETATM    5  C   UNL     1     -12.096   6.121  72.199  1.00  0.00    -0.207 C  
HETATM    6  C   UNL     1     -11.304   6.550  70.945  1.00  0.00    -0.337 C  
HETATM    7  N   UNL     1     -10.531   5.407  70.434  1.00  0.00    -0.280 NA 
HETATM    8  C   UNL     1     -10.475   4.441  72.710  1.00  0.00    -0.186 C  
HETATM    9  C   UNL     1      -9.652   4.781  71.434  1.00  0.00    -0.163 C  
BRANCH   7  10
HETATM   10  C   UNL     1     -10.231   5.344  69.083  1.00  0.00    -0.232 A  
HETATM   11  C   UNL     1      -9.147   4.601  68.611  1.00  0.00    -0.156 A  
HETATM   12  C   UNL     1      -8.709   4.697  67.290  1.00  0.00    -0.104 A  
HETATM   13  C   UNL     1      -9.342   5.546  66.383  1.00  0.00    -0.152 A  
HETATM   14  C   UNL     1     -10.919   6.124  68.142  1.00  0.00    -0.398 A  
HETATM   15  C   UNL     1     -10.478   6.234  66.810  1.00  0.00    -0.311 A  
BRANCH  13  16
HETATM   16  O   UNL     1      -8.910   5.775  65.095  1.00  0.00    -0.120 OA 
BRANCH  16  17
HETATM   17  C   UNL     1      -7.497   5.980  64.984  1.00  0.00    -0.084 C  
BRANCH  17  18
HETATM   18  C   UNL     1      -7.065   7.433  65.151  1.00  0.00    -0.064 C  
HETATM   19  C   UNL     1      -7.216   8.256  63.899  1.00  0.00    -0.094 C  
HETATM   20  O   UNL     1      -7.534   9.562  64.379  1.00  0.00    -0.109 OA 
HETATM   21  C   UNL     1      -8.221   9.384  65.643  1.00  0.00    -0.120 C  
HETATM   22  O   UNL     1      -7.945   8.047  66.100  1.00  0.00    -0.096 OA 
BRANCH  21  23
HETATM   23  C   UNL     1      -7.683  10.365  66.687  1.00  0.00    -0.117 A  
HETATM   24  C   UNL     1      -6.514  11.107  66.407  1.00  0.00    -0.109 A  
HETATM   25  C   UNL     1      -8.302  10.595  67.935  1.00  0.00    -0.120 A  
HETATM   26  C   UNL     1      -6.020  12.065  67.295  1.00  0.00    -0.146 A  
HETATM   27  C   UNL     1      -7.817  11.570  68.818  1.00  0.00    -0.117 A  
HETATM   28 CL   UNL     1      -9.658   9.682  68.501  1.00  0.00    -0.148 Cl 
HETATM   29 CL   UNL     1      -6.107  13.518  69.563  1.00  0.00    -0.106 Cl 
HETATM   30  C   UNL     1      -6.687  12.307  68.488  1.00  0.00    -0.076 A  
ENDBRANCH  21  23
BRANCH  21  31
HETATM   31  C   UNL     1      -9.741   9.492  65.381  1.00  0.00    -0.244 C  
BRANCH  31  32
HETATM   32  N   UNL     1     -10.190  10.760  64.853  1.00  0.00    -0.314 NA 
HETATM   33  C   UNL     1     -10.257  11.142  63.548  1.00  0.00    -0.390 A  
HETATM   34  C   UNL     1     -11.242  12.547  64.747  1.00  0.00    -0.306 A  
HETATM   35  N   UNL     1     -10.907  12.277  63.452  1.00  0.00    -0.445 NA 
HETATM   36  N   UNL     1     -10.825  11.646  65.640  1.00  0.00    -0.282 NA 
ENDBRANCH  31  32
ENDBRANCH  21  31
ENDBRANCH  17  18
ENDBRANCH  16  17
ENDBRANCH  13  16
ENDBRANCH   7  10
ENDBRANCH   2   4
TORSDOF 8
ENDMDL
MODEL      138
REMARK 921   NORMALIZED FREE ENERGY PREDICTED BY IDOCK:   -4.13 KCAL/MOL
REMARK 922        TOTAL FREE ENERGY PREDICTED BY IDOCK:   -7.23 KCAL/MOL
REMARK 923 INTER-LIGAND FREE ENERGY PREDICTED BY IDOCK:   -7.21 KCAL/MOL
REMARK 924 INTRA-LIGAND FREE ENERGY PREDICTED BY IDOCK:   -0.02 KCAL/MOL
REMARK 927      BINDING AFFINITY PREDICTED BY RF-SCORE:    0.00 PKD
ROOT
HETATM    1  C   UNL     1     -11.238  16.535  68.653  1.00  0.00    -0.297 C  
HETATM    2  C   UNL     1     -10.708  17.037  67.294  1.00  0.00    -0.206 C  
HETATM    3  C   UNL     1      -9.347  17.697  67.571  1.00  0.00    -0.248 C  
ENDROOT
BRANCH   2   4
HETATM    4  N   UNL     1     -10.637  15.920  66.323  1.00  0.00    -0.308 NA 
HETATM    5  C   UNL     1      -9.237  15.502  66.040  1.00  0.00    -0.326 C  
HETATM    6  C   UNL     1      -8.548  14.726  67.183  1.00  0.00    -0.226 C  
HETATM    7  N   UNL     1      -9.349  13.541  67.529  1.00  0.00    -0.212 NA 
HETATM    8  C   UNL     1     -11.381  14.690  66.715  1.00  0.00    -0.356 C  
HETATM    9  C   UNL     1     -10.752  13.838  67.855  1.00  0.00    -0.247 C  
BRANCH   7  10
HETATM   10  C   UNL     1      -8.716  12.428  68.058  1.00  0.00    -0.186 A  
HETATM   11  C   UNL     1      -9.414  11.248  68.321  1.00  0.00    -0.190 A  
HETATM   12  C   UNL     1      -8.843  10.200  69.042  1.00  0.00    -0.166 A  
HETATM   13  C   UNL     1      -7.541  10.292  69.534  1.00  0.00    -0.150 A  
HETATM   14  C   UNL     1      -7.377  12.476  68.475  1.00  0.00    -0.115 A  
HETATM   15  C   UNL     1      -6.796  11.427  69.212  1.00  0.00    -0.119 A  
BRANCH  13  16
HETATM   16  O   UNL     1      -6.942   9.348  70.340  1.00  0.00    -0.073 OA 
BRANCH  16  17
HETATM   17  C   UNL     1      -7.807   8.270  70.713  1.00  0.00    -0.091 C  
BRANCH  17  18
HETATM   18  C   UNL     1      -7.620   7.007  69.880  1.00  0.00    -0.102 C  
HETATM   19  C   UNL     1      -7.181   5.811  70.684  1.00  0.00    -0.082 C  
HETATM   20  O   UNL     1      -7.787   4.704  70.017  1.00  0.00    -0.059 OA 
HETATM   21  C   UNL     1      -8.999   5.204  69.400  1.00  0.00    -0.099 C  
HETATM   22  O   UNL     1      -8.897   6.639  69.345  1.00  0.00    -0.134 OA 
BRANCH  21  23
HETATM   23  C   UNL     1      -9.126   4.680  67.967  1.00  0.00    -0.144 A  
HETATM   24  C   UNL     1      -8.283   3.633  67.533  1.00  0.00    -0.090 A  
HETATM   25  C   UNL     1     -10.063   5.175  67.034  1.00  0.00    -0.217 A  
HETATM   26  C   UNL     1      -8.404   3.072  66.260  1.00  0.00    -0.098 A  
HETATM   27  C   UNL     1     -10.196   4.599  65.763  1.00  0.00    -0.283 A  
HETATM   28 CL   UNL     1     -11.079   6.540  67.346  1.00  0.00    -0.444 Cl 
HETATM   29 CL   UNL     1      -9.556   2.823  63.837  1.00  0.00    -0.123 Cl 
HETATM   30  C   UNL     1      -9.375   3.543  65.388  1.00  0.00    -0.158 A  
ENDBRANCH  21  23
BRANCH  21  31
HETATM   31  C   UNL     1     -10.188   4.849  70.323  1.00  0.00    -0.229 C  
BRANCH  31  32
HETATM   32  N   UNL     1     -10.770   5.962  71.038  1.00  0.00    -0.256 NA 
HETATM   33  C   UNL     1     -11.910   6.643  70.734  1.00  0.00    -0.383 A  
HETATM   34  C   UNL     1     -11.238   7.200  72.637  1.00  0.00    -0.293 A  
HETATM   35  N   UNL     1     -12.223   7.444  71.724  1.00  0.00    -0.313 NA 
HETATM   36  N   UNL     1     -10.327   6.300  72.261  1.00  0.00    -0.188 NA 
ENDBRANCH  31  32
ENDBRANCH  21  31
ENDBRANCH  17  18
ENDBRANCH  16  17
ENDBRANCH  13  16
ENDBRANCH   7  10
ENDBRANCH   2   4
TORSDOF 8
ENDMDL
MODEL      139
REMARK 921   NORMALIZED FREE ENERGY PREDICTED BY IDOCK:   -4.10 KCAL/MOL
REMARK 922        TOTAL FREE ENERGY PREDICTED BY IDOCK:   -7.20 KCAL/MOL
REMARK 923 INTER-LIGAND FREE ENERGY PREDICTED BY IDOCK:   -6.33 KCAL/MOL
REMARK 924 INTRA-LIGAND FREE ENERGY PREDICTED BY IDOCK:   -0.86 KCAL/MOL
REMARK 927      BINDING AFFINITY PREDICTED BY RF-SCORE:    0.00 PKD
ROOT
HETATM    1  C   UNL     1     -11.611  15.742  64.367  1.00  0.00    -0.240 C  
HETATM    2  C   UNL     1     -10.450  15.689  65.381  1.00  0.00    -0.411 C  
HETATM    3  C   UNL     1     -10.215  17.133  65.854  1.00  0.00    -0.290 C  
ENDROOT
BRANCH   2   4
HETATM    4  N   UNL     1     -10.769  14.750  66.482  1.00  0.00    -0.312 NA 
HETATM    5  C   UNL     1     -11.071  13.379  65.988  1.00  0.00    -0.283 C  
HETATM    6  C   UNL     1      -9.846  12.584  65.486  1.00  0.00    -0.183 C  
HETATM    7  N   UNL     1      -8.837  12.505  66.556  1.00  0.00    -0.144 NA 
HETATM    8  C   UNL     1      -9.710  14.608  67.521  1.00  0.00    -0.210 C  
HETATM    9  C   UNL     1      -8.440  13.810  67.106  1.00  0.00    -0.175 C  
BRANCH   7  10
HETATM   10  C   UNL     1      -7.969  11.425  66.588  1.00  0.00    -0.148 A  
HETATM   11  C   UNL     1      -7.912  10.505  65.539  1.00  0.00    -0.145 A  
HETATM   12  C   UNL     1      -7.204   9.309  65.648  1.00  0.00    -0.090 A  
HETATM   13  C   UNL     1      -6.522   8.982  66.820  1.00  0.00    -0.064 A  
HETATM   14  C   UNL     1      -7.205  11.133  67.727  1.00  0.00    -0.091 A  
HETATM   15  C   UNL     1      -6.495   9.923  67.849  1.00  0.00    -0.059 A  
BRANCH  13  16
HETATM   16  O   UNL     1      -5.886   7.780  67.044  1.00  0.00    -0.041 OA 
BRANCH  16  17
HETATM   17  C   UNL     1      -6.742   6.638  66.920  1.00  0.00    -0.056 C  
BRANCH  17  18
HETATM   18  C   UNL     1      -8.202   6.917  67.260  1.00  0.00    -0.118 C  
HETATM   19  C   UNL     1      -9.178   6.148  66.409  1.00  0.00    -0.152 C  
HETATM   20  O   UNL     1     -10.283   5.906  67.281  1.00  0.00    -0.156 OA 
HETATM   21  C   UNL     1      -9.745   5.850  68.626  1.00  0.00    -0.127 C  
HETATM   22  O   UNL     1      -8.439   6.456  68.596  1.00  0.00    -0.122 OA 
BRANCH  21  23
HETATM   23  C   UNL     1     -10.622   6.655  69.588  1.00  0.00    -0.276 A  
HETATM   24  C   UNL     1     -11.352   5.980  70.592  1.00  0.00    -0.301 A  
HETATM   25  C   UNL     1     -10.740   8.061  69.547  1.00  0.00    -0.181 A  
HETATM   26  C   UNL     1     -12.112   6.672  71.538  1.00  0.00    -0.406 A  
HETATM   27  C   UNL     1     -11.488   8.755  70.508  1.00  0.00    -0.222 A  
HETATM   28 CL   UNL     1     -10.028   9.035  68.307  1.00  0.00    -0.187 Cl 
HETATM   29 CL   UNL     1     -13.057   8.914  72.696  1.00  0.00    -0.430 Cl 
HETATM   30  C   UNL     1     -12.160   8.059  71.504  1.00  0.00    -0.298 A  
ENDBRANCH  21  23
BRANCH  21  31
HETATM   31  C   UNL     1      -9.567   4.362  69.009  1.00  0.00    -0.174 C  
BRANCH  31  32
HETATM   32  N   UNL     1      -8.331   4.040  69.685  1.00  0.00    -0.057 NA 
HETATM   33  C   UNL     1      -8.003   4.287  70.983  1.00  0.00    -0.071 A  
HETATM   34  C   UNL     1      -6.572   3.026  70.120  1.00  0.00    -0.033 A  
HETATM   35  N   UNL     1      -6.887   3.668  71.283  1.00  0.00    -0.031 NA 
HETATM   36  N   UNL     1      -7.427   3.225  69.114  1.00  0.00    -0.048 NA 
ENDBRANCH  31  32
ENDBRANCH  21  31
ENDBRANCH  17  18
ENDBRANCH  16  17
ENDBRANCH  13  16
ENDBRANCH   7  10
ENDBRANCH   2   4
TORSDOF 8
ENDMDL
MODEL      140
REMARK 921   NORMALIZED FREE ENERGY PREDICTED BY IDOCK:   -4.08 KCAL/MOL
REMARK 922        TOTAL FREE ENERGY PREDICTED BY IDOCK:   -7.17 KCAL/MOL
REMARK 923 INTER-LIGAND FREE ENERGY PREDICTED BY IDOCK:   -6.68 KCAL/MOL
REMARK 924 INTRA-LIGAND FREE ENERGY PREDICTED BY IDOCK:   -0.49 KCAL/MOL
REMARK 927      BINDING AFFINITY PREDICTED BY RF-SCORE:    0.00 PKD
ROOT
HETATM    1  C   UNL     1     -10.995   5.539  72.588  1.00  0.00    -0.320 C  
HETATM    2  C   UNL     1      -9.651   5.012  73.130  1.00  0.00    -0.140 C  
HETATM    3  C   UNL     1      -9.933   4.451  74.534  1.00  0.00    -0.229 C  
ENDROOT
BRANCH   2   4
HETATM    4  N   UNL     1      -9.075   4.013  72.199  1.00  0.00    -0.117 NA 
HETATM    5  C   UNL     1      -9.928   3.798  70.999  1.00  0.00    -0.048 C  
HETATM    6  C   UNL     1      -9.914   4.955  69.976  1.00  0.00    -0.253 C  
HETATM    7  N   UNL     1      -8.531   5.220  69.549  1.00  0.00    -0.094 NA 
HETATM    8  C   UNL     1      -7.705   4.326  71.701  1.00  0.00    -0.074 C  
HETATM    9  C   UNL     1      -7.598   5.474  70.657  1.00  0.00    -0.089 C  
BRANCH   7  10
HETATM   10  C   UNL     1      -8.303   5.752  68.289  1.00  0.00    -0.107 A  
HETATM   11  C   UNL     1      -7.083   6.344  67.958  1.00  0.00    -0.082 A  
HETATM   12  C   UNL     1      -6.912   7.064  66.777  1.00  0.00    -0.073 A  
HETATM   13  C   UNL     1      -7.963   7.223  65.874  1.00  0.00    -0.115 A  
HETATM   14  C   UNL     1      -9.327   5.836  67.334  1.00  0.00    -0.112 A  
HETATM   15  C   UNL     1      -9.166   6.569  66.143  1.00  0.00    -0.126 A  
BRANCH  13  16
HETATM   16  O   UNL     1      -7.906   8.002  64.738  1.00  0.00    -0.116 OA 
BRANCH  16  17
HETATM   17  C   UNL     1      -7.328   9.295  64.950  1.00  0.00    -0.103 C  
BRANCH  17  18
HETATM   18  C   UNL     1      -8.292  10.453  64.715  1.00  0.00    -0.157 C  
HETATM   19  C   UNL     1      -9.605  10.033  64.109  1.00  0.00    -0.208 C  
HETATM   20  O   UNL     1     -10.551  10.948  64.663  1.00  0.00    -0.334 OA 
HETATM   21  C   UNL     1     -10.037  11.341  65.960  1.00  0.00    -0.239 C  
HETATM   22  O   UNL     1      -8.638  11.003  65.992  1.00  0.00    -0.171 OA 
BRANCH  21  23
HETATM   23  C   UNL     1     -10.167  12.854  66.151  1.00  0.00    -0.286 A  
HETATM   24  C   UNL     1      -9.100  13.574  66.733  1.00  0.00    -0.223 A  
HETATM   25  C   UNL     1     -11.302  13.596  65.760  1.00  0.00    -0.306 A  
HETATM   26  C   UNL     1      -9.138  14.964  66.867  1.00  0.00    -0.271 A  
HETATM   27  C   UNL     1     -11.332  14.993  65.877  1.00  0.00    -0.273 A  
HETATM   28 CL   UNL     1     -12.750  12.866  65.158  1.00  0.00    -0.538 Cl 
HETATM   29 CL   UNL     1     -10.276  17.385  66.540  1.00  0.00    -0.323 Cl 
HETATM   30  C   UNL     1     -10.246  15.670  66.418  1.00  0.00    -0.290 A  
ENDBRANCH  21  23
BRANCH  21  31
HETATM   31  C   UNL     1     -10.754  10.492  67.036  1.00  0.00    -0.250 C  
BRANCH  31  32
HETATM   32  N   UNL     1      -9.928  10.072  68.144  1.00  0.00    -0.149 NA 
HETATM   33  C   UNL     1      -9.350  10.856  69.096  1.00  0.00    -0.078 A  
HETATM   34  C   UNL     1      -9.174   8.841  69.637  1.00  0.00    -0.150 A  
HETATM   35  N   UNL     1      -8.853  10.103  70.048  1.00  0.00    -0.075 NA 
HETATM   36  N   UNL     1      -9.832   8.773  68.477  1.00  0.00    -0.164 NA 
ENDBRANCH  31  32
ENDBRANCH  21  31
ENDBRANCH  17  18
ENDBRANCH  16  17
ENDBRANCH  13  16
ENDBRANCH   7  10
ENDBRANCH   2   4
TORSDOF 8
ENDMDL
MODEL      141
REMARK 921   NORMALIZED FREE ENERGY PREDICTED BY IDOCK:   -4.00 KCAL/MOL
REMARK 922        TOTAL FREE ENERGY PREDICTED BY IDOCK:   -7.05 KCAL/MOL
REMARK 923 INTER-LIGAND FREE ENERGY PREDICTED BY IDOCK:   -7.89 KCAL/MOL
REMARK 924 INTRA-LIGAND FREE ENERGY PREDICTED BY IDOCK:    0.84 KCAL/MOL
REMARK 927      BINDING AFFINITY PREDICTED BY RF-SCORE:    0.00 PKD
ROOT
HETATM    1  C   UNL     1      -7.599  20.393  67.044  1.00  0.00    -0.360 C  
HETATM    2  C   UNL     1      -8.936  19.996  67.702  1.00  0.00    -0.331 C  
HETATM    3  C   UNL     1      -9.934  19.756  66.557  1.00  0.00    -0.570 C  
ENDROOT
BRANCH   2   4
HETATM    4  N   UNL     1      -8.749  18.819  68.582  1.00  0.00    -0.340 NA 
HETATM    5  C   UNL     1     -10.038  18.163  68.932  1.00  0.00    -0.338 C  
HETATM    6  C   UNL     1     -10.695  17.366  67.784  1.00  0.00    -0.332 C  
HETATM    7  N   UNL     1      -9.752  16.352  67.284  1.00  0.00    -0.235 NA 
HETATM    8  C   UNL     1      -7.860  17.754  68.037  1.00  0.00    -0.241 C  
HETATM    9  C   UNL     1      -8.445  16.892  66.882  1.00  0.00    -0.214 C  
BRANCH   7  10
HETATM   10  C   UNL     1     -10.249  15.190  66.714  1.00  0.00    -0.264 A  
HETATM   11  C   UNL     1     -10.771  14.159  67.498  1.00  0.00    -0.270 A  
HETATM   12  C   UNL     1     -11.077  12.910  66.960  1.00  0.00    -0.309 A  
HETATM   13  C   UNL     1     -10.871  12.640  65.607  1.00  0.00    -0.274 A  
HETATM   14  C   UNL     1     -10.133  14.942  65.339  1.00  0.00    -0.400 A  
HETATM   15  C   UNL     1     -10.431  13.680  64.789  1.00  0.00    -0.436 A  
BRANCH  13  16
HETATM   16  O   UNL     1     -11.051  11.406  65.021  1.00  0.00    -0.241 OA 
BRANCH  16  17
HETATM   17  C   UNL     1     -10.136  11.131  63.954  1.00  0.00    -0.348 C  
BRANCH  17  18
HETATM   18  C   UNL     1      -9.552   9.723  63.983  1.00  0.00     0.067 C  
HETATM   19  C   UNL     1      -8.237   9.599  63.260  1.00  0.00    -0.158 C  
HETATM   20  O   UNL     1      -7.530   8.601  63.995  1.00  0.00    -0.108 OA 
HETATM   21  C   UNL     1      -8.007   8.675  65.362  1.00  0.00    -0.111 C  
HETATM   22  O   UNL     1      -9.251   9.400  65.346  1.00  0.00    -0.217 OA 
BRANCH  21  23
HETATM   23  C   UNL     1      -8.278   7.273  65.912  1.00  0.00    -0.132 A  
HETATM   24  C   UNL     1      -7.321   6.253  65.715  1.00  0.00    -0.080 A  
HETATM   25  C   UNL     1      -9.442   6.929  66.633  1.00  0.00    -0.166 A  
HETATM   26  C   UNL     1      -7.488   4.975  66.255  1.00  0.00    -0.086 A  
HETATM   27  C   UNL     1      -9.599   5.652  67.191  1.00  0.00    -0.137 A  
HETATM   28 CL   UNL     1     -10.775   8.009  66.851  1.00  0.00    -0.334 Cl 
HETATM   29 CL   UNL     1      -8.801   3.129  67.714  1.00  0.00    -0.143 Cl 
HETATM   30  C   UNL     1      -8.617   4.687  67.009  1.00  0.00    -0.104 A  
ENDBRANCH  21  23
BRANCH  21  31
HETATM   31  C   UNL     1      -6.988   9.502  66.180  1.00  0.00    -0.091 C  
BRANCH  31  32
HETATM   32  N   UNL     1      -7.562  10.441  67.116  1.00  0.00    -0.095 NA 
HETATM   33  C   UNL     1      -8.627  10.248  67.943  1.00  0.00    -0.118 A  
HETATM   34  C   UNL     1      -7.658  12.035  68.443  1.00  0.00    -0.128 A  
HETATM   35  N   UNL     1      -8.720  11.248  68.786  1.00  0.00    -0.139 NA 
HETATM   36  N   UNL     1      -6.921  11.582  67.427  1.00  0.00    -0.102 NA 
ENDBRANCH  31  32
ENDBRANCH  21  31
ENDBRANCH  17  18
ENDBRANCH  16  17
ENDBRANCH  13  16
ENDBRANCH   7  10
ENDBRANCH   2   4
TORSDOF 8
ENDMDL
MODEL      142
REMARK 921   NORMALIZED FREE ENERGY PREDICTED BY IDOCK:   -3.99 KCAL/MOL
REMARK 922        TOTAL FREE ENERGY PREDICTED BY IDOCK:   -7.03 KCAL/MOL
REMARK 923 INTER-LIGAND FREE ENERGY PREDICTED BY IDOCK:   -6.19 KCAL/MOL
REMARK 924 INTRA-LIGAND FREE ENERGY PREDICTED BY IDOCK:   -0.83 KCAL/MOL
REMARK 927      BINDING AFFINITY PREDICTED BY RF-SCORE:    0.00 PKD
ROOT
HETATM    1  C   UNL     1      -9.895   3.516  71.294  1.00  0.00    -0.205 C  
HETATM    2  C   UNL     1      -8.379   3.661  71.537  1.00  0.00    -0.069 C  
HETATM    3  C   UNL     1      -8.056   2.839  72.796  1.00  0.00    -0.066 C  
ENDROOT
BRANCH   2   4
HETATM    4  N   UNL     1      -7.620   3.233  70.339  1.00  0.00    -0.044 NA 
HETATM    5  C   UNL     1      -8.429   3.324  69.093  1.00  0.00    -0.063 C  
HETATM    6  C   UNL     1      -8.678   4.761  68.584  1.00  0.00    -0.097 C  
HETATM    7  N   UNL     1      -7.390   5.443  68.380  1.00  0.00    -0.071 NA 
HETATM    8  C   UNL     1      -6.357   3.982  70.087  1.00  0.00    -0.027 C  
HETATM    9  C   UNL     1      -6.513   5.438  69.561  1.00  0.00    -0.038 C  
BRANCH   7  10
HETATM   10  C   UNL     1      -7.302   6.449  67.431  1.00  0.00    -0.087 A  
HETATM   11  C   UNL     1      -6.119   7.165  67.236  1.00  0.00    -0.037 A  
HETATM   12  C   UNL     1      -6.075   8.310  66.442  1.00  0.00    -0.049 A  
HETATM   13  C   UNL     1      -7.221   8.788  65.807  1.00  0.00    -0.084 A  
HETATM   14  C   UNL     1      -8.428   6.882  66.715  1.00  0.00    -0.118 A  
HETATM   15  C   UNL     1      -8.394   8.042  65.918  1.00  0.00    -0.136 A  
BRANCH  13  16
HETATM   16  O   UNL     1      -7.284   9.964  65.091  1.00  0.00    -0.119 OA 
BRANCH  16  17
HETATM   17  C   UNL     1      -6.811  11.109  65.810  1.00  0.00     0.193 C  
BRANCH  17  18
HETATM   18  C   UNL     1      -7.555  11.374  67.114  1.00  0.00    -0.145 C  
HETATM   19  C   UNL     1      -7.238  12.712  67.729  1.00  0.00    -0.127 C  
HETATM   20  O   UNL     1      -8.456  13.097  68.368  1.00  0.00    -0.168 OA 
HETATM   21  C   UNL     1      -9.531  12.483  67.615  1.00  0.00    -0.188 C  
HETATM   22  O   UNL     1      -8.956  11.431  66.818  1.00  0.00    -0.165 OA 
BRANCH  21  23
HETATM   23  C   UNL     1     -10.557  11.856  68.562  1.00  0.00    -0.245 A  
HETATM   24  C   UNL     1     -10.640  10.449  68.664  1.00  0.00    -0.234 A  
HETATM   25  C   UNL     1     -11.437  12.608  69.370  1.00  0.00    -0.266 A  
HETATM   26  C   UNL     1     -11.509   9.827  69.563  1.00  0.00    -0.058 A  
HETATM   27  C   UNL     1     -12.296  11.983  70.285  1.00  0.00    -0.275 A  
HETATM   28 CL   UNL     1     -11.569  14.331  69.276  1.00  0.00    -0.323 Cl 
HETATM   29 CL   UNL     1     -13.357   9.836  71.524  1.00  0.00    -0.466 Cl 
HETATM   30  C   UNL     1     -12.319  10.598  70.385  1.00  0.00    -0.343 A  
ENDBRANCH  21  23
BRANCH  21  31
HETATM   31  C   UNL     1     -10.109  13.545  66.652  1.00  0.00    -0.277 C  
BRANCH  31  32
HETATM   32  N   UNL     1     -10.836  13.023  65.518  1.00  0.00    -0.275 NA 
HETATM   33  C   UNL     1     -10.342  12.684  64.295  1.00  0.00    -0.374 A  
HETATM   34  C   UNL     1     -12.317  12.015  64.468  1.00  0.00    -0.209 A  
HETATM   35  N   UNL     1     -11.262  12.057  63.603  1.00  0.00    -0.422 NA 
HETATM   36  N   UNL     1     -12.104  12.594  65.652  1.00  0.00    -0.519 NA 
ENDBRANCH  31  32
ENDBRANCH  21  31
ENDBRANCH  17  18
ENDBRANCH  16  17
ENDBRANCH  13  16
ENDBRANCH   7  10
ENDBRANCH   2   4
TORSDOF 8
ENDMDL
MODEL      143
REMARK 921   NORMALIZED FREE ENERGY PREDICTED BY IDOCK:   -3.92 KCAL/MOL
REMARK 922        TOTAL FREE ENERGY PREDICTED BY IDOCK:   -6.92 KCAL/MOL
REMARK 923 INTER-LIGAND FREE ENERGY PREDICTED BY IDOCK:   -6.25 KCAL/MOL
REMARK 924 INTRA-LIGAND FREE ENERGY PREDICTED BY IDOCK:   -0.67 KCAL/MOL
REMARK 927      BINDING AFFINITY PREDICTED BY RF-SCORE:    0.00 PKD
ROOT
HETATM    1  C   UNL     1      -9.192   2.770  65.406  1.00  0.00    -0.124 C  
HETATM    2  C   UNL     1      -9.043   3.727  66.606  1.00  0.00    -0.157 C  
HETATM    3  C   UNL     1      -9.785   3.074  67.783  1.00  0.00     0.064 C  
ENDROOT
BRANCH   2   4
HETATM    4  N   UNL     1      -7.611   3.991  66.881  1.00  0.00    -0.083 NA 
HETATM    5  C   UNL     1      -6.938   4.700  65.760  1.00  0.00    -0.063 C  
HETATM    6  C   UNL     1      -7.319   6.189  65.611  1.00  0.00    -0.080 C  
HETATM    7  N   UNL     1      -7.042   6.898  66.871  1.00  0.00    -0.073 NA 
HETATM    8  C   UNL     1      -7.337   4.781  68.115  1.00  0.00    -0.066 C  
HETATM    9  C   UNL     1      -7.681   6.297  68.052  1.00  0.00    -0.103 C  
BRANCH   7  10
HETATM   10  C   UNL     1      -6.744   8.251  66.834  1.00  0.00    -0.062 A  
HETATM   11  C   UNL     1      -6.181   8.903  67.933  1.00  0.00    -0.052 A  
HETATM   12  C   UNL     1      -6.070  10.292  67.986  1.00  0.00    -0.051 A  
HETATM   13  C   UNL     1      -6.524  11.089  66.935  1.00  0.00    -0.108 A  
HETATM   14  C   UNL     1      -7.112   9.052  65.743  1.00  0.00    -0.085 A  
HETATM   15  C   UNL     1      -7.013  10.456  65.793  1.00  0.00    -0.136 A  
BRANCH  13  16
HETATM   16  O   UNL     1      -6.545  12.467  66.954  1.00  0.00    -0.092 OA 
BRANCH  16  17
HETATM   17  C   UNL     1      -7.863  13.028  66.966  1.00  0.00     0.028 C  
BRANCH  17  18
HETATM   18  C   UNL     1      -8.718  12.579  68.146  1.00  0.00    -0.190 C  
HETATM   19  C   UNL     1      -9.796  13.562  68.521  1.00  0.00    -0.189 C  
HETATM   20  O   UNL     1     -10.863  12.742  68.995  1.00  0.00    -0.225 OA 
HETATM   21  C   UNL     1     -10.753  11.474  68.302  1.00  0.00    -0.211 C  
HETATM   22  O   UNL     1      -9.424  11.396  67.753  1.00  0.00    -0.159 OA 
BRANCH  21  23
HETATM   23  C   UNL     1     -10.935  10.311  69.279  1.00  0.00    -0.284 A  
HETATM   24  C   UNL     1     -10.497   9.020  68.911  1.00  0.00    -0.231 A  
HETATM   25  C   UNL     1     -11.512  10.450  70.560  1.00  0.00    -0.345 A  
HETATM   26  C   UNL     1     -10.576   7.938  69.792  1.00  0.00    -0.242 A  
HETATM   27  C   UNL     1     -11.573   9.369  71.450  1.00  0.00    -0.451 A  
HETATM   28 CL   UNL     1     -12.224  11.923  71.123  1.00  0.00    -0.294 Cl 
HETATM   29 CL   UNL     1     -11.150   6.803  72.168  1.00  0.00    -0.268 Cl 
HETATM   30  C   UNL     1     -11.094   8.123  71.066  1.00  0.00    -0.253 A  
ENDBRANCH  21  23
BRANCH  21  31
HETATM   31  C   UNL     1     -11.752  11.486  67.121  1.00  0.00    -0.055 C  
BRANCH  31  32
HETATM   32  N   UNL     1     -11.156  11.557  65.806  1.00  0.00    -0.255 NA 
HETATM   33  C   UNL     1     -10.344  10.640  65.209  1.00  0.00    -0.251 A  
HETATM   34  C   UNL     1     -10.933  12.082  63.810  1.00  0.00    -0.426 A  
HETATM   35  N   UNL     1     -10.175  10.955  63.948  1.00  0.00    -0.350 NA 
HETATM   36  N   UNL     1     -11.552  12.488  64.921  1.00  0.00    -0.328 NA 
ENDBRANCH  31  32
ENDBRANCH  21  31
ENDBRANCH  17  18
ENDBRANCH  16  17
ENDBRANCH  13  16
ENDBRANCH   7  10
ENDBRANCH   2   4
TORSDOF 8
ENDMDL
MODEL      144
REMARK 921   NORMALIZED FREE ENERGY PREDICTED BY IDOCK:   -3.90 KCAL/MOL
REMARK 922        TOTAL FREE ENERGY PREDICTED BY IDOCK:   -6.90 KCAL/MOL
REMARK 923 INTER-LIGAND FREE ENERGY PREDICTED BY IDOCK:   -6.12 KCAL/MOL
REMARK 924 INTRA-LIGAND FREE ENERGY PREDICTED BY IDOCK:   -0.79 KCAL/MOL
REMARK 927      BINDING AFFINITY PREDICTED BY RF-SCORE:    0.00 PKD
ROOT
HETATM    1  C   UNL     1      -8.438  18.178  68.317  1.00  0.00    -0.294 C  
HETATM    2  C   UNL     1      -9.350  17.013  67.883  1.00  0.00    -0.240 C  
HETATM    3  C   UNL     1     -10.742  17.615  67.631  1.00  0.00    -0.318 C  
ENDROOT
BRANCH   2   4
HETATM    4  N   UNL     1      -8.781  16.323  66.701  1.00  0.00    -0.230 NA 
HETATM    5  C   UNL     1      -7.396  15.835  66.942  1.00  0.00    -0.139 C  
HETATM    6  C   UNL     1      -7.293  14.607  67.873  1.00  0.00    -0.154 C  
HETATM    7  N   UNL     1      -8.110  13.508  67.333  1.00  0.00    -0.181 NA 
HETATM    8  C   UNL     1      -9.567  15.158  66.207  1.00  0.00    -0.297 C  
HETATM    9  C   UNL     1      -9.513  13.870  67.079  1.00  0.00    -0.254 C  
BRANCH   7  10
HETATM   10  C   UNL     1      -7.752  12.199  67.615  1.00  0.00    -0.148 A  
HETATM   11  C   UNL     1      -7.646  11.739  68.928  1.00  0.00    -0.063 A  
HETATM   12  C   UNL     1      -7.088  10.497  69.230  1.00  0.00    -0.097 A  
HETATM   13  C   UNL     1      -6.609   9.661  68.222  1.00  0.00    -0.057 A  
HETATM   14  C   UNL     1      -7.355  11.314  66.601  1.00  0.00    -0.131 A  
HETATM   15  C   UNL     1      -6.781  10.063  66.897  1.00  0.00    -0.079 A  
BRANCH  13  16
HETATM   16  O   UNL     1      -5.954   8.469  68.442  1.00  0.00    -0.040 OA 
BRANCH  16  17
HETATM   17  C   UNL     1      -6.611   7.330  67.874  1.00  0.00    -0.050 C  
BRANCH  17  18
HETATM   18  C   UNL     1      -8.116   7.295  68.120  1.00  0.00    -0.124 C  
HETATM   19  C   UNL     1      -8.816   6.159  67.422  1.00  0.00    -0.106 C  
HETATM   20  O   UNL     1      -9.888   5.820  68.302  1.00  0.00    -0.126 OA 
HETATM   21  C   UNL     1      -9.448   6.157  69.642  1.00  0.00    -0.145 C  
HETATM   22  O   UNL     1      -8.328   7.052  69.516  1.00  0.00    -0.130 OA 
BRANCH  21  23
HETATM   23  C   UNL     1     -10.558   6.885  70.402  1.00  0.00    -0.247 A  
HETATM   24  C   UNL     1     -11.904   6.510  70.195  1.00  0.00    -0.331 A  
HETATM   25  C   UNL     1     -10.319   7.922  71.330  1.00  0.00    -0.198 A  
HETATM   26  C   UNL     1     -12.949   7.094  70.915  1.00  0.00    -0.132 A  
HETATM   27  C   UNL     1     -11.367   8.494  72.065  1.00  0.00    -0.425 A  
HETATM   28 CL   UNL     1      -8.752   8.601  71.608  1.00  0.00    -0.255 Cl 
HETATM   29 CL   UNL     1     -13.954   8.758  72.781  1.00  0.00    -0.334 Cl 
HETATM   30  C   UNL     1     -12.673   8.070  71.862  1.00  0.00    -0.327 A  
ENDBRANCH  21  23
BRANCH  21  31
HETATM   31  C   UNL     1      -8.945   4.862  70.321  1.00  0.00    -0.108 C  
BRANCH  31  32
HETATM   32  N   UNL     1      -8.000   5.054  71.397  1.00  0.00    -0.108 NA 
HETATM   33  C   UNL     1      -8.266   5.164  72.729  1.00  0.00    -0.109 A  
HETATM   34  C   UNL     1      -6.203   4.961  72.433  1.00  0.00    -0.030 A  
HETATM   35  N   UNL     1      -7.145   5.121  73.408  1.00  0.00    -0.076 NA 
HETATM   36  N   UNL     1      -6.680   4.915  71.187  1.00  0.00    -0.034 NA 
ENDBRANCH  31  32
ENDBRANCH  21  31
ENDBRANCH  17  18
ENDBRANCH  16  17
ENDBRANCH  13  16
ENDBRANCH   7  10
ENDBRANCH   2   4
TORSDOF 8
ENDMDL
MODEL      145
REMARK 921   NORMALIZED FREE ENERGY PREDICTED BY IDOCK:   -3.90 KCAL/MOL
REMARK 922        TOTAL FREE ENERGY PREDICTED BY IDOCK:   -6.90 KCAL/MOL
REMARK 923 INTER-LIGAND FREE ENERGY PREDICTED BY IDOCK:   -7.46 KCAL/MOL
REMARK 924 INTRA-LIGAND FREE ENERGY PREDICTED BY IDOCK:    0.56 KCAL/MOL
REMARK 927      BINDING AFFINITY PREDICTED BY RF-SCORE:    0.00 PKD
ROOT
HETATM    1  C   UNL     1     -11.174  15.897  67.935  1.00  0.00    -0.297 C  
HETATM    2  C   UNL     1      -9.717  16.352  67.712  1.00  0.00    -0.235 C  
HETATM    3  C   UNL     1      -8.971  16.099  69.032  1.00  0.00    -0.247 C  
ENDROOT
BRANCH   2   4
HETATM    4  N   UNL     1      -9.126  15.643  66.552  1.00  0.00    -0.275 NA 
HETATM    5  C   UNL     1      -7.667  15.405  66.717  1.00  0.00    -0.010 C  
HETATM    6  C   UNL     1      -7.299  14.310  67.742  1.00  0.00    -0.174 C  
HETATM    7  N   UNL     1      -7.960  13.048  67.374  1.00  0.00    -0.176 NA 
HETATM    8  C   UNL     1      -9.743  14.325  66.233  1.00  0.00    -0.302 C  
HETATM    9  C   UNL     1      -9.417  13.158  67.209  1.00  0.00    -0.225 C  
BRANCH   7  10
HETATM   10  C   UNL     1      -7.373  11.846  67.741  1.00  0.00    -0.109 A  
HETATM   11  C   UNL     1      -7.087  10.858  66.797  1.00  0.00    -0.129 A  
HETATM   12  C   UNL     1      -6.695   9.574  67.174  1.00  0.00    -0.072 A  
HETATM   13  C   UNL     1      -6.575   9.224  68.519  1.00  0.00    -0.054 A  
HETATM   14  C   UNL     1      -7.161  11.516  69.087  1.00  0.00    -0.105 A  
HETATM   15  C   UNL     1      -6.775  10.219  69.476  1.00  0.00    -0.073 A  
BRANCH  13  16
HETATM   16  O   UNL     1      -6.295   7.954  68.973  1.00  0.00    -0.035 OA 
BRANCH  16  17
HETATM   17  C   UNL     1      -7.457   7.149  69.202  1.00  0.00    -0.094 C  
BRANCH  17  18
HETATM   18  C   UNL     1      -8.774   7.894  69.018  1.00  0.00    -0.138 C  
HETATM   19  C   UNL     1      -9.723   7.217  68.064  1.00  0.00    -0.141 C  
HETATM   20  O   UNL     1     -11.016   7.529  68.582  1.00  0.00    -0.061 OA 
HETATM   21  C   UNL     1     -10.861   7.695  70.014  1.00  0.00    -0.243 C  
HETATM   22  O   UNL     1      -9.460   7.893  70.276  1.00  0.00    -0.163 OA 
BRANCH  21  23
HETATM   23  C   UNL     1     -11.616   8.937  70.493  1.00  0.00    -0.189 A  
HETATM   24  C   UNL     1     -12.525   8.824  71.569  1.00  0.00    -0.374 A  
HETATM   25  C   UNL     1     -11.449  10.220  69.929  1.00  0.00    -0.273 A  
HETATM   26  C   UNL     1     -13.187   9.938  72.091  1.00  0.00    -0.511 A  
HETATM   27  C   UNL     1     -12.100  11.340  70.466  1.00  0.00    -0.481 A  
HETATM   28 CL   UNL     1     -10.485  10.517  68.524  1.00  0.00    -0.196 Cl 
HETATM   29 CL   UNL     1     -13.735  12.573  72.221  1.00  0.00    -0.501 Cl 
HETATM   30  C   UNL     1     -12.956  11.195  71.550  1.00  0.00    -0.437 A  
ENDBRANCH  21  23
BRANCH  21  31
HETATM   31  C   UNL     1     -11.289   6.376  70.698  1.00  0.00    -0.357 C  
BRANCH  31  32
HETATM   32  N   UNL     1     -10.238   5.400  70.873  1.00  0.00    -0.221 NA 
HETATM   33  C   UNL     1      -9.424   5.236  71.952  1.00  0.00    -0.146 A  
HETATM   34  C   UNL     1      -9.195   3.620  70.642  1.00  0.00    -0.134 A  
HETATM   35  N   UNL     1      -8.742   4.124  71.827  1.00  0.00    -0.110 NA 
HETATM   36  N   UNL     1     -10.112   4.366  70.022  1.00  0.00    -0.169 NA 
ENDBRANCH  31  32
ENDBRANCH  21  31
ENDBRANCH  17  18
ENDBRANCH  16  17
ENDBRANCH  13  16
ENDBRANCH   7  10
ENDBRANCH   2   4
TORSDOF 8
ENDMDL
MODEL      146
REMARK 921   NORMALIZED FREE ENERGY PREDICTED BY IDOCK:   -3.90 KCAL/MOL
REMARK 922        TOTAL FREE ENERGY PREDICTED BY IDOCK:   -6.90 KCAL/MOL
REMARK 923 INTER-LIGAND FREE ENERGY PREDICTED BY IDOCK:   -7.88 KCAL/MOL
REMARK 924 INTRA-LIGAND FREE ENERGY PREDICTED BY IDOCK:    0.98 KCAL/MOL
REMARK 927      BINDING AFFINITY PREDICTED BY RF-SCORE:    0.00 PKD
ROOT
HETATM    1  C   UNL     1     -10.886   6.044  67.208  1.00  0.00    -0.403 C  
HETATM    2  C   UNL     1     -10.007   4.904  67.760  1.00  0.00    -0.131 C  
HETATM    3  C   UNL     1      -9.129   4.421  66.594  1.00  0.00    -0.130 C  
ENDROOT
BRANCH   2   4
HETATM    4  N   UNL     1      -9.230   5.372  68.932  1.00  0.00    -0.117 NA 
HETATM    5  C   UNL     1      -7.845   5.777  68.569  1.00  0.00    -0.097 C  
HETATM    6  C   UNL     1      -7.740   7.112  67.799  1.00  0.00    -0.112 C  
HETATM    7  N   UNL     1      -8.372   8.185  68.584  1.00  0.00    -0.125 NA 
HETATM    8  C   UNL     1      -9.831   6.515  69.676  1.00  0.00    -0.159 C  
HETATM    9  C   UNL     1      -9.760   7.904  68.979  1.00  0.00    -0.162 C  
BRANCH   7  10
HETATM   10  C   UNL     1      -7.926   9.488  68.427  1.00  0.00    -0.093 A  
HETATM   11  C   UNL     1      -7.895  10.103  67.174  1.00  0.00    -0.099 A  
HETATM   12  C   UNL     1      -7.259  11.326  66.971  1.00  0.00    -0.129 A  
HETATM   13  C   UNL     1      -6.621  11.988  68.020  1.00  0.00    -0.069 A  
HETATM   14  C   UNL     1      -7.364  10.203  69.496  1.00  0.00    -0.123 A  
HETATM   15  C   UNL     1      -6.711  11.435  69.297  1.00  0.00    -0.113 A  
BRANCH  13  16
HETATM   16  O   UNL     1      -5.884  13.145  67.881  1.00  0.00    -0.106 OA 
BRANCH  16  17
HETATM   17  C   UNL     1      -6.679  14.332  67.784  1.00  0.00    -0.176 C  
BRANCH  17  18
HETATM   18  C   UNL     1      -7.824  14.396  68.789  1.00  0.00    -0.138 C  
HETATM   19  C   UNL     1      -8.273  15.799  69.105  1.00  0.00    -0.247 C  
HETATM   20  O   UNL     1      -9.674  15.667  69.350  1.00  0.00    -0.257 OA 
HETATM   21  C   UNL     1     -10.129  14.540  68.561  1.00  0.00    -0.242 C  
HETATM   22  O   UNL     1      -8.968  13.772  68.194  1.00  0.00    -0.178 OA 
BRANCH  21  23
HETATM   23  C   UNL     1     -11.051  13.643  69.391  1.00  0.00    -0.193 A  
HETATM   24  C   UNL     1     -10.947  12.239  69.270  1.00  0.00    -0.155 A  
HETATM   25  C   UNL     1     -12.010  14.137  70.301  1.00  0.00    -0.334 A  
HETATM   26  C   UNL     1     -11.715  11.375  70.055  1.00  0.00    -0.416 A  
HETATM   27  C   UNL     1     -12.767  13.270  71.101  1.00  0.00    -0.404 A  
HETATM   28 CL   UNL     1     -12.368  15.821  70.477  1.00  0.00    -0.420 Cl 
HETATM   29 CL   UNL     1     -13.521  10.834  71.980  1.00  0.00    -0.409 Cl 
HETATM   30  C   UNL     1     -12.607  11.895  70.982  1.00  0.00    -0.283 A  
ENDBRANCH  21  23
BRANCH  21  31
HETATM   31  C   UNL     1     -10.763  15.089  67.262  1.00  0.00    -0.298 C  
BRANCH  31  32
HETATM   32  N   UNL     1     -10.442  16.463  66.950  1.00  0.00    -0.303 NA 
HETATM   33  C   UNL     1     -10.848  17.584  67.609  1.00  0.00    -0.227 A  
HETATM   34  C   UNL     1      -9.362  18.079  66.220  1.00  0.00    -0.206 A  
HETATM   35  N   UNL     1     -10.190  18.624  67.159  1.00  0.00    -0.358 NA 
HETATM   36  N   UNL     1      -9.481  16.759  66.058  1.00  0.00    -0.465 NA 
ENDBRANCH  31  32
ENDBRANCH  21  31
ENDBRANCH  17  18
ENDBRANCH  16  17
ENDBRANCH  13  16
ENDBRANCH   7  10
ENDBRANCH   2   4
TORSDOF 8
ENDMDL
MODEL      147
REMARK 921   NORMALIZED FREE ENERGY PREDICTED BY IDOCK:   -3.87 KCAL/MOL
REMARK 922        TOTAL FREE ENERGY PREDICTED BY IDOCK:   -6.86 KCAL/MOL
REMARK 923 INTER-LIGAND FREE ENERGY PREDICTED BY IDOCK:   -7.82 KCAL/MOL
REMARK 924 INTRA-LIGAND FREE ENERGY PREDICTED BY IDOCK:    0.96 KCAL/MOL
REMARK 927      BINDING AFFINITY PREDICTED BY RF-SCORE:    0.00 PKD
ROOT
HETATM    1  C   UNL     1      -7.216   1.803  70.276  1.00  0.00    -0.033 C  
HETATM    2  C   UNL     1      -7.173   1.891  71.815  1.00  0.00    -0.035 C  
HETATM    3  C   UNL     1      -6.408   3.179  72.160  1.00  0.00    -0.014 C  
ENDROOT
BRANCH   2   4
HETATM    4  N   UNL     1      -8.545   1.850  72.373  1.00  0.00    -0.060 NA 
HETATM    5  C   UNL     1      -8.705   2.744  73.551  1.00  0.00    -0.076 C  
HETATM    6  C   UNL     1      -8.742   4.252  73.222  1.00  0.00    -0.096 C  
HETATM    7  N   UNL     1      -9.821   4.520  72.257  1.00  0.00    -0.163 NA 
HETATM    8  C   UNL     1      -9.630   2.203  71.415  1.00  0.00    -0.147 C  
HETATM    9  C   UNL     1      -9.750   3.707  71.034  1.00  0.00    -0.173 C  
BRANCH   7  10
HETATM   10  C   UNL     1     -10.426   5.768  72.249  1.00  0.00    -0.209 A  
HETATM   11  C   UNL     1     -11.579   6.013  71.502  1.00  0.00    -0.238 A  
HETATM   12  C   UNL     1     -12.075   7.303  71.317  1.00  0.00    -0.373 A  
HETATM   13  C   UNL     1     -11.430   8.407  71.875  1.00  0.00    -0.318 A  
HETATM   14  C   UNL     1      -9.836   6.871  72.883  1.00  0.00    -0.195 A  
HETATM   15  C   UNL     1     -10.325   8.178  72.694  1.00  0.00    -0.398 A  
BRANCH  13  16
HETATM   16  O   UNL     1     -11.795   9.718  71.655  1.00  0.00    -0.389 OA 
BRANCH  16  17
HETATM   17  C   UNL     1     -12.276   9.973  70.330  1.00  0.00    -0.170 C  
BRANCH  17  18
HETATM   18  C   UNL     1     -11.425  10.960  69.540  1.00  0.00    -0.301 C  
HETATM   19  C   UNL     1      -9.972  10.573  69.456  1.00  0.00    -0.158 C  
HETATM   20  O   UNL     1      -9.558  11.058  68.178  1.00  0.00    -0.160 OA 
HETATM   21  C   UNL     1     -10.731  11.040  67.327  1.00  0.00    -0.265 C  
HETATM   22  O   UNL     1     -11.885  10.950  68.183  1.00  0.00    -0.564 OA 
BRANCH  21  23
HETATM   23  C   UNL     1     -10.831  12.339  66.525  1.00  0.00    -0.297 A  
HETATM   24  C   UNL     1     -11.946  12.552  65.684  1.00  0.00    -0.492 A  
HETATM   25  C   UNL     1      -9.869  13.370  66.585  1.00  0.00    -0.278 A  
HETATM   26  C   UNL     1     -12.121  13.749  64.984  1.00  0.00    -0.424 A  
HETATM   27  C   UNL     1     -10.055  14.578  65.897  1.00  0.00    -0.346 A  
HETATM   28 CL   UNL     1      -8.379  13.226  67.453  1.00  0.00    -0.184 Cl 
HETATM   29 CL   UNL     1     -11.422  16.256  64.288  1.00  0.00    -0.267 Cl 
HETATM   30  C   UNL     1     -11.185  14.765  65.111  1.00  0.00    -0.382 A  
ENDBRANCH  21  23
BRANCH  21  31
HETATM   31  C   UNL     1     -10.678   9.755  66.467  1.00  0.00     0.011 C  
BRANCH  31  32
HETATM   32  N   UNL     1      -9.374   9.410  65.948  1.00  0.00    -0.211 NA 
HETATM   33  C   UNL     1      -8.259   9.074  66.653  1.00  0.00    -0.118 A  
HETATM   34  C   UNL     1      -7.950   8.693  64.618  1.00  0.00    -0.141 A  
HETATM   35  N   UNL     1      -7.336   8.629  65.836  1.00  0.00    -0.083 NA 
HETATM   36  N   UNL     1      -9.199   9.165  64.638  1.00  0.00    -0.072 NA 
ENDBRANCH  31  32
ENDBRANCH  21  31
ENDBRANCH  17  18
ENDBRANCH  16  17
ENDBRANCH  13  16
ENDBRANCH   7  10
ENDBRANCH   2   4
TORSDOF 8
ENDMDL
MODEL      148
REMARK 921   NORMALIZED FREE ENERGY PREDICTED BY IDOCK:   -3.85 KCAL/MOL
REMARK 922        TOTAL FREE ENERGY PREDICTED BY IDOCK:   -6.82 KCAL/MOL
REMARK 923 INTER-LIGAND FREE ENERGY PREDICTED BY IDOCK:   -6.98 KCAL/MOL
REMARK 924 INTRA-LIGAND FREE ENERGY PREDICTED BY IDOCK:    0.16 KCAL/MOL
REMARK 927      BINDING AFFINITY PREDICTED BY RF-SCORE:    0.00 PKD
ROOT
HETATM    1  C   UNL     1      -9.472  17.623  66.946  1.00  0.00    -0.278 C  
HETATM    2  C   UNL     1      -9.974  16.332  66.270  1.00  0.00    -0.317 C  
HETATM    3  C   UNL     1      -8.851  15.292  66.422  1.00  0.00    -0.311 C  
ENDROOT
BRANCH   2   4
HETATM    4  N   UNL     1     -11.262  15.904  66.865  1.00  0.00    -0.087 NA 
HETATM    5  C   UNL     1     -11.710  14.580  66.354  1.00  0.00    -0.363 C  
HETATM    6  C   UNL     1     -10.911  13.372  66.889  1.00  0.00    -0.277 C  
HETATM    7  N   UNL     1     -10.952  13.366  68.361  1.00  0.00    -0.256 NA 
HETATM    8  C   UNL     1     -11.276  15.817  68.352  1.00  0.00    -0.362 C  
HETATM    9  C   UNL     1     -10.503  14.622  68.980  1.00  0.00    -0.246 C  
BRANCH   7  10
HETATM   10  C   UNL     1     -10.841  12.160  69.035  1.00  0.00    -0.162 A  
HETATM   11  C   UNL     1      -9.701  11.363  68.919  1.00  0.00    -0.105 A  
HETATM   12  C   UNL     1      -9.660  10.061  69.417  1.00  0.00    -0.237 A  
HETATM   13  C   UNL     1     -10.766   9.501  70.054  1.00  0.00    -0.243 A  
HETATM   14  C   UNL     1     -11.916  11.624  69.758  1.00  0.00    -0.402 A  
HETATM   15  C   UNL     1     -11.886  10.307  70.256  1.00  0.00    -0.372 A  
BRANCH  13  16
HETATM   16  O   UNL     1     -10.842   8.193  70.482  1.00  0.00    -0.233 OA 
BRANCH  16  17
HETATM   17  C   UNL     1      -9.665   7.423  70.209  1.00  0.00    -0.172 C  
BRANCH  17  18
HETATM   18  C   UNL     1      -9.702   6.685  68.875  1.00  0.00    -0.135 C  
HETATM   19  C   UNL     1     -10.720   7.231  67.909  1.00  0.00    -0.172 C  
HETATM   20  O   UNL     1     -10.128   7.024  66.627  1.00  0.00    -0.200 OA 
HETATM   21  C   UNL     1      -8.692   7.068  66.821  1.00  0.00    -0.123 C  
HETATM   22  O   UNL     1      -8.440   6.884  68.227  1.00  0.00    -0.124 OA 
BRANCH  21  23
HETATM   23  C   UNL     1      -8.014   5.925  66.062  1.00  0.00    -0.108 A  
HETATM   24  C   UNL     1      -8.806   5.007  65.336  1.00  0.00    -0.152 A  
HETATM   25  C   UNL     1      -6.616   5.733  66.025  1.00  0.00    -0.044 A  
HETATM   26  C   UNL     1      -8.234   3.989  64.570  1.00  0.00    -0.094 A  
HETATM   27  C   UNL     1      -6.042   4.722  65.241  1.00  0.00    -0.030 A  
HETATM   28 CL   UNL     1      -5.506   6.675  66.960  1.00  0.00    -0.013 Cl 
HETATM   29 CL   UNL     1      -6.146   2.640  63.530  1.00  0.00    -0.010 Cl 
HETATM   30  C   UNL     1      -6.853   3.864  64.509  1.00  0.00    -0.045 A  
ENDBRANCH  21  23
BRANCH  21  31
HETATM   31  C   UNL     1      -8.199   8.481  66.433  1.00  0.00    -0.108 C  
BRANCH  31  32
HETATM   32  N   UNL     1      -8.926   9.117  65.357  1.00  0.00    -0.199 NA 
HETATM   33  C   UNL     1      -9.891  10.072  65.455  1.00  0.00    -0.314 A  
HETATM   34  C   UNL     1      -9.311   9.854  63.455  1.00  0.00    -0.182 A  
HETATM   35  N   UNL     1     -10.165  10.548  64.264  1.00  0.00    -0.320 NA 
HETATM   36  N   UNL     1      -8.533   8.967  64.080  1.00  0.00    -0.184 NA 
ENDBRANCH  31  32
ENDBRANCH  21  31
ENDBRANCH  17  18
ENDBRANCH  16  17
ENDBRANCH  13  16
ENDBRANCH   7  10
ENDBRANCH   2   4
TORSDOF 8
ENDMDL
MODEL      149
REMARK 921   NORMALIZED FREE ENERGY PREDICTED BY IDOCK:   -3.84 KCAL/MOL
REMARK 922        TOTAL FREE ENERGY PREDICTED BY IDOCK:   -6.80 KCAL/MOL
REMARK 923 INTER-LIGAND FREE ENERGY PREDICTED BY IDOCK:   -6.95 KCAL/MOL
REMARK 924 INTRA-LIGAND FREE ENERGY PREDICTED BY IDOCK:    0.15 KCAL/MOL
REMARK 927      BINDING AFFINITY PREDICTED BY RF-SCORE:    0.00 PKD
ROOT
HETATM    1  C   UNL     1      -9.457   3.137  74.393  1.00  0.00    -0.117 C  
HETATM    2  C   UNL     1      -8.361   3.548  73.389  1.00  0.00    -0.079 C  
HETATM    3  C   UNL     1      -7.275   2.461  73.456  1.00  0.00    -0.036 C  
ENDROOT
BRANCH   2   4
HETATM    4  N   UNL     1      -8.939   3.724  72.036  1.00  0.00    -0.106 NA 
HETATM    5  C   UNL     1     -10.401   4.003  72.075  1.00  0.00    -0.051 C  
HETATM    6  C   UNL     1     -10.779   5.417  72.566  1.00  0.00    -0.237 C  
HETATM    7  N   UNL     1     -10.114   6.425  71.725  1.00  0.00    -0.184 NA 
HETATM    8  C   UNL     1      -8.319   4.803  71.216  1.00  0.00    -0.106 C  
HETATM    9  C   UNL     1      -8.655   6.264  71.633  1.00  0.00    -0.133 C  
BRANCH   7  10
HETATM   10  C   UNL     1     -10.704   7.670  71.568  1.00  0.00    -0.221 A  
HETATM   11  C   UNL     1     -12.090   7.828  71.596  1.00  0.00    -0.335 A  
HETATM   12  C   UNL     1     -12.702   9.027  71.232  1.00  0.00    -0.316 A  
HETATM   13  C   UNL     1     -11.944  10.123  70.821  1.00  0.00    -0.348 A  
HETATM   14  C   UNL     1      -9.945   8.804  71.244  1.00  0.00    -0.333 A  
HETATM   15  C   UNL     1     -10.554  10.016  70.866  1.00  0.00    -0.125 A  
BRANCH  13  16
HETATM   16  O   UNL     1     -12.474  11.305  70.350  1.00  0.00    -0.298 OA 
BRANCH  16  17
HETATM   17  C   UNL     1     -11.615  12.006  69.443  1.00  0.00    -0.330 C  
BRANCH  17  18
HETATM   18  C   UNL     1     -11.323  11.248  68.153  1.00  0.00    -0.303 C  
HETATM   19  C   UNL     1     -11.987  11.844  66.939  1.00  0.00     0.081 C  
HETATM   20  O   UNL     1     -11.072  11.575  65.877  1.00  0.00    -0.283 OA 
HETATM   21  C   UNL     1      -9.750  11.526  66.469  1.00  0.00    -0.203 C  
HETATM   22  O   UNL     1      -9.919  11.351  67.889  1.00  0.00    -0.171 OA 
BRANCH  21  23
HETATM   23  C   UNL     1      -8.965  10.328  65.931  1.00  0.00    -0.181 A  
HETATM   24  C   UNL     1      -7.919  10.542  65.006  1.00  0.00    -0.079 A  
HETATM   25  C   UNL     1      -9.213   8.993  66.319  1.00  0.00    -0.206 A  
HETATM   26  C   UNL     1      -7.127   9.491  64.537  1.00  0.00    -0.107 A  
HETATM   27  C   UNL     1      -8.406   7.942  65.862  1.00  0.00    -0.134 A  
HETATM   28 CL   UNL     1     -10.537   8.533  67.334  1.00  0.00    -0.342 Cl 
HETATM   29 CL   UNL     1      -6.357   6.910  64.443  1.00  0.00    -0.036 Cl 
HETATM   30  C   UNL     1      -7.361   8.198  64.984  1.00  0.00    -0.082 A  
ENDBRANCH  21  23
BRANCH  21  31
HETATM   31  C   UNL     1      -9.072  12.897  66.239  1.00  0.00    -0.007 C  
BRANCH  31  32
HETATM   32  N   UNL     1      -9.969  14.026  66.160  1.00  0.00    -0.303 NA 
HETATM   33  C   UNL     1     -10.292  14.905  67.149  1.00  0.00    -0.260 A  
HETATM   34  C   UNL     1     -11.020  15.606  65.315  1.00  0.00    -0.364 A  
HETATM   35  N   UNL     1     -10.969  15.909  66.645  1.00  0.00    -0.207 NA 
HETATM   36  N   UNL     1     -10.421  14.463  64.971  1.00  0.00    -0.414 NA 
ENDBRANCH  31  32
ENDBRANCH  21  31
ENDBRANCH  17  18
ENDBRANCH  16  17
ENDBRANCH  13  16
ENDBRANCH   7  10
ENDBRANCH   2   4
TORSDOF 8
ENDMDL
MODEL      150
REMARK 921   NORMALIZED FREE ENERGY PREDICTED BY IDOCK:   -3.80 KCAL/MOL
REMARK 922        TOTAL FREE ENERGY PREDICTED BY IDOCK:   -6.75 KCAL/MOL
REMARK 923 INTER-LIGAND FREE ENERGY PREDICTED BY IDOCK:   -5.38 KCAL/MOL
REMARK 924 INTRA-LIGAND FREE ENERGY PREDICTED BY IDOCK:   -1.37 KCAL/MOL
REMARK 927      BINDING AFFINITY PREDICTED BY RF-SCORE:    0.00 PKD
ROOT
HETATM    1  C   UNL     1      -7.508   7.801  62.880  1.00  0.00    -0.114 C  
HETATM    2  C   UNL     1      -7.821   8.366  64.280  1.00  0.00    -0.143 C  
HETATM    3  C   UNL     1      -8.789   9.542  64.073  1.00  0.00    -0.243 C  
ENDROOT
BRANCH   2   4
HETATM    4  N   UNL     1      -8.362   7.301  65.158  1.00  0.00    -0.113 NA 
HETATM    5  C   UNL     1      -7.291   6.561  65.878  1.00  0.00    -0.079 C  
HETATM    6  C   UNL     1      -6.617   7.346  67.024  1.00  0.00    -0.061 C  
HETATM    7  N   UNL     1      -7.638   7.786  67.989  1.00  0.00    -0.117 NA 
HETATM    8  C   UNL     1      -9.334   7.762  66.189  1.00  0.00    -0.100 C  
HETATM    9  C   UNL     1      -8.740   8.554  67.390  1.00  0.00    -0.134 C  
BRANCH   7  10
HETATM   10  C   UNL     1      -7.280   7.970  69.315  1.00  0.00    -0.076 A  
HETATM   11  C   UNL     1      -6.193   7.299  69.876  1.00  0.00    -0.027 A  
HETATM   12  C   UNL     1      -5.950   7.311  71.249  1.00  0.00    -0.036 A  
HETATM   13  C   UNL     1      -6.792   8.000  72.122  1.00  0.00    -0.071 A  
HETATM   14  C   UNL     1      -8.068   8.737  70.187  1.00  0.00    -0.114 A  
HETATM   15  C   UNL     1      -7.835   8.747  71.575  1.00  0.00    -0.147 A  
BRANCH  13  16
HETATM   16  O   UNL     1      -6.681   7.977  73.495  1.00  0.00    -0.091 OA 
BRANCH  16  17
HETATM   17  C   UNL     1      -7.677   7.179  74.146  1.00  0.00    -0.111 C  
BRANCH  17  18
HETATM   18  C   UNL     1      -7.845   5.787  73.548  1.00  0.00    -0.105 C  
HETATM   19  C   UNL     1      -8.370   4.768  74.526  1.00  0.00    -0.100 C  
HETATM   20  O   UNL     1      -9.152   3.886  73.720  1.00  0.00    -0.094 OA 
HETATM   21  C   UNL     1      -9.649   4.671  72.608  1.00  0.00    -0.136 C  
HETATM   22  O   UNL     1      -8.847   5.863  72.527  1.00  0.00    -0.133 OA 
BRANCH  21  23
HETATM   23  C   UNL     1      -9.490   3.899  71.295  1.00  0.00    -0.229 A  
HETATM   24  C   UNL     1      -9.025   4.575  70.145  1.00  0.00    -0.141 A  
HETATM   25  C   UNL     1      -9.768   2.522  71.160  1.00  0.00    -0.110 A  
HETATM   26  C   UNL     1      -8.796   3.904  68.941  1.00  0.00    -0.153 A  
HETATM   27  C   UNL     1      -9.520   1.846  69.957  1.00  0.00    -0.133 A  
HETATM   28 CL   UNL     1     -10.471   1.570  72.421  1.00  0.00    -0.223 Cl 
HETATM   29 CL   UNL     1      -8.700   1.702  67.391  1.00  0.00    -0.114 Cl 
HETATM   30  C   UNL     1      -9.025   2.538  68.859  1.00  0.00    -0.116 A  
ENDBRANCH  21  23
BRANCH  21  31
HETATM   31  C   UNL     1     -11.100   5.097  72.932  1.00  0.00    -0.295 C  
BRANCH  31  32
HETATM   32  N   UNL     1     -11.489   6.396  72.433  1.00  0.00    -0.284 NA 
HETATM   33  C   UNL     1     -11.292   7.608  73.022  1.00  0.00    -0.280 A  
HETATM   34  C   UNL     1     -11.960   7.877  71.056  1.00  0.00    -0.252 A  
HETATM   35  N   UNL     1     -11.594   8.565  72.178  1.00  0.00    -0.357 NA 
HETATM   36  N   UNL     1     -11.912   6.548  71.166  1.00  0.00    -0.347 NA 
ENDBRANCH  31  32
ENDBRANCH  21  31
ENDBRANCH  17  18
ENDBRANCH  16  17
ENDBRANCH  13  16
ENDBRANCH   7  10
ENDBRANCH   2   4
TORSDOF 8
ENDMDL
MODEL      151
REMARK 921   NORMALIZED FREE ENERGY PREDICTED BY IDOCK:   -3.80 KCAL/MOL
REMARK 922        TOTAL FREE ENERGY PREDICTED BY IDOCK:   -6.75 KCAL/MOL
REMARK 923 INTER-LIGAND FREE ENERGY PREDICTED BY IDOCK:   -6.79 KCAL/MOL
REMARK 924 INTRA-LIGAND FREE ENERGY PREDICTED BY IDOCK:    0.04 KCAL/MOL
REMARK 927      BINDING AFFINITY PREDICTED BY RF-SCORE:    0.00 PKD
ROOT
HETATM    1  C   UNL     1     -10.387  19.578  65.861  1.00  0.00    -0.562 C  
HETATM    2  C   UNL     1      -9.724  20.301  67.050  1.00  0.00    -0.458 C  
HETATM    3  C   UNL     1     -10.454  19.823  68.316  1.00  0.00    -0.449 C  
ENDROOT
BRANCH   2   4
HETATM    4  N   UNL     1      -8.266  20.033  67.070  1.00  0.00    -0.309 NA 
HETATM    5  C   UNL     1      -7.789  19.594  68.410  1.00  0.00    -0.327 C  
HETATM    6  C   UNL     1      -8.193  18.157  68.805  1.00  0.00    -0.225 C  
HETATM    7  N   UNL     1      -7.714  17.212  67.784  1.00  0.00    -0.175 NA 
HETATM    8  C   UNL     1      -7.796  19.012  66.092  1.00  0.00    -0.264 C  
HETATM    9  C   UNL     1      -8.149  17.532  66.416  1.00  0.00    -0.274 C  
BRANCH   7  10
HETATM   10  C   UNL     1      -7.428  15.906  68.153  1.00  0.00    -0.127 A  
HETATM   11  C   UNL     1      -6.667  15.620  69.287  1.00  0.00    -0.158 A  
HETATM   12  C   UNL     1      -6.198  14.334  69.552  1.00  0.00    -0.122 A  
HETATM   13  C   UNL     1      -6.472  13.276  68.686  1.00  0.00    -0.087 A  
HETATM   14  C   UNL     1      -7.778  14.821  67.336  1.00  0.00    -0.230 A  
HETATM   15  C   UNL     1      -7.300  13.521  67.591  1.00  0.00    -0.180 A  
BRANCH  13  16
HETATM   16  O   UNL     1      -5.961  12.003  68.821  1.00  0.00    -0.053 OA 
BRANCH  16  17
HETATM   17  C   UNL     1      -6.724  11.160  69.691  1.00  0.00    -0.134 C  
BRANCH  17  18
HETATM   18  C   UNL     1      -6.946   9.751  69.154  1.00  0.00    -0.055 C  
HETATM   19  C   UNL     1      -7.642   8.836  70.127  1.00  0.00    -0.072 C  
HETATM   20  O   UNL     1      -8.412   7.968  69.295  1.00  0.00    -0.132 OA 
HETATM   21  C   UNL     1      -8.736   8.718  68.098  1.00  0.00    -0.134 C  
HETATM   22  O   UNL     1      -7.836   9.841  68.036  1.00  0.00    -0.086 OA 
BRANCH  21  23
HETATM   23  C   UNL     1      -8.514   7.860  66.851  1.00  0.00    -0.128 A  
HETATM   24  C   UNL     1      -8.729   6.465  66.921  1.00  0.00    -0.115 A  
HETATM   25  C   UNL     1      -8.115   8.383  65.602  1.00  0.00    -0.125 A  
HETATM   26  C   UNL     1      -8.609   5.646  65.796  1.00  0.00    -0.148 A  
HETATM   27  C   UNL     1      -8.013   7.563  64.470  1.00  0.00    -0.122 A  
HETATM   28 CL   UNL     1      -7.677  10.040  65.367  1.00  0.00    -0.131 Cl 
HETATM   29 CL   UNL     1      -8.167   5.202  63.175  1.00  0.00    -0.105 Cl 
HETATM   30  C   UNL     1      -8.271   6.202  64.570  1.00  0.00    -0.079 A  
ENDBRANCH  21  23
BRANCH  21  31
HETATM   31  C   UNL     1     -10.172   9.271  68.253  1.00  0.00    -0.201 C  
BRANCH  31  32
HETATM   32  N   UNL     1     -10.429  10.523  67.579  1.00  0.00    -0.222 NA 
HETATM   33  C   UNL     1     -10.809  10.710  66.284  1.00  0.00    -0.027 A  
HETATM   34  C   UNL     1     -10.971  12.513  67.336  1.00  0.00    -0.259 A  
HETATM   35  N   UNL     1     -11.145  11.964  66.099  1.00  0.00    -0.316 NA 
HETATM   36  N   UNL     1     -10.534  11.669  68.274  1.00  0.00    -0.196 NA 
ENDBRANCH  31  32
ENDBRANCH  21  31
ENDBRANCH  17  18
ENDBRANCH  16  17
ENDBRANCH  13  16
ENDBRANCH   7  10
ENDBRANCH   2   4
TORSDOF 8
ENDMDL
MODEL      152
REMARK 921   NORMALIZED FREE ENERGY PREDICTED BY IDOCK:   -3.77 KCAL/MOL
REMARK 922        TOTAL FREE ENERGY PREDICTED BY IDOCK:   -6.71 KCAL/MOL
REMARK 923 INTER-LIGAND FREE ENERGY PREDICTED BY IDOCK:   -7.81 KCAL/MOL
REMARK 924 INTRA-LIGAND FREE ENERGY PREDICTED BY IDOCK:    1.10 KCAL/MOL
REMARK 927      BINDING AFFINITY PREDICTED BY RF-SCORE:    0.00 PKD
ROOT
HETATM    1  C   UNL     1     -11.548   8.023  71.548  1.00  0.00    -0.313 C  
HETATM    2  C   UNL     1     -10.038   8.162  71.827  1.00  0.00    -0.205 C  
HETATM    3  C   UNL     1      -9.723   7.235  73.013  1.00  0.00    -0.231 C  
ENDROOT
BRANCH   2   4
HETATM    4  N   UNL     1      -9.256   7.850  70.608  1.00  0.00    -0.157 NA 
HETATM    5  C   UNL     1      -9.730   8.610  69.420  1.00  0.00    -0.176 C  
HETATM    6  C   UNL     1      -9.373  10.112  69.424  1.00  0.00    -0.219 C  
HETATM    7  N   UNL     1      -7.915  10.272  69.555  1.00  0.00    -0.162 NA 
HETATM    8  C   UNL     1      -7.790   8.093  70.715  1.00  0.00    -0.089 C  
HETATM    9  C   UNL     1      -7.336   9.581  70.716  1.00  0.00    -0.084 C  
BRANCH   7  10
HETATM   10  C   UNL     1      -7.309  11.398  69.020  1.00  0.00    -0.108 A  
HETATM   11  C   UNL     1      -6.871  12.445  69.833  1.00  0.00     0.355 A  
HETATM   12  C   UNL     1      -6.455  13.665  69.301  1.00  0.00    -0.110 A  
HETATM   13  C   UNL     1      -6.462  13.888  67.925  1.00  0.00    -0.162 A  
HETATM   14  C   UNL     1      -7.224  11.596  67.634  1.00  0.00    -0.107 A  
HETATM   15  C   UNL     1      -6.814  12.828  67.089  1.00  0.00     0.012 A  
BRANCH  13  16
HETATM   16  O   UNL     1      -6.165  15.094  67.328  1.00  0.00    -0.318 OA 
BRANCH  16  17
HETATM   17  C   UNL     1      -7.299  15.754  66.754  1.00  0.00    -0.041 C  
BRANCH  17  18
HETATM   18  C   UNL     1      -8.401  16.078  67.757  1.00  0.00    -0.150 C  
HETATM   19  C   UNL     1      -9.166  17.333  67.429  1.00  0.00    -0.231 C  
HETATM   20  O   UNL     1     -10.487  17.066  67.900  1.00  0.00    -0.326 OA 
HETATM   21  C   UNL     1     -10.678  15.632  67.813  1.00  0.00    -0.297 C  
HETATM   22  O   UNL     1      -9.375  15.030  67.696  1.00  0.00    -0.191 OA 
BRANCH  21  23
HETATM   23  C   UNL     1     -11.336  15.101  69.088  1.00  0.00    -0.311 A  
HETATM   24  C   UNL     1     -11.465  15.951  70.209  1.00  0.00    -0.376 A  
HETATM   25  C   UNL     1     -11.848  13.792  69.216  1.00  0.00    -0.344 A  
HETATM   26  C   UNL     1     -12.120  15.539  71.373  1.00  0.00    -0.453 A  
HETATM   27  C   UNL     1     -12.521  13.385  70.377  1.00  0.00    -0.322 A  
HETATM   28 CL   UNL     1     -11.657  12.577  67.999  1.00  0.00    -0.372 Cl 
HETATM   29 CL   UNL     1     -13.509  13.770  72.857  1.00  0.00    -0.491 Cl 
HETATM   30  C   UNL     1     -12.663  14.264  71.443  1.00  0.00    -0.352 A  
ENDBRANCH  21  23
BRANCH  21  31
HETATM   31  C   UNL     1     -11.457  15.331  66.512  1.00  0.00    -0.095 C  
BRANCH  31  32
HETATM   32  N   UNL     1     -10.985  14.193  65.757  1.00  0.00    -0.296 NA 
HETATM   33  C   UNL     1     -11.332  13.831  64.491  1.00  0.00    -0.380 A  
HETATM   34  C   UNL     1      -9.703  12.684  65.132  1.00  0.00     0.001 A  
HETATM   35  N   UNL     1     -10.546  12.868  64.074  1.00  0.00    -0.413 NA 
HETATM   36  N   UNL     1      -9.933  13.472  66.184  1.00  0.00    -0.299 NA 
ENDBRANCH  31  32
ENDBRANCH  21  31
ENDBRANCH  17  18
ENDBRANCH  16  17
ENDBRANCH  13  16
ENDBRANCH   7  10
ENDBRANCH   2   4
TORSDOF 8
ENDMDL
MODEL      153
REMARK 921   NORMALIZED FREE ENERGY PREDICTED BY IDOCK:   -3.76 KCAL/MOL
REMARK 922        TOTAL FREE ENERGY PREDICTED BY IDOCK:   -6.70 KCAL/MOL
REMARK 923 INTER-LIGAND FREE ENERGY PREDICTED BY IDOCK:   -5.90 KCAL/MOL
REMARK 924 INTRA-LIGAND FREE ENERGY PREDICTED BY IDOCK:   -0.80 KCAL/MOL
REMARK 927      BINDING AFFINITY PREDICTED BY RF-SCORE:    0.00 PKD
ROOT
HETATM    1  C   UNL     1      -7.057  20.049  64.965  1.00  0.00    -0.067 C  
HETATM    2  C   UNL     1      -6.829  18.703  65.682  1.00  0.00    -0.249 C  
HETATM    3  C   UNL     1      -5.352  18.676  66.106  1.00  0.00    -0.176 C  
ENDROOT
BRANCH   2   4
HETATM    4  N   UNL     1      -7.773  18.555  66.815  1.00  0.00    -0.228 NA 
HETATM    5  C   UNL     1      -9.112  18.074  66.379  1.00  0.00    -0.235 C  
HETATM    6  C   UNL     1      -9.164  16.586  65.969  1.00  0.00    -0.260 C  
HETATM    7  N   UNL     1      -8.684  15.750  67.081  1.00  0.00    -0.192 NA 
HETATM    8  C   UNL     1      -7.321  17.642  67.902  1.00  0.00    -0.202 C  
HETATM    9  C   UNL     1      -7.351  16.120  67.580  1.00  0.00    -0.159 C  
BRANCH   7  10
HETATM   10  C   UNL     1      -9.155  14.452  67.202  1.00  0.00    -0.227 A  
HETATM   11  C   UNL     1      -9.565  13.718  66.088  1.00  0.00    -0.234 A  
HETATM   12  C   UNL     1     -10.232  12.500  66.214  1.00  0.00    -0.265 A  
HETATM   13  C   UNL     1     -10.519  11.965  67.469  1.00  0.00    -0.209 A  
HETATM   14  C   UNL     1      -9.363  13.863  68.458  1.00  0.00    -0.164 A  
HETATM   15  C   UNL     1     -10.044  12.638  68.595  1.00  0.00    -0.131 A  
BRANCH  13  16
HETATM   16  O   UNL     1     -11.261  10.823  67.680  1.00  0.00    -0.303 OA 
BRANCH  16  17
HETATM   17  C   UNL     1     -11.082   9.819  66.675  1.00  0.00     0.374 C  
BRANCH  17  18
HETATM   18  C   UNL     1     -10.739   8.440  67.227  1.00  0.00    -0.160 C  
HETATM   19  C   UNL     1      -9.590   7.774  66.518  1.00  0.00    -0.201 C  
HETATM   20  O   UNL     1      -8.950   7.007  67.538  1.00  0.00    -0.118 OA 
HETATM   21  C   UNL     1      -9.192   7.697  68.789  1.00  0.00    -0.142 C  
HETATM   22  O   UNL     1     -10.287   8.606  68.577  1.00  0.00    -0.199 OA 
BRANCH  21  23
HETATM   23  C   UNL     1      -9.601   6.704  69.879  1.00  0.00    -0.161 A  
HETATM   24  C   UNL     1      -9.730   5.334  69.557  1.00  0.00    -0.246 A  
HETATM   25  C   UNL     1      -9.849   7.072  71.219  1.00  0.00    -0.175 A  
HETATM   26  C   UNL     1     -10.032   4.376  70.528  1.00  0.00    -0.256 A  
HETATM   27  C   UNL     1     -10.134   6.108  72.196  1.00  0.00    -0.207 A  
HETATM   28 CL   UNL     1      -9.871   8.715  71.761  1.00  0.00    -0.337 Cl 
HETATM   29 CL   UNL     1     -10.540   3.583  73.053  1.00  0.00    -0.255 Cl 
HETATM   30  C   UNL     1     -10.213   4.765  71.848  1.00  0.00    -0.193 A  
ENDBRANCH  21  23
BRANCH  21  31
HETATM   31  C   UNL     1      -7.937   8.538  69.122  1.00  0.00    -0.112 C  
BRANCH  31  32
HETATM   32  N   UNL     1      -6.802   8.327  68.253  1.00  0.00    -0.064 NA 
HETATM   33  C   UNL     1      -5.996   7.231  68.187  1.00  0.00    -0.030 A  
HETATM   34  C   UNL     1      -5.590   8.505  66.577  1.00  0.00    -0.039 A  
HETATM   35  N   UNL     1      -5.209   7.322  67.143  1.00  0.00    -0.017 NA 
HETATM   36  N   UNL     1      -6.562   9.154  67.221  1.00  0.00    -0.064 NA 
ENDBRANCH  31  32
ENDBRANCH  21  31
ENDBRANCH  17  18
ENDBRANCH  16  17
ENDBRANCH  13  16
ENDBRANCH   7  10
ENDBRANCH   2   4
TORSDOF 8
ENDMDL
MODEL      154
REMARK 921   NORMALIZED FREE ENERGY PREDICTED BY IDOCK:   -3.74 KCAL/MOL
REMARK 922        TOTAL FREE ENERGY PREDICTED BY IDOCK:   -6.66 KCAL/MOL
REMARK 923 INTER-LIGAND FREE ENERGY PREDICTED BY IDOCK:   -6.68 KCAL/MOL
REMARK 924 INTRA-LIGAND FREE ENERGY PREDICTED BY IDOCK:    0.02 KCAL/MOL
REMARK 927      BINDING AFFINITY PREDICTED BY RF-SCORE:    0.00 PKD
ROOT
HETATM    1  C   UNL     1      -6.009   4.295  69.042  1.00  0.00    -0.023 C  
HETATM    2  C   UNL     1      -7.010   3.158  69.328  1.00  0.00    -0.041 C  
HETATM    3  C   UNL     1      -6.274   1.841  69.033  1.00  0.00    -0.025 C  
ENDROOT
BRANCH   2   4
HETATM    4  N   UNL     1      -7.518   3.255  70.717  1.00  0.00    -0.040 NA 
HETATM    5  C   UNL     1      -7.138   4.535  71.372  1.00  0.00    -0.043 C  
HETATM    6  C   UNL     1      -7.904   5.777  70.866  1.00  0.00    -0.105 C  
HETATM    7  N   UNL     1      -9.351   5.561  71.021  1.00  0.00    -0.151 NA 
HETATM    8  C   UNL     1      -8.995   3.120  70.863  1.00  0.00    -0.096 C  
HETATM    9  C   UNL     1      -9.848   4.331  70.387  1.00  0.00    -0.198 C  
BRANCH   7  10
HETATM   10  C   UNL     1     -10.182   6.656  71.198  1.00  0.00    -0.194 A  
HETATM   11  C   UNL     1      -9.697   7.866  71.699  1.00  0.00    -0.207 A  
HETATM   12  C   UNL     1     -10.551   8.901  72.078  1.00  0.00    -0.388 A  
HETATM   13  C   UNL     1     -11.935   8.765  71.972  1.00  0.00    -0.376 A  
HETATM   14  C   UNL     1     -11.569   6.562  71.007  1.00  0.00    -0.405 A  
HETATM   15  C   UNL     1     -12.439   7.598  71.396  1.00  0.00    -0.359 A  
BRANCH  13  16
HETATM   16  O   UNL     1     -12.848   9.696  72.418  1.00  0.00    -0.344 OA 
BRANCH  16  17
HETATM   17  C   UNL     1     -12.905  10.883  71.620  1.00  0.00    -0.449 C  
BRANCH  17  18
HETATM   18  C   UNL     1     -12.115  10.795  70.319  1.00  0.00    -0.348 C  
HETATM   19  C   UNL     1     -12.976  10.843  69.084  1.00  0.00     1.382 C  
HETATM   20  O   UNL     1     -12.160  11.509  68.119  1.00  0.00    -0.604 OA 
HETATM   21  C   UNL     1     -11.281  12.393  68.857  1.00  0.00    -0.280 C  
HETATM   22  O   UNL     1     -11.283  11.958  70.229  1.00  0.00     0.065 OA 
BRANCH  21  23
HETATM   23  C   UNL     1      -9.850  12.292  68.326  1.00  0.00    -0.217 A  
HETATM   24  C   UNL     1      -8.961  13.374  68.513  1.00  0.00    -0.071 A  
HETATM   25  C   UNL     1      -9.343  11.156  67.659  1.00  0.00    -0.165 A  
HETATM   26  C   UNL     1      -7.625  13.306  68.110  1.00  0.00    -0.141 A  
HETATM   27  C   UNL     1      -7.997  11.081  67.272  1.00  0.00    -0.126 A  
HETATM   28 CL   UNL     1     -10.322   9.797  67.224  1.00  0.00    -0.289 Cl 
HETATM   29 CL   UNL     1      -5.489  12.048  67.054  1.00  0.00    -0.123 Cl 
HETATM   30  C   UNL     1      -7.144  12.151  67.510  1.00  0.00    -0.135 A  
ENDBRANCH  21  23
BRANCH  21  31
HETATM   31  C   UNL     1     -11.886  13.816  68.812  1.00  0.00    -0.363 C  
BRANCH  31  32
HETATM   32  N   UNL     1     -12.008  14.478  70.091  1.00  0.00    -0.295 NA 
HETATM   33  C   UNL     1     -11.167  15.401  70.634  1.00  0.00    -0.342 A  
HETATM   34  C   UNL     1     -12.922  15.288  71.769  1.00  0.00    -0.394 A  
HETATM   35  N   UNL     1     -11.714  15.922  71.706  1.00  0.00    -0.453 NA 
HETATM   36  N   UNL     1     -13.146  14.396  70.802  1.00  0.00    -0.337 NA 
ENDBRANCH  31  32
ENDBRANCH  21  31
ENDBRANCH  17  18
ENDBRANCH  16  17
ENDBRANCH  13  16
ENDBRANCH   7  10
ENDBRANCH   2   4
TORSDOF 8
ENDMDL
MODEL      155
REMARK 921   NORMALIZED FREE ENERGY PREDICTED BY IDOCK:   -3.73 KCAL/MOL
REMARK 922        TOTAL FREE ENERGY PREDICTED BY IDOCK:   -6.65 KCAL/MOL
REMARK 923 INTER-LIGAND FREE ENERGY PREDICTED BY IDOCK:   -6.29 KCAL/MOL
REMARK 924 INTRA-LIGAND FREE ENERGY PREDICTED BY IDOCK:   -0.35 KCAL/MOL
REMARK 927      BINDING AFFINITY PREDICTED BY RF-SCORE:    0.00 PKD
ROOT
HETATM    1  C   UNL     1     -10.537  19.617  66.060  1.00  0.00    -0.584 C  
HETATM    2  C   UNL     1      -9.223  18.994  66.571  1.00  0.00    -0.337 C  
HETATM    3  C   UNL     1      -8.167  20.112  66.543  1.00  0.00    -0.315 C  
ENDROOT
BRANCH   2   4
HETATM    4  N   UNL     1      -9.420  18.400  67.914  1.00  0.00    -0.279 NA 
HETATM    5  C   UNL     1     -10.524  17.403  67.936  1.00  0.00    -0.383 C  
HETATM    6  C   UNL     1     -10.201  16.060  67.245  1.00  0.00    -0.277 C  
HETATM    7  N   UNL     1      -8.998  15.469  67.853  1.00  0.00    -0.173 NA 
HETATM    8  C   UNL     1      -8.223  17.728  68.493  1.00  0.00    -0.296 C  
HETATM    9  C   UNL     1      -7.829  16.361  67.864  1.00  0.00    -0.152 C  
BRANCH   7  10
HETATM   10  C   UNL     1      -8.843  14.092  67.843  1.00  0.00    -0.185 A  
HETATM   11  C   UNL     1      -9.888  13.238  68.201  1.00  0.00    -0.231 A  
HETATM   12  C   UNL     1      -9.687  11.873  68.398  1.00  0.00    -0.201 A  
HETATM   13  C   UNL     1      -8.424  11.302  68.244  1.00  0.00    -0.152 A  
HETATM   14  C   UNL     1      -7.596  13.497  67.599  1.00  0.00    -0.181 A  
HETATM   15  C   UNL     1      -7.383  12.120  67.804  1.00  0.00    -0.114 A  
BRANCH  13  16
HETATM   16  O   UNL     1      -8.122   9.986  68.518  1.00  0.00    -0.099 OA 
BRANCH  16  17
HETATM   17  C   UNL     1      -6.900   9.533  67.923  1.00  0.00    -0.074 C  
BRANCH  17  18
HETATM   18  C   UNL     1      -6.927   8.074  67.484  1.00  0.00    -0.075 C  
HETATM   19  C   UNL     1      -6.141   7.157  68.385  1.00  0.00    -0.034 C  
HETATM   20  O   UNL     1      -6.859   5.924  68.336  1.00  0.00    -0.061 OA 
HETATM   21  C   UNL     1      -8.246   6.261  68.082  1.00  0.00    -0.115 C  
HETATM   22  O   UNL     1      -8.278   7.609  67.580  1.00  0.00    -0.118 OA 
BRANCH  21  23
HETATM   23  C   UNL     1      -8.834   5.338  67.012  1.00  0.00    -0.109 A  
HETATM   24  C   UNL     1     -10.201   5.450  66.674  1.00  0.00    -0.285 A  
HETATM   25  C   UNL     1      -8.079   4.372  66.312  1.00  0.00    -0.102 A  
HETATM   26  C   UNL     1     -10.771   4.681  65.656  1.00  0.00    -0.193 A  
HETATM   27  C   UNL     1      -8.648   3.615  65.279  1.00  0.00    -0.114 A  
HETATM   28 CL   UNL     1      -6.430   4.005  66.688  1.00  0.00    -0.040 Cl 
HETATM   29 CL   UNL     1     -10.676   2.868  63.665  1.00  0.00    -0.220 Cl 
HETATM   30  C   UNL     1      -9.987   3.782  64.949  1.00  0.00    -0.171 A  
ENDBRANCH  21  23
BRANCH  21  31
HETATM   31  C   UNL     1      -8.998   6.240  69.433  1.00  0.00    -0.126 C  
BRANCH  31  32
HETATM   32  N   UNL     1      -8.930   4.994  70.162  1.00  0.00    -0.108 NA 
HETATM   33  C   UNL     1      -9.878   4.019  70.236  1.00  0.00    -0.134 A  
HETATM   34  C   UNL     1      -8.085   3.327  71.066  1.00  0.00    -0.061 A  
HETATM   35  N   UNL     1      -9.375   2.956  70.815  1.00  0.00    -0.141 NA 
HETATM   36  N   UNL     1      -7.767   4.565  70.683  1.00  0.00    -0.053 NA 
ENDBRANCH  31  32
ENDBRANCH  21  31
ENDBRANCH  17  18
ENDBRANCH  16  17
ENDBRANCH  13  16
ENDBRANCH   7  10
ENDBRANCH   2   4
TORSDOF 8
ENDMDL
MODEL      156
REMARK 921   NORMALIZED FREE ENERGY PREDICTED BY IDOCK:   -3.63 KCAL/MOL
REMARK 922        TOTAL FREE ENERGY PREDICTED BY IDOCK:   -6.51 KCAL/MOL
REMARK 923 INTER-LIGAND FREE ENERGY PREDICTED BY IDOCK:   -6.71 KCAL/MOL
REMARK 924 INTRA-LIGAND FREE ENERGY PREDICTED BY IDOCK:    0.20 KCAL/MOL
REMARK 927      BINDING AFFINITY PREDICTED BY RF-SCORE:    0.00 PKD
ROOT
HETATM    1  C   UNL     1     -11.832  16.690  72.677  1.00  0.00    -0.292 C  
HETATM    2  C   UNL     1     -12.220  15.198  72.644  1.00  0.00    -0.384 C  
HETATM    3  C   UNL     1     -12.729  14.846  74.052  1.00  0.00    -0.295 C  
ENDROOT
BRANCH   2   4
HETATM    4  N   UNL     1     -13.214  14.946  71.575  1.00  0.00    -0.341 NA 
HETATM    5  C   UNL     1     -12.897  15.683  70.321  1.00  0.00    -0.114 C  
HETATM    6  C   UNL     1     -11.700  15.124  69.523  1.00  0.00    -0.327 C  
HETATM    7  N   UNL     1     -11.936  13.705  69.207  1.00  0.00    -0.331 NA 
HETATM    8  C   UNL     1     -13.391  13.515  71.198  1.00  0.00    -0.071 C  
HETATM    9  C   UNL     1     -12.235  12.870  70.380  1.00  0.00    -0.304 C  
BRANCH   7  10
HETATM   10  C   UNL     1     -11.355  13.160  68.073  1.00  0.00    -0.292 A  
HETATM   11  C   UNL     1      -9.976  13.208  67.866  1.00  0.00    -0.233 A  
HETATM   12  C   UNL     1      -9.403  12.855  66.645  1.00  0.00    -0.240 A  
HETATM   13  C   UNL     1     -10.193  12.439  65.574  1.00  0.00    -0.274 A  
HETATM   14  C   UNL     1     -12.135  12.652  67.023  1.00  0.00    -0.202 A  
HETATM   15  C   UNL     1     -11.566  12.303  65.784  1.00  0.00    -0.443 A  
BRANCH  13  16
HETATM   16  O   UNL     1      -9.717  12.173  64.308  1.00  0.00    -0.169 OA 
BRANCH  16  17
HETATM   17  C   UNL     1     -10.182  10.934  63.761  1.00  0.00    -0.343 C  
BRANCH  17  18
HETATM   18  C   UNL     1      -9.100   9.867  63.632  1.00  0.00    -0.259 C  
HETATM   19  C   UNL     1      -7.709  10.429  63.502  1.00  0.00    -0.061 C  
HETATM   20  O   UNL     1      -6.883   9.463  64.151  1.00  0.00    -0.090 OA 
HETATM   21  C   UNL     1      -7.701   8.833  65.168  1.00  0.00    -0.103 C  
HETATM   22  O   UNL     1      -9.077   9.115  64.851  1.00  0.00    -0.210 OA 
BRANCH  21  23
HETATM   23  C   UNL     1      -7.508   7.316  65.147  1.00  0.00    -0.087 A  
HETATM   24  C   UNL     1      -7.337   6.620  66.364  1.00  0.00    -0.073 A  
HETATM   25  C   UNL     1      -7.505   6.545  63.964  1.00  0.00    -0.082 A  
HETATM   26  C   UNL     1      -7.226   5.228  66.407  1.00  0.00    -0.077 A  
HETATM   27  C   UNL     1      -7.413   5.146  64.009  1.00  0.00    -0.062 A  
HETATM   28 CL   UNL     1      -7.565   7.240  62.381  1.00  0.00    -0.099 Cl 
HETATM   29 CL   UNL     1      -7.196   2.779  65.283  1.00  0.00    -0.061 Cl 
HETATM   30  C   UNL     1      -7.285   4.496  65.229  1.00  0.00    -0.068 A  
ENDBRANCH  21  23
BRANCH  21  31
HETATM   31  C   UNL     1      -7.381   9.504  66.524  1.00  0.00    -0.090 C  
BRANCH  31  32
HETATM   32  N   UNL     1      -8.113   8.987  67.659  1.00  0.00    -0.108 NA 
HETATM   33  C   UNL     1      -7.619   8.294  68.722  1.00  0.00    -0.101 A  
HETATM   34  C   UNL     1      -9.603   8.845  69.096  1.00  0.00    -0.162 A  
HETATM   35  N   UNL     1      -8.545   8.177  69.642  1.00  0.00    -0.130 NA 
HETATM   36  N   UNL     1      -9.385   9.358  67.883  1.00  0.00    -0.129 NA 
ENDBRANCH  31  32
ENDBRANCH  21  31
ENDBRANCH  17  18
ENDBRANCH  16  17
ENDBRANCH  13  16
ENDBRANCH   7  10
ENDBRANCH   2   4
TORSDOF 8
ENDMDL
MODEL      157
REMARK 921   NORMALIZED FREE ENERGY PREDICTED BY IDOCK:   -3.63 KCAL/MOL
REMARK 922        TOTAL FREE ENERGY PREDICTED BY IDOCK:   -6.50 KCAL/MOL
REMARK 923 INTER-LIGAND FREE ENERGY PREDICTED BY IDOCK:   -6.51 KCAL/MOL
REMARK 924 INTRA-LIGAND FREE ENERGY PREDICTED BY IDOCK:    0.01 KCAL/MOL
REMARK 927      BINDING AFFINITY PREDICTED BY RF-SCORE:    0.00 PKD
ROOT
HETATM    1  C   UNL     1     -12.947  11.207  71.514  1.00  0.00    -0.542 C  
HETATM    2  C   UNL     1     -12.100  10.100  70.853  1.00  0.00    -0.356 C  
HETATM    3  C   UNL     1     -11.024  10.811  70.016  1.00  0.00    -0.280 C  
ENDROOT
BRANCH   2   4
HETATM    4  N   UNL     1     -11.544   9.191  71.883  1.00  0.00    -0.370 NA 
HETATM    5  C   UNL     1     -12.111   7.818  71.792  1.00  0.00    -0.298 C  
HETATM    6  C   UNL     1     -11.606   6.985  70.594  1.00  0.00    -0.335 C  
HETATM    7  N   UNL     1     -10.137   6.904  70.633  1.00  0.00    -0.194 NA 
HETATM    8  C   UNL     1     -10.061   9.045  71.866  1.00  0.00    -0.253 C  
HETATM    9  C   UNL     1      -9.464   8.210  70.698  1.00  0.00    -0.162 C  
BRANCH   7  10
HETATM   10  C   UNL     1      -9.505   5.804  70.072  1.00  0.00    -0.158 A  
HETATM   11  C   UNL     1      -8.180   5.491  70.377  1.00  0.00    -0.104 A  
HETATM   12  C   UNL     1      -7.471   4.522  69.669  1.00  0.00    -0.051 A  
HETATM   13  C   UNL     1      -8.065   3.824  68.617  1.00  0.00    -0.073 A  
HETATM   14  C   UNL     1     -10.124   5.033  69.077  1.00  0.00    -0.238 A  
HETATM   15  C   UNL     1      -9.413   4.060  68.350  1.00  0.00    -0.211 A  
BRANCH  13  16
HETATM   16  O   UNL     1      -7.405   2.928  67.804  1.00  0.00    -0.053 OA 
BRANCH  16  17
HETATM   17  C   UNL     1      -6.212   3.452  67.210  1.00  0.00    -0.035 C  
BRANCH  17  18
HETATM   18  C   UNL     1      -6.300   4.927  66.837  1.00  0.00    -0.036 C  
HETATM   19  C   UNL     1      -5.217   5.378  65.892  1.00  0.00    -0.012 C  
HETATM   20  O   UNL     1      -5.845   6.388  65.102  1.00  0.00    -0.021 OA 
HETATM   21  C   UNL     1      -7.255   6.057  65.049  1.00  0.00    -0.066 C  
HETATM   22  O   UNL     1      -7.521   5.127  66.115  1.00  0.00    -0.084 OA 
BRANCH  21  23
HETATM   23  C   UNL     1      -8.107   7.306  65.283  1.00  0.00    -0.134 A  
HETATM   24  C   UNL     1      -8.899   7.399  66.450  1.00  0.00    -0.176 A  
HETATM   25  C   UNL     1      -8.144   8.405  64.397  1.00  0.00    -0.158 A  
HETATM   26  C   UNL     1      -9.640   8.545  66.746  1.00  0.00    -0.273 A  
HETATM   27  C   UNL     1      -8.874   9.562  64.704  1.00  0.00    -0.250 A  
HETATM   28 CL   UNL     1      -7.348   8.408  62.860  1.00  0.00    -0.096 Cl 
HETATM   29 CL   UNL     1     -10.483  11.059  66.266  1.00  0.00    -0.307 Cl 
HETATM   30  C   UNL     1      -9.608   9.630  65.881  1.00  0.00    -0.257 A  
ENDBRANCH  21  23
BRANCH  21  31
HETATM   31  C   UNL     1      -7.527   5.333  63.710  1.00  0.00    -0.059 C  
BRANCH  31  32
HETATM   32  N   UNL     1      -8.784   4.624  63.634  1.00  0.00    -0.135 NA 
HETATM   33  C   UNL     1      -9.620   4.298  64.659  1.00  0.00    -0.157 A  
HETATM   34  C   UNL     1     -10.567   3.930  62.829  1.00  0.00    -0.180 A  
HETATM   35  N   UNL     1     -10.752   3.844  64.179  1.00  0.00    -0.266 NA 
HETATM   36  N   UNL     1      -9.378   4.402  62.448  1.00  0.00    -0.126 NA 
ENDBRANCH  31  32
ENDBRANCH  21  31
ENDBRANCH  17  18
ENDBRANCH  16  17
ENDBRANCH  13  16
ENDBRANCH   7  10
ENDBRANCH   2   4
TORSDOF 8
ENDMDL
MODEL      158
REMARK 921   NORMALIZED FREE ENERGY PREDICTED BY IDOCK:   -3.61 KCAL/MOL
REMARK 922        TOTAL FREE ENERGY PREDICTED BY IDOCK:   -6.48 KCAL/MOL
REMARK 923 INTER-LIGAND FREE ENERGY PREDICTED BY IDOCK:   -6.69 KCAL/MOL
REMARK 924 INTRA-LIGAND FREE ENERGY PREDICTED BY IDOCK:    0.21 KCAL/MOL
REMARK 927      BINDING AFFINITY PREDICTED BY RF-SCORE:    0.00 PKD
ROOT
HETATM    1  C   UNL     1      -5.299   3.884  67.658  1.00  0.00    -0.016 C  
HETATM    2  C   UNL     1      -6.379   2.784  67.716  1.00  0.00    -0.032 C  
HETATM    3  C   UNL     1      -5.697   1.475  67.286  1.00  0.00    -0.018 C  
ENDROOT
BRANCH   2   4
HETATM    4  N   UNL     1      -6.980   2.722  69.069  1.00  0.00    -0.044 NA 
HETATM    5  C   UNL     1      -6.579   3.873  69.922  1.00  0.00    -0.033 C  
HETATM    6  C   UNL     1      -7.237   5.219  69.547  1.00  0.00    -0.061 C  
HETATM    7  N   UNL     1      -8.702   5.077  69.578  1.00  0.00    -0.090 NA 
HETATM    8  C   UNL     1      -8.469   2.663  69.100  1.00  0.00    -0.063 C  
HETATM    9  C   UNL     1      -9.218   3.980  68.746  1.00  0.00    -0.151 C  
BRANCH   7  10
HETATM   10  C   UNL     1      -9.483   6.189  69.855  1.00  0.00    -0.152 A  
HETATM   11  C   UNL     1      -8.991   7.255  70.611  1.00  0.00    -0.156 A  
HETATM   12  C   UNL     1      -9.823   8.275  71.071  1.00  0.00    -0.225 A  
HETATM   13  C   UNL     1     -11.190   8.268  70.794  1.00  0.00    -0.264 A  
HETATM   14  C   UNL     1     -10.839   6.237  69.501  1.00  0.00    -0.404 A  
HETATM   15  C   UNL     1     -11.688   7.258  69.970  1.00  0.00    -0.022 A  
BRANCH  13  16
HETATM   16  O   UNL     1     -12.093   9.179  71.296  1.00  0.00    -0.297 OA 
BRANCH  16  17
HETATM   17  C   UNL     1     -11.759  10.543  71.016  1.00  0.00    -0.289 C  
BRANCH  17  18
HETATM   18  C   UNL     1     -11.969  10.948  69.562  1.00  0.00    -0.330 C  
HETATM   19  C   UNL     1     -12.603  12.305  69.398  1.00  0.00     0.498 C  
HETATM   20  O   UNL     1     -12.032  12.810  68.190  1.00  0.00    -0.333 OA 
HETATM   21  C   UNL     1     -10.718  12.210  68.069  1.00  0.00    -0.213 C  
HETATM   22  O   UNL     1     -10.681  11.070  68.948  1.00  0.00    -0.188 OA 
BRANCH  21  23
HETATM   23  C   UNL     1     -10.484  11.719  66.639  1.00  0.00    -0.259 A  
HETATM   24  C   UNL     1     -10.725  12.592  65.556  1.00  0.00    -0.303 A  
HETATM   25  C   UNL     1     -10.017  10.424  66.325  1.00  0.00    -0.226 A  
HETATM   26  C   UNL     1     -10.461  12.218  64.236  1.00  0.00    -0.375 A  
HETATM   27  C   UNL     1      -9.734  10.055  65.002  1.00  0.00    -0.386 A  
HETATM   28 CL   UNL     1      -9.798   9.183  67.510  1.00  0.00    -0.211 Cl 
HETATM   29 CL   UNL     1      -9.578  10.510  62.348  1.00  0.00    -0.236 Cl 
HETATM   30  C   UNL     1      -9.947  10.957  63.967  1.00  0.00    -0.344 A  
ENDBRANCH  21  23
BRANCH  21  31
HETATM   31  C   UNL     1      -9.676  13.234  68.577  1.00  0.00    -0.145 C  
BRANCH  31  32
HETATM   32  N   UNL     1      -9.907  14.603  68.177  1.00  0.00    -0.219 NA 
HETATM   33  C   UNL     1      -9.872  15.120  66.918  1.00  0.00    -0.237 A  
HETATM   34  C   UNL     1     -10.666  16.535  68.241  1.00  0.00    -0.345 A  
HETATM   35  N   UNL     1     -10.334  16.347  66.930  1.00  0.00    -0.297 NA 
HETATM   36  N   UNL     1     -10.422  15.495  69.041  1.00  0.00    -0.220 NA 
ENDBRANCH  31  32
ENDBRANCH  21  31
ENDBRANCH  17  18
ENDBRANCH  16  17
ENDBRANCH  13  16
ENDBRANCH   7  10
ENDBRANCH   2   4
TORSDOF 8
ENDMDL
MODEL      159
REMARK 921   NORMALIZED FREE ENERGY PREDICTED BY IDOCK:   -3.59 KCAL/MOL
REMARK 922        TOTAL FREE ENERGY PREDICTED BY IDOCK:   -6.44 KCAL/MOL
REMARK 923 INTER-LIGAND FREE ENERGY PREDICTED BY IDOCK:   -5.87 KCAL/MOL
REMARK 924 INTRA-LIGAND FREE ENERGY PREDICTED BY IDOCK:   -0.57 KCAL/MOL
REMARK 927      BINDING AFFINITY PREDICTED BY RF-SCORE:    0.00 PKD
ROOT
HETATM    1  C   UNL     1      -5.314   3.976  67.684  1.00  0.00    -0.016 C  
HETATM    2  C   UNL     1      -6.341   2.853  67.934  1.00  0.00    -0.032 C  
HETATM    3  C   UNL     1      -5.647   1.533  67.562  1.00  0.00    -0.018 C  
ENDROOT
BRANCH   2   4
HETATM    4  N   UNL     1      -6.822   2.895  69.335  1.00  0.00    -0.037 NA 
HETATM    5  C   UNL     1      -6.348   4.104  70.062  1.00  0.00    -0.028 C  
HETATM    6  C   UNL     1      -7.037   5.422  69.647  1.00  0.00    -0.063 C  
HETATM    7  N   UNL     1      -8.493   5.293  69.816  1.00  0.00    -0.097 NA 
HETATM    8  C   UNL     1      -8.302   2.848  69.500  1.00  0.00    -0.055 C  
HETATM    9  C   UNL     1      -9.079   4.139  69.116  1.00  0.00    -0.131 C  
BRANCH   7  10
HETATM   10  C   UNL     1      -9.247   6.426  70.076  1.00  0.00    -0.156 A  
HETATM   11  C   UNL     1      -8.687   7.549  70.689  1.00  0.00    -0.141 A  
HETATM   12  C   UNL     1      -9.473   8.606  71.144  1.00  0.00    -0.274 A  
HETATM   13  C   UNL     1     -10.861   8.583  71.004  1.00  0.00    -0.241 A  
HETATM   14  C   UNL     1     -10.632   6.452  69.854  1.00  0.00    -0.298 A  
HETATM   15  C   UNL     1     -11.434   7.511  70.319  1.00  0.00    -0.173 A  
BRANCH  13  16
HETATM   16  O   UNL     1     -11.714   9.536  71.517  1.00  0.00    -0.355 OA 
BRANCH  16  17
HETATM   17  C   UNL     1     -11.548  10.835  70.938  1.00  0.00    -0.137 C  
BRANCH  17  18
HETATM   18  C   UNL     1     -11.636  10.853  69.416  1.00  0.00    -0.316 C  
HETATM   19  C   UNL     1     -12.495  11.965  68.873  1.00  0.00     0.494 C  
HETATM   20  O   UNL     1     -11.877  12.305  67.631  1.00  0.00    -0.434 OA 
HETATM   21  C   UNL     1     -10.467  12.000  67.772  1.00  0.00    -0.203 C  
HETATM   22  O   UNL     1     -10.326  11.119  68.902  1.00  0.00    -0.195 OA 
BRANCH  21  23
HETATM   23  C   UNL     1      -9.950  11.270  66.530  1.00  0.00    -0.247 A  
HETATM   24  C   UNL     1      -9.549   9.919  66.636  1.00  0.00    -0.235 A  
HETATM   25  C   UNL     1      -9.861  11.865  65.254  1.00  0.00    -0.230 A  
HETATM   26  C   UNL     1      -9.135   9.186  65.521  1.00  0.00    -0.275 A  
HETATM   27  C   UNL     1      -9.465  11.124  64.132  1.00  0.00    -0.237 A  
HETATM   28 CL   UNL     1     -10.180  13.542  64.967  1.00  0.00    -0.360 Cl 
HETATM   29 CL   UNL     1      -8.651   8.873  62.889  1.00  0.00    -0.185 Cl 
HETATM   30  C   UNL     1      -9.115   9.786  64.270  1.00  0.00    -0.246 A  
ENDBRANCH  21  23
BRANCH  21  31
HETATM   31  C   UNL     1      -9.724  13.315  68.101  1.00  0.00    -0.227 C  
BRANCH  31  32
HETATM   32  N   UNL     1      -8.283  13.254  68.003  1.00  0.00    -0.150 NA 
HETATM   33  C   UNL     1      -7.455  14.117  67.352  1.00  0.00    -0.134 A  
HETATM   34  C   UNL     1      -6.326  12.809  68.534  1.00  0.00    -0.075 A  
HETATM   35  N   UNL     1      -6.208  13.851  67.659  1.00  0.00    -0.288 NA 
HETATM   36  N   UNL     1      -7.576  12.409  68.774  1.00  0.00    -0.078 NA 
ENDBRANCH  31  32
ENDBRANCH  21  31
ENDBRANCH  17  18
ENDBRANCH  16  17
ENDBRANCH  13  16
ENDBRANCH   7  10
ENDBRANCH   2   4
TORSDOF 8
ENDMDL
MODEL      160
REMARK 921   NORMALIZED FREE ENERGY PREDICTED BY IDOCK:   -3.56 KCAL/MOL
REMARK 922        TOTAL FREE ENERGY PREDICTED BY IDOCK:   -6.40 KCAL/MOL
REMARK 923 INTER-LIGAND FREE ENERGY PREDICTED BY IDOCK:   -6.50 KCAL/MOL
REMARK 924 INTRA-LIGAND FREE ENERGY PREDICTED BY IDOCK:    0.11 KCAL/MOL
REMARK 927      BINDING AFFINITY PREDICTED BY RF-SCORE:    0.00 PKD
ROOT
HETATM    1  C   UNL     1     -12.600  12.531  64.874  1.00  0.00    -0.469 C  
HETATM    2  C   UNL     1     -11.801  13.798  65.240  1.00  0.00    -0.352 C  
HETATM    3  C   UNL     1     -12.197  14.165  66.680  1.00  0.00    -0.450 C  
ENDROOT
BRANCH   2   4
HETATM    4  N   UNL     1     -10.348  13.560  65.068  1.00  0.00    -0.360 NA 
HETATM    5  C   UNL     1      -9.543  14.147  66.172  1.00  0.00    -0.254 C  
HETATM    6  C   UNL     1      -9.640  13.397  67.518  1.00  0.00    -0.221 C  
HETATM    7  N   UNL     1      -9.253  11.990  67.328  1.00  0.00    -0.177 NA 
HETATM    8  C   UNL     1      -9.949  12.128  64.960  1.00  0.00    -0.220 C  
HETATM    9  C   UNL     1     -10.006  11.296  66.273  1.00  0.00    -0.221 C  
BRANCH   7  10
HETATM   10  C   UNL     1      -8.708  11.289  68.393  1.00  0.00    -0.159 A  
HETATM   11  C   UNL     1      -7.334  11.285  68.637  1.00  0.00    -0.109 A  
HETATM   12  C   UNL     1      -6.755  10.424  69.568  1.00  0.00    -0.081 A  
HETATM   13  C   UNL     1      -7.533   9.525  70.296  1.00  0.00    -0.143 A  
HETATM   14  C   UNL     1      -9.495  10.449  69.195  1.00  0.00    -0.220 A  
HETATM   15  C   UNL     1      -8.917   9.569  70.131  1.00  0.00    -0.269 A  
BRANCH  13  16
HETATM   16  O   UNL     1      -7.028   8.573  71.156  1.00  0.00    -0.056 OA 
BRANCH  16  17
HETATM   17  C   UNL     1      -7.820   7.383  71.235  1.00  0.00    -0.095 C  
BRANCH  17  18
HETATM   18  C   UNL     1      -7.475   6.337  70.181  1.00  0.00    -0.094 C  
HETATM   19  C   UNL     1      -7.133   4.988  70.757  1.00  0.00    -0.056 C  
HETATM   20  O   UNL     1      -7.601   4.063  69.775  1.00  0.00    -0.052 OA 
HETATM   21  C   UNL     1      -8.718   4.699  69.105  1.00  0.00    -0.087 C  
HETATM   22  O   UNL     1      -8.646   6.109  69.388  1.00  0.00    -0.121 OA 
BRANCH  21  23
HETATM   23  C   UNL     1      -8.612   4.510  67.590  1.00  0.00    -0.106 A  
HETATM   24  C   UNL     1      -9.756   4.122  66.857  1.00  0.00    -0.232 A  
HETATM   25  C   UNL     1      -7.423   4.717  66.858  1.00  0.00    -0.086 A  
HETATM   26  C   UNL     1      -9.732   4.003  65.466  1.00  0.00    -0.194 A  
HETATM   27  C   UNL     1      -7.405   4.616  65.460  1.00  0.00    -0.076 A  
HETATM   28 CL   UNL     1      -5.900   5.060  67.604  1.00  0.00    -0.021 Cl 
HETATM   29 CL   UNL     1      -8.540   4.171  63.054  1.00  0.00    -0.093 Cl 
HETATM   30  C   UNL     1      -8.560   4.271  64.771  1.00  0.00    -0.127 A  
ENDBRANCH  21  23
BRANCH  21  31
HETATM   31  C   UNL     1     -10.024   4.157  69.732  1.00  0.00    -0.030 C  
BRANCH  31  32
HETATM   32  N   UNL     1     -10.726   5.079  70.596  1.00  0.00    -0.077 NA 
HETATM   33  C   UNL     1     -10.642   5.179  71.951  1.00  0.00    -0.188 A  
HETATM   34  C   UNL     1     -11.702   6.814  71.186  1.00  0.00    -0.345 A  
HETATM   35  N   UNL     1     -11.262   6.262  72.354  1.00  0.00    -0.267 NA 
HETATM   36  N   UNL     1     -11.397   6.125  70.084  1.00  0.00    -0.393 NA 
ENDBRANCH  31  32
ENDBRANCH  21  31
ENDBRANCH  17  18
ENDBRANCH  16  17
ENDBRANCH  13  16
ENDBRANCH   7  10
ENDBRANCH   2   4
TORSDOF 8
ENDMDL
MODEL      161
REMARK 921   NORMALIZED FREE ENERGY PREDICTED BY IDOCK:   -3.52 KCAL/MOL
REMARK 922        TOTAL FREE ENERGY PREDICTED BY IDOCK:   -6.33 KCAL/MOL
REMARK 923 INTER-LIGAND FREE ENERGY PREDICTED BY IDOCK:   -5.93 KCAL/MOL
REMARK 924 INTRA-LIGAND FREE ENERGY PREDICTED BY IDOCK:   -0.41 KCAL/MOL
REMARK 927      BINDING AFFINITY PREDICTED BY RF-SCORE:    0.00 PKD
ROOT
HETATM    1  C   UNL     1     -10.779  13.303  68.531  1.00  0.00    -0.280 C  
HETATM    2  C   UNL     1     -11.523  12.608  67.373  1.00  0.00    -0.337 C  
HETATM    3  C   UNL     1     -10.558  12.594  66.177  1.00  0.00    -0.280 C  
ENDROOT
BRANCH   2   4
HETATM    4  N   UNL     1     -11.975  11.258  67.786  1.00  0.00    -0.635 NA 
HETATM    5  C   UNL     1     -10.985  10.201  67.445  1.00  0.00    -0.229 C  
HETATM    6  C   UNL     1      -9.717  10.190  68.326  1.00  0.00    -0.141 C  
HETATM    7  N   UNL     1     -10.100  10.061  69.741  1.00  0.00    -0.239 NA 
HETATM    8  C   UNL     1     -12.282  11.108  69.236  1.00  0.00    -0.226 C  
HETATM    9  C   UNL     1     -11.061  11.076  70.199  1.00  0.00    -0.097 C  
BRANCH   7  10
HETATM   10  C   UNL     1      -9.218   9.464  70.628  1.00  0.00    -0.242 A  
HETATM   11  C   UNL     1      -7.849   9.401  70.363  1.00  0.00    -0.179 A  
HETATM   12  C   UNL     1      -6.985   8.626  71.136  1.00  0.00    -0.078 A  
HETATM   13  C   UNL     1      -7.460   7.877  72.212  1.00  0.00    -0.090 A  
HETATM   14  C   UNL     1      -9.673   8.784  71.767  1.00  0.00    -0.380 A  
HETATM   15  C   UNL     1      -8.809   7.991  72.548  1.00  0.00    -0.237 A  
BRANCH  13  16
HETATM   16  O   UNL     1      -6.693   7.009  72.959  1.00  0.00    -0.068 OA 
BRANCH  16  17
HETATM   17  C   UNL     1      -7.071   5.634  72.822  1.00  0.00    -0.089 C  
BRANCH  17  18
HETATM   18  C   UNL     1      -6.863   5.070  71.420  1.00  0.00    -0.044 C  
HETATM   19  C   UNL     1      -6.681   3.576  71.391  1.00  0.00    -0.030 C  
HETATM   20  O   UNL     1      -7.265   3.179  70.150  1.00  0.00    -0.040 OA 
HETATM   21  C   UNL     1      -8.303   4.146  69.853  1.00  0.00    -0.061 C  
HETATM   22  O   UNL     1      -8.060   5.307  70.669  1.00  0.00    -0.103 OA 
BRANCH  21  23
HETATM   23  C   UNL     1      -8.234   4.572  68.385  1.00  0.00    -0.086 A  
HETATM   24  C   UNL     1      -7.289   3.963  67.529  1.00  0.00    -0.067 A  
HETATM   25  C   UNL     1      -9.081   5.544  67.812  1.00  0.00    -0.107 A  
HETATM   26  C   UNL     1      -7.229   4.265  66.166  1.00  0.00    -0.075 A  
HETATM   27  C   UNL     1      -9.034   5.832  66.441  1.00  0.00    -0.139 A  
HETATM   28 CL   UNL     1     -10.201   6.486  68.736  1.00  0.00    -0.175 Cl 
HETATM   29 CL   UNL     1      -8.077   5.522  63.939  1.00  0.00    -0.120 Cl 
HETATM   30  C   UNL     1      -8.117   5.183  65.624  1.00  0.00    -0.115 A  
ENDBRANCH  21  23
BRANCH  21  31
HETATM   31  C   UNL     1      -9.659   3.540  70.284  1.00  0.00    -0.162 C  
BRANCH  31  32
HETATM   32  N   UNL     1     -10.210   4.066  71.512  1.00  0.00    -0.084 NA 
HETATM   33  C   UNL     1     -11.022   5.149  71.664  1.00  0.00     0.020 A  
HETATM   34  C   UNL     1     -10.926   4.080  73.461  1.00  0.00    -0.265 A  
HETATM   35  N   UNL     1     -11.480   5.190  72.892  1.00  0.00    -0.292 NA 
HETATM   36  N   UNL     1     -10.141   3.361  72.655  1.00  0.00    -0.156 NA 
ENDBRANCH  31  32
ENDBRANCH  21  31
ENDBRANCH  17  18
ENDBRANCH  16  17
ENDBRANCH  13  16
ENDBRANCH   7  10
ENDBRANCH   2   4
TORSDOF 8
ENDMDL
MODEL      162
REMARK 921   NORMALIZED FREE ENERGY PREDICTED BY IDOCK:   -3.39 KCAL/MOL
REMARK 922        TOTAL FREE ENERGY PREDICTED BY IDOCK:   -6.15 KCAL/MOL
REMARK 923 INTER-LIGAND FREE ENERGY PREDICTED BY IDOCK:   -6.63 KCAL/MOL
REMARK 924 INTRA-LIGAND FREE ENERGY PREDICTED BY IDOCK:    0.48 KCAL/MOL
REMARK 927      BINDING AFFINITY PREDICTED BY RF-SCORE:    0.00 PKD
ROOT
HETATM    1  C   UNL     1     -10.348  20.209  69.014  1.00  0.00    -0.135 C  
HETATM    2  C   UNL     1      -9.127  20.127  68.076  1.00  0.00    -0.197 C  
HETATM    3  C   UNL     1      -8.063  19.295  68.812  1.00  0.00    -0.391 C  
ENDROOT
BRANCH   2   4
HETATM    4  N   UNL     1      -9.520  19.558  66.765  1.00  0.00    -0.333 NA 
HETATM    5  C   UNL     1      -8.401  18.835  66.102  1.00  0.00    -0.176 C  
HETATM    6  C   UNL     1      -8.042  17.473  66.735  1.00  0.00    -0.244 C  
HETATM    7  N   UNL     1      -9.234  16.610  66.757  1.00  0.00    -0.227 NA 
HETATM    8  C   UNL     1     -10.675  18.618  66.802  1.00  0.00    -0.280 C  
HETATM    9  C   UNL     1     -10.403  17.214  67.414  1.00  0.00    -0.333 C  
BRANCH   7  10
HETATM   10  C   UNL     1      -9.073  15.234  66.715  1.00  0.00    -0.256 A  
HETATM   11  C   UNL     1      -9.861  14.432  65.887  1.00  0.00    -0.336 A  
HETATM   12  C   UNL     1      -9.856  13.042  65.989  1.00  0.00    -0.259 A  
HETATM   13  C   UNL     1      -9.058  12.393  66.930  1.00  0.00    -0.211 A  
HETATM   14  C   UNL     1      -8.204  14.571  67.594  1.00  0.00    -0.187 A  
HETATM   15  C   UNL     1      -8.199  13.168  67.710  1.00  0.00    -0.168 A  
BRANCH  13  16
HETATM   16  O   UNL     1      -9.072  11.034  67.163  1.00  0.00    -0.145 OA 
BRANCH  16  17
HETATM   17  C   UNL     1     -10.371  10.441  67.064  1.00  0.00    -0.240 C  
BRANCH  17  18
HETATM   18  C   UNL     1     -10.567   9.221  67.957  1.00  0.00    -0.208 C  
HETATM   19  C   UNL     1     -10.836   7.951  67.194  1.00  0.00    -0.116 C  
HETATM   20  O   UNL     1     -10.237   6.932  67.995  1.00  0.00    -0.158 OA 
HETATM   21  C   UNL     1      -9.135   7.554  68.702  1.00  0.00    -0.134 C  
HETATM   22  O   UNL     1      -9.335   8.979  68.647  1.00  0.00    -0.137 OA 
BRANCH  21  23
HETATM   23  C   UNL     1      -9.133   7.129  70.172  1.00  0.00    -0.152 A  
HETATM   24  C   UNL     1      -9.514   8.059  71.164  1.00  0.00    -0.181 A  
HETATM   25  C   UNL     1      -8.781   5.834  70.610  1.00  0.00    -0.136 A  
HETATM   26  C   UNL     1      -9.596   7.703  72.513  1.00  0.00    -0.230 A  
HETATM   27  C   UNL     1      -8.882   5.472  71.961  1.00  0.00    -0.137 A  
HETATM   28 CL   UNL     1      -8.161   4.613  69.553  1.00  0.00    -0.068 Cl 
HETATM   29 CL   UNL     1      -9.445   5.951  74.555  1.00  0.00    -0.156 Cl 
HETATM   30  C   UNL     1      -9.300   6.404  72.902  1.00  0.00    -0.136 A  
ENDBRANCH  21  23
BRANCH  21  31
HETATM   31  C   UNL     1      -7.831   7.230  67.936  1.00  0.00    -0.118 C  
BRANCH  31  32
HETATM   32  N   UNL     1      -7.575   8.052  66.775  1.00  0.00    -0.093 NA 
HETATM   33  C   UNL     1      -6.615   9.007  66.626  1.00  0.00    -0.068 A  
HETATM   34  C   UNL     1      -7.509   8.609  64.776  1.00  0.00    -0.097 A  
HETATM   35  N   UNL     1      -6.560   9.387  65.373  1.00  0.00    -0.069 NA 
HETATM   36  N   UNL     1      -8.156   7.776  65.595  1.00  0.00    -0.121 NA 
ENDBRANCH  31  32
ENDBRANCH  21  31
ENDBRANCH  17  18
ENDBRANCH  16  17
ENDBRANCH  13  16
ENDBRANCH   7  10
ENDBRANCH   2   4
TORSDOF 8
ENDMDL
MODEL      163
REMARK 921   NORMALIZED FREE ENERGY PREDICTED BY IDOCK:   -3.39 KCAL/MOL
REMARK 922        TOTAL FREE ENERGY PREDICTED BY IDOCK:   -6.15 KCAL/MOL
REMARK 923 INTER-LIGAND FREE ENERGY PREDICTED BY IDOCK:   -6.11 KCAL/MOL
REMARK 924 INTRA-LIGAND FREE ENERGY PREDICTED BY IDOCK:   -0.05 KCAL/MOL
REMARK 927      BINDING AFFINITY PREDICTED BY RF-SCORE:    0.00 PKD
ROOT
HETATM    1  C   UNL     1     -10.783  18.087  67.325  1.00  0.00    -0.305 C  
HETATM    2  C   UNL     1     -10.450  16.661  67.810  1.00  0.00    -0.316 C  
HETATM    3  C   UNL     1     -10.404  16.720  69.346  1.00  0.00    -0.276 C  
ENDROOT
BRANCH   2   4
HETATM    4  N   UNL     1     -11.439  15.692  67.284  1.00  0.00    -0.127 NA 
HETATM    5  C   UNL     1     -11.153  15.295  65.879  1.00  0.00    -0.287 C  
HETATM    6  C   UNL     1      -9.941  14.354  65.704  1.00  0.00    -0.337 C  
HETATM    7  N   UNL     1     -10.132  13.146  66.522  1.00  0.00    -0.273 NA 
HETATM    8  C   UNL     1     -11.571  14.431  68.068  1.00  0.00    -0.327 C  
HETATM    9  C   UNL     1     -10.398  13.417  67.943  1.00  0.00    -0.238 C  
BRANCH   7  10
HETATM   10  C   UNL     1      -9.538  11.959  66.122  1.00  0.00    -0.234 A  
HETATM   11  C   UNL     1     -10.278  10.941  65.518  1.00  0.00    -0.332 A  
HETATM   12  C   UNL     1      -9.744   9.671  65.304  1.00  0.00    -0.330 A  
HETATM   13  C   UNL     1      -8.439   9.366  65.690  1.00  0.00    -0.136 A  
HETATM   14  C   UNL     1      -8.198  11.673  66.422  1.00  0.00    -0.052 A  
HETATM   15  C   UNL     1      -7.654  10.390  66.218  1.00  0.00    -0.127 A  
BRANCH  13  16
HETATM   16  O   UNL     1      -7.873   8.112  65.608  1.00  0.00    -0.089 OA 
BRANCH  16  17
HETATM   17  C   UNL     1      -8.823   7.041  65.660  1.00  0.00    -0.012 C  
BRANCH  17  18
HETATM   18  C   UNL     1      -9.601   6.963  66.969  1.00  0.00    -0.158 C  
HETATM   19  C   UNL     1     -10.964   6.340  66.826  1.00  0.00    -0.255 C  
HETATM   20  O   UNL     1     -11.171   5.670  68.069  1.00  0.00     0.076 OA 
HETATM   21  C   UNL     1      -9.861   5.297  68.563  1.00  0.00    -0.152 C  
HETATM   22  O   UNL     1      -8.890   6.087  67.852  1.00  0.00    -0.112 OA 
BRANCH  21  23
HETATM   23  C   UNL     1      -9.738   5.620  70.054  1.00  0.00    -0.227 A  
HETATM   24  C   UNL     1     -10.745   5.184  70.944  1.00  0.00    -0.128 A  
HETATM   25  C   UNL     1      -8.653   6.328  70.614  1.00  0.00    -0.139 A  
HETATM   26  C   UNL     1     -10.648   5.391  72.322  1.00  0.00    -0.280 A  
HETATM   27  C   UNL     1      -8.547   6.519  71.999  1.00  0.00    -0.125 A  
HETATM   28 CL   UNL     1      -7.403   7.052  69.662  1.00  0.00    -0.083 Cl 
HETATM   29 CL   UNL     1      -9.394   6.255  74.546  1.00  0.00    -0.191 Cl 
HETATM   30  C   UNL     1      -9.538   6.040  72.845  1.00  0.00    -0.154 A  
ENDBRANCH  21  23
BRANCH  21  31
HETATM   31  C   UNL     1      -9.618   3.813  68.204  1.00  0.00    -0.113 C  
BRANCH  31  32
HETATM   32  N   UNL     1      -8.249   3.466  67.896  1.00  0.00    -0.079 NA 
HETATM   33  C   UNL     1      -7.148   3.644  68.679  1.00  0.00    -0.050 A  
HETATM   34  C   UNL     1      -6.659   2.448  67.033  1.00  0.00    -0.039 A  
HETATM   35  N   UNL     1      -6.124   3.021  68.150  1.00  0.00    -0.024 NA 
HETATM   36  N   UNL     1      -7.956   2.693  66.836  1.00  0.00    -0.075 NA 
ENDBRANCH  31  32
ENDBRANCH  21  31
ENDBRANCH  17  18
ENDBRANCH  16  17
ENDBRANCH  13  16
ENDBRANCH   7  10
ENDBRANCH   2   4
TORSDOF 8
ENDMDL
MODEL      164
REMARK 921   NORMALIZED FREE ENERGY PREDICTED BY IDOCK:   -3.34 KCAL/MOL
REMARK 922        TOTAL FREE ENERGY PREDICTED BY IDOCK:   -6.08 KCAL/MOL
REMARK 923 INTER-LIGAND FREE ENERGY PREDICTED BY IDOCK:   -7.80 KCAL/MOL
REMARK 924 INTRA-LIGAND FREE ENERGY PREDICTED BY IDOCK:    1.72 KCAL/MOL
REMARK 927      BINDING AFFINITY PREDICTED BY RF-SCORE:    0.00 PKD
ROOT
HETATM    1  C   UNL     1      -7.791  18.903  66.050  1.00  0.00    -0.214 C  
HETATM    2  C   UNL     1      -8.700  19.815  66.899  1.00  0.00    -0.331 C  
HETATM    3  C   UNL     1     -10.011  19.982  66.114  1.00  0.00    -0.580 C  
ENDROOT
BRANCH   2   4
HETATM    4  N   UNL     1      -8.889  19.239  68.252  1.00  0.00    -0.325 NA 
HETATM    5  C   UNL     1     -10.278  18.753  68.471  1.00  0.00    -0.344 C  
HETATM    6  C   UNL     1     -10.637  17.451  67.723  1.00  0.00    -0.371 C  
HETATM    7  N   UNL     1      -9.685  16.390  68.093  1.00  0.00    -0.225 NA 
HETATM    8  C   UNL     1      -7.980  18.109  68.593  1.00  0.00    -0.288 C  
HETATM    9  C   UNL     1      -8.274  16.752  67.892  1.00  0.00    -0.187 C  
BRANCH   7  10
HETATM   10  C   UNL     1     -10.096  15.067  68.044  1.00  0.00    -0.223 A  
HETATM   11  C   UNL     1      -9.755  14.237  66.975  1.00  0.00    -0.253 A  
HETATM   12  C   UNL     1     -10.330  12.978  66.809  1.00  0.00    -0.256 A  
HETATM   13  C   UNL     1     -11.277  12.496  67.712  1.00  0.00    -0.269 A  
HETATM   14  C   UNL     1     -10.978  14.539  68.999  1.00  0.00    -0.272 A  
HETATM   15  C   UNL     1     -11.570  13.272  68.833  1.00  0.00    -0.357 A  
BRANCH  13  16
HETATM   16  O   UNL     1     -11.965  11.311  67.564  1.00  0.00    -0.612 OA 
BRANCH  16  17
HETATM   17  C   UNL     1     -11.469  10.245  68.382  1.00  0.00    -0.091 C  
BRANCH  17  18
HETATM   18  C   UNL     1     -10.789   9.127  67.600  1.00  0.00    -0.089 C  
HETATM   19  C   UNL     1     -10.004   9.613  66.410  1.00  0.00    -0.255 C  
HETATM   20  O   UNL     1      -8.914   8.696  66.315  1.00  0.00    -0.151 OA 
HETATM   21  C   UNL     1      -8.653   8.221  67.659  1.00  0.00    -0.130 C  
HETATM   22  O   UNL     1      -9.814   8.520  68.456  1.00  0.00    -0.164 OA 
BRANCH  21  23
HETATM   23  C   UNL     1      -8.450   6.705  67.662  1.00  0.00    -0.121 A  
HETATM   24  C   UNL     1      -7.163   6.176  67.908  1.00  0.00    -0.083 A  
HETATM   25  C   UNL     1      -9.492   5.777  67.445  1.00  0.00    -0.112 A  
HETATM   26  C   UNL     1      -6.937   4.800  67.990  1.00  0.00    -0.061 A  
HETATM   27  C   UNL     1      -9.267   4.396  67.547  1.00  0.00    -0.164 A  
HETATM   28 CL   UNL     1     -11.097   6.242  66.997  1.00  0.00    -0.430 Cl 
HETATM   29 CL   UNL     1      -7.727   2.224  67.977  1.00  0.00    -0.055 Cl 
HETATM   30  C   UNL     1      -7.995   3.917  67.830  1.00  0.00    -0.089 A  
ENDBRANCH  21  23
BRANCH  21  31
HETATM   31  C   UNL     1      -7.466   9.031  68.231  1.00  0.00    -0.083 C  
BRANCH  31  32
HETATM   32  N   UNL     1      -7.303   8.962  69.665  1.00  0.00    -0.055 NA 
HETATM   33  C   UNL     1      -6.331   9.544  70.422  1.00  0.00    -0.073 A  
HETATM   34  C   UNL     1      -7.830   8.773  71.664  1.00  0.00    -0.076 A  
HETATM   35  N   UNL     1      -6.632   9.428  71.693  1.00  0.00    -0.300 NA 
HETATM   36  N   UNL     1      -8.279   8.467  70.445  1.00  0.00    -0.110 NA 
ENDBRANCH  31  32
ENDBRANCH  21  31
ENDBRANCH  17  18
ENDBRANCH  16  17
ENDBRANCH  13  16
ENDBRANCH   7  10
ENDBRANCH   2   4
TORSDOF 8
ENDMDL
MODEL      165
REMARK 921   NORMALIZED FREE ENERGY PREDICTED BY IDOCK:   -3.34 KCAL/MOL
REMARK 922        TOTAL FREE ENERGY PREDICTED BY IDOCK:   -6.07 KCAL/MOL
REMARK 923 INTER-LIGAND FREE ENERGY PREDICTED BY IDOCK:   -6.80 KCAL/MOL
REMARK 924 INTRA-LIGAND FREE ENERGY PREDICTED BY IDOCK:    0.73 KCAL/MOL
REMARK 927      BINDING AFFINITY PREDICTED BY RF-SCORE:    0.00 PKD
ROOT
HETATM    1  C   UNL     1      -8.828  19.650  68.171  1.00  0.00    -0.370 C  
HETATM    2  C   UNL     1      -8.556  18.672  67.011  1.00  0.00    -0.276 C  
HETATM    3  C   UNL     1      -7.548  17.637  67.536  1.00  0.00    -0.210 C  
ENDROOT
BRANCH   2   4
HETATM    4  N   UNL     1      -9.825  18.073  66.533  1.00  0.00    -0.336 NA 
HETATM    5  C   UNL     1      -9.635  16.700  65.992  1.00  0.00    -0.266 C  
HETATM    6  C   UNL     1      -9.369  15.613  67.056  1.00  0.00    -0.226 C  
HETATM    7  N   UNL     1     -10.467  15.603  68.036  1.00  0.00    -0.257 NA 
HETATM    8  C   UNL     1     -10.909  17.987  67.551  1.00  0.00    -0.234 C  
HETATM    9  C   UNL     1     -10.730  16.909  68.659  1.00  0.00    -0.345 C  
BRANCH   7  10
HETATM   10  C   UNL     1     -10.771  14.424  68.699  1.00  0.00    -0.253 A  
HETATM   11  C   UNL     1     -10.201  13.207  68.319  1.00  0.00    -0.250 A  
HETATM   12  C   UNL     1     -10.651  11.992  68.834  1.00  0.00    -0.192 A  
HETATM   13  C   UNL     1     -11.698  11.946  69.754  1.00  0.00    -0.331 A  
HETATM   14  C   UNL     1     -11.759  14.377  69.694  1.00  0.00    -0.362 A  
HETATM   15  C   UNL     1     -12.226  13.153  70.211  1.00  0.00    -0.376 A  
BRANCH  13  16
HETATM   16  O   UNL     1     -12.268  10.785  70.231  1.00  0.00    -0.297 OA 
BRANCH  16  17
HETATM   17  C   UNL     1     -11.354   9.933  70.931  1.00  0.00    -0.370 C  
BRANCH  17  18
HETATM   18  C   UNL     1     -10.851   8.752  70.108  1.00  0.00    -0.227 C  
HETATM   19  C   UNL     1     -11.404   8.712  68.708  1.00  0.00     0.664 C  
HETATM   20  O   UNL     1     -10.349   8.140  67.935  1.00  0.00    -0.210 OA 
HETATM   21  C   UNL     1      -9.110   8.498  68.596  1.00  0.00    -0.139 C  
HETATM   22  O   UNL     1      -9.437   8.903  69.938  1.00  0.00    -0.161 OA 
BRANCH  21  23
HETATM   23  C   UNL     1      -8.178   7.287  68.678  1.00  0.00    -0.125 A  
HETATM   24  C   UNL     1      -6.779   7.485  68.670  1.00  0.00    -0.054 A  
HETATM   25  C   UNL     1      -8.634   5.955  68.779  1.00  0.00    -0.110 A  
HETATM   26  C   UNL     1      -5.885   6.421  68.812  1.00  0.00    -0.020 A  
HETATM   27  C   UNL     1      -7.737   4.890  68.941  1.00  0.00    -0.073 A  
HETATM   28 CL   UNL     1     -10.304   5.515  68.668  1.00  0.00    -0.259 Cl 
HETATM   29 CL   UNL     1      -5.271   3.824  69.190  1.00  0.00    -0.011 Cl 
HETATM   30  C   UNL     1      -6.369   5.130  68.968  1.00  0.00    -0.031 A  
ENDBRANCH  21  23
BRANCH  21  31
HETATM   31  C   UNL     1      -8.512   9.722  67.864  1.00  0.00    -0.125 C  
BRANCH  31  32
HETATM   32  N   UNL     1      -8.789   9.793  66.448  1.00  0.00    -0.144 NA 
HETATM   33  C   UNL     1      -8.242   9.040  65.453  1.00  0.00    -0.130 A  
HETATM   34  C   UNL     1      -9.857  10.139  64.701  1.00  0.00    -0.291 A  
HETATM   35  N   UNL     1      -8.890   9.249  64.333  1.00  0.00    -0.191 NA 
HETATM   36  N   UNL     1      -9.835  10.501  65.986  1.00  0.00    -0.211 NA 
ENDBRANCH  31  32
ENDBRANCH  21  31
ENDBRANCH  17  18
ENDBRANCH  16  17
ENDBRANCH  13  16
ENDBRANCH   7  10
ENDBRANCH   2   4
TORSDOF 8
ENDMDL
MODEL      166
REMARK 921   NORMALIZED FREE ENERGY PREDICTED BY IDOCK:   -3.30 KCAL/MOL
REMARK 922        TOTAL FREE ENERGY PREDICTED BY IDOCK:   -6.01 KCAL/MOL
REMARK 923 INTER-LIGAND FREE ENERGY PREDICTED BY IDOCK:   -6.37 KCAL/MOL
REMARK 924 INTRA-LIGAND FREE ENERGY PREDICTED BY IDOCK:    0.36 KCAL/MOL
REMARK 927      BINDING AFFINITY PREDICTED BY RF-SCORE:    0.00 PKD
ROOT
HETATM    1  C   UNL     1     -11.907  15.364  65.930  1.00  0.00     0.319 C  
HETATM    2  C   UNL     1     -10.960  14.715  64.901  1.00  0.00    -0.407 C  
HETATM    3  C   UNL     1      -9.610  14.518  65.609  1.00  0.00    -0.189 C  
ENDROOT
BRANCH   2   4
HETATM    4  N   UNL     1     -11.545  13.457  64.381  1.00  0.00    -0.368 NA 
HETATM    5  C   UNL     1     -10.525  12.573  63.756  1.00  0.00    -0.419 C  
HETATM    6  C   UNL     1      -9.573  11.874  64.750  1.00  0.00    -0.041 C  
HETATM    7  N   UNL     1     -10.358  11.098  65.724  1.00  0.00    -0.254 NA 
HETATM    8  C   UNL     1     -12.269  12.631  65.388  1.00  0.00    -0.459 C  
HETATM    9  C   UNL     1     -11.386  11.880  66.427  1.00  0.00    -0.339 C  
BRANCH   7  10
HETATM   10  C   UNL     1      -9.791   9.978  66.310  1.00  0.00    -0.236 A  
HETATM   11  C   UNL     1      -9.588   9.900  67.689  1.00  0.00    -0.172 A  
HETATM   12  C   UNL     1      -8.833   8.879  68.265  1.00  0.00    -0.134 A  
HETATM   13  C   UNL     1      -8.246   7.888  67.479  1.00  0.00    -0.124 A  
HETATM   14  C   UNL     1      -9.277   8.927  65.535  1.00  0.00    -0.242 A  
HETATM   15  C   UNL     1      -8.505   7.897  66.108  1.00  0.00    -0.139 A  
BRANCH  13  16
HETATM   16  O   UNL     1      -7.405   6.908  67.958  1.00  0.00    -0.092 OA 
BRANCH  16  17
HETATM   17  C   UNL     1      -6.532   7.351  69.003  1.00  0.00    -0.040 C  
BRANCH  17  18
HETATM   18  C   UNL     1      -6.722   6.615  70.325  1.00  0.00    -0.053 C  
HETATM   19  C   UNL     1      -6.259   7.399  71.525  1.00  0.00    -0.036 C  
HETATM   20  O   UNL     1      -7.150   6.998  72.566  1.00  0.00    -0.069 OA 
HETATM   21  C   UNL     1      -8.401   6.641  71.927  1.00  0.00    -0.114 C  
HETATM   22  O   UNL     1      -8.129   6.433  70.529  1.00  0.00    -0.113 OA 
BRANCH  21  23
HETATM   23  C   UNL     1      -8.944   5.333  72.507  1.00  0.00    -0.134 A  
HETATM   24  C   UNL     1      -8.827   5.086  73.893  1.00  0.00    -0.114 A  
HETATM   25  C   UNL     1      -9.583   4.341  71.732  1.00  0.00    -0.154 A  
HETATM   26  C   UNL     1      -9.367   3.941  74.483  1.00  0.00    -0.124 A  
HETATM   27  C   UNL     1     -10.141   3.201  72.329  1.00  0.00    -0.216 A  
HETATM   28 CL   UNL     1      -9.693   4.412  70.007  1.00  0.00    -0.274 Cl 
HETATM   29 CL   UNL     1     -10.746   1.626  74.433  1.00  0.00    -0.175 Cl 
HETATM   30  C   UNL     1     -10.040   3.014  73.701  1.00  0.00    -0.115 A  
ENDBRANCH  21  23
BRANCH  21  31
HETATM   31  C   UNL     1      -9.362   7.847  72.047  1.00  0.00    -0.162 C  
BRANCH  31  32
HETATM   32  N   UNL     1     -10.733   7.586  71.671  1.00  0.00    -0.213 NA 
HETATM   33  C   UNL     1     -11.244   7.470  70.414  1.00  0.00    -0.253 A  
HETATM   34  C   UNL     1     -12.675   6.868  71.818  1.00  0.00    -0.327 A  
HETATM   35  N   UNL     1     -12.477   7.029  70.477  1.00  0.00    -0.154 NA 
HETATM   36  N   UNL     1     -11.635   7.196  72.588  1.00  0.00    -0.233 NA 
ENDBRANCH  31  32
ENDBRANCH  21  31
ENDBRANCH  17  18
ENDBRANCH  16  17
ENDBRANCH  13  16
ENDBRANCH   7  10
ENDBRANCH   2   4
TORSDOF 8
ENDMDL
MODEL      167
REMARK 921   NORMALIZED FREE ENERGY PREDICTED BY IDOCK:   -3.26 KCAL/MOL
REMARK 922        TOTAL FREE ENERGY PREDICTED BY IDOCK:   -5.96 KCAL/MOL
REMARK 923 INTER-LIGAND FREE ENERGY PREDICTED BY IDOCK:   -5.32 KCAL/MOL
REMARK 924 INTRA-LIGAND FREE ENERGY PREDICTED BY IDOCK:   -0.64 KCAL/MOL
REMARK 927      BINDING AFFINITY PREDICTED BY RF-SCORE:    0.00 PKD
ROOT
HETATM    1  C   UNL     1      -6.722  20.662  64.524  1.00  0.00    -0.169 C  
HETATM    2  C   UNL     1      -6.737  19.399  65.409  1.00  0.00    -0.269 C  
HETATM    3  C   UNL     1      -5.270  18.996  65.625  1.00  0.00    -0.185 C  
ENDROOT
BRANCH   2   4
HETATM    4  N   UNL     1      -7.471  19.661  66.670  1.00  0.00    -0.242 NA 
HETATM    5  C   UNL     1      -8.916  19.318  66.567  1.00  0.00    -0.346 C  
HETATM    6  C   UNL     1      -9.225  17.806  66.546  1.00  0.00    -0.265 C  
HETATM    7  N   UNL     1      -8.658  17.170  67.746  1.00  0.00    -0.213 NA 
HETATM    8  C   UNL     1      -6.946  18.949  67.869  1.00  0.00    -0.229 C  
HETATM    9  C   UNL     1      -7.221  17.419  67.937  1.00  0.00    -0.188 C  
BRANCH   7  10
HETATM   10  C   UNL     1      -9.255  16.025  68.250  1.00  0.00    -0.191 A  
HETATM   11  C   UNL     1     -10.271  15.366  67.554  1.00  0.00    -0.244 A  
HETATM   12  C   UNL     1     -11.020  14.346  68.138  1.00  0.00    -0.265 A  
HETATM   13  C   UNL     1     -10.782  13.941  69.452  1.00  0.00    -0.015 A  
HETATM   14  C   UNL     1      -8.959  15.550  69.536  1.00  0.00    -0.244 A  
HETATM   15  C   UNL     1      -9.717  14.526  70.137  1.00  0.00     0.878 A  
BRANCH  13  16
HETATM   16  O   UNL     1     -11.542  13.015  70.134  1.00  0.00    -0.204 OA 
BRANCH  16  17
HETATM   17  C   UNL     1     -12.218  12.080  69.286  1.00  0.00    -0.077 C  
BRANCH  17  18
HETATM   18  C   UNL     1     -11.772  10.635  69.476  1.00  0.00    -0.284 C  
HETATM   19  C   UNL     1     -11.172  10.020  68.238  1.00  0.00    -0.132 C  
HETATM   20  O   UNL     1     -10.190   9.115  68.743  1.00  0.00    -0.198 OA 
HETATM   21  C   UNL     1      -9.735   9.659  70.007  1.00  0.00    -0.241 C  
HETATM   22  O   UNL     1     -10.713  10.623  70.440  1.00  0.00    -0.150 OA 
BRANCH  21  23
HETATM   23  C   UNL     1      -9.652   8.557  71.066  1.00  0.00    -0.241 A  
HETATM   24  C   UNL     1      -8.518   8.483  71.904  1.00  0.00    -0.234 A  
HETATM   25  C   UNL     1     -10.666   7.596  71.275  1.00  0.00    -0.228 A  
HETATM   26  C   UNL     1      -8.423   7.540  72.931  1.00  0.00    -0.163 A  
HETATM   27  C   UNL     1     -10.578   6.664  72.318  1.00  0.00    -0.241 A  
HETATM   28 CL   UNL     1     -12.058   7.453  70.258  1.00  0.00     0.013 Cl 
HETATM   29 CL   UNL     1      -9.369   5.518  74.439  1.00  0.00    -0.128 Cl 
HETATM   30  C   UNL     1      -9.463   6.648  73.146  1.00  0.00    -0.143 A  
ENDBRANCH  21  23
BRANCH  21  31
HETATM   31  C   UNL     1      -8.408  10.411  69.756  1.00  0.00     0.003 C  
BRANCH  31  32
HETATM   32  N   UNL     1      -7.803  10.184  68.463  1.00  0.00    -0.092 NA 
HETATM   33  C   UNL     1      -7.212   9.044  68.009  1.00  0.00    -0.080 A  
HETATM   34  C   UNL     1      -7.455  10.393  66.427  1.00  0.00    -0.120 A  
HETATM   35  N   UNL     1      -6.968   9.153  66.726  1.00  0.00    -0.080 NA 
HETATM   36  N   UNL     1      -7.975  11.061  67.459  1.00  0.00    -0.114 NA 
ENDBRANCH  31  32
ENDBRANCH  21  31
ENDBRANCH  17  18
ENDBRANCH  16  17
ENDBRANCH  13  16
ENDBRANCH   7  10
ENDBRANCH   2   4
TORSDOF 8
ENDMDL
MODEL      168
REMARK 921   NORMALIZED FREE ENERGY PREDICTED BY IDOCK:   -3.25 KCAL/MOL
REMARK 922        TOTAL FREE ENERGY PREDICTED BY IDOCK:   -5.95 KCAL/MOL
REMARK 923 INTER-LIGAND FREE ENERGY PREDICTED BY IDOCK:   -5.44 KCAL/MOL
REMARK 924 INTRA-LIGAND FREE ENERGY PREDICTED BY IDOCK:   -0.51 KCAL/MOL
REMARK 927      BINDING AFFINITY PREDICTED BY RF-SCORE:    0.00 PKD
ROOT
HETATM    1  C   UNL     1     -10.182  10.460  65.187  1.00  0.00    -0.326 C  
HETATM    2  C   UNL     1     -10.394  11.851  65.816  1.00  0.00    -0.248 C  
HETATM    3  C   UNL     1     -11.511  11.695  66.861  1.00  0.00    -0.320 C  
ENDROOT
BRANCH   2   4
HETATM    4  N   UNL     1      -9.123  12.363  66.380  1.00  0.00    -0.191 NA 
HETATM    5  C   UNL     1      -9.267  12.805  67.794  1.00  0.00    -0.199 C  
HETATM    6  C   UNL     1      -9.415  11.661  68.820  1.00  0.00    -0.058 C  
HETATM    7  N   UNL     1      -8.267  10.747  68.710  1.00  0.00    -0.138 NA 
HETATM    8  C   UNL     1      -7.982  11.405  66.344  1.00  0.00    -0.088 C  
HETATM    9  C   UNL     1      -8.042  10.224  67.354  1.00  0.00    -0.110 C  
BRANCH   7  10
HETATM   10  C   UNL     1      -7.865  10.030  69.826  1.00  0.00    -0.177 A  
HETATM   11  C   UNL     1      -6.520   9.735  70.058  1.00  0.00    -0.074 A  
HETATM   12  C   UNL     1      -6.123   8.843  71.053  1.00  0.00    -0.049 A  
HETATM   13  C   UNL     1      -7.063   8.205  71.862  1.00  0.00    -0.081 A  
HETATM   14  C   UNL     1      -8.798   9.457  70.704  1.00  0.00    -0.275 A  
HETATM   15  C   UNL     1      -8.406   8.548  71.705  1.00  0.00    -0.221 A  
BRANCH  13  16
HETATM   16  O   UNL     1      -6.762   7.237  72.796  1.00  0.00    -0.063 OA 
BRANCH  16  17
HETATM   17  C   UNL     1      -7.445   5.996  72.588  1.00  0.00    -0.095 C  
BRANCH  17  18
HETATM   18  C   UNL     1      -7.174   5.357  71.230  1.00  0.00    -0.075 C  
HETATM   19  C   UNL     1      -7.365   3.863  71.216  1.00  0.00    -0.040 C  
HETATM   20  O   UNL     1      -7.834   3.587  69.896  1.00  0.00    -0.047 OA 
HETATM   21  C   UNL     1      -8.543   4.770  69.451  1.00  0.00    -0.082 C  
HETATM   22  O   UNL     1      -8.146   5.859  70.305  1.00  0.00    -0.103 OA 
BRANCH  21  23
HETATM   23  C   UNL     1      -8.148   5.122  68.015  1.00  0.00    -0.098 A  
HETATM   24  C   UNL     1      -7.594   6.392  67.739  1.00  0.00    -0.102 A  
HETATM   25  C   UNL     1      -8.290   4.236  66.926  1.00  0.00    -0.101 A  
HETATM   26  C   UNL     1      -7.152   6.739  66.460  1.00  0.00    -0.071 A  
HETATM   27  C   UNL     1      -7.829   4.578  65.646  1.00  0.00    -0.094 A  
HETATM   28 CL   UNL     1      -9.071   2.697  67.053  1.00  0.00    -0.178 Cl 
HETATM   29 CL   UNL     1      -6.668   6.230  63.858  1.00  0.00    -0.036 Cl 
HETATM   30  C   UNL     1      -7.253   5.822  65.423  1.00  0.00    -0.070 A  
ENDBRANCH  21  23
BRANCH  21  31
HETATM   31  C   UNL     1     -10.056   4.530  69.662  1.00  0.00    -0.091 C  
BRANCH  31  32
HETATM   32  N   UNL     1     -10.755   5.573  70.378  1.00  0.00    -0.278 NA 
HETATM   33  C   UNL     1     -11.564   6.539  69.861  1.00  0.00    -0.368 A  
HETATM   34  C   UNL     1     -11.718   6.529  71.949  1.00  0.00    -0.324 A  
HETATM   35  N   UNL     1     -12.176   7.169  70.834  1.00  0.00    -0.336 NA 
HETATM   36  N   UNL     1     -10.845   5.545  71.719  1.00  0.00    -0.235 NA 
ENDBRANCH  31  32
ENDBRANCH  21  31
ENDBRANCH  17  18
ENDBRANCH  16  17
ENDBRANCH  13  16
ENDBRANCH   7  10
ENDBRANCH   2   4
TORSDOF 8
ENDMDL
MODEL      169
REMARK 921   NORMALIZED FREE ENERGY PREDICTED BY IDOCK:   -3.22 KCAL/MOL
REMARK 922        TOTAL FREE ENERGY PREDICTED BY IDOCK:   -5.89 KCAL/MOL
REMARK 923 INTER-LIGAND FREE ENERGY PREDICTED BY IDOCK:   -6.15 KCAL/MOL
REMARK 924 INTRA-LIGAND FREE ENERGY PREDICTED BY IDOCK:    0.25 KCAL/MOL
REMARK 927      BINDING AFFINITY PREDICTED BY RF-SCORE:    0.00 PKD
ROOT
HETATM    1  C   UNL     1     -11.934  16.761  71.182  1.00  0.00     0.923 C  
HETATM    2  C   UNL     1     -12.438  15.562  72.010  1.00  0.00    -0.398 C  
HETATM    3  C   UNL     1     -13.051  16.142  73.295  1.00  0.00    -0.573 C  
ENDROOT
BRANCH   2   4
HETATM    4  N   UNL     1     -13.388  14.748  71.216  1.00  0.00    -0.378 NA 
HETATM    5  C   UNL     1     -12.747  14.135  70.020  1.00  0.00    -0.103 C  
HETATM    6  C   UNL     1     -11.791  12.962  70.325  1.00  0.00    -0.213 C  
HETATM    7  N   UNL     1     -12.510  11.922  71.078  1.00  0.00    -0.348 NA 
HETATM    8  C   UNL     1     -14.052  13.641  71.961  1.00  0.00    -0.367 C  
HETATM    9  C   UNL     1     -13.164  12.410  72.302  1.00  0.00    -0.287 C  
BRANCH   7  10
HETATM   10  C   UNL     1     -12.100  10.602  70.967  1.00  0.00    -0.368 A  
HETATM   11  C   UNL     1     -11.271  10.182  69.926  1.00  0.00    -0.343 A  
HETATM   12  C   UNL     1     -11.024   8.832  69.682  1.00  0.00    -0.114 A  
HETATM   13  C   UNL     1     -11.603   7.841  70.475  1.00  0.00    -0.158 A  
HETATM   14  C   UNL     1     -12.603   9.606  71.817  1.00  0.00    -0.497 A  
HETATM   15  C   UNL     1     -12.367   8.239  71.572  1.00  0.00    -0.336 A  
BRANCH  13  16
HETATM   16  O   UNL     1     -11.492   6.487  70.238  1.00  0.00    -0.359 OA 
BRANCH  16  17
HETATM   17  C   UNL     1     -10.695   5.792  71.203  1.00  0.00    -0.261 C  
BRANCH  17  18
HETATM   18  C   UNL     1      -9.320   6.409  71.434  1.00  0.00    -0.152 C  
HETATM   19  C   UNL     1      -8.204   5.398  71.486  1.00  0.00    -0.118 C  
HETATM   20  O   UNL     1      -7.084   6.091  70.935  1.00  0.00    -0.065 OA 
HETATM   21  C   UNL     1      -7.615   7.065  70.003  1.00  0.00    -0.099 C  
HETATM   22  O   UNL     1      -9.012   7.234  70.304  1.00  0.00    -0.150 OA 
BRANCH  21  23
HETATM   23  C   UNL     1      -6.920   8.416  70.187  1.00  0.00    -0.042 A  
HETATM   24  C   UNL     1      -7.325   9.517  69.400  1.00  0.00    -0.084 A  
HETATM   25  C   UNL     1      -5.889   8.643  71.123  1.00  0.00    -0.038 A  
HETATM   26  C   UNL     1      -6.772  10.788  69.575  1.00  0.00    -0.108 A  
HETATM   27  C   UNL     1      -5.348   9.923  71.312  1.00  0.00    -0.075 A  
HETATM   28 CL   UNL     1      -5.176   7.384  72.071  1.00  0.00    -0.035 Cl 
HETATM   29 CL   UNL     1      -5.153  12.563  70.795  1.00  0.00    -0.117 Cl 
HETATM   30  C   UNL     1      -5.801  10.990  70.546  1.00  0.00    -0.134 A  
ENDBRANCH  21  23
BRANCH  21  31
HETATM   31  C   UNL     1      -7.506   6.473  68.578  1.00  0.00    -0.088 C  
BRANCH  31  32
HETATM   32  N   UNL     1      -8.755   6.056  67.984  1.00  0.00    -0.113 NA 
HETATM   33  C   UNL     1      -9.425   6.645  66.954  1.00  0.00    -0.154 A  
HETATM   34  C   UNL     1     -10.281   4.783  67.382  1.00  0.00    -0.078 A  
HETATM   35  N   UNL     1     -10.405   5.867  66.562  1.00  0.00    -0.198 NA 
HETATM   36  N   UNL     1      -9.286   4.854  68.269  1.00  0.00    -0.118 NA 
ENDBRANCH  31  32
ENDBRANCH  21  31
ENDBRANCH  17  18
ENDBRANCH  16  17
ENDBRANCH  13  16
ENDBRANCH   7  10
ENDBRANCH   2   4
TORSDOF 8
ENDMDL
MODEL      170
REMARK 921   NORMALIZED FREE ENERGY PREDICTED BY IDOCK:   -3.20 KCAL/MOL
REMARK 922        TOTAL FREE ENERGY PREDICTED BY IDOCK:   -5.87 KCAL/MOL
REMARK 923 INTER-LIGAND FREE ENERGY PREDICTED BY IDOCK:   -5.57 KCAL/MOL
REMARK 924 INTRA-LIGAND FREE ENERGY PREDICTED BY IDOCK:   -0.31 KCAL/MOL
REMARK 927      BINDING AFFINITY PREDICTED BY RF-SCORE:    0.00 PKD
ROOT
HETATM    1  C   UNL     1      -7.006  15.070  69.900  1.00  0.00    -0.149 C  
HETATM    2  C   UNL     1      -8.134  15.238  68.863  1.00  0.00    -0.180 C  
HETATM    3  C   UNL     1      -8.503  16.731  68.853  1.00  0.00    -0.217 C  
ENDROOT
BRANCH   2   4
HETATM    4  N   UNL     1      -7.701  14.727  67.541  1.00  0.00    -0.179 NA 
HETATM    5  C   UNL     1      -6.346  14.114  67.586  1.00  0.00    -0.111 C  
HETATM    6  C   UNL     1      -6.278  12.740  68.288  1.00  0.00    -0.078 C  
HETATM    7  N   UNL     1      -7.213  11.807  67.638  1.00  0.00    -0.102 NA 
HETATM    8  C   UNL     1      -8.607  13.719  66.922  1.00  0.00    -0.109 C  
HETATM    9  C   UNL     1      -8.597  12.300  67.559  1.00  0.00    -0.174 C  
BRANCH   7  10
HETATM   10  C   UNL     1      -6.942  10.448  67.667  1.00  0.00    -0.083 A  
HETATM   11  C   UNL     1      -7.502   9.573  66.735  1.00  0.00    -0.094 A  
HETATM   12  C   UNL     1      -7.408   8.189  66.877  1.00  0.00    -0.087 A  
HETATM   13  C   UNL     1      -6.747   7.622  67.965  1.00  0.00    -0.063 A  
HETATM   14  C   UNL     1      -6.198   9.872  68.708  1.00  0.00    -0.041 A  
HETATM   15  C   UNL     1      -6.107   8.476  68.864  1.00  0.00    -0.044 A  
BRANCH  13  16
HETATM   16  O   UNL     1      -6.698   6.270  68.232  1.00  0.00    -0.062 OA 
BRANCH  16  17
HETATM   17  C   UNL     1      -7.721   5.512  67.576  1.00  0.00    -0.096 C  
BRANCH  17  18
HETATM   18  C   UNL     1      -9.009   5.380  68.382  1.00  0.00    -0.108 C  
HETATM   19  C   UNL     1      -9.221   4.006  68.962  1.00  0.00    -0.152 C  
HETATM   20  O   UNL     1      -9.908   4.250  70.189  1.00  0.00    -0.209 OA 
HETATM   21  C   UNL     1      -9.491   5.561  70.644  1.00  0.00    -0.165 C  
HETATM   22  O   UNL     1      -8.908   6.244  69.519  1.00  0.00    -0.133 OA 
BRANCH  21  23
HETATM   23  C   UNL     1     -10.699   6.372  71.120  1.00  0.00    -0.293 A  
HETATM   24  C   UNL     1     -10.938   7.651  70.570  1.00  0.00    -0.259 A  
HETATM   25  C   UNL     1     -11.620   5.909  72.085  1.00  0.00    -0.256 A  
HETATM   26  C   UNL     1     -12.063   8.402  70.918  1.00  0.00    -0.152 A  
HETATM   27  C   UNL     1     -12.758   6.655  72.419  1.00  0.00     0.132 A  
HETATM   28 CL   UNL     1     -11.411   4.431  72.960  1.00  0.00    -0.212 Cl 
HETATM   29 CL   UNL     1     -14.388   8.795  72.221  1.00  0.00    -0.515 Cl 
HETATM   30  C   UNL     1     -12.979   7.892  71.826  1.00  0.00    -0.325 A  
ENDBRANCH  21  23
BRANCH  21  31
HETATM   31  C   UNL     1      -8.384   5.370  71.707  1.00  0.00    -0.119 C  
BRANCH  31  32
HETATM   32  N   UNL     1      -8.142   6.511  72.561  1.00  0.00    -0.104 NA 
HETATM   33  C   UNL     1      -7.346   7.587  72.307  1.00  0.00    -0.070 A  
HETATM   34  C   UNL     1      -8.498   7.947  74.017  1.00  0.00    -0.265 A  
HETATM   35  N   UNL     1      -7.541   8.507  73.220  1.00  0.00    -0.359 NA 
HETATM   36  N   UNL     1      -8.897   6.726  73.652  1.00  0.00    -0.132 NA 
ENDBRANCH  31  32
ENDBRANCH  21  31
ENDBRANCH  17  18
ENDBRANCH  16  17
ENDBRANCH  13  16
ENDBRANCH   7  10
ENDBRANCH   2   4
TORSDOF 8
ENDMDL
MODEL      171
REMARK 921   NORMALIZED FREE ENERGY PREDICTED BY IDOCK:   -3.19 KCAL/MOL
REMARK 922        TOTAL FREE ENERGY PREDICTED BY IDOCK:   -5.86 KCAL/MOL
REMARK 923 INTER-LIGAND FREE ENERGY PREDICTED BY IDOCK:   -5.65 KCAL/MOL
REMARK 924 INTRA-LIGAND FREE ENERGY PREDICTED BY IDOCK:   -0.20 KCAL/MOL
REMARK 927      BINDING AFFINITY PREDICTED BY RF-SCORE:    0.00 PKD
ROOT
HETATM    1  C   UNL     1      -9.876   9.013  66.105  1.00  0.00    -0.349 C  
HETATM    2  C   UNL     1      -9.399  10.171  65.205  1.00  0.00    -0.224 C  
HETATM    3  C   UNL     1     -10.388  11.329  65.418  1.00  0.00    -0.328 C  
ENDROOT
BRANCH   2   4
HETATM    4  N   UNL     1      -7.995  10.526  65.521  1.00  0.00    -0.157 NA 
HETATM    5  C   UNL     1      -7.890  11.436  66.694  1.00  0.00    -0.137 C  
HETATM    6  C   UNL     1      -8.168  10.771  68.059  1.00  0.00    -0.115 C  
HETATM    7  N   UNL     1      -7.258   9.629  68.246  1.00  0.00    -0.078 NA 
HETATM    8  C   UNL     1      -7.094   9.371  65.792  1.00  0.00    -0.091 C  
HETATM    9  C   UNL     1      -7.296   8.645  67.153  1.00  0.00    -0.088 C  
BRANCH   7  10
HETATM   10  C   UNL     1      -6.901   9.253  69.531  1.00  0.00    -0.048 A  
HETATM   11  C   UNL     1      -5.704   8.581  69.788  1.00  0.00    -0.029 A  
HETATM   12  C   UNL     1      -5.431   8.015  71.032  1.00  0.00    -0.029 A  
HETATM   13  C   UNL     1      -6.352   8.097  72.077  1.00  0.00    -0.055 A  
HETATM   14  C   UNL     1      -7.780   9.412  70.612  1.00  0.00    -0.172 A  
HETATM   15  C   UNL     1      -7.517   8.835  71.869  1.00  0.00    -0.051 A  
BRANCH  13  16
HETATM   16  O   UNL     1      -6.203   7.478  73.299  1.00  0.00    -0.058 OA 
BRANCH  16  17
HETATM   17  C   UNL     1      -7.335   6.695  73.696  1.00  0.00    -0.083 C  
BRANCH  17  18
HETATM   18  C   UNL     1      -7.509   5.407  72.898  1.00  0.00    -0.096 C  
HETATM   19  C   UNL     1      -7.906   4.224  73.741  1.00  0.00    -0.085 C  
HETATM   20  O   UNL     1      -8.728   3.442  72.874  1.00  0.00    -0.084 OA 
HETATM   21  C   UNL     1      -9.352   4.366  71.949  1.00  0.00    -0.137 C  
HETATM   22  O   UNL     1      -8.603   5.595  71.993  1.00  0.00    -0.129 OA 
BRANCH  21  23
HETATM   23  C   UNL     1      -9.288   3.819  70.521  1.00  0.00    -0.228 A  
HETATM   24  C   UNL     1      -9.251   2.422  70.313  1.00  0.00    -0.196 A  
HETATM   25  C   UNL     1      -9.279   4.637  69.370  1.00  0.00    -0.119 A  
HETATM   26  C   UNL     1      -9.262   1.870  69.030  1.00  0.00    -0.200 A  
HETATM   27  C   UNL     1      -9.309   4.081  68.084  1.00  0.00    -0.218 A  
HETATM   28 CL   UNL     1      -9.184   6.364  69.437  1.00  0.00    -0.142 Cl 
HETATM   29 CL   UNL     1      -9.372   2.023  66.342  1.00  0.00     0.033 Cl 
HETATM   30  C   UNL     1      -9.312   2.702  67.921  1.00  0.00    -0.194 A  
ENDBRANCH  21  23
BRANCH  21  31
HETATM   31  C   UNL     1     -10.781   4.665  72.460  1.00  0.00    -0.149 C  
BRANCH  31  32
HETATM   32  N   UNL     1     -11.213   6.037  72.323  1.00  0.00    -0.278 NA 
HETATM   33  C   UNL     1     -10.882   7.098  73.110  1.00  0.00    -0.335 A  
HETATM   34  C   UNL     1     -11.873   7.773  71.394  1.00  0.00    -0.297 A  
HETATM   35  N   UNL     1     -11.298   8.209  72.553  1.00  0.00    -0.391 NA 
HETATM   36  N   UNL     1     -11.844   6.451  71.210  1.00  0.00    -0.316 NA 
ENDBRANCH  31  32
ENDBRANCH  21  31
ENDBRANCH  17  18
ENDBRANCH  16  17
ENDBRANCH  13  16
ENDBRANCH   7  10
ENDBRANCH   2   4
TORSDOF 8
ENDMDL
MODEL      172
REMARK 921   NORMALIZED FREE ENERGY PREDICTED BY IDOCK:   -3.19 KCAL/MOL
REMARK 922        TOTAL FREE ENERGY PREDICTED BY IDOCK:   -5.85 KCAL/MOL
REMARK 923 INTER-LIGAND FREE ENERGY PREDICTED BY IDOCK:   -6.99 KCAL/MOL
REMARK 924 INTRA-LIGAND FREE ENERGY PREDICTED BY IDOCK:    1.14 KCAL/MOL
REMARK 927      BINDING AFFINITY PREDICTED BY RF-SCORE:    0.00 PKD
ROOT
HETATM    1  C   UNL     1      -7.750  20.144  66.778  1.00  0.00    -0.337 C  
HETATM    2  C   UNL     1      -7.869  18.613  66.924  1.00  0.00    -0.236 C  
HETATM    3  C   UNL     1      -6.507  18.113  67.432  1.00  0.00    -0.188 C  
ENDROOT
BRANCH   2   4
HETATM    4  N   UNL     1      -8.998  18.266  67.819  1.00  0.00    -0.264 NA 
HETATM    5  C   UNL     1     -10.204  17.825  67.066  1.00  0.00    -0.346 C  
HETATM    6  C   UNL     1     -10.098  16.419  66.437  1.00  0.00    -0.316 C  
HETATM    7  N   UNL     1      -9.789  15.431  67.484  1.00  0.00    -0.217 NA 
HETATM    8  C   UNL     1      -8.708  17.206  68.824  1.00  0.00    -0.235 C  
HETATM    9  C   UNL     1      -8.594  15.753  68.280  1.00  0.00    -0.170 C  
BRANCH   7  10
HETATM   10  C   UNL     1     -10.202  14.119  67.318  1.00  0.00    -0.256 A  
HETATM   11  C   UNL     1     -11.349  13.631  67.947  1.00  0.00    -0.325 A  
HETATM   12  C   UNL     1     -11.659  12.272  67.960  1.00  0.00    -0.408 A  
HETATM   13  C   UNL     1     -10.826  11.339  67.342  1.00  0.00    -0.262 A  
HETATM   14  C   UNL     1      -9.420  13.187  66.619  1.00  0.00    -0.260 A  
HETATM   15  C   UNL     1      -9.720  11.812  66.636  1.00  0.00    -0.219 A  
BRANCH  13  16
HETATM   16  O   UNL     1     -11.006   9.974  67.397  1.00  0.00    -0.283 OA 
BRANCH  16  17
HETATM   17  C   UNL     1     -10.494   9.273  66.258  1.00  0.00    -0.013 C  
BRANCH  17  18
HETATM   18  C   UNL     1      -9.281   8.401  66.559  1.00  0.00    -0.189 C  
HETATM   19  C   UNL     1      -8.051   9.185  66.934  1.00  0.00    -0.112 C  
HETATM   20  O   UNL     1      -7.372   8.340  67.864  1.00  0.00    -0.092 OA 
HETATM   21  C   UNL     1      -8.389   7.547  68.524  1.00  0.00    -0.126 C  
HETATM   22  O   UNL     1      -9.580   7.615  67.718  1.00  0.00    -0.140 OA 
BRANCH  21  23
HETATM   23  C   UNL     1      -7.954   6.082  68.610  1.00  0.00    -0.104 A  
HETATM   24  C   UNL     1      -6.952   5.708  69.533  1.00  0.00    -0.063 A  
HETATM   25  C   UNL     1      -8.513   5.054  67.820  1.00  0.00    -0.104 A  
HETATM   26  C   UNL     1      -6.568   4.376  69.700  1.00  0.00    -0.033 A  
HETATM   27  C   UNL     1      -8.140   3.715  68.003  1.00  0.00    -0.085 A  
HETATM   28 CL   UNL     1      -9.649   5.347  66.549  1.00  0.00    -0.156 Cl 
HETATM   29 CL   UNL     1      -6.740   1.736  69.186  1.00  0.00    -0.029 Cl 
HETATM   30  C   UNL     1      -7.179   3.382  68.949  1.00  0.00    -0.049 A  
ENDBRANCH  21  23
BRANCH  21  31
HETATM   31  C   UNL     1      -8.701   8.207  69.887  1.00  0.00    -0.138 C  
BRANCH  31  32
HETATM   32  N   UNL     1      -9.937   7.789  70.509  1.00  0.00    -0.187 NA 
HETATM   33  C   UNL     1     -10.988   7.149  69.925  1.00  0.00    -0.253 A  
HETATM   34  C   UNL     1     -11.235   7.165  72.004  1.00  0.00    -0.251 A  
HETATM   35  N   UNL     1     -11.832   6.754  70.847  1.00  0.00    -0.370 NA 
HETATM   36  N   UNL     1     -10.073   7.804  71.846  1.00  0.00    -0.177 NA 
ENDBRANCH  31  32
ENDBRANCH  21  31
ENDBRANCH  17  18
ENDBRANCH  16  17
ENDBRANCH  13  16
ENDBRANCH   7  10
ENDBRANCH   2   4
TORSDOF 8
ENDMDL
MODEL      173
REMARK 921   NORMALIZED FREE ENERGY PREDICTED BY IDOCK:   -3.08 KCAL/MOL
REMARK 922        TOTAL FREE ENERGY PREDICTED BY IDOCK:   -5.69 KCAL/MOL
REMARK 923 INTER-LIGAND FREE ENERGY PREDICTED BY IDOCK:   -6.72 KCAL/MOL
REMARK 924 INTRA-LIGAND FREE ENERGY PREDICTED BY IDOCK:    1.03 KCAL/MOL
REMARK 927      BINDING AFFINITY PREDICTED BY RF-SCORE:    0.00 PKD
ROOT
HETATM    1  C   UNL     1      -9.655  13.998  68.373  1.00  0.00    -0.222 C  
HETATM    2  C   UNL     1     -10.165  13.357  67.067  1.00  0.00    -0.249 C  
HETATM    3  C   UNL     1      -9.052  12.417  66.576  1.00  0.00    -0.181 C  
ENDROOT
BRANCH   2   4
HETATM    4  N   UNL     1     -11.459  12.672  67.298  1.00  0.00    -0.321 NA 
HETATM    5  C   UNL     1     -11.343  11.192  67.199  1.00  0.00    -0.181 C  
HETATM    6  C   UNL     1     -10.623  10.516  68.386  1.00  0.00    -0.199 C  
HETATM    7  N   UNL     1     -11.304  10.868  69.642  1.00  0.00    -0.267 NA 
HETATM    8  C   UNL     1     -12.107  12.965  68.607  1.00  0.00    -0.135 C  
HETATM    9  C   UNL     1     -11.453  12.315  69.860  1.00  0.00    -0.114 C  
BRANCH   7  10
HETATM   10  C   UNL     1     -11.245   9.989  70.712  1.00  0.00    -0.352 A  
HETATM   11  C   UNL     1     -10.026   9.511  71.196  1.00  0.00    -0.219 A  
HETATM   12  C   UNL     1      -9.960   8.473  72.125  1.00  0.00    -0.387 A  
HETATM   13  C   UNL     1     -11.120   7.867  72.609  1.00  0.00    -0.385 A  
HETATM   14  C   UNL     1     -12.408   9.438  71.272  1.00  0.00    -0.422 A  
HETATM   15  C   UNL     1     -12.350   8.384  72.203  1.00  0.00    -0.426 A  
BRANCH  13  16
HETATM   16  O   UNL     1     -11.138   6.772  73.446  1.00  0.00    -0.219 OA 
BRANCH  16  17
HETATM   17  C   UNL     1     -10.961   5.521  72.771  1.00  0.00    -0.278 C  
BRANCH  17  18
HETATM   18  C   UNL     1      -9.956   5.570  71.626  1.00  0.00    -0.182 C  
HETATM   19  C   UNL     1      -8.520   5.541  72.080  1.00  0.00    -0.126 C  
HETATM   20  O   UNL     1      -7.841   4.839  71.039  1.00  0.00    -0.078 OA 
HETATM   21  C   UNL     1      -8.806   3.931  70.452  1.00  0.00    -0.084 C  
HETATM   22  O   UNL     1     -10.117   4.379  70.847  1.00  0.00    -0.198 OA 
BRANCH  21  23
HETATM   23  C   UNL     1      -8.727   3.978  68.925  1.00  0.00    -0.129 A  
HETATM   24  C   UNL     1      -9.866   4.361  68.182  1.00  0.00    -0.132 A  
HETATM   25  C   UNL     1      -7.559   3.672  68.193  1.00  0.00    -0.061 A  
HETATM   26  C   UNL     1      -9.828   4.487  66.791  1.00  0.00    -0.242 A  
HETATM   27  C   UNL     1      -7.517   3.817  66.799  1.00  0.00    -0.080 A  
HETATM   28 CL   UNL     1      -6.118   3.056  68.925  1.00  0.00    -0.024 Cl 
HETATM   29 CL   UNL     1      -8.584   4.434  64.401  1.00  0.00    -0.126 Cl 
HETATM   30  C   UNL     1      -8.646   4.235  66.108  1.00  0.00    -0.113 A  
ENDBRANCH  21  23
BRANCH  21  31
HETATM   31  C   UNL     1      -8.580   2.530  71.066  1.00  0.00    -0.059 C  
BRANCH  31  32
HETATM   32  N   UNL     1      -9.364   2.236  72.244  1.00  0.00    -0.086 NA 
HETATM   33  C   UNL     1      -9.078   2.557  73.536  1.00  0.00    -0.084 A  
HETATM   34  C   UNL     1     -11.043   1.846  73.402  1.00  0.00    -0.173 A  
HETATM   35  N   UNL     1     -10.119   2.309  74.294  1.00  0.00    -0.108 NA 
HETATM   36  N   UNL     1     -10.626   1.784  72.135  1.00  0.00    -0.079 NA 
ENDBRANCH  31  32
ENDBRANCH  21  31
ENDBRANCH  17  18
ENDBRANCH  16  17
ENDBRANCH  13  16
ENDBRANCH   7  10
ENDBRANCH   2   4
TORSDOF 8
ENDMDL
MODEL      174
REMARK 921   NORMALIZED FREE ENERGY PREDICTED BY IDOCK:   -3.05 KCAL/MOL
REMARK 922        TOTAL FREE ENERGY PREDICTED BY IDOCK:   -5.65 KCAL/MOL
REMARK 923 INTER-LIGAND FREE ENERGY PREDICTED BY IDOCK:   -6.73 KCAL/MOL
REMARK 924 INTRA-LIGAND FREE ENERGY PREDICTED BY IDOCK:    1.08 KCAL/MOL
REMARK 927      BINDING AFFINITY PREDICTED BY RF-SCORE:    0.00 PKD
ROOT
HETATM    1  C   UNL     1      -5.709   3.936  67.538  1.00  0.00    -0.022 C  
HETATM    2  C   UNL     1      -6.544   5.179  67.905  1.00  0.00    -0.050 C  
HETATM    3  C   UNL     1      -5.648   6.065  68.786  1.00  0.00    -0.011 C  
ENDROOT
BRANCH   2   4
HETATM    4  N   UNL     1      -7.025   5.858  66.679  1.00  0.00    -0.063 NA 
HETATM    5  C   UNL     1      -8.500   6.060  66.684  1.00  0.00    -0.112 C  
HETATM    6  C   UNL     1      -9.002   7.157  67.648  1.00  0.00    -0.125 C  
HETATM    7  N   UNL     1      -8.337   8.432  67.335  1.00  0.00    -0.123 NA 
HETATM    8  C   UNL     1      -6.411   7.189  66.408  1.00  0.00    -0.051 C  
HETATM    9  C   UNL     1      -6.868   8.358  67.327  1.00  0.00    -0.070 C  
BRANCH   7  10
HETATM   10  C   UNL     1      -8.989   9.621  67.619  1.00  0.00    -0.125 A  
HETATM   11  C   UNL     1      -9.737   9.782  68.787  1.00  0.00    -0.165 A  
HETATM   12  C   UNL     1     -10.564  10.887  68.985  1.00  0.00    -0.248 A  
HETATM   13  C   UNL     1     -10.677  11.882  68.015  1.00  0.00    -0.209 A  
HETATM   14  C   UNL     1      -9.036  10.671  66.689  1.00  0.00    -0.176 A  
HETATM   15  C   UNL     1      -9.876  11.786  66.877  1.00  0.00    -0.221 A  
BRANCH  13  16
HETATM   16  O   UNL     1     -11.546  12.949  68.089  1.00  0.00    -0.293 OA 
BRANCH  16  17
HETATM   17  C   UNL     1     -11.357  13.774  69.245  1.00  0.00    -0.273 C  
BRANCH  17  18
HETATM   18  C   UNL     1     -10.053  14.563  69.238  1.00  0.00    -0.071 C  
HETATM   19  C   UNL     1      -8.837  13.719  68.964  1.00  0.00     0.280 C  
HETATM   20  O   UNL     1      -7.959  14.595  68.256  1.00  0.00    -0.120 OA 
HETATM   21  C   UNL     1      -8.799  15.541  67.548  1.00  0.00    -0.182 C  
HETATM   22  O   UNL     1     -10.106  15.492  68.149  1.00  0.00    -0.216 OA 
BRANCH  21  23
HETATM   23  C   UNL     1      -8.255  16.962  67.704  1.00  0.00    -0.196 A  
HETATM   24  C   UNL     1      -6.859  17.168  67.772  1.00  0.00    -0.165 A  
HETATM   25  C   UNL     1      -9.074  18.110  67.772  1.00  0.00    -0.263 A  
HETATM   26  C   UNL     1      -6.307  18.449  67.845  1.00  0.00    -0.192 A  
HETATM   27  C   UNL     1      -8.519  19.396  67.826  1.00  0.00    -0.345 A  
HETATM   28 CL   UNL     1     -10.801  18.037  67.842  1.00  0.00    -0.322 Cl 
HETATM   29 CL   UNL     1      -6.462  21.139  67.894  1.00  0.00    -0.379 Cl 
HETATM   30  C   UNL     1      -7.140  19.559  67.850  1.00  0.00    -0.260 A  
ENDBRANCH  21  23
BRANCH  21  31
HETATM   31  C   UNL     1      -8.932  15.060  66.084  1.00  0.00    -0.123 C  
BRANCH  31  32
HETATM   32  N   UNL     1     -10.151  15.452  65.412  1.00  0.00    -0.365 NA 
HETATM   33  C   UNL     1     -10.447  16.663  64.864  1.00  0.00     0.196 A  
HETATM   34  C   UNL     1     -11.896  15.260  64.304  1.00  0.00    -0.225 A  
HETATM   35  N   UNL     1     -11.554  16.574  64.167  1.00  0.00    -1.080 NA 
HETATM   36  N   UNL     1     -11.066  14.534  65.057  1.00  0.00    -0.365 NA 
ENDBRANCH  31  32
ENDBRANCH  21  31
ENDBRANCH  17  18
ENDBRANCH  16  17
ENDBRANCH  13  16
ENDBRANCH   7  10
ENDBRANCH   2   4
TORSDOF 8
ENDMDL
MODEL      175
REMARK 921   NORMALIZED FREE ENERGY PREDICTED BY IDOCK:   -2.96 KCAL/MOL
REMARK 922        TOTAL FREE ENERGY PREDICTED BY IDOCK:   -5.51 KCAL/MOL
REMARK 923 INTER-LIGAND FREE ENERGY PREDICTED BY IDOCK:   -5.90 KCAL/MOL
REMARK 924 INTRA-LIGAND FREE ENERGY PREDICTED BY IDOCK:    0.39 KCAL/MOL
REMARK 927      BINDING AFFINITY PREDICTED BY RF-SCORE:    0.00 PKD
ROOT
HETATM    1  C   UNL     1     -11.968  16.561  72.052  1.00  0.00    -0.270 C  
HETATM    2  C   UNL     1     -12.259  15.123  72.527  1.00  0.00    -0.380 C  
HETATM    3  C   UNL     1     -12.777  15.234  73.971  1.00  0.00    -0.599 C  
ENDROOT
BRANCH   2   4
HETATM    4  N   UNL     1     -13.212  14.458  71.607  1.00  0.00    -0.331 NA 
HETATM    5  C   UNL     1     -12.693  14.379  70.214  1.00  0.00    -0.263 C  
HETATM    6  C   UNL     1     -11.562  13.350  70.000  1.00  0.00    -0.148 C  
HETATM    7  N   UNL     1     -12.019  12.017  70.425  1.00  0.00    -0.337 NA 
HETATM    8  C   UNL     1     -13.609  13.075  71.996  1.00  0.00    -0.441 C  
HETATM    9  C   UNL     1     -12.532  11.969  71.803  1.00  0.00     0.132 C  
BRANCH   7  10
HETATM   10  C   UNL     1     -11.470  10.892  69.830  1.00  0.00    -0.323 A  
HETATM   11  C   UNL     1     -11.119  10.880  68.479  1.00  0.00    -0.311 A  
HETATM   12  C   UNL     1     -10.766   9.703  67.821  1.00  0.00    -0.316 A  
HETATM   13  C   UNL     1     -10.751   8.481  68.493  1.00  0.00    -0.031 A  
HETATM   14  C   UNL     1     -11.362   9.677  70.522  1.00  0.00    -0.360 A  
HETATM   15  C   UNL     1     -11.016   8.481  69.863  1.00  0.00    -0.165 A  
BRANCH  13  16
HETATM   16  O   UNL     1     -10.514   7.263  67.894  1.00  0.00    -0.192 OA 
BRANCH  16  17
HETATM   17  C   UNL     1      -9.564   6.448  68.590  1.00  0.00    -0.120 C  
BRANCH  17  18
HETATM   18  C   UNL     1      -8.504   7.239  69.348  1.00  0.00    -0.133 C  
HETATM   19  C   UNL     1      -7.251   6.453  69.633  1.00  0.00    -0.078 C  
HETATM   20  O   UNL     1      -6.212   7.431  69.587  1.00  0.00    -0.030 OA 
HETATM   21  C   UNL     1      -6.653   8.464  68.672  1.00  0.00    -0.055 C  
HETATM   22  O   UNL     1      -8.076   8.318  68.509  1.00  0.00    -0.120 OA 
BRANCH  21  23
HETATM   23  C   UNL     1      -6.380   9.851  69.259  1.00  0.00    -0.044 A  
HETATM   24  C   UNL     1      -6.742  11.000  68.521  1.00  0.00    -0.061 A  
HETATM   25  C   UNL     1      -5.790  10.062  70.524  1.00  0.00    -0.084 A  
HETATM   26  C   UNL     1      -6.579  12.287  69.040  1.00  0.00    -0.100 A  
HETATM   27  C   UNL     1      -5.645  11.353  71.051  1.00  0.00    -0.015 A  
HETATM   28 CL   UNL     1      -5.163   8.781  71.502  1.00  0.00    -0.034 Cl 
HETATM   29 CL   UNL     1      -5.892  14.038  70.969  1.00  0.00    -0.213 Cl 
HETATM   30  C   UNL     1      -6.051  12.457  70.311  1.00  0.00    -0.071 A  
ENDBRANCH  21  23
BRANCH  21  31
HETATM   31  C   UNL     1      -5.989   8.204  67.300  1.00  0.00    -0.050 C  
BRANCH  31  32
HETATM   32  N   UNL     1      -6.883   7.758  66.255  1.00  0.00    -0.061 NA 
HETATM   33  C   UNL     1      -7.153   6.476  65.881  1.00  0.00    -0.062 A  
HETATM   34  C   UNL     1      -8.497   7.783  64.949  1.00  0.00    -0.003 A  
HETATM   35  N   UNL     1      -8.162   6.463  65.044  1.00  0.00    -0.141 NA 
HETATM   36  N   UNL     1      -7.741   8.613  65.673  1.00  0.00    -0.089 NA 
ENDBRANCH  31  32
ENDBRANCH  21  31
ENDBRANCH  17  18
ENDBRANCH  16  17
ENDBRANCH  13  16
ENDBRANCH   7  10
ENDBRANCH   2   4
TORSDOF 8
ENDMDL
MODEL      176
REMARK 921   NORMALIZED FREE ENERGY PREDICTED BY IDOCK:   -2.94 KCAL/MOL
REMARK 922        TOTAL FREE ENERGY PREDICTED BY IDOCK:   -5.49 KCAL/MOL
REMARK 923 INTER-LIGAND FREE ENERGY PREDICTED BY IDOCK:   -4.98 KCAL/MOL
REMARK 924 INTRA-LIGAND FREE ENERGY PREDICTED BY IDOCK:   -0.52 KCAL/MOL
REMARK 927      BINDING AFFINITY PREDICTED BY RF-SCORE:    0.00 PKD
ROOT
HETATM    1  C   UNL     1      -7.985   1.716  70.900  1.00  0.00    -0.043 C  
HETATM    2  C   UNL     1      -8.357   3.168  70.534  1.00  0.00    -0.055 C  
HETATM    3  C   UNL     1      -9.194   3.095  69.247  1.00  0.00    -0.218 C  
ENDROOT
BRANCH   2   4
HETATM    4  N   UNL     1      -9.061   3.821  71.663  1.00  0.00    -0.107 NA 
HETATM    5  C   UNL     1      -8.296   4.970  72.220  1.00  0.00    -0.121 C  
HETATM    6  C   UNL     1      -8.277   6.231  71.328  1.00  0.00    -0.122 C  
HETATM    7  N   UNL     1      -9.658   6.656  71.045  1.00  0.00    -0.171 NA 
HETATM    8  C   UNL     1     -10.428   4.326  71.350  1.00  0.00     0.156 C  
HETATM    9  C   UNL     1     -10.504   5.603  70.465  1.00  0.00    -0.277 C  
BRANCH   7  10
HETATM   10  C   UNL     1      -9.914   7.995  70.795  1.00  0.00    -0.188 A  
HETATM   11  C   UNL     1     -11.219   8.474  70.662  1.00  0.00    -0.278 A  
HETATM   12  C   UNL     1     -11.485   9.765  70.206  1.00  0.00    -0.317 A  
HETATM   13  C   UNL     1     -10.449  10.633  69.861  1.00  0.00    -0.086 A  
HETATM   14  C   UNL     1      -8.877   8.903  70.536  1.00  0.00    -0.221 A  
HETATM   15  C   UNL     1      -9.137  10.205  70.066  1.00  0.00    -0.031 A  
BRANCH  13  16
HETATM   16  O   UNL     1     -10.629  11.882  69.307  1.00  0.00    -0.121 OA 
BRANCH  16  17
HETATM   17  C   UNL     1     -11.518  11.898  68.185  1.00  0.00    -0.320 C  
BRANCH  17  18
HETATM   18  C   UNL     1     -11.204  10.843  67.129  1.00  0.00    -0.184 C  
HETATM   19  C   UNL     1     -11.247  11.368  65.719  1.00  0.00    -0.090 C  
HETATM   20  O   UNL     1     -10.255  10.603  65.034  1.00  0.00    -0.305 OA 
HETATM   21  C   UNL     1      -9.258  10.238  66.020  1.00  0.00    -0.164 C  
HETATM   22  O   UNL     1      -9.850  10.418  67.320  1.00  0.00    -0.169 OA 
BRANCH  21  23
HETATM   23  C   UNL     1      -8.872   8.764  65.872  1.00  0.00    -0.222 A  
HETATM   24  C   UNL     1      -8.890   7.924  67.008  1.00  0.00    -0.140 A  
HETATM   25  C   UNL     1      -8.506   8.172  64.644  1.00  0.00    -0.024 A  
HETATM   26  C   UNL     1      -8.614   6.558  66.916  1.00  0.00    -0.114 A  
HETATM   27  C   UNL     1      -8.248   6.797  64.549  1.00  0.00    -0.008 A  
HETATM   28 CL   UNL     1      -8.299   9.074  63.182  1.00  0.00    -0.191 Cl 
HETATM   29 CL   UNL     1      -8.020   4.307  65.559  1.00  0.00    -0.094 Cl 
HETATM   30  C   UNL     1      -8.315   5.996  65.682  1.00  0.00    -0.145 A  
ENDBRANCH  21  23
BRANCH  21  31
HETATM   31  C   UNL     1      -8.077  11.228  65.897  1.00  0.00     0.050 C  
BRANCH  31  32
HETATM   32  N   UNL     1      -7.833  12.049  67.061  1.00  0.00    -0.158 NA 
HETATM   33  C   UNL     1      -6.882  11.873  68.020  1.00  0.00    -0.072 A  
HETATM   34  C   UNL     1      -7.781  13.748  68.252  1.00  0.00    -0.138 A  
HETATM   35  N   UNL     1      -6.836  12.928  68.797  1.00  0.00    -0.095 NA 
HETATM   36  N   UNL     1      -8.417  13.253  67.188  1.00  0.00    -0.198 NA 
ENDBRANCH  31  32
ENDBRANCH  21  31
ENDBRANCH  17  18
ENDBRANCH  16  17
ENDBRANCH  13  16
ENDBRANCH   7  10
ENDBRANCH   2   4
TORSDOF 8
ENDMDL
MODEL      177
REMARK 921   NORMALIZED FREE ENERGY PREDICTED BY IDOCK:   -2.92 KCAL/MOL
REMARK 922        TOTAL FREE ENERGY PREDICTED BY IDOCK:   -5.46 KCAL/MOL
REMARK 923 INTER-LIGAND FREE ENERGY PREDICTED BY IDOCK:   -5.84 KCAL/MOL
REMARK 924 INTRA-LIGAND FREE ENERGY PREDICTED BY IDOCK:    0.38 KCAL/MOL
REMARK 927      BINDING AFFINITY PREDICTED BY RF-SCORE:    0.00 PKD
ROOT
HETATM    1  C   UNL     1     -10.930  19.942  66.533  1.00  0.00    -0.168 C  
HETATM    2  C   UNL     1      -9.724  20.286  67.430  1.00  0.00    -0.444 C  
HETATM    3  C   UNL     1      -9.982  19.614  68.789  1.00  0.00    -0.542 C  
ENDROOT
BRANCH   2   4
HETATM    4  N   UNL     1      -8.461  19.854  66.787  1.00  0.00    -0.315 NA 
HETATM    5  C   UNL     1      -7.360  19.666  67.770  1.00  0.00    -0.271 C  
HETATM    6  C   UNL     1      -7.490  18.410  68.659  1.00  0.00    -0.296 C  
HETATM    7  N   UNL     1      -7.595  17.213  67.810  1.00  0.00    -0.173 NA 
HETATM    8  C   UNL     1      -8.550  18.595  65.996  1.00  0.00    -0.001 C  
HETATM    9  C   UNL     1      -8.673  17.276  66.811  1.00  0.00    -0.251 C  
BRANCH   7  10
HETATM   10  C   UNL     1      -7.149  15.995  68.300  1.00  0.00    -0.120 A  
HETATM   11  C   UNL     1      -7.345  15.630  69.633  1.00  0.00    -0.144 A  
HETATM   12  C   UNL     1      -6.724  14.513  70.189  1.00  0.00    -0.089 A  
HETATM   13  C   UNL     1      -5.874  13.711  69.428  1.00  0.00    -0.093 A  
HETATM   14  C   UNL     1      -6.368  15.132  67.517  1.00  0.00    -0.109 A  
HETATM   15  C   UNL     1      -5.729  14.007  68.073  1.00  0.00    -0.132 A  
BRANCH  13  16
HETATM   16  O   UNL     1      -5.144  12.653  69.926  1.00  0.00    -0.077 OA 
BRANCH  16  17
HETATM   17  C   UNL     1      -5.946  11.582  70.436  1.00  0.00    -0.138 C  
BRANCH  17  18
HETATM   18  C   UNL     1      -6.245  10.490  69.415  1.00  0.00    -0.048 C  
HETATM   19  C   UNL     1      -6.502   9.140  70.031  1.00  0.00    -0.044 C  
HETATM   20  O   UNL     1      -7.451   8.534  69.155  1.00  0.00    -0.084 OA 
HETATM   21  C   UNL     1      -8.216   9.612  68.561  1.00  0.00    -0.105 C  
HETATM   22  O   UNL     1      -7.470  10.828  68.754  1.00  0.00    -0.092 OA 
BRANCH  21  23
HETATM   23  C   UNL     1      -8.381   9.387  67.056  1.00  0.00    -0.127 A  
HETATM   24  C   UNL     1      -8.320  10.492  66.178  1.00  0.00    -0.155 A  
HETATM   25  C   UNL     1      -8.579   8.117  66.473  1.00  0.00    -0.138 A  
HETATM   26  C   UNL     1      -8.394  10.334  64.792  1.00  0.00    -0.173 A  
HETATM   27  C   UNL     1      -8.635   7.957  65.082  1.00  0.00    -0.052 A  
HETATM   28 CL   UNL     1      -8.814   6.675  67.401  1.00  0.00    -0.117 Cl 
HETATM   29 CL   UNL     1      -8.577   8.862  62.542  1.00  0.00    -0.214 Cl 
HETATM   30  C   UNL     1      -8.531   9.064  64.249  1.00  0.00    -0.170 A  
ENDBRANCH  21  23
BRANCH  21  31
HETATM   31  C   UNL     1      -9.545   9.743  69.342  1.00  0.00    -0.207 C  
BRANCH  31  32
HETATM   32  N   UNL     1      -9.675   8.877  70.492  1.00  0.00    -0.189 NA 
HETATM   33  C   UNL     1      -9.702   9.235  71.805  1.00  0.00     0.089 A  
HETATM   34  C   UNL     1     -10.233   7.220  71.611  1.00  0.00    -0.192 A  
HETATM   35  N   UNL     1     -10.040   8.202  72.539  1.00  0.00    -0.276 NA 
HETATM   36  N   UNL     1     -10.021   7.587  70.345  1.00  0.00    -0.184 NA 
ENDBRANCH  31  32
ENDBRANCH  21  31
ENDBRANCH  17  18
ENDBRANCH  16  17
ENDBRANCH  13  16
ENDBRANCH   7  10
ENDBRANCH   2   4
TORSDOF 8
ENDMDL
MODEL      178
REMARK 921   NORMALIZED FREE ENERGY PREDICTED BY IDOCK:   -2.92 KCAL/MOL
REMARK 922        TOTAL FREE ENERGY PREDICTED BY IDOCK:   -5.46 KCAL/MOL
REMARK 923 INTER-LIGAND FREE ENERGY PREDICTED BY IDOCK:   -5.80 KCAL/MOL
REMARK 924 INTRA-LIGAND FREE ENERGY PREDICTED BY IDOCK:    0.34 KCAL/MOL
REMARK 927      BINDING AFFINITY PREDICTED BY RF-SCORE:    0.00 PKD
ROOT
HETATM    1  C   UNL     1      -8.704  18.463  66.087  1.00  0.00    -0.126 C  
HETATM    2  C   UNL     1      -9.230  19.847  66.519  1.00  0.00    -0.389 C  
HETATM    3  C   UNL     1     -10.034  20.401  65.332  1.00  0.00     0.247 C  
ENDROOT
BRANCH   2   4
HETATM    4  N   UNL     1     -10.021  19.732  67.767  1.00  0.00    -0.384 NA 
HETATM    5  C   UNL     1     -11.263  18.933  67.580  1.00  0.00     0.202 C  
HETATM    6  C   UNL     1     -11.040  17.413  67.425  1.00  0.00     0.093 C  
HETATM    7  N   UNL     1     -10.302  16.901  68.592  1.00  0.00    -0.309 NA 
HETATM    8  C   UNL     1      -9.297  19.135  68.925  1.00  0.00    -0.341 C  
HETATM    9  C   UNL     1      -9.037  17.603  68.859  1.00  0.00    -0.134 C  
BRANCH   7  10
HETATM   10  C   UNL     1     -10.480  15.582  68.978  1.00  0.00    -0.231 A  
HETATM   11  C   UNL     1      -9.467  14.634  68.821  1.00  0.00    -0.199 A  
HETATM   12  C   UNL     1      -9.700  13.272  69.006  1.00  0.00     0.287 A  
HETATM   13  C   UNL     1     -10.965  12.800  69.357  1.00  0.00     0.020 A  
HETATM   14  C   UNL     1     -11.724  15.110  69.421  1.00  0.00    -0.355 A  
HETATM   15  C   UNL     1     -11.970  13.735  69.602  1.00  0.00    -0.399 A  
BRANCH  13  16
HETATM   16  O   UNL     1     -11.301  11.467  69.459  1.00  0.00    -0.256 OA 
BRANCH  16  17
HETATM   17  C   UNL     1     -10.183  10.577  69.360  1.00  0.00    -0.221 C  
BRANCH  17  18
HETATM   18  C   UNL     1      -9.990   9.973  67.974  1.00  0.00    -0.150 C  
HETATM   19  C   UNL     1     -11.143  10.227  67.038  1.00  0.00    -0.032 C  
HETATM   20  O   UNL     1     -10.531  10.327  65.753  1.00  0.00    -0.196 OA 
HETATM   21  C   UNL     1      -9.188  10.825  65.970  1.00  0.00    -0.187 C  
HETATM   22  O   UNL     1      -8.872  10.626  67.361  1.00  0.00    -0.132 OA 
BRANCH  21  23
HETATM   23  C   UNL     1      -8.180  10.032  65.135  1.00  0.00    -0.146 A  
HETATM   24  C   UNL     1      -8.635   8.970  64.321  1.00  0.00    -0.171 A  
HETATM   25  C   UNL     1      -6.796  10.308  65.111  1.00  0.00    -0.120 A  
HETATM   26  C   UNL     1      -7.769   8.260  63.487  1.00  0.00    -0.142 A  
HETATM   27  C   UNL     1      -5.930   9.607  64.259  1.00  0.00    -0.088 A  
HETATM   28 CL   UNL     1      -6.046  11.478  66.141  1.00  0.00     0.038 Cl 
HETATM   29 CL   UNL     1      -5.363   7.753  62.384  1.00  0.00    -0.057 Cl 
HETATM   30  C   UNL     1      -6.423   8.595  63.444  1.00  0.00    -0.089 A  
ENDBRANCH  21  23
BRANCH  21  31
HETATM   31  C   UNL     1      -9.192  12.348  65.699  1.00  0.00     0.153 C  
BRANCH  31  32
HETATM   32  N   UNL     1     -10.319  12.838  64.938  1.00  0.00    -0.308 NA 
HETATM   33  C   UNL     1     -10.767  12.392  63.732  1.00  0.00    -0.451 A  
HETATM   34  C   UNL     1     -12.163  13.713  64.561  1.00  0.00    -0.401 A  
HETATM   35  N   UNL     1     -11.927  12.939  63.461  1.00  0.00    -0.535 NA 
HETATM   36  N   UNL     1     -11.207  13.682  65.491  1.00  0.00    -0.292 NA 
ENDBRANCH  31  32
ENDBRANCH  21  31
ENDBRANCH  17  18
ENDBRANCH  16  17
ENDBRANCH  13  16
ENDBRANCH   7  10
ENDBRANCH   2   4
TORSDOF 8
ENDMDL
MODEL      179
REMARK 921   NORMALIZED FREE ENERGY PREDICTED BY IDOCK:   -2.84 KCAL/MOL
REMARK 922        TOTAL FREE ENERGY PREDICTED BY IDOCK:   -5.34 KCAL/MOL
REMARK 923 INTER-LIGAND FREE ENERGY PREDICTED BY IDOCK:   -5.68 KCAL/MOL
REMARK 924 INTRA-LIGAND FREE ENERGY PREDICTED BY IDOCK:    0.34 KCAL/MOL
REMARK 927      BINDING AFFINITY PREDICTED BY RF-SCORE:    0.00 PKD
ROOT
HETATM    1  C   UNL     1      -6.985   2.117  62.344  1.00  0.00    -0.026 C  
HETATM    2  C   UNL     1      -6.707   3.425  63.113  1.00  0.00    -0.031 C  
HETATM    3  C   UNL     1      -7.464   4.539  62.371  1.00  0.00    -0.043 C  
ENDROOT
BRANCH   2   4
HETATM    4  N   UNL     1      -7.105   3.284  64.533  1.00  0.00    -0.056 NA 
HETATM    5  C   UNL     1      -6.147   3.946  65.459  1.00  0.00    -0.024 C  
HETATM    6  C   UNL     1      -6.205   5.489  65.459  1.00  0.00    -0.034 C  
HETATM    7  N   UNL     1      -7.573   5.932  65.775  1.00  0.00    -0.085 NA 
HETATM    8  C   UNL     1      -8.459   3.809  64.868  1.00  0.00    -0.104 C  
HETATM    9  C   UNL     1      -8.608   5.358  64.902  1.00  0.00    -0.131 C  
BRANCH   7  10
HETATM   10  C   UNL     1      -7.761   7.160  66.389  1.00  0.00    -0.100 A  
HETATM   11  C   UNL     1      -6.902   7.612  67.393  1.00  0.00    -0.069 A  
HETATM   12  C   UNL     1      -7.196   8.739  68.160  1.00  0.00    -0.083 A  
HETATM   13  C   UNL     1      -8.370   9.463  67.953  1.00  0.00    -0.115 A  
HETATM   14  C   UNL     1      -8.892   7.946  66.124  1.00  0.00    -0.197 A  
HETATM   15  C   UNL     1      -9.201   9.080  66.900  1.00  0.00    -0.179 A  
BRANCH  13  16
HETATM   16  O   UNL     1      -8.782  10.522  68.732  1.00  0.00    -0.137 OA 
BRANCH  16  17
HETATM   17  C   UNL     1      -9.761  10.173  69.717  1.00  0.00    -0.196 C  
BRANCH  17  18
HETATM   18  C   UNL     1      -9.469   8.867  70.447  1.00  0.00    -0.195 C  
HETATM   19  C   UNL     1      -9.803   8.909  71.916  1.00  0.00    -0.294 C  
HETATM   20  O   UNL     1     -10.213   7.575  72.216  1.00  0.00    -0.191 OA 
HETATM   21  C   UNL     1     -10.776   7.029  70.996  1.00  0.00    -0.233 C  
HETATM   22  O   UNL     1     -10.329   7.857  69.906  1.00  0.00    -0.213 OA 
BRANCH  21  23
HETATM   23  C   UNL     1     -10.260   5.608  70.758  1.00  0.00    -0.291 A  
HETATM   24  C   UNL     1      -9.866   5.222  69.457  1.00  0.00    -0.270 A  
HETATM   25  C   UNL     1     -10.135   4.641  71.778  1.00  0.00    -0.191 A  
HETATM   26  C   UNL     1      -9.324   3.961  69.198  1.00  0.00    -0.240 A  
HETATM   27  C   UNL     1      -9.573   3.382  71.520  1.00  0.00    -0.233 A  
HETATM   28 CL   UNL     1     -10.694   4.893  73.395  1.00  0.00    -0.293 Cl 
HETATM   29 CL   UNL     1      -8.451   1.518  69.927  1.00  0.00    -0.068 Cl 
HETATM   30  C   UNL     1      -9.160   3.054  70.235  1.00  0.00    -0.120 A  
ENDBRANCH  21  23
BRANCH  21  31
HETATM   31  C   UNL     1     -12.315   7.150  71.083  1.00  0.00    -0.364 C  
BRANCH  31  32
HETATM   32  N   UNL     1     -12.819   8.483  71.321  1.00  0.00    -0.238 NA 
HETATM   33  C   UNL     1     -13.113   9.060  72.519  1.00  0.00    -0.385 A  
HETATM   34  C   UNL     1     -13.159  10.507  71.007  1.00  0.00    -0.330 A  
HETATM   35  N   UNL     1     -13.346  10.339  72.349  1.00  0.00    -0.213 NA 
HETATM   36  N   UNL     1     -12.835   9.399  70.337  1.00  0.00     0.289 NA 
ENDBRANCH  31  32
ENDBRANCH  21  31
ENDBRANCH  17  18
ENDBRANCH  16  17
ENDBRANCH  13  16
ENDBRANCH   7  10
ENDBRANCH   2   4
TORSDOF 8
ENDMDL
MODEL      180
REMARK 921   NORMALIZED FREE ENERGY PREDICTED BY IDOCK:   -2.73 KCAL/MOL
REMARK 922        TOTAL FREE ENERGY PREDICTED BY IDOCK:   -5.18 KCAL/MOL
REMARK 923 INTER-LIGAND FREE ENERGY PREDICTED BY IDOCK:   -5.99 KCAL/MOL
REMARK 924 INTRA-LIGAND FREE ENERGY PREDICTED BY IDOCK:    0.81 KCAL/MOL
REMARK 927      BINDING AFFINITY PREDICTED BY RF-SCORE:    0.00 PKD
ROOT
HETATM    1  C   UNL     1      -8.386  17.440  66.799  1.00  0.00    -0.276 C  
HETATM    2  C   UNL     1      -8.063  18.175  68.115  1.00  0.00    -0.281 C  
HETATM    3  C   UNL     1      -9.245  17.917  69.064  1.00  0.00    -0.047 C  
ENDROOT
BRANCH   2   4
HETATM    4  N   UNL     1      -6.760  17.719  68.655  1.00  0.00    -0.221 NA 
HETATM    5  C   UNL     1      -6.918  16.765  69.786  1.00  0.00     0.201 C  
HETATM    6  C   UNL     1      -7.395  15.353  69.384  1.00  0.00    -0.213 C  
HETATM    7  N   UNL     1      -6.469  14.783  68.392  1.00  0.00    -0.096 NA 
HETATM    8  C   UNL     1      -5.857  17.066  67.666  1.00  0.00    -0.132 C  
HETATM    9  C   UNL     1      -6.256  15.633  67.210  1.00  0.00     0.024 C  
BRANCH   7  10
HETATM   10  C   UNL     1      -6.325  13.407  68.315  1.00  0.00    -0.102 A  
HETATM   11  C   UNL     1      -6.676  12.576  69.381  1.00  0.00    -0.022 A  
HETATM   12  C   UNL     1      -6.343  11.222  69.399  1.00  0.00    -0.092 A  
HETATM   13  C   UNL     1      -5.641  10.641  68.343  1.00  0.00    -0.040 A  
HETATM   14  C   UNL     1      -5.702  12.796  67.216  1.00  0.00    -0.005 A  
HETATM   15  C   UNL     1      -5.354  11.431  67.230  1.00  0.00    -0.064 A  
BRANCH  13  16
HETATM   16  O   UNL     1      -5.186   9.340  68.330  1.00  0.00    -0.034 OA 
BRANCH  16  17
HETATM   17  C   UNL     1      -6.124   8.403  67.788  1.00  0.00    -0.048 C  
BRANCH  17  18
HETATM   18  C   UNL     1      -7.079   9.002  66.762  1.00  0.00    -0.082 C  
HETATM   19  C   UNL     1      -7.422   8.065  65.635  1.00  0.00    -0.081 C  
HETATM   20  O   UNL     1      -8.765   8.411  65.293  1.00  0.00    -0.170 OA 
HETATM   21  C   UNL     1      -9.383   8.918  66.501  1.00  0.00    -0.195 C  
HETATM   22  O   UNL     1      -8.327   9.256  67.419  1.00  0.00    -0.120 OA 
BRANCH  21  23
HETATM   23  C   UNL     1     -10.180  10.189  66.202  1.00  0.00    -0.285 A  
HETATM   24  C   UNL     1     -10.991  10.755  67.211  1.00  0.00    -0.359 A  
HETATM   25  C   UNL     1     -10.146  10.859  64.960  1.00  0.00    -0.300 A  
HETATM   26  C   UNL     1     -11.684  11.952  67.013  1.00  0.00    -0.304 A  
HETATM   27  C   UNL     1     -10.827  12.070  64.768  1.00  0.00    -0.354 A  
HETATM   28 CL   UNL     1      -9.319  10.238  63.573  1.00  0.00    -0.316 Cl 
HETATM   29 CL   UNL     1     -12.397  14.112  65.568  1.00  0.00    -0.456 Cl 
HETATM   30  C   UNL     1     -11.582  12.615  65.799  1.00  0.00    -0.387 A  
ENDBRANCH  21  23
BRANCH  21  31
HETATM   31  C   UNL     1     -10.210   7.774  67.133  1.00  0.00    -0.295 C  
BRANCH  31  32
HETATM   32  N   UNL     1      -9.894   7.468  68.509  1.00  0.00    -0.160 NA 
HETATM   33  C   UNL     1     -10.264   8.160  69.623  1.00  0.00    -0.205 A  
HETATM   34  C   UNL     1      -9.422   6.325  70.178  1.00  0.00    -0.159 A  
HETATM   35  N   UNL     1      -9.966   7.466  70.694  1.00  0.00    -0.186 NA 
HETATM   36  N   UNL     1      -9.358   6.281  68.845  1.00  0.00    -0.129 NA 
ENDBRANCH  31  32
ENDBRANCH  21  31
ENDBRANCH  17  18
ENDBRANCH  16  17
ENDBRANCH  13  16
ENDBRANCH   7  10
ENDBRANCH   2   4
TORSDOF 8
ENDMDL
MODEL      181
REMARK 921   NORMALIZED FREE ENERGY PREDICTED BY IDOCK:   -2.73 KCAL/MOL
REMARK 922        TOTAL FREE ENERGY PREDICTED BY IDOCK:   -5.18 KCAL/MOL
REMARK 923 INTER-LIGAND FREE ENERGY PREDICTED BY IDOCK:   -6.10 KCAL/MOL
REMARK 924 INTRA-LIGAND FREE ENERGY PREDICTED BY IDOCK:    0.92 KCAL/MOL
REMARK 927      BINDING AFFINITY PREDICTED BY RF-SCORE:    0.00 PKD
ROOT
HETATM    1  C   UNL     1     -10.059   5.321  73.907  1.00  0.00    -0.232 C  
HETATM    2  C   UNL     1     -11.119   6.241  73.268  1.00  0.00    -0.116 C  
HETATM    3  C   UNL     1     -10.436   7.597  73.028  1.00  0.00    -0.414 C  
ENDROOT
BRANCH   2   4
HETATM    4  N   UNL     1     -11.662   5.624  72.034  1.00  0.00    -0.107 NA 
HETATM    5  C   UNL     1     -12.529   6.559  71.268  1.00  0.00    -0.100 C  
HETATM    6  C   UNL     1     -11.776   7.688  70.531  1.00  0.00    -0.128 C  
HETATM    7  N   UNL     1     -10.773   7.103  69.627  1.00  0.00    -0.234 NA 
HETATM    8  C   UNL     1     -10.640   5.108  71.081  1.00  0.00    -0.125 C  
HETATM    9  C   UNL     1      -9.838   6.177  70.284  1.00  0.00    -0.169 C  
BRANCH   7  10
HETATM   10  C   UNL     1     -10.401   7.800  68.488  1.00  0.00    -0.197 A  
HETATM   11  C   UNL     1      -9.255   7.461  67.767  1.00  0.00    -0.133 A  
HETATM   12  C   UNL     1      -8.757   8.276  66.752  1.00  0.00    -0.143 A  
HETATM   13  C   UNL     1      -9.390   9.472  66.415  1.00  0.00    -0.179 A  
HETATM   14  C   UNL     1     -11.085   8.956  68.082  1.00  0.00     0.204 A  
HETATM   15  C   UNL     1     -10.583   9.789  67.063  1.00  0.00    -0.269 A  
BRANCH  13  16
HETATM   16  O   UNL     1      -8.907  10.380  65.498  1.00  0.00    -0.161 OA 
BRANCH  16  17
HETATM   17  C   UNL     1      -7.673  10.997  65.885  1.00  0.00    -0.012 C  
BRANCH  17  18
HETATM   18  C   UNL     1      -7.796  11.934  67.081  1.00  0.00    -0.168 C  
HETATM   19  C   UNL     1      -6.586  12.806  67.292  1.00  0.00    -0.075 C  
HETATM   20  O   UNL     1      -7.120  14.016  67.828  1.00  0.00    -0.140 OA 
HETATM   21  C   UNL     1      -8.465  14.145  67.302  1.00  0.00    -0.214 C  
HETATM   22  O   UNL     1      -8.864  12.850  66.815  1.00  0.00    -0.209 OA 
BRANCH  21  23
HETATM   23  C   UNL     1      -9.436  14.557  68.411  1.00  0.00    -0.209 A  
HETATM   24  C   UNL     1      -8.975  15.368  69.472  1.00  0.00    -0.229 A  
HETATM   25  C   UNL     1     -10.797  14.185  68.436  1.00  0.00    -0.254 A  
HETATM   26  C   UNL     1      -9.835  15.830  70.471  1.00  0.00     0.658 A  
HETATM   27  C   UNL     1     -11.663  14.664  69.428  1.00  0.00    -0.355 A  
HETATM   28 CL   UNL     1     -11.500  13.088  67.296  1.00  0.00    -0.354 Cl 
HETATM   29 CL   UNL     1     -12.250  16.098  71.636  1.00  0.00    -0.488 Cl 
HETATM   30  C   UNL     1     -11.180  15.493  70.433  1.00  0.00    -0.337 A  
ENDBRANCH  21  23
BRANCH  21  31
HETATM   31  C   UNL     1      -8.417  15.111  66.096  1.00  0.00     0.357 C  
BRANCH  31  32
HETATM   32  N   UNL     1      -9.632  15.189  65.317  1.00  0.00    -0.120 NA 
HETATM   33  C   UNL     1     -10.329  14.163  64.755  1.00  0.00    -0.359 A  
HETATM   34  C   UNL     1     -11.452  15.926  64.641  1.00  0.00    -0.263 A  
HETATM   35  N   UNL     1     -11.480  14.602  64.307  1.00  0.00    -0.230 NA 
HETATM   36  N   UNL     1     -10.341  16.330  65.261  1.00  0.00    -0.596 NA 
ENDBRANCH  31  32
ENDBRANCH  21  31
ENDBRANCH  17  18
ENDBRANCH  16  17
ENDBRANCH  13  16
ENDBRANCH   7  10
ENDBRANCH   2   4
TORSDOF 8
ENDMDL
MODEL      182
REMARK 921   NORMALIZED FREE ENERGY PREDICTED BY IDOCK:   -2.63 KCAL/MOL
REMARK 922        TOTAL FREE ENERGY PREDICTED BY IDOCK:   -5.04 KCAL/MOL
REMARK 923 INTER-LIGAND FREE ENERGY PREDICTED BY IDOCK:   -4.99 KCAL/MOL
REMARK 924 INTRA-LIGAND FREE ENERGY PREDICTED BY IDOCK:   -0.05 KCAL/MOL
REMARK 927      BINDING AFFINITY PREDICTED BY RF-SCORE:    0.00 PKD
ROOT
HETATM    1  C   UNL     1      -7.106  17.071  69.279  1.00  0.00    -0.177 C  
HETATM    2  C   UNL     1      -7.599  15.634  69.013  1.00  0.00    -0.187 C  
HETATM    3  C   UNL     1      -9.032  15.756  68.470  1.00  0.00    -0.194 C  
ENDROOT
BRANCH   2   4
HETATM    4  N   UNL     1      -6.674  14.933  68.092  1.00  0.00    -0.117 NA 
HETATM    5  C   UNL     1      -5.544  14.282  68.810  1.00  0.00    -0.086 C  
HETATM    6  C   UNL     1      -5.924  13.015  69.607  1.00  0.00    -0.118 C  
HETATM    7  N   UNL     1      -6.556  12.037  68.706  1.00  0.00    -0.075 NA 
HETATM    8  C   UNL     1      -7.301  13.884  67.240  1.00  0.00     0.006 C  
HETATM    9  C   UNL     1      -7.707  12.565  67.959  1.00  0.00    -0.140 C  
BRANCH   7  10
HETATM   10  C   UNL     1      -6.454  10.686  68.998  1.00  0.00    -0.052 A  
HETATM   11  C   UNL     1      -6.501  10.219  70.312  1.00  0.00    -0.137 A  
HETATM   12  C   UNL     1      -6.192   8.898  70.635  1.00  0.00    -0.042 A  
HETATM   13  C   UNL     1      -5.819   7.986  69.648  1.00  0.00    -0.026 A  
HETATM   14  C   UNL     1      -6.170   9.741  68.001  1.00  0.00    -0.055 A  
HETATM   15  C   UNL     1      -5.847   8.408  68.319  1.00  0.00    -0.042 A  
BRANCH  13  16
HETATM   16  O   UNL     1      -5.401   6.696  69.894  1.00  0.00    -0.014 OA 
BRANCH  16  17
HETATM   17  C   UNL     1      -6.262   5.691  69.346  1.00  0.00    -0.032 C  
BRANCH  17  18
HETATM   18  C   UNL     1      -7.724   6.111  69.250  1.00  0.00    -0.099 C  
HETATM   19  C   UNL     1      -8.603   5.091  68.575  1.00  0.00    -0.094 C  
HETATM   20  O   UNL     1      -9.864   5.233  69.229  1.00  0.00    -0.153 OA 
HETATM   21  C   UNL     1      -9.584   5.696  70.574  1.00  0.00    -0.174 C  
HETATM   22  O   UNL     1      -8.241   6.215  70.582  1.00  0.00    -0.117 OA 
BRANCH  21  23
HETATM   23  C   UNL     1     -10.536   6.832  70.958  1.00  0.00    -0.237 A  
HETATM   24  C   UNL     1     -10.493   8.047  70.239  1.00  0.00    -0.222 A  
HETATM   25  C   UNL     1     -11.486   6.737  71.997  1.00  0.00    -0.282 A  
HETATM   26  C   UNL     1     -11.385   9.089  70.503  1.00  0.00    -0.282 A  
HETATM   27  C   UNL     1     -12.394   7.776  72.248  1.00  0.00    -0.260 A  
HETATM   28 CL   UNL     1     -11.588   5.381  73.066  1.00  0.00    -0.328 Cl 
HETATM   29 CL   UNL     1     -13.475  10.204  71.788  1.00  0.00    -0.434 Cl 
HETATM   30  C   UNL     1     -12.346   8.941  71.493  1.00  0.00    -0.324 A  
ENDBRANCH  21  23
BRANCH  21  31
HETATM   31  C   UNL     1      -9.626   4.474  71.520  1.00  0.00    -0.163 C  
BRANCH  31  32
HETATM   32  N   UNL     1      -8.391   4.185  72.213  1.00  0.00    -0.101 NA 
HETATM   33  C   UNL     1      -8.026   4.583  73.464  1.00  0.00    -0.095 A  
HETATM   34  C   UNL     1      -6.670   3.157  72.750  1.00  0.00    -0.026 A  
HETATM   35  N   UNL     1      -6.932   3.957  73.825  1.00  0.00    -0.056 NA 
HETATM   36  N   UNL     1      -7.536   3.263  71.740  1.00  0.00    -0.051 NA 
ENDBRANCH  31  32
ENDBRANCH  21  31
ENDBRANCH  17  18
ENDBRANCH  16  17
ENDBRANCH  13  16
ENDBRANCH   7  10
ENDBRANCH   2   4
TORSDOF 8
ENDMDL
MODEL      183
REMARK 921   NORMALIZED FREE ENERGY PREDICTED BY IDOCK:   -2.63 KCAL/MOL
REMARK 922        TOTAL FREE ENERGY PREDICTED BY IDOCK:   -5.03 KCAL/MOL
REMARK 923 INTER-LIGAND FREE ENERGY PREDICTED BY IDOCK:   -4.50 KCAL/MOL
REMARK 924 INTRA-LIGAND FREE ENERGY PREDICTED BY IDOCK:   -0.53 KCAL/MOL
REMARK 927      BINDING AFFINITY PREDICTED BY RF-SCORE:    0.00 PKD
ROOT
HETATM    1  C   UNL     1      -9.467   2.012  69.419  1.00  0.00    -0.122 C  
HETATM    2  C   UNL     1      -8.940   3.315  68.784  1.00  0.00    -0.131 C  
HETATM    3  C   UNL     1      -9.444   3.330  67.332  1.00  0.00    -0.198 C  
ENDROOT
BRANCH   2   4
HETATM    4  N   UNL     1      -9.380   4.489  69.575  1.00  0.00    -0.136 NA 
HETATM    5  C   UNL     1      -8.298   5.022  70.447  1.00  0.00    -0.100 C  
HETATM    6  C   UNL     1      -7.176   5.778  69.701  1.00  0.00    -0.069 C  
HETATM    7  N   UNL     1      -7.759   6.880  68.919  1.00  0.00    -0.108 NA 
HETATM    8  C   UNL     1      -9.892   5.637  68.775  1.00  0.00    -0.146 C  
HETATM    9  C   UNL     1      -8.828   6.464  67.998  1.00  0.00    -0.113 C  
BRANCH   7  10
HETATM   10  C   UNL     1      -6.990   8.003  68.657  1.00  0.00    -0.071 A  
HETATM   11  C   UNL     1      -6.599   8.872  69.677  1.00  0.00    -0.043 A  
HETATM   12  C   UNL     1      -6.010  10.106  69.406  1.00  0.00    -0.037 A  
HETATM   13  C   UNL     1      -5.790  10.525  68.093  1.00  0.00    -0.043 A  
HETATM   14  C   UNL     1      -6.681   8.389  67.344  1.00  0.00    -0.063 A  
HETATM   15  C   UNL     1      -6.096   9.638  67.061  1.00  0.00    -0.063 A  
BRANCH  13  16
HETATM   16  O   UNL     1      -5.310  11.767  67.740  1.00  0.00    -0.047 OA 
BRANCH  16  17
HETATM   17  C   UNL     1      -6.140  12.854  68.166  1.00  0.00    -0.094 C  
BRANCH  17  18
HETATM   18  C   UNL     1      -7.631  12.619  67.946  1.00  0.00    -0.132 C  
HETATM   19  C   UNL     1      -8.477  12.943  69.149  1.00  0.00     0.655 C  
HETATM   20  O   UNL     1      -9.704  13.414  68.592  1.00  0.00    -0.183 OA 
HETATM   21  C   UNL     1      -9.378  14.007  67.311  1.00  0.00    -0.230 C  
HETATM   22  O   UNL     1      -8.075  13.528  66.932  1.00  0.00    -0.058 OA 
BRANCH  21  23
HETATM   23  C   UNL     1     -10.380  13.559  66.243  1.00  0.00    -0.293 A  
HETATM   24  C   UNL     1      -9.931  12.780  65.154  1.00  0.00    -0.185 A  
HETATM   25  C   UNL     1     -11.757  13.868  66.285  1.00  0.00    -0.383 A  
HETATM   26  C   UNL     1     -10.814  12.287  64.190  1.00  0.00    -0.412 A  
HETATM   27  C   UNL     1     -12.645  13.357  65.328  1.00  0.00    -0.518 A  
HETATM   28 CL   UNL     1     -12.455  14.920  67.467  1.00  0.00     0.308 Cl 
HETATM   29 CL   UNL     1     -13.265  11.916  63.134  1.00  0.00    -0.019 Cl 
HETATM   30  C   UNL     1     -12.171  12.560  64.293  1.00  0.00    -0.452 A  
ENDBRANCH  21  23
BRANCH  21  31
HETATM   31  C   UNL     1      -9.283  15.539  67.501  1.00  0.00    -0.198 C  
BRANCH  31  32
HETATM   32  N   UNL     1      -7.945  16.059  67.669  1.00  0.00    -0.138 NA 
HETATM   33  C   UNL     1      -7.284  16.296  68.836  1.00  0.00    -0.190 A  
HETATM   34  C   UNL     1      -5.957  16.464  67.226  1.00  0.00    -0.158 A  
HETATM   35  N   UNL     1      -6.026  16.568  68.585  1.00  0.00    -0.130 NA 
HETATM   36  N   UNL     1      -7.107  16.154  66.622  1.00  0.00    -0.198 NA 
ENDBRANCH  31  32
ENDBRANCH  21  31
ENDBRANCH  17  18
ENDBRANCH  16  17
ENDBRANCH  13  16
ENDBRANCH   7  10
ENDBRANCH   2   4
TORSDOF 8
ENDMDL
MODEL      184
REMARK 921   NORMALIZED FREE ENERGY PREDICTED BY IDOCK:   -2.61 KCAL/MOL
REMARK 922        TOTAL FREE ENERGY PREDICTED BY IDOCK:   -5.00 KCAL/MOL
REMARK 923 INTER-LIGAND FREE ENERGY PREDICTED BY IDOCK:   -4.68 KCAL/MOL
REMARK 924 INTRA-LIGAND FREE ENERGY PREDICTED BY IDOCK:   -0.31 KCAL/MOL
REMARK 927      BINDING AFFINITY PREDICTED BY RF-SCORE:    0.00 PKD
ROOT
HETATM    1  C   UNL     1     -10.897   4.296  64.837  1.00  0.00    -0.108 C  
HETATM    2  C   UNL     1     -10.129   3.356  63.886  1.00  0.00    -0.196 C  
HETATM    3  C   UNL     1      -9.642   4.221  62.712  1.00  0.00    -0.120 C  
ENDROOT
BRANCH   2   4
HETATM    4  N   UNL     1      -9.034   2.670  64.611  1.00  0.00    -0.119 NA 
HETATM    5  C   UNL     1      -7.702   3.267  64.322  1.00  0.00    -0.077 C  
HETATM    6  C   UNL     1      -7.451   4.644  64.975  1.00  0.00    -0.076 C  
HETATM    7  N   UNL     1      -7.632   4.538  66.432  1.00  0.00    -0.089 NA 
HETATM    8  C   UNL     1      -9.177   2.638  66.093  1.00  0.00    -0.053 C  
HETATM    9  C   UNL     1      -8.931   3.981  66.839  1.00  0.00    -0.132 C  
BRANCH   7  10
HETATM   10  C   UNL     1      -6.935   5.401  67.264  1.00  0.00    -0.065 A  
HETATM   11  C   UNL     1      -5.844   4.965  68.017  1.00  0.00    -0.022 A  
HETATM   12  C   UNL     1      -5.270   5.761  69.008  1.00  0.00    -0.004 A  
HETATM   13  C   UNL     1      -5.769   7.033  69.288  1.00  0.00    -0.018 A  
HETATM   14  C   UNL     1      -7.372   6.716  67.486  1.00  0.00    -0.095 A  
HETATM   15  C   UNL     1      -6.805   7.522  68.491  1.00  0.00    -0.066 A  
BRANCH  13  16
HETATM   16  O   UNL     1      -5.327   7.837  70.315  1.00  0.00    -0.023 OA 
BRANCH  16  17
HETATM   17  C   UNL     1      -6.379   8.474  71.049  1.00  0.00    -0.043 C  
BRANCH  17  18
HETATM   18  C   UNL     1      -7.031   7.582  72.100  1.00  0.00    -0.063 C  
HETATM   19  C   UNL     1      -7.354   8.299  73.384  1.00  0.00    -0.111 C  
HETATM   20  O   UNL     1      -8.538   7.653  73.853  1.00  0.00    -0.190 OA 
HETATM   21  C   UNL     1      -9.240   7.170  72.680  1.00  0.00    -0.138 C  
HETATM   22  O   UNL     1      -8.300   7.157  71.589  1.00  0.00    -0.109 OA 
BRANCH  21  23
HETATM   23  C   UNL     1      -9.732   5.738  72.902  1.00  0.00    -0.167 A  
HETATM   24  C   UNL     1     -10.158   5.342  74.190  1.00  0.00    -0.253 A  
HETATM   25  C   UNL     1      -9.805   4.769  71.878  1.00  0.00    -0.176 A  
HETATM   26  C   UNL     1     -10.681   4.069  74.432  1.00  0.00    -0.198 A  
HETATM   27  C   UNL     1     -10.348   3.499  72.118  1.00  0.00    -0.090 A  
HETATM   28 CL   UNL     1      -9.203   5.035  70.279  1.00  0.00    -0.176 Cl 
HETATM   29 CL   UNL     1     -11.479   1.610  73.675  1.00  0.00    -0.282 Cl 
HETATM   30  C   UNL     1     -10.793   3.160  73.389  1.00  0.00    -0.207 A  
ENDBRANCH  21  23
BRANCH  21  31
HETATM   31  C   UNL     1     -10.352   8.187  72.335  1.00  0.00    -0.311 C  
BRANCH  31  32
HETATM   32  N   UNL     1     -10.372   8.641  70.963  1.00  0.00    -0.205 NA 
HETATM   33  C   UNL     1     -10.881   7.994  69.879  1.00  0.00    -0.217 A  
HETATM   34  C   UNL     1     -10.404   9.966  69.365  1.00  0.00    -0.222 A  
HETATM   35  N   UNL     1     -10.902   8.804  68.849  1.00  0.00    -0.083 NA 
HETATM   36  N   UNL     1     -10.066   9.914  70.655  1.00  0.00    -0.176 NA 
ENDBRANCH  31  32
ENDBRANCH  21  31
ENDBRANCH  17  18
ENDBRANCH  16  17
ENDBRANCH  13  16
ENDBRANCH   7  10
ENDBRANCH   2   4
TORSDOF 8
ENDMDL
MODEL      185
REMARK 921   NORMALIZED FREE ENERGY PREDICTED BY IDOCK:   -2.60 KCAL/MOL
REMARK 922        TOTAL FREE ENERGY PREDICTED BY IDOCK:   -5.00 KCAL/MOL
REMARK 923 INTER-LIGAND FREE ENERGY PREDICTED BY IDOCK:   -6.07 KCAL/MOL
REMARK 924 INTRA-LIGAND FREE ENERGY PREDICTED BY IDOCK:    1.08 KCAL/MOL
REMARK 927      BINDING AFFINITY PREDICTED BY RF-SCORE:    0.00 PKD
ROOT
HETATM    1  C   UNL     1     -11.920  16.617  71.889  1.00  0.00     0.037 C  
HETATM    2  C   UNL     1     -12.286  15.223  72.437  1.00  0.00    -0.373 C  
HETATM    3  C   UNL     1     -12.877  15.444  73.839  1.00  0.00    -0.592 C  
ENDROOT
BRANCH   2   4
HETATM    4  N   UNL     1     -13.210  14.529  71.508  1.00  0.00    -0.339 NA 
HETATM    5  C   UNL     1     -12.544  14.135  70.237  1.00  0.00    -0.306 C  
HETATM    6  C   UNL     1     -11.563  12.949  70.358  1.00  0.00     0.152 C  
HETATM    7  N   UNL     1     -12.264  11.784  70.923  1.00  0.00    -0.337 NA 
HETATM    8  C   UNL     1     -13.854  13.302  72.054  1.00  0.00    -0.362 C  
HETATM    9  C   UNL     1     -12.941  12.051  72.201  1.00  0.00    -0.151 C  
BRANCH   7  10
HETATM   10  C   UNL     1     -11.822  10.509  70.603  1.00  0.00    -0.360 A  
HETATM   11  C   UNL     1     -11.095  10.261  69.438  1.00  0.00    -0.299 A  
HETATM   12  C   UNL     1     -10.828   8.964  69.000  1.00  0.00    -0.071 A  
HETATM   13  C   UNL     1     -11.283   7.857  69.716  1.00  0.00     0.011 A  
HETATM   14  C   UNL     1     -12.195   9.393  71.366  1.00  0.00    -0.438 A  
HETATM   15  C   UNL     1     -11.938   8.080  70.927  1.00  0.00    -0.201 A  
BRANCH  13  16
HETATM   16  O   UNL     1     -11.150   6.550  69.299  1.00  0.00    -0.300 OA 
BRANCH  16  17
HETATM   17  C   UNL     1     -10.000   5.884  69.830  1.00  0.00    -0.182 C  
BRANCH  17  18
HETATM   18  C   UNL     1      -8.741   6.743  69.856  1.00  0.00    -0.141 C  
HETATM   19  C   UNL     1      -7.475   5.969  69.599  1.00  0.00    -0.080 C  
HETATM   20  O   UNL     1      -6.633   6.898  68.916  1.00  0.00    -0.041 OA 
HETATM   21  C   UNL     1      -7.509   7.802  68.198  1.00  0.00    -0.108 C  
HETATM   22  O   UNL     1      -8.823   7.677  68.772  1.00  0.00    -0.131 OA 
BRANCH  21  23
HETATM   23  C   UNL     1      -7.046   9.250  68.377  1.00  0.00    -0.072 A  
HETATM   24  C   UNL     1      -6.111   9.561  69.389  1.00  0.00    -0.036 A  
HETATM   25  C   UNL     1      -7.492  10.318  67.568  1.00  0.00    -0.090 A  
HETATM   26  C   UNL     1      -5.604  10.852  69.549  1.00  0.00    -0.039 A  
HETATM   27  C   UNL     1      -6.968  11.609  67.717  1.00  0.00    -0.084 A  
HETATM   28 CL   UNL     1      -8.732  10.147  66.373  1.00  0.00    -0.136 Cl 
HETATM   29 CL   UNL     1      -5.362  13.447  68.865  1.00  0.00    -0.072 Cl 
HETATM   30  C   UNL     1      -6.019  11.867  68.699  1.00  0.00    -0.050 A  
ENDBRANCH  21  23
BRANCH  21  31
HETATM   31  C   UNL     1      -7.587   7.327  66.729  1.00  0.00    -0.100 C  
BRANCH  31  32
HETATM   32  N   UNL     1      -8.440   6.185  66.492  1.00  0.00    -0.116 NA 
HETATM   33  C   UNL     1      -8.102   4.867  66.547  1.00  0.00    -0.107 A  
HETATM   34  C   UNL     1     -10.181   5.058  66.400  1.00  0.00    -0.273 A  
HETATM   35  N   UNL     1      -9.183   4.129  66.478  1.00  0.00    -0.144 NA 
HETATM   36  N   UNL     1      -9.774   6.329  66.405  1.00  0.00    -0.138 NA 
ENDBRANCH  31  32
ENDBRANCH  21  31
ENDBRANCH  17  18
ENDBRANCH  16  17
ENDBRANCH  13  16
ENDBRANCH   7  10
ENDBRANCH   2   4
TORSDOF 8
ENDMDL
MODEL      186
REMARK 921   NORMALIZED FREE ENERGY PREDICTED BY IDOCK:   -2.52 KCAL/MOL
REMARK 922        TOTAL FREE ENERGY PREDICTED BY IDOCK:   -4.88 KCAL/MOL
REMARK 923 INTER-LIGAND FREE ENERGY PREDICTED BY IDOCK:   -5.80 KCAL/MOL
REMARK 924 INTRA-LIGAND FREE ENERGY PREDICTED BY IDOCK:    0.92 KCAL/MOL
REMARK 927      BINDING AFFINITY PREDICTED BY RF-SCORE:    0.00 PKD
ROOT
HETATM    1  C   UNL     1      -8.365   2.896  64.241  1.00  0.00    -0.083 C  
HETATM    2  C   UNL     1      -7.178   1.922  64.378  1.00  0.00    -0.056 C  
HETATM    3  C   UNL     1      -6.018   2.527  63.570  1.00  0.00    -0.010 C  
ENDROOT
BRANCH   2   4
HETATM    4  N   UNL     1      -6.852   1.702  65.807  1.00  0.00    -0.034 NA 
HETATM    5  C   UNL     1      -5.931   2.739  66.345  1.00  0.00    -0.023 C  
HETATM    6  C   UNL     1      -6.573   4.126  66.568  1.00  0.00    -0.045 C  
HETATM    7  N   UNL     1      -7.734   3.994  67.463  1.00  0.00    -0.075 NA 
HETATM    8  C   UNL     1      -8.026   1.653  66.725  1.00  0.00    -0.071 C  
HETATM    9  C   UNL     1      -8.730   3.009  67.016  1.00  0.00    -0.126 C  
BRANCH   7  10
HETATM   10  C   UNL     1      -8.103   5.071  68.254  1.00  0.00    -0.086 A  
HETATM   11  C   UNL     1      -9.363   5.140  68.850  1.00  0.00    -0.168 A  
HETATM   12  C   UNL     1      -9.822   6.302  69.469  1.00  0.00    -0.183 A  
HETATM   13  C   UNL     1      -9.032   7.450  69.516  1.00  0.00    -0.144 A  
HETATM   14  C   UNL     1      -7.278   6.198  68.387  1.00  0.00    -0.084 A  
HETATM   15  C   UNL     1      -7.737   7.379  69.002  1.00  0.00    -0.118 A  
BRANCH  13  16
HETATM   16  O   UNL     1      -9.449   8.665  70.015  1.00  0.00    -0.161 OA 
BRANCH  16  17
HETATM   17  C   UNL     1     -10.397   9.342  69.182  1.00  0.00    -0.211 C  
BRANCH  17  18
HETATM   18  C   UNL     1      -9.847  10.594  68.507  1.00  0.00    -0.168 C  
HETATM   19  C   UNL     1      -8.434  10.441  68.008  1.00  0.00    -0.119 C  
HETATM   20  O   UNL     1      -8.389  11.263  66.841  1.00  0.00    -0.142 OA 
HETATM   21  C   UNL     1      -9.730  11.283  66.294  1.00  0.00    -0.216 C  
HETATM   22  O   UNL     1     -10.626  10.839  67.330  1.00  0.00    -0.211 OA 
BRANCH  21  23
HETATM   23  C   UNL     1     -10.127  12.708  65.901  1.00  0.00    -0.276 A  
HETATM   24  C   UNL     1      -9.717  13.792  66.709  1.00  0.00    -0.277 A  
HETATM   25  C   UNL     1     -10.880  13.019  64.748  1.00  0.00    -0.337 A  
HETATM   26  C   UNL     1      -9.992  15.116  66.358  1.00  0.00    -0.288 A  
HETATM   27  C   UNL     1     -11.139  14.349  64.387  1.00  0.00    -0.203 A  
HETATM   28 CL   UNL     1     -11.579  11.816  63.721  1.00  0.00    -0.514 Cl 
HETATM   29 CL   UNL     1     -10.984  17.020  64.730  1.00  0.00    -0.063 Cl 
HETATM   30  C   UNL     1     -10.684  15.389  65.187  1.00  0.00    -0.440 A  
ENDBRANCH  21  23
BRANCH  21  31
HETATM   31  C   UNL     1      -9.793  10.255  65.141  1.00  0.00    -0.321 C  
BRANCH  31  32
HETATM   32  N   UNL     1      -8.519   9.717  64.721  1.00  0.00    -0.147 NA 
HETATM   33  C   UNL     1      -8.022   8.472  64.960  1.00  0.00    -0.131 A  
HETATM   34  C   UNL     1      -6.816   9.459  63.562  1.00  0.00    -0.098 A  
HETATM   35  N   UNL     1      -6.936   8.285  64.249  1.00  0.00    -0.072 NA 
HETATM   36  N   UNL     1      -7.763  10.365  63.819  1.00  0.00    -0.095 NA 
ENDBRANCH  31  32
ENDBRANCH  21  31
ENDBRANCH  17  18
ENDBRANCH  16  17
ENDBRANCH  13  16
ENDBRANCH   7  10
ENDBRANCH   2   4
TORSDOF 8
ENDMDL
MODEL      187
REMARK 921   NORMALIZED FREE ENERGY PREDICTED BY IDOCK:   -2.51 KCAL/MOL
REMARK 922        TOTAL FREE ENERGY PREDICTED BY IDOCK:   -4.85 KCAL/MOL
REMARK 923 INTER-LIGAND FREE ENERGY PREDICTED BY IDOCK:   -4.83 KCAL/MOL
REMARK 924 INTRA-LIGAND FREE ENERGY PREDICTED BY IDOCK:   -0.02 KCAL/MOL
REMARK 927      BINDING AFFINITY PREDICTED BY RF-SCORE:    0.00 PKD
ROOT
HETATM    1  C   UNL     1      -9.625   4.254  70.393  1.00  0.00    -0.265 C  
HETATM    2  C   UNL     1      -8.625   3.127  70.065  1.00  0.00    -0.060 C  
HETATM    3  C   UNL     1      -8.899   1.992  71.065  1.00  0.00    -0.123 C  
ENDROOT
BRANCH   2   4
HETATM    4  N   UNL     1      -8.761   2.712  68.648  1.00  0.00    -0.080 NA 
HETATM    5  C   UNL     1      -9.602   3.653  67.860  1.00  0.00    -0.122 C  
HETATM    6  C   UNL     1      -8.933   5.008  67.537  1.00  0.00    -0.110 C  
HETATM    7  N   UNL     1      -7.665   4.775  66.827  1.00  0.00    -0.091 NA 
HETATM    8  C   UNL     1      -7.478   2.559  67.907  1.00  0.00    -0.056 C  
HETATM    9  C   UNL     1      -6.738   3.875  67.529  1.00  0.00    -0.047 C  
BRANCH   7  10
HETATM   10  C   UNL     1      -7.194   5.742  65.952  1.00  0.00    -0.075 A  
HETATM   11  C   UNL     1      -5.964   6.371  66.155  1.00  0.00    -0.025 A  
HETATM   12  C   UNL     1      -5.576   7.484  65.411  1.00  0.00    -0.033 A  
HETATM   13  C   UNL     1      -6.408   8.016  64.427  1.00  0.00    -0.057 A  
HETATM   14  C   UNL     1      -7.985   6.225  64.900  1.00  0.00    -0.124 A  
HETATM   15  C   UNL     1      -7.604   7.355  64.149  1.00  0.00    -0.109 A  
BRANCH  13  16
HETATM   16  O   UNL     1      -6.144   9.170  63.721  1.00  0.00    -0.085 OA 
BRANCH  16  17
HETATM   17  C   UNL     1      -5.589  10.224  64.516  1.00  0.00    -0.134 C  
BRANCH  17  18
HETATM   18  C   UNL     1      -6.093  10.248  65.955  1.00  0.00    -0.103 C  
HETATM   19  C   UNL     1      -5.789  11.532  66.681  1.00  0.00    -0.137 C  
HETATM   20  O   UNL     1      -6.894  11.697  67.571  1.00  0.00    -0.086 OA 
HETATM   21  C   UNL     1      -8.031  11.055  66.944  1.00  0.00    -0.143 C  
HETATM   22  O   UNL     1      -7.524  10.177  65.922  1.00  0.00    -0.112 OA 
BRANCH  21  23
HETATM   23  C   UNL     1      -8.797  10.207  67.963  1.00  0.00    -0.125 A  
HETATM   24  C   UNL     1      -8.417  10.245  69.323  1.00  0.00    -0.172 A  
HETATM   25  C   UNL     1      -9.893   9.383  67.628  1.00  0.00    -0.174 A  
HETATM   26  C   UNL     1      -9.124   9.546  70.303  1.00  0.00    -0.296 A  
HETATM   27  C   UNL     1     -10.614   8.697  68.615  1.00  0.00    -0.165 A  
HETATM   28 CL   UNL     1     -10.409   9.110  65.999  1.00  0.00    -0.118 Cl 
HETATM   29 CL   UNL     1     -11.133   7.967  71.159  1.00  0.00    -0.264 Cl 
HETATM   30  C   UNL     1     -10.233   8.791  69.948  1.00  0.00    -0.200 A  
ENDBRANCH  21  23
BRANCH  21  31
HETATM   31  C   UNL     1      -8.877  12.148  66.251  1.00  0.00    -0.040 C  
BRANCH  31  32
HETATM   32  N   UNL     1      -9.311  13.230  67.106  1.00  0.00    -0.231 NA 
HETATM   33  C   UNL     1     -10.330  13.219  68.010  1.00  0.00    -0.241 A  
HETATM   34  C   UNL     1      -9.192  14.960  68.248  1.00  0.00    -0.187 A  
HETATM   35  N   UNL     1     -10.287  14.308  68.738  1.00  0.00    -0.241 NA 
HETATM   36  N   UNL     1      -8.563  14.337  67.248  1.00  0.00    -0.205 NA 
ENDBRANCH  31  32
ENDBRANCH  21  31
ENDBRANCH  17  18
ENDBRANCH  16  17
ENDBRANCH  13  16
ENDBRANCH   7  10
ENDBRANCH   2   4
TORSDOF 8
ENDMDL
MODEL      188
REMARK 921   NORMALIZED FREE ENERGY PREDICTED BY IDOCK:   -2.26 KCAL/MOL
REMARK 922        TOTAL FREE ENERGY PREDICTED BY IDOCK:   -4.49 KCAL/MOL
REMARK 923 INTER-LIGAND FREE ENERGY PREDICTED BY IDOCK:   -6.17 KCAL/MOL
REMARK 924 INTRA-LIGAND FREE ENERGY PREDICTED BY IDOCK:    1.68 KCAL/MOL
REMARK 927      BINDING AFFINITY PREDICTED BY RF-SCORE:    0.00 PKD
ROOT
HETATM    1  C   UNL     1      -5.613   4.993  66.693  1.00  0.00    -0.017 C  
HETATM    2  C   UNL     1      -5.129   5.361  68.110  1.00  0.00    -0.003 C  
HETATM    3  C   UNL     1      -5.125   6.897  68.187  1.00  0.00    -0.011 C  
ENDROOT
BRANCH   2   4
HETATM    4  N   UNL     1      -5.989   4.719  69.133  1.00  0.00    -0.017 NA 
HETATM    5  C   UNL     1      -6.157   5.567  70.345  1.00  0.00    -0.026 C  
HETATM    6  C   UNL     1      -7.072   6.796  70.156  1.00  0.00    -0.071 C  
HETATM    7  N   UNL     1      -8.395   6.358  69.681  1.00  0.00    -0.125 NA 
HETATM    8  C   UNL     1      -7.357   4.353  68.672  1.00  0.00    -0.060 C  
HETATM    9  C   UNL     1      -8.353   5.530  68.466  1.00  0.00    -0.101 C  
BRANCH   7  10
HETATM   10  C   UNL     1      -9.509   7.125  69.982  1.00  0.00    -0.164 A  
HETATM   11  C   UNL     1     -10.209   7.815  68.991  1.00  0.00    -0.213 A  
HETATM   12  C   UNL     1     -11.195   8.750  69.302  1.00  0.00     0.220 A  
HETATM   13  C   UNL     1     -11.521   9.036  70.627  1.00  0.00    -0.248 A  
HETATM   14  C   UNL     1      -9.907   7.349  71.309  1.00  0.00    -0.182 A  
HETATM   15  C   UNL     1     -10.895   8.299  71.632  1.00  0.00    -0.320 A  
BRANCH  13  16
HETATM   16  O   UNL     1     -12.406  10.017  71.020  1.00  0.00    -0.311 OA 
BRANCH  16  17
HETATM   17  C   UNL     1     -12.685  10.988  70.005  1.00  0.00    -0.093 C  
BRANCH  17  18
HETATM   18  C   UNL     1     -11.458  11.430  69.215  1.00  0.00    -0.303 C  
HETATM   19  C   UNL     1     -11.613  11.283  67.724  1.00  0.00    -0.230 C  
HETATM   20  O   UNL     1     -10.847  12.361  67.188  1.00  0.00    -0.233 OA 
HETATM   21  C   UNL     1     -10.872  13.421  68.176  1.00  0.00    -0.255 C  
HETATM   22  O   UNL     1     -11.281  12.836  69.426  1.00  0.00    -0.215 OA 
BRANCH  21  23
HETATM   23  C   UNL     1      -9.474  14.014  68.361  1.00  0.00    -0.213 A  
HETATM   24  C   UNL     1      -9.334  15.396  68.615  1.00  0.00    -0.202 A  
HETATM   25  C   UNL     1      -8.288  13.250  68.309  1.00  0.00    -0.154 A  
HETATM   26  C   UNL     1      -8.087  15.976  68.861  1.00  0.00    -0.218 A  
HETATM   27  C   UNL     1      -7.039  13.829  68.574  1.00  0.00    -0.106 A  
HETATM   28 CL   UNL     1      -8.258  11.575  67.876  1.00  0.00    -0.128 Cl 
HETATM   29 CL   UNL     1      -5.416  15.888  69.207  1.00  0.00    -0.110 Cl 
HETATM   30  C   UNL     1      -6.946  15.185  68.860  1.00  0.00    -0.124 A  
ENDBRANCH  21  23
BRANCH  21  31
HETATM   31  C   UNL     1     -11.954  14.442  67.755  1.00  0.00    -0.333 C  
BRANCH  31  32
HETATM   32  N   UNL     1     -12.046  14.697  66.335  1.00  0.00    -0.282 NA 
HETATM   33  C   UNL     1     -11.190  15.421  65.562  1.00  0.00    -0.234 A  
HETATM   34  C   UNL     1     -12.543  14.388  64.343  1.00  0.00    -0.168 A  
HETATM   35  N   UNL     1     -11.489  15.254  64.296  1.00  0.00    -0.222 NA 
HETATM   36  N   UNL     1     -12.919  14.020  65.570  1.00  0.00    -0.692 NA 
ENDBRANCH  31  32
ENDBRANCH  21  31
ENDBRANCH  17  18
ENDBRANCH  16  17
ENDBRANCH  13  16
ENDBRANCH   7  10
ENDBRANCH   2   4
TORSDOF 8
ENDMDL
MODEL      189
REMARK 921   NORMALIZED FREE ENERGY PREDICTED BY IDOCK:   -2.25 KCAL/MOL
REMARK 922        TOTAL FREE ENERGY PREDICTED BY IDOCK:   -4.48 KCAL/MOL
REMARK 923 INTER-LIGAND FREE ENERGY PREDICTED BY IDOCK:   -4.32 KCAL/MOL
REMARK 924 INTRA-LIGAND FREE ENERGY PREDICTED BY IDOCK:   -0.16 KCAL/MOL
REMARK 927      BINDING AFFINITY PREDICTED BY RF-SCORE:    0.00 PKD
ROOT
HETATM    1  C   UNL     1      -7.622   2.422  62.377  1.00  0.00    -0.042 C  
HETATM    2  C   UNL     1      -7.440   3.628  63.321  1.00  0.00    -0.054 C  
HETATM    3  C   UNL     1      -8.317   4.760  62.763  1.00  0.00    -0.106 C  
ENDROOT
BRANCH   2   4
HETATM    4  N   UNL     1      -7.777   3.249  64.714  1.00  0.00    -0.077 NA 
HETATM    5  C   UNL     1      -6.700   3.607  65.676  1.00  0.00    -0.048 C  
HETATM    6  C   UNL     1      -6.574   5.116  65.977  1.00  0.00    -0.048 C  
HETATM    7  N   UNL     1      -7.861   5.630  66.473  1.00  0.00    -0.100 NA 
HETATM    8  C   UNL     1      -9.039   3.838  65.243  1.00  0.00    -0.143 C  
HETATM    9  C   UNL     1      -9.001   5.355  65.585  1.00  0.00    -0.156 C  
BRANCH   7  10
HETATM   10  C   UNL     1      -7.870   6.724  67.325  1.00  0.00    -0.110 A  
HETATM   11  C   UNL     1      -6.859   6.921  68.267  1.00  0.00    -0.074 A  
HETATM   12  C   UNL     1      -6.962   7.891  69.263  1.00  0.00    -0.056 A  
HETATM   13  C   UNL     1      -8.088   8.708  69.357  1.00  0.00    -0.111 A  
HETATM   14  C   UNL     1      -8.956   7.610  67.368  1.00  0.00    -0.130 A  
HETATM   15  C   UNL     1      -9.072   8.586  68.376  1.00  0.00    -0.139 A  
BRANCH  13  16
HETATM   16  O   UNL     1      -8.312   9.617  70.369  1.00  0.00    -0.186 OA 
BRANCH  16  17
HETATM   17  C   UNL     1      -9.199   9.144  71.389  1.00  0.00    -0.138 C  
BRANCH  17  18
HETATM   18  C   UNL     1      -8.558   8.161  72.362  1.00  0.00    -0.185 C  
HETATM   19  C   UNL     1      -9.088   8.269  73.768  1.00  0.00     0.041 C  
HETATM   20  O   UNL     1      -9.023   6.933  74.267  1.00  0.00    -0.171 OA 
HETATM   21  C   UNL     1      -9.168   6.055  73.123  1.00  0.00    -0.132 C  
HETATM   22  O   UNL     1      -8.905   6.836  71.942  1.00  0.00    -0.135 OA 
BRANCH  21  23
HETATM   23  C   UNL     1      -8.142   4.922  73.184  1.00  0.00    -0.101 A  
HETATM   24  C   UNL     1      -7.101   4.978  74.137  1.00  0.00    -0.082 A  
HETATM   25  C   UNL     1      -8.177   3.790  72.341  1.00  0.00    -0.088 A  
HETATM   26  C   UNL     1      -6.180   3.937  74.282  1.00  0.00    -0.025 A  
HETATM   27  C   UNL     1      -7.264   2.738  72.499  1.00  0.00    -0.036 A  
HETATM   28 CL   UNL     1      -9.295   3.619  71.031  1.00  0.00    -0.198 Cl 
HETATM   29 CL   UNL     1      -5.174   1.510  73.682  1.00  0.00     0.000 Cl 
HETATM   30  C   UNL     1      -6.278   2.812  73.475  1.00  0.00    -0.012 A  
ENDBRANCH  21  23
BRANCH  21  31
HETATM   31  C   UNL     1     -10.641   5.588  73.062  1.00  0.00    -0.239 C  
BRANCH  31  32
HETATM   32  N   UNL     1     -11.420   6.137  71.975  1.00  0.00    -0.305 NA 
HETATM   33  C   UNL     1     -12.450   7.025  72.054  1.00  0.00    -0.244 A  
HETATM   34  C   UNL     1     -11.874   6.786  70.056  1.00  0.00    -0.206 A  
HETATM   35  N   UNL     1     -12.767   7.443  70.852  1.00  0.00    -0.186 NA 
HETATM   36  N   UNL     1     -11.030   5.975  70.699  1.00  0.00    -0.302 NA 
ENDBRANCH  31  32
ENDBRANCH  21  31
ENDBRANCH  17  18
ENDBRANCH  16  17
ENDBRANCH  13  16
ENDBRANCH   7  10
ENDBRANCH   2   4
TORSDOF 8
ENDMDL
MODEL      190
REMARK 921   NORMALIZED FREE ENERGY PREDICTED BY IDOCK:   -2.22 KCAL/MOL
REMARK 922        TOTAL FREE ENERGY PREDICTED BY IDOCK:   -4.44 KCAL/MOL
REMARK 923 INTER-LIGAND FREE ENERGY PREDICTED BY IDOCK:   -4.88 KCAL/MOL
REMARK 924 INTRA-LIGAND FREE ENERGY PREDICTED BY IDOCK:    0.44 KCAL/MOL
REMARK 927      BINDING AFFINITY PREDICTED BY RF-SCORE:    0.00 PKD
ROOT
HETATM    1  C   UNL     1      -9.524   1.774  68.753  1.00  0.00    -0.203 C  
HETATM    2  C   UNL     1      -8.947   3.155  68.379  1.00  0.00    -0.138 C  
HETATM    3  C   UNL     1      -9.487   3.491  66.979  1.00  0.00    -0.207 C  
ENDROOT
BRANCH   2   4
HETATM    4  N   UNL     1      -9.304   4.159  69.409  1.00  0.00    -0.152 NA 
HETATM    5  C   UNL     1      -8.142   4.540  70.256  1.00  0.00    -0.063 C  
HETATM    6  C   UNL     1      -7.094   5.434  69.557  1.00  0.00    -0.063 C  
HETATM    7  N   UNL     1      -7.745   6.652  69.047  1.00  0.00    -0.107 NA 
HETATM    8  C   UNL     1      -9.886   5.426  68.884  1.00  0.00    -0.166 C  
HETATM    9  C   UNL     1      -8.899   6.395  68.172  1.00  0.00    -0.114 C  
BRANCH   7  10
HETATM   10  C   UNL     1      -7.001   7.814  68.923  1.00  0.00    -0.066 A  
HETATM   11  C   UNL     1      -6.727   8.626  70.024  1.00  0.00    -0.039 A  
HETATM   12  C   UNL     1      -6.166   9.895  69.882  1.00  0.00    -0.055 A  
HETATM   13  C   UNL     1      -5.855  10.405  68.622  1.00  0.00    -0.040 A  
HETATM   14  C   UNL     1      -6.599   8.295  67.667  1.00  0.00    -0.058 A  
HETATM   15  C   UNL     1      -6.041   9.579  67.514  1.00  0.00    -0.053 A  
BRANCH  13  16
HETATM   16  O   UNL     1      -5.395  11.683  68.389  1.00  0.00    -0.046 OA 
BRANCH  16  17
HETATM   17  C   UNL     1      -6.405  12.693  68.499  1.00  0.00    -0.070 C  
BRANCH  17  18
HETATM   18  C   UNL     1      -7.801  12.220  68.108  1.00  0.00    -0.148 C  
HETATM   19  C   UNL     1      -8.708  11.977  69.286  1.00  0.00     0.767 C  
HETATM   20  O   UNL     1     -10.006  12.318  68.800  1.00  0.00    -0.155 OA 
HETATM   21  C   UNL     1      -9.814  13.324  67.775  1.00  0.00    -0.224 C  
HETATM   22  O   UNL     1      -8.433  13.274  67.373  1.00  0.00    -0.184 OA 
BRANCH  21  23
HETATM   23  C   UNL     1     -10.679  13.014  66.551  1.00  0.00    -0.290 A  
HETATM   24  C   UNL     1     -11.147  14.075  65.744  1.00  0.00    -0.305 A  
HETATM   25  C   UNL     1     -11.036  11.706  66.157  1.00  0.00    -0.288 A  
HETATM   26  C   UNL     1     -11.881  13.844  64.578  1.00  0.00    -0.449 A  
HETATM   27  C   UNL     1     -11.756  11.474  64.977  1.00  0.00     0.050 A  
HETATM   28 CL   UNL     1     -10.667  10.301  67.097  1.00  0.00    -0.316 Cl 
HETATM   29 CL   UNL     1     -13.027  12.254  62.729  1.00  0.00     0.455 Cl 
HETATM   30  C   UNL     1     -12.164  12.543  64.189  1.00  0.00    -0.467 A  
ENDBRANCH  21  23
BRANCH  21  31
HETATM   31  C   UNL     1     -10.072  14.710  68.411  1.00  0.00    -0.237 C  
BRANCH  31  32
HETATM   32  N   UNL     1     -10.976  14.715  69.539  1.00  0.00    -0.254 NA 
HETATM   33  C   UNL     1     -12.127  14.003  69.687  1.00  0.00    -0.355 A  
HETATM   34  C   UNL     1     -11.612  14.901  71.506  1.00  0.00    -0.301 A  
HETATM   35  N   UNL     1     -12.560  14.112  70.920  1.00  0.00    -0.342 NA 
HETATM   36  N   UNL     1     -10.624  15.294  70.700  1.00  0.00    -0.195 NA 
ENDBRANCH  31  32
ENDBRANCH  21  31
ENDBRANCH  17  18
ENDBRANCH  16  17
ENDBRANCH  13  16
ENDBRANCH   7  10
ENDBRANCH   2   4
TORSDOF 8
ENDMDL
MODEL      191
REMARK 921   NORMALIZED FREE ENERGY PREDICTED BY IDOCK:   -2.15 KCAL/MOL
REMARK 922        TOTAL FREE ENERGY PREDICTED BY IDOCK:   -4.33 KCAL/MOL
REMARK 923 INTER-LIGAND FREE ENERGY PREDICTED BY IDOCK:   -4.63 KCAL/MOL
REMARK 924 INTRA-LIGAND FREE ENERGY PREDICTED BY IDOCK:    0.30 KCAL/MOL
REMARK 927      BINDING AFFINITY PREDICTED BY RF-SCORE:    0.00 PKD
ROOT
HETATM    1  C   UNL     1     -13.161  12.621  71.888  1.00  0.00    -0.504 C  
HETATM    2  C   UNL     1     -13.369  11.240  71.235  1.00  0.00     0.088 C  
HETATM    3  C   UNL     1     -12.307  11.111  70.132  1.00  0.00    -0.373 C  
ENDROOT
BRANCH   2   4
HETATM    4  N   UNL     1     -13.294  10.169  72.257  1.00  0.00    -0.352 NA 
HETATM    5  C   UNL     1     -13.973   8.919  71.821  1.00  0.00    -0.393 C  
HETATM    6  C   UNL     1     -13.222   8.118  70.735  1.00  0.00     0.438 C  
HETATM    7  N   UNL     1     -11.866   7.795  71.208  1.00  0.00    -0.291 NA 
HETATM    8  C   UNL     1     -11.915   9.786  72.674  1.00  0.00     1.325 C  
HETATM    9  C   UNL     1     -11.088   8.965  71.644  1.00  0.00    -0.350 C  
BRANCH   7  10
HETATM   10  C   UNL     1     -11.236   6.659  70.727  1.00  0.00    -0.315 A  
HETATM   11  C   UNL     1     -10.468   5.844  71.561  1.00  0.00    -0.287 A  
HETATM   12  C   UNL     1      -9.663   4.824  71.055  1.00  0.00    -0.257 A  
HETATM   13  C   UNL     1      -9.592   4.579  69.683  1.00  0.00    -0.199 A  
HETATM   14  C   UNL     1     -11.231   6.346  69.360  1.00  0.00    -0.459 A  
HETATM   15  C   UNL     1     -10.414   5.325  68.839  1.00  0.00    -0.190 A  
BRANCH  13  16
HETATM   16  O   UNL     1      -8.746   3.663  69.097  1.00  0.00    -0.079 OA 
BRANCH  16  17
HETATM   17  C   UNL     1      -7.685   4.254  68.338  1.00  0.00    -0.070 C  
BRANCH  17  18
HETATM   18  C   UNL     1      -7.662   5.777  68.386  1.00  0.00    -0.096 C  
HETATM   19  C   UNL     1      -6.308   6.351  68.713  1.00  0.00    -0.038 C  
HETATM   20  O   UNL     1      -6.269   7.582  67.990  1.00  0.00    -0.038 OA 
HETATM   21  C   UNL     1      -7.114   7.406  66.826  1.00  0.00    -0.079 C  
HETATM   22  O   UNL     1      -7.956   6.264  67.071  1.00  0.00    -0.106 OA 
BRANCH  21  23
HETATM   23  C   UNL     1      -8.014   8.628  66.627  1.00  0.00    -0.096 A  
HETATM   24  C   UNL     1      -9.415   8.458  66.577  1.00  0.00    -0.284 A  
HETATM   25  C   UNL     1      -7.525   9.946  66.503  1.00  0.00    -0.100 A  
HETATM   26  C   UNL     1     -10.284   9.546  66.468  1.00  0.00    -0.307 A  
HETATM   27  C   UNL     1      -8.398  11.039  66.412  1.00  0.00    -0.165 A  
HETATM   28 CL   UNL     1      -5.840  10.326  66.405  1.00  0.00    -0.061 Cl 
HETATM   29 CL   UNL     1     -10.841  12.178  66.318  1.00  0.00    -0.306 Cl 
HETATM   30  C   UNL     1      -9.772  10.834  66.407  1.00  0.00    -0.199 A  
ENDBRANCH  21  23
BRANCH  21  31
HETATM   31  C   UNL     1      -6.205   7.073  65.620  1.00  0.00    -0.037 C  
BRANCH  31  32
HETATM   32  N   UNL     1      -6.742   7.422  64.324  1.00  0.00    -0.050 NA 
HETATM   33  C   UNL     1      -7.900   6.985  63.757  1.00  0.00    -0.107 A  
HETATM   34  C   UNL     1      -7.109   8.559  62.626  1.00  0.00    -0.090 A  
HETATM   35  N   UNL     1      -8.151   7.678  62.673  1.00  0.00    -0.131 NA 
HETATM   36  N   UNL     1      -6.221   8.440  63.616  1.00  0.00    -0.072 NA 
ENDBRANCH  31  32
ENDBRANCH  21  31
ENDBRANCH  17  18
ENDBRANCH  16  17
ENDBRANCH  13  16
ENDBRANCH   7  10
ENDBRANCH   2   4
TORSDOF 8
ENDMDL
MODEL      192
REMARK 921   NORMALIZED FREE ENERGY PREDICTED BY IDOCK:   -1.97 KCAL/MOL
REMARK 922        TOTAL FREE ENERGY PREDICTED BY IDOCK:   -4.07 KCAL/MOL
REMARK 923 INTER-LIGAND FREE ENERGY PREDICTED BY IDOCK:   -5.52 KCAL/MOL
REMARK 924 INTRA-LIGAND FREE ENERGY PREDICTED BY IDOCK:    1.45 KCAL/MOL
REMARK 927      BINDING AFFINITY PREDICTED BY RF-SCORE:    0.00 PKD
ROOT
HETATM    1  C   UNL     1      -7.529   3.828  69.040  1.00  0.00    -0.053 C  
HETATM    2  C   UNL     1      -7.401   5.342  68.779  1.00  0.00    -0.074 C  
HETATM    3  C   UNL     1      -8.580   5.733  67.873  1.00  0.00    -0.101 C  
ENDROOT
BRANCH   2   4
HETATM    4  N   UNL     1      -7.366   6.086  70.060  1.00  0.00    -0.073 NA 
HETATM    5  C   UNL     1      -6.616   7.367  69.952  1.00  0.00    -0.043 C  
HETATM    6  C   UNL     1      -7.343   8.482  69.172  1.00  0.00    -0.079 C  
HETATM    7  N   UNL     1      -8.657   8.738  69.785  1.00  0.00    -0.127 NA 
HETATM    8  C   UNL     1      -8.699   6.418  70.637  1.00  0.00    -0.144 C  
HETATM    9  C   UNL     1      -9.501   7.541  69.919  1.00  0.00    -0.160 C  
BRANCH   7  10
HETATM   10  C   UNL     1      -9.221   9.999  69.672  1.00  0.00    -0.215 A  
HETATM   11  C   UNL     1     -10.551  10.236  70.026  1.00  0.00    -0.321 A  
HETATM   12  C   UNL     1     -11.189  11.438  69.723  1.00  0.00    -0.266 A  
HETATM   13  C   UNL     1     -10.518  12.458  69.047  1.00  0.00     0.001 A  
HETATM   14  C   UNL     1      -8.526  11.062  69.077  1.00  0.00    -0.082 A  
HETATM   15  C   UNL     1      -9.166  12.275  68.758  1.00  0.00     0.106 A  
BRANCH  13  16
HETATM   16  O   UNL     1     -11.104  13.630  68.621  1.00  0.00    -0.249 OA 
BRANCH  16  17
HETATM   17  C   UNL     1     -12.207  13.437  67.728  1.00  0.00    -0.130 C  
BRANCH  17  18
HETATM   18  C   UNL     1     -11.981  12.345  66.689  1.00  0.00    -0.229 C  
HETATM   19  C   UNL     1     -12.797  12.524  65.436  1.00  0.00     0.366 C  
HETATM   20  O   UNL     1     -11.966  11.993  64.403  1.00  0.00    -0.347 OA 
HETATM   21  C   UNL     1     -10.596  12.181  64.834  1.00  0.00    -0.293 C  
HETATM   22  O   UNL     1     -10.619  12.427  66.253  1.00  0.00    -0.242 OA 
BRANCH  21  23
HETATM   23  C   UNL     1      -9.777  10.913  64.583  1.00  0.00    -0.333 A  
HETATM   24  C   UNL     1      -8.980  10.819  63.420  1.00  0.00    -0.208 A  
HETATM   25  C   UNL     1      -9.752   9.811  65.465  1.00  0.00    -0.312 A  
HETATM   26  C   UNL     1      -8.161   9.714  63.178  1.00  0.00    -0.146 A  
HETATM   27  C   UNL     1      -8.915   8.711  65.231  1.00  0.00    -0.150 A  
HETATM   28 CL   UNL     1     -10.765   9.695  66.863  1.00  0.00    -0.237 Cl 
HETATM   29 CL   UNL     1      -7.073   7.334  63.821  1.00  0.00    -0.064 Cl 
HETATM   30  C   UNL     1      -8.116   8.674  64.095  1.00  0.00    -0.162 A  
ENDBRANCH  21  23
BRANCH  21  31
HETATM   31  C   UNL     1     -10.045  13.450  64.143  1.00  0.00     0.248 C  
BRANCH  31  32
HETATM   32  N   UNL     1     -10.158  14.671  64.909  1.00  0.00    -0.309 NA 
HETATM   33  C   UNL     1     -11.109  15.639  64.797  1.00  0.00    -0.412 A  
HETATM   34  C   UNL     1      -9.961  15.971  66.515  1.00  0.00    -0.279 A  
HETATM   35  N   UNL     1     -11.000  16.484  65.794  1.00  0.00    -0.096 NA 
HETATM   36  N   UNL     1      -9.415  14.862  66.012  1.00  0.00    -0.299 NA 
ENDBRANCH  31  32
ENDBRANCH  21  31
ENDBRANCH  17  18
ENDBRANCH  16  17
ENDBRANCH  13  16
ENDBRANCH   7  10
ENDBRANCH   2   4
TORSDOF 8
ENDMDL
MODEL      193
REMARK 921   NORMALIZED FREE ENERGY PREDICTED BY IDOCK:   -1.93 KCAL/MOL
REMARK 922        TOTAL FREE ENERGY PREDICTED BY IDOCK:   -4.01 KCAL/MOL
REMARK 923 INTER-LIGAND FREE ENERGY PREDICTED BY IDOCK:   -3.38 KCAL/MOL
REMARK 924 INTRA-LIGAND FREE ENERGY PREDICTED BY IDOCK:   -0.62 KCAL/MOL
REMARK 927      BINDING AFFINITY PREDICTED BY RF-SCORE:    0.00 PKD
ROOT
HETATM    1  C   UNL     1     -14.411  15.957  72.396  1.00  0.00    -0.182 C  
HETATM    2  C   UNL     1     -13.870  14.884  71.428  1.00  0.00    -0.459 C  
HETATM    3  C   UNL     1     -13.782  15.546  70.044  1.00  0.00     1.189 C  
ENDROOT
BRANCH   2   4
HETATM    4  N   UNL     1     -12.573  14.356  71.915  1.00  0.00    -0.341 NA 
HETATM    5  C   UNL     1     -12.739  13.164  72.789  1.00  0.00     0.606 C  
HETATM    6  C   UNL     1     -13.140  11.868  72.051  1.00  0.00    -0.336 C  
HETATM    7  N   UNL     1     -12.150  11.570  71.004  1.00  0.00    -0.254 NA 
HETATM    8  C   UNL     1     -11.603  13.976  70.850  1.00  0.00     0.084 C  
HETATM    9  C   UNL     1     -11.922  12.675  70.060  1.00  0.00    -0.306 C  
BRANCH   7  10
HETATM   10  C   UNL     1     -11.946  10.253  70.622  1.00  0.00    -0.342 A  
HETATM   11  C   UNL     1     -12.396   9.189  71.405  1.00  0.00    -0.404 A  
HETATM   12  C   UNL     1     -12.018   7.873  71.144  1.00  0.00    -0.304 A  
HETATM   13  C   UNL     1     -11.168   7.566  70.082  1.00  0.00    -0.196 A  
HETATM   14  C   UNL     1     -11.168   9.928  69.501  1.00  0.00    -0.220 A  
HETATM   15  C   UNL     1     -10.774   8.603  69.236  1.00  0.00    -0.151 A  
BRANCH  13  16
HETATM   16  O   UNL     1     -10.667   6.310  69.820  1.00  0.00    -0.235 OA 
BRANCH  16  17
HETATM   17  C   UNL     1     -10.768   5.918  68.446  1.00  0.00    -0.250 C  
BRANCH  17  18
HETATM   18  C   UNL     1      -9.457   5.430  67.841  1.00  0.00    -0.120 C  
HETATM   19  C   UNL     1      -8.319   5.376  68.827  1.00  0.00    -0.097 C  
HETATM   20  O   UNL     1      -7.531   4.271  68.386  1.00  0.00    -0.063 OA 
HETATM   21  C   UNL     1      -8.437   3.348  67.733  1.00  0.00    -0.095 C  
HETATM   22  O   UNL     1      -9.643   4.072  67.424  1.00  0.00    -0.185 OA 
BRANCH  21  23
HETATM   23  C   UNL     1      -7.834   2.844  66.420  1.00  0.00    -0.077 A  
HETATM   24  C   UNL     1      -8.639   2.794  65.260  1.00  0.00    -0.107 A  
HETATM   25  C   UNL     1      -6.491   2.430  66.284  1.00  0.00    -0.028 A  
HETATM   26  C   UNL     1      -8.121   2.409  64.021  1.00  0.00    -0.081 A  
HETATM   27  C   UNL     1      -5.967   2.061  65.037  1.00  0.00    -0.018 A  
HETATM   28 CL   UNL     1      -5.403   2.296  67.622  1.00  0.00    -0.016 Cl 
HETATM   29 CL   UNL     1      -6.129   1.633  62.379  1.00  0.00    -0.008 Cl 
HETATM   30  C   UNL     1      -6.781   2.064  63.912  1.00  0.00    -0.027 A  
ENDBRANCH  21  23
BRANCH  21  31
HETATM   31  C   UNL     1      -8.799   2.236  68.744  1.00  0.00    -0.099 C  
BRANCH  31  32
HETATM   32  N   UNL     1      -8.803   2.638  70.132  1.00  0.00    -0.074 NA 
HETATM   33  C   UNL     1      -9.872   3.014  70.888  1.00  0.00     0.021 A  
HETATM   34  C   UNL     1      -8.196   2.750  72.114  1.00  0.00    -0.059 A  
HETATM   35  N   UNL     1      -9.514   3.105  72.146  1.00  0.00    -0.119 NA 
HETATM   36  N   UNL     1      -7.717   2.456  70.904  1.00  0.00    -0.036 NA 
ENDBRANCH  31  32
ENDBRANCH  21  31
ENDBRANCH  17  18
ENDBRANCH  16  17
ENDBRANCH  13  16
ENDBRANCH   7  10
ENDBRANCH   2   4
TORSDOF 8
ENDMDL
MODEL      194
REMARK 921   NORMALIZED FREE ENERGY PREDICTED BY IDOCK:   -1.93 KCAL/MOL
REMARK 922        TOTAL FREE ENERGY PREDICTED BY IDOCK:   -4.00 KCAL/MOL
REMARK 923 INTER-LIGAND FREE ENERGY PREDICTED BY IDOCK:   -4.73 KCAL/MOL
REMARK 924 INTRA-LIGAND FREE ENERGY PREDICTED BY IDOCK:    0.72 KCAL/MOL
REMARK 927      BINDING AFFINITY PREDICTED BY RF-SCORE:    0.00 PKD
ROOT
HETATM    1  C   UNL     1      -8.135   3.095  64.221  1.00  0.00    -0.083 C  
HETATM    2  C   UNL     1      -6.899   2.216  63.941  1.00  0.00    -0.035 C  
HETATM    3  C   UNL     1      -6.045   2.976  62.912  1.00  0.00    -0.014 C  
ENDROOT
BRANCH   2   4
HETATM    4  N   UNL     1      -6.180   1.918  65.202  1.00  0.00    -0.018 NA 
HETATM    5  C   UNL     1      -5.378   3.075  65.685  1.00  0.00    -0.009 C  
HETATM    6  C   UNL     1      -6.205   4.237  66.276  1.00  0.00    -0.032 C  
HETATM    7  N   UNL     1      -7.046   3.735  67.375  1.00  0.00    -0.058 NA 
HETATM    8  C   UNL     1      -7.043   1.490  66.338  1.00  0.00    -0.046 C  
HETATM    9  C   UNL     1      -7.906   2.600  67.004  1.00  0.00    -0.071 C  
BRANCH   7  10
HETATM   10  C   UNL     1      -7.406   4.597  68.398  1.00  0.00    -0.065 A  
HETATM   11  C   UNL     1      -8.314   4.215  69.388  1.00  0.00    -0.080 A  
HETATM   12  C   UNL     1      -8.843   5.132  70.295  1.00  0.00    -0.144 A  
HETATM   13  C   UNL     1      -8.484   6.479  70.246  1.00  0.00    -0.135 A  
HETATM   14  C   UNL     1      -6.979   5.933  68.415  1.00  0.00    -0.072 A  
HETATM   15  C   UNL     1      -7.516   6.868  69.321  1.00  0.00    -0.094 A  
BRANCH  13  16
HETATM   16  O   UNL     1      -9.037   7.464  71.036  1.00  0.00    -0.151 OA 
BRANCH  16  17
HETATM   17  C   UNL     1     -10.101   8.185  70.406  1.00  0.00    -0.194 C  
BRANCH  17  18
HETATM   18  C   UNL     1      -9.774   9.646  70.115  1.00  0.00    -0.254 C  
HETATM   19  C   UNL     1      -8.578   9.831  69.218  1.00  0.00    -0.158 C  
HETATM   20  O   UNL     1      -8.882  11.011  68.475  1.00  0.00    -0.147 OA 
HETATM   21  C   UNL     1     -10.326  11.079  68.376  1.00  0.00    -0.183 C  
HETATM   22  O   UNL     1     -10.870  10.205  69.382  1.00  0.00    -0.214 OA 
BRANCH  21  23
HETATM   23  C   UNL     1     -10.816  12.500  68.663  1.00  0.00    -0.280 A  
HETATM   24  C   UNL     1     -11.680  12.729  69.757  1.00  0.00    -0.352 A  
HETATM   25  C   UNL     1     -10.440  13.626  67.899  1.00  0.00    -0.247 A  
HETATM   26  C   UNL     1     -12.101  14.014  70.105  1.00  0.00    -0.419 A  
HETATM   27  C   UNL     1     -10.848  14.918  68.261  1.00  0.00    -0.257 A  
HETATM   28 CL   UNL     1      -9.502  13.516  66.450  1.00  0.00    -0.263 Cl 
HETATM   29 CL   UNL     1     -12.145  16.694  69.822  1.00  0.00     0.801 Cl 
HETATM   30  C   UNL     1     -11.666  15.106  69.367  1.00  0.00    -0.332 A  
ENDBRANCH  21  23
BRANCH  21  31
HETATM   31  C   UNL     1     -10.738  10.524  66.992  1.00  0.00    -0.250 C  
BRANCH  31  32
HETATM   32  N   UNL     1      -9.898   9.468  66.475  1.00  0.00    -0.221 NA 
HETATM   33  C   UNL     1     -10.071   8.123  66.610  1.00  0.00    -0.273 A  
HETATM   34  C   UNL     1      -8.559   8.504  65.214  1.00  0.00    -0.165 A  
HETATM   35  N   UNL     1      -9.228   7.488  65.833  1.00  0.00    -0.050 NA 
HETATM   36  N   UNL     1      -8.935   9.733  65.575  1.00  0.00    -0.164 NA 
ENDBRANCH  31  32
ENDBRANCH  21  31
ENDBRANCH  17  18
ENDBRANCH  16  17
ENDBRANCH  13  16
ENDBRANCH   7  10
ENDBRANCH   2   4
TORSDOF 8
ENDMDL
MODEL      195
REMARK 921   NORMALIZED FREE ENERGY PREDICTED BY IDOCK:   -1.88 KCAL/MOL
REMARK 922        TOTAL FREE ENERGY PREDICTED BY IDOCK:   -3.93 KCAL/MOL
REMARK 923 INTER-LIGAND FREE ENERGY PREDICTED BY IDOCK:   -4.79 KCAL/MOL
REMARK 924 INTRA-LIGAND FREE ENERGY PREDICTED BY IDOCK:    0.86 KCAL/MOL
REMARK 927      BINDING AFFINITY PREDICTED BY RF-SCORE:    0.00 PKD
ROOT
HETATM    1  C   UNL     1      -8.662  18.352  66.145  1.00  0.00    -0.126 C  
HETATM    2  C   UNL     1      -9.032  19.832  66.375  1.00  0.00    -0.379 C  
HETATM    3  C   UNL     1     -10.007  20.220  65.253  1.00  0.00     0.393 C  
ENDROOT
BRANCH   2   4
HETATM    4  N   UNL     1      -9.590  20.019  67.736  1.00  0.00    -0.371 NA 
HETATM    5  C   UNL     1     -11.003  19.564  67.836  1.00  0.00    -0.015 C  
HETATM    6  C   UNL     1     -11.195  18.032  67.825  1.00  0.00     0.304 C  
HETATM    7  N   UNL     1     -10.411  17.429  68.914  1.00  0.00    -0.348 NA 
HETATM    8  C   UNL     1      -8.841  19.337  68.828  1.00  0.00    -0.346 C  
HETATM    9  C   UNL     1      -8.985  17.789  68.900  1.00  0.00    -0.120 C  
BRANCH   7  10
HETATM   10  C   UNL     1     -10.838  16.234  69.472  1.00  0.00    -0.342 A  
HETATM   11  C   UNL     1     -10.150  15.040  69.252  1.00  0.00    -0.236 A  
HETATM   12  C   UNL     1     -10.679  13.806  69.629  1.00  0.00     0.171 A  
HETATM   13  C   UNL     1     -11.928  13.717  70.244  1.00  0.00    -0.326 A  
HETATM   14  C   UNL     1     -12.049  16.146  70.175  1.00  0.00     0.003 A  
HETATM   15  C   UNL     1     -12.595  14.903  70.550  1.00  0.00    -0.414 A  
BRANCH  13  16
HETATM   16  O   UNL     1     -12.564  12.534  70.552  1.00  0.00    -0.214 OA 
BRANCH  16  17
HETATM   17  C   UNL     1     -11.672  11.441  70.797  1.00  0.00     0.037 C  
BRANCH  17  18
HETATM   18  C   UNL     1     -11.585  10.441  69.650  1.00  0.00    -0.239 C  
HETATM   19  C   UNL     1     -12.040  10.998  68.327  1.00  0.00     0.133 C  
HETATM   20  O   UNL     1     -11.222  10.327  67.369  1.00  0.00    -0.274 OA 
HETATM   21  C   UNL     1      -9.974  10.013  68.036  1.00  0.00    -0.150 C  
HETATM   22  O   UNL     1     -10.204  10.115  69.453  1.00  0.00    -0.200 OA 
BRANCH  21  23
HETATM   23  C   UNL     1      -9.546   8.578  67.723  1.00  0.00    -0.185 A  
HETATM   24  C   UNL     1      -9.589   7.602  68.745  1.00  0.00    -0.153 A  
HETATM   25  C   UNL     1      -9.116   8.150  66.449  1.00  0.00    -0.183 A  
HETATM   26  C   UNL     1      -9.277   6.264  68.496  1.00  0.00    -0.123 A  
HETATM   27  C   UNL     1      -8.820   6.803  66.196  1.00  0.00    -0.161 A  
HETATM   28 CL   UNL     1      -8.872   9.231  65.120  1.00  0.00    -0.221 Cl 
HETATM   29 CL   UNL     1      -8.573   4.211  66.899  1.00  0.00    -0.107 Cl 
HETATM   30  C   UNL     1      -8.914   5.866  67.217  1.00  0.00    -0.108 A  
ENDBRANCH  21  23
BRANCH  21  31
HETATM   31  C   UNL     1      -8.938  11.093  67.646  1.00  0.00    -0.140 C  
BRANCH  31  32
HETATM   32  N   UNL     1      -7.722  11.095  68.428  1.00  0.00    -0.117 NA 
HETATM   33  C   UNL     1      -7.217  12.113  69.180  1.00  0.00     0.022 A  
HETATM   34  C   UNL     1      -6.156  10.351  69.570  1.00  0.00    -0.047 A  
HETATM   35  N   UNL     1      -6.216  11.673  69.903  1.00  0.00    -0.140 NA 
HETATM   36  N   UNL     1      -7.058   9.952  68.671  1.00  0.00    -0.070 NA 
ENDBRANCH  31  32
ENDBRANCH  21  31
ENDBRANCH  17  18
ENDBRANCH  16  17
ENDBRANCH  13  16
ENDBRANCH   7  10
ENDBRANCH   2   4
TORSDOF 8
ENDMDL
MODEL      196
REMARK 921   NORMALIZED FREE ENERGY PREDICTED BY IDOCK:   -1.85 KCAL/MOL
REMARK 922        TOTAL FREE ENERGY PREDICTED BY IDOCK:   -3.89 KCAL/MOL
REMARK 923 INTER-LIGAND FREE ENERGY PREDICTED BY IDOCK:   -4.98 KCAL/MOL
REMARK 924 INTRA-LIGAND FREE ENERGY PREDICTED BY IDOCK:    1.10 KCAL/MOL
REMARK 927      BINDING AFFINITY PREDICTED BY RF-SCORE:    0.00 PKD
ROOT
HETATM    1  C   UNL     1     -12.513  14.495  72.404  1.00  0.00    -0.351 C  
HETATM    2  C   UNL     1     -12.416  14.908  70.922  1.00  0.00    -0.330 C  
HETATM    3  C   UNL     1     -10.931  15.188  70.640  1.00  0.00    -0.260 C  
ENDROOT
BRANCH   2   4
HETATM    4  N   UNL     1     -12.996  13.856  70.053  1.00  0.00     0.088 NA 
HETATM    5  C   UNL     1     -12.032  13.373  69.028  1.00  0.00    -0.315 C  
HETATM    6  C   UNL     1     -10.895  12.482  69.574  1.00  0.00     0.193 C  
HETATM    7  N   UNL     1     -11.471  11.328  70.284  1.00  0.00    -0.256 NA 
HETATM    8  C   UNL     1     -13.502  12.651  70.769  1.00  0.00     0.906 C  
HETATM    9  C   UNL     1     -12.424  11.688  71.344  1.00  0.00    -0.208 C  
BRANCH   7  10
HETATM   10  C   UNL     1     -10.751  10.145  70.345  1.00  0.00    -0.266 A  
HETATM   11  C   UNL     1     -11.209   9.050  71.081  1.00  0.00    -0.375 A  
HETATM   12  C   UNL     1     -10.404   7.938  71.323  1.00  0.00    -0.222 A  
HETATM   13  C   UNL     1      -9.098   7.877  70.837  1.00  0.00    -0.151 A  
HETATM   14  C   UNL     1      -9.471  10.036  69.781  1.00  0.00    -0.239 A  
HETATM   15  C   UNL     1      -8.648   8.921  70.029  1.00  0.00    -0.145 A  
BRANCH  13  16
HETATM   16  O   UNL     1      -8.207   6.864  71.118  1.00  0.00    -0.116 OA 
BRANCH  16  17
HETATM   17  C   UNL     1      -7.474   6.401  69.977  1.00  0.00    -0.091 C  
BRANCH  17  18
HETATM   18  C   UNL     1      -8.142   5.248  69.236  1.00  0.00    -0.092 C  
HETATM   19  C   UNL     1      -9.442   4.805  69.855  1.00  0.00    -0.161 C  
HETATM   20  O   UNL     1     -10.227   4.378  68.741  1.00  0.00     0.005 OA 
HETATM   21  C   UNL     1      -9.784   5.152  67.599  1.00  0.00    -0.148 C  
HETATM   22  O   UNL     1      -8.499   5.712  67.929  1.00  0.00    -0.104 OA 
BRANCH  21  23
HETATM   23  C   UNL     1      -9.611   4.251  66.375  1.00  0.00    -0.209 A  
HETATM   24  C   UNL     1     -10.377   4.501  65.214  1.00  0.00    -0.187 A  
HETATM   25  C   UNL     1      -8.705   3.169  66.322  1.00  0.00    -0.131 A  
HETATM   26  C   UNL     1     -10.208   3.753  64.047  1.00  0.00    -0.233 A  
HETATM   27  C   UNL     1      -8.523   2.431  65.145  1.00  0.00    -0.099 A  
HETATM   28 CL   UNL     1      -7.789   2.635  67.689  1.00  0.00    -0.064 Cl 
HETATM   29 CL   UNL     1      -9.025   1.842  62.561  1.00  0.00    -0.072 Cl 
HETATM   30  C   UNL     1      -9.267   2.734  64.011  1.00  0.00    -0.111 A  
ENDBRANCH  21  23
BRANCH  21  31
HETATM   31  C   UNL     1     -10.774   6.324  67.402  1.00  0.00    -0.331 C  
BRANCH  31  32
HETATM   32  N   UNL     1     -10.212   7.516  66.810  1.00  0.00    -0.269 NA 
HETATM   33  C   UNL     1     -10.712   8.782  66.851  1.00  0.00    -0.081 A  
HETATM   34  C   UNL     1      -8.767   8.816  66.079  1.00  0.00    -0.167 A  
HETATM   35  N   UNL     1      -9.824   9.625  66.383  1.00  0.00    -0.225 NA 
HETATM   36  N   UNL     1      -8.958   7.518  66.324  1.00  0.00    -0.165 NA 
ENDBRANCH  31  32
ENDBRANCH  21  31
ENDBRANCH  17  18
ENDBRANCH  16  17
ENDBRANCH  13  16
ENDBRANCH   7  10
ENDBRANCH   2   4
TORSDOF 8
ENDMDL
MODEL      197
REMARK 921   NORMALIZED FREE ENERGY PREDICTED BY IDOCK:   -1.82 KCAL/MOL
REMARK 922        TOTAL FREE ENERGY PREDICTED BY IDOCK:   -3.85 KCAL/MOL
REMARK 923 INTER-LIGAND FREE ENERGY PREDICTED BY IDOCK:   -4.52 KCAL/MOL
REMARK 924 INTRA-LIGAND FREE ENERGY PREDICTED BY IDOCK:    0.67 KCAL/MOL
REMARK 927      BINDING AFFINITY PREDICTED BY RF-SCORE:    0.00 PKD
ROOT
HETATM    1  C   UNL     1     -10.374   9.983  65.832  1.00  0.00    -0.202 C  
HETATM    2  C   UNL     1     -10.295  11.517  65.705  1.00  0.00    -0.248 C  
HETATM    3  C   UNL     1     -11.549  12.080  66.395  1.00  0.00    -0.381 C  
ENDROOT
BRANCH   2   4
HETATM    4  N   UNL     1      -9.026  12.020  66.283  1.00  0.00    -0.173 NA 
HETATM    5  C   UNL     1      -9.213  12.607  67.638  1.00  0.00    -0.191 C  
HETATM    6  C   UNL     1      -9.473  11.579  68.761  1.00  0.00    -0.089 C  
HETATM    7  N   UNL     1      -8.371  10.604  68.801  1.00  0.00    -0.136 NA 
HETATM    8  C   UNL     1      -7.939  11.008  66.401  1.00  0.00    -0.161 C  
HETATM    9  C   UNL     1      -8.111   9.937  67.516  1.00  0.00    -0.110 C  
BRANCH   7  10
HETATM   10  C   UNL     1      -8.062   9.982  70.001  1.00  0.00    -0.136 A  
HETATM   11  C   UNL     1      -6.747   9.901  70.463  1.00  0.00    -0.124 A  
HETATM   12  C   UNL     1      -6.398   9.104  71.552  1.00  0.00    -0.060 A  
HETATM   13  C   UNL     1      -7.357   8.349  72.226  1.00  0.00    -0.093 A  
HETATM   14  C   UNL     1      -9.036   9.295  70.741  1.00  0.00    -0.292 A  
HETATM   15  C   UNL     1      -8.690   8.480  71.836  1.00  0.00    -0.270 A  
BRANCH  13  16
HETATM   16  O   UNL     1      -7.079   7.461  73.242  1.00  0.00    -0.071 OA 
BRANCH  16  17
HETATM   17  C   UNL     1      -7.811   6.233  73.157  1.00  0.00    -0.106 C  
BRANCH  17  18
HETATM   18  C   UNL     1      -7.220   5.224  72.178  1.00  0.00    -0.087 C  
HETATM   19  C   UNL     1      -7.226   3.808  72.691  1.00  0.00    -0.053 C  
HETATM   20  O   UNL     1      -7.409   3.016  71.518  1.00  0.00    -0.038 OA 
HETATM   21  C   UNL     1      -8.160   3.827  70.581  1.00  0.00    -0.054 C  
HETATM   22  O   UNL     1      -8.059   5.196  71.017  1.00  0.00    -0.098 OA 
BRANCH  21  23
HETATM   23  C   UNL     1      -7.552   3.727  69.179  1.00  0.00    -0.053 A  
HETATM   24  C   UNL     1      -7.504   2.473  68.531  1.00  0.00    -0.047 A  
HETATM   25  C   UNL     1      -7.040   4.835  68.469  1.00  0.00    -0.057 A  
HETATM   26  C   UNL     1      -7.024   2.338  67.226  1.00  0.00    -0.044 A  
HETATM   27  C   UNL     1      -6.577   4.701  67.153  1.00  0.00    -0.050 A  
HETATM   28 CL   UNL     1      -6.895   6.415  69.157  1.00  0.00    -0.060 Cl 
HETATM   29 CL   UNL     1      -6.034   3.301  64.912  1.00  0.00    -0.022 Cl 
HETATM   30  C   UNL     1      -6.582   3.457  66.535  1.00  0.00    -0.041 A  
ENDBRANCH  21  23
BRANCH  21  31
HETATM   31  C   UNL     1      -9.646   3.410  70.670  1.00  0.00    -0.168 C  
BRANCH  31  32
HETATM   32  N   UNL     1     -10.074   2.914  71.958  1.00  0.00    -0.152 NA 
HETATM   33  C   UNL     1     -10.582   3.630  72.999  1.00  0.00    -0.163 A  
HETATM   34  C   UNL     1     -10.812   1.583  73.369  1.00  0.00    -0.129 A  
HETATM   35  N   UNL     1     -11.045   2.813  73.914  1.00  0.00    -0.202 NA 
HETATM   36  N   UNL     1     -10.219   1.595  72.173  1.00  0.00    -0.155 NA 
ENDBRANCH  31  32
ENDBRANCH  21  31
ENDBRANCH  17  18
ENDBRANCH  16  17
ENDBRANCH  13  16
ENDBRANCH   7  10
ENDBRANCH   2   4
TORSDOF 8
ENDMDL
MODEL      198
REMARK 921   NORMALIZED FREE ENERGY PREDICTED BY IDOCK:   -1.75 KCAL/MOL
REMARK 922        TOTAL FREE ENERGY PREDICTED BY IDOCK:   -3.74 KCAL/MOL
REMARK 923 INTER-LIGAND FREE ENERGY PREDICTED BY IDOCK:   -4.54 KCAL/MOL
REMARK 924 INTRA-LIGAND FREE ENERGY PREDICTED BY IDOCK:    0.80 KCAL/MOL
REMARK 927      BINDING AFFINITY PREDICTED BY RF-SCORE:    0.00 PKD
ROOT
HETATM    1  C   UNL     1      -7.844   3.340  64.333  1.00  0.00    -0.082 C  
HETATM    2  C   UNL     1      -6.728   2.315  64.623  1.00  0.00    -0.038 C  
HETATM    3  C   UNL     1      -5.419   2.932  64.103  1.00  0.00    -0.009 C  
ENDROOT
BRANCH   2   4
HETATM    4  N   UNL     1      -6.694   1.983  66.067  1.00  0.00    -0.034 NA 
HETATM    5  C   UNL     1      -5.850   2.929  66.846  1.00  0.00    -0.023 C  
HETATM    6  C   UNL     1      -6.462   4.332  67.048  1.00  0.00    -0.042 C  
HETATM    7  N   UNL     1      -7.778   4.207  67.695  1.00  0.00    -0.079 NA 
HETATM    8  C   UNL     1      -8.023   1.940  66.740  1.00  0.00    -0.072 C  
HETATM    9  C   UNL     1      -8.711   3.312  66.994  1.00  0.00    -0.125 C  
BRANCH   7  10
HETATM   10  C   UNL     1      -8.245   5.249  68.482  1.00  0.00    -0.090 A  
HETATM   11  C   UNL     1      -9.598   5.366  68.807  1.00  0.00    -0.182 A  
HETATM   12  C   UNL     1     -10.111   6.511  69.414  1.00  0.00    -0.198 A  
HETATM   13  C   UNL     1      -9.287   7.593  69.721  1.00  0.00    -0.150 A  
HETATM   14  C   UNL     1      -7.406   6.301  68.877  1.00  0.00    -0.086 A  
HETATM   15  C   UNL     1      -7.918   7.465  69.482  1.00  0.00    -0.127 A  
BRANCH  13  16
HETATM   16  O   UNL     1      -9.732   8.796  70.225  1.00  0.00    -0.165 OA 
BRANCH  16  17
HETATM   17  C   UNL     1     -10.364   9.636  69.252  1.00  0.00    -0.209 C  
BRANCH  17  18
HETATM   18  C   UNL     1      -9.825  11.062  69.218  1.00  0.00    -0.035 C  
HETATM   19  C   UNL     1      -8.323  11.143  69.309  1.00  0.00     0.113 C  
HETATM   20  O   UNL     1      -7.991  12.290  68.526  1.00  0.00    -0.140 OA 
HETATM   21  C   UNL     1      -9.020  12.414  67.513  1.00  0.00    -0.183 C  
HETATM   22  O   UNL     1     -10.145  11.623  67.940  1.00  0.00    -0.180 OA 
BRANCH  21  23
HETATM   23  C   UNL     1      -9.478  13.869  67.391  1.00  0.00    -0.226 A  
HETATM   24  C   UNL     1      -8.515  14.902  67.381  1.00  0.00    -0.212 A  
HETATM   25  C   UNL     1     -10.831  14.254  67.268  1.00  0.00    -0.284 A  
HETATM   26  C   UNL     1      -8.874  16.240  67.202  1.00  0.00    -0.212 A  
HETATM   27  C   UNL     1     -11.188  15.595  67.069  1.00  0.00    -0.127 A  
HETATM   28 CL   UNL     1     -12.148  13.140  67.396  1.00  0.00    -0.366 Cl 
HETATM   29 CL   UNL     1     -10.648  18.219  66.759  1.00  0.00    -0.370 Cl 
HETATM   30  C   UNL     1     -10.208  16.578  67.026  1.00  0.00    -0.288 A  
ENDBRANCH  21  23
BRANCH  21  31
HETATM   31  C   UNL     1      -8.478  11.797  66.203  1.00  0.00     0.048 C  
BRANCH  31  32
HETATM   32  N   UNL     1      -9.364  11.885  65.064  1.00  0.00    -0.006 NA 
HETATM   33  C   UNL     1      -9.539  12.943  64.225  1.00  0.00     0.446 A  
HETATM   34  C   UNL     1     -10.500  11.255  63.445  1.00  0.00    -0.361 A  
HETATM   35  N   UNL     1     -10.265  12.576  63.197  1.00  0.00    -0.146 NA 
HETATM   36  N   UNL     1      -9.968  10.787  64.577  1.00  0.00    -0.307 NA 
ENDBRANCH  31  32
ENDBRANCH  21  31
ENDBRANCH  17  18
ENDBRANCH  16  17
ENDBRANCH  13  16
ENDBRANCH   7  10
ENDBRANCH   2   4
TORSDOF 8
ENDMDL
MODEL      199
REMARK 921   NORMALIZED FREE ENERGY PREDICTED BY IDOCK:   -1.61 KCAL/MOL
REMARK 922        TOTAL FREE ENERGY PREDICTED BY IDOCK:   -3.54 KCAL/MOL
REMARK 923 INTER-LIGAND FREE ENERGY PREDICTED BY IDOCK:   -3.92 KCAL/MOL
REMARK 924 INTRA-LIGAND FREE ENERGY PREDICTED BY IDOCK:    0.38 KCAL/MOL
REMARK 927      BINDING AFFINITY PREDICTED BY RF-SCORE:    0.00 PKD
ROOT
HETATM    1  C   UNL     1      -5.487  16.688  72.028  1.00  0.00     0.866 C  
HETATM    2  C   UNL     1      -5.811  17.445  70.724  1.00  0.00     0.337 C  
HETATM    3  C   UNL     1      -5.141  18.824  70.839  1.00  0.00    -0.264 C  
ENDROOT
BRANCH   2   4
HETATM    4  N   UNL     1      -5.362  16.665  69.548  1.00  0.00    -0.139 NA 
HETATM    5  C   UNL     1      -5.290  15.205  69.830  1.00  0.00    -0.098 C  
HETATM    6  C   UNL     1      -6.657  14.497  69.943  1.00  0.00    -0.151 C  
HETATM    7  N   UNL     1      -7.431  14.717  68.710  1.00  0.00    -0.125 NA 
HETATM    8  C   UNL     1      -6.196  16.824  68.324  1.00  0.00    -0.132 C  
HETATM    9  C   UNL     1      -7.590  16.133  68.345  1.00  0.00    -0.158 C  
BRANCH   7  10
HETATM   10  C   UNL     1      -8.367  13.772  68.322  1.00  0.00    -0.161 A  
HETATM   11  C   UNL     1      -9.648  13.745  68.876  1.00  0.00     0.055 A  
HETATM   12  C   UNL     1     -10.523  12.683  68.654  1.00  0.00    -0.224 A  
HETATM   13  C   UNL     1     -10.149  11.596  67.865  1.00  0.00    -0.187 A  
HETATM   14  C   UNL     1      -8.032  12.722  67.454  1.00  0.00    -0.179 A  
HETATM   15  C   UNL     1      -8.906  11.641  67.233  1.00  0.00    -0.164 A  
BRANCH  13  16
HETATM   16  O   UNL     1     -10.913  10.464  67.680  1.00  0.00    -0.287 OA 
BRANCH  16  17
HETATM   17  C   UNL     1     -10.907   9.571  68.800  1.00  0.00    -0.142 C  
BRANCH  17  18
HETATM   18  C   UNL     1      -9.668   8.687  68.883  1.00  0.00    -0.170 C  
HETATM   19  C   UNL     1      -9.315   8.273  70.288  1.00  0.00    -0.159 C  
HETATM   20  O   UNL     1      -8.747   6.972  70.132  1.00  0.00    -0.139 OA 
HETATM   21  C   UNL     1      -9.362   6.388  68.957  1.00  0.00    -0.127 C  
HETATM   22  O   UNL     1      -9.956   7.460  68.202  1.00  0.00    -0.155 OA 
BRANCH  21  23
HETATM   23  C   UNL     1      -8.305   5.715  68.078  1.00  0.00    -0.100 A  
HETATM   24  C   UNL     1      -7.016   5.475  68.603  1.00  0.00    -0.060 A  
HETATM   25  C   UNL     1      -8.545   5.293  66.752  1.00  0.00    -0.106 A  
HETATM   26  C   UNL     1      -6.036   4.802  67.868  1.00  0.00    -0.031 A  
HETATM   27  C   UNL     1      -7.568   4.601  66.023  1.00  0.00    -0.090 A  
HETATM   28 CL   UNL     1     -10.016   5.625  65.905  1.00  0.00    -0.022 Cl 
HETATM   29 CL   UNL     1      -5.136   3.480  65.699  1.00  0.00    -0.008 Cl 
HETATM   30  C   UNL     1      -6.324   4.349  66.588  1.00  0.00    -0.037 A  
ENDBRANCH  21  23
BRANCH  21  31
HETATM   31  C   UNL     1     -10.500   5.452  69.427  1.00  0.00    -0.261 C  
BRANCH  31  32
HETATM   32  N   UNL     1     -11.179   5.862  70.635  1.00  0.00    -0.269 NA 
HETATM   33  C   UNL     1     -10.978   5.400  71.901  1.00  0.00    -0.151 A  
HETATM   34  C   UNL     1     -12.208   7.093  71.953  1.00  0.00    -0.323 A  
HETATM   35  N   UNL     1     -11.629   6.152  72.755  1.00  0.00    -0.189 NA 
HETATM   36  N   UNL     1     -11.961   6.955  70.648  1.00  0.00    -0.370 NA 
ENDBRANCH  31  32
ENDBRANCH  21  31
ENDBRANCH  17  18
ENDBRANCH  16  17
ENDBRANCH  13  16
ENDBRANCH   7  10
ENDBRANCH   2   4
TORSDOF 8
ENDMDL
MODEL      200
REMARK 921   NORMALIZED FREE ENERGY PREDICTED BY IDOCK:   -1.50 KCAL/MOL
REMARK 922        TOTAL FREE ENERGY PREDICTED BY IDOCK:   -3.38 KCAL/MOL
REMARK 923 INTER-LIGAND FREE ENERGY PREDICTED BY IDOCK:   -3.31 KCAL/MOL
REMARK 924 INTRA-LIGAND FREE ENERGY PREDICTED BY IDOCK:   -0.07 KCAL/MOL
REMARK 927      BINDING AFFINITY PREDICTED BY RF-SCORE:    0.00 PKD
ROOT
HETATM    1  C   UNL     1      -7.929   3.763  62.806  1.00  0.00    -0.071 C  
HETATM    2  C   UNL     1      -7.559   4.803  63.884  1.00  0.00    -0.068 C  
HETATM    3  C   UNL     1      -8.068   6.162  63.376  1.00  0.00    -0.068 C  
ENDROOT
BRANCH   2   4
HETATM    4  N   UNL     1      -8.126   4.411  65.196  1.00  0.00    -0.101 NA 
HETATM    5  C   UNL     1      -7.073   4.173  66.220  1.00  0.00    -0.067 C  
HETATM    6  C   UNL     1      -6.384   5.449  66.751  1.00  0.00    -0.039 C  
HETATM    7  N   UNL     1      -7.396   6.367  67.297  1.00  0.00    -0.085 NA 
HETATM    8  C   UNL     1      -9.089   5.383  65.787  1.00  0.00    -0.154 C  
HETATM    9  C   UNL     1      -8.479   6.696  66.357  1.00  0.00    -0.125 C  
BRANCH   7  10
HETATM   10  C   UNL     1      -7.036   7.247  68.305  1.00  0.00    -0.081 A  
HETATM   11  C   UNL     1      -6.189   6.858  69.344  1.00  0.00    -0.034 A  
HETATM   12  C   UNL     1      -5.988   7.659  70.468  1.00  0.00    -0.030 A  
HETATM   13  C   UNL     1      -6.633   8.889  70.598  1.00  0.00    -0.050 A  
HETATM   14  C   UNL     1      -7.607   8.525  68.399  1.00  0.00    -0.096 A  
HETATM   15  C   UNL     1      -7.417   9.336  69.535  1.00  0.00    -0.079 A  
BRANCH  13  16
HETATM   16  O   UNL     1      -6.568   9.690  71.718  1.00  0.00    -0.300 OA 
BRANCH  16  17
HETATM   17  C   UNL     1      -7.593   9.422  72.683  1.00  0.00     1.400 C  
BRANCH  17  18
HETATM   18  C   UNL     1      -7.982   7.952  72.785  1.00  0.00    -0.133 C  
HETATM   19  C   UNL     1      -8.589   7.578  74.111  1.00  0.00    -0.230 C  
HETATM   20  O   UNL     1      -9.527   6.551  73.786  1.00  0.00    -0.140 OA 
HETATM   21  C   UNL     1      -9.969   6.808  72.430  1.00  0.00    -0.169 C  
HETATM   22  O   UNL     1      -9.016   7.702  71.826  1.00  0.00    -0.117 OA 
BRANCH  21  23
HETATM   23  C   UNL     1      -9.987   5.511  71.618  1.00  0.00    -0.233 A  
HETATM   24  C   UNL     1      -9.685   5.552  70.238  1.00  0.00    -0.242 A  
HETATM   25  C   UNL     1     -10.277   4.246  72.172  1.00  0.00    -0.164 A  
HETATM   26  C   UNL     1      -9.620   4.390  69.466  1.00  0.00    -0.271 A  
HETATM   27  C   UNL     1     -10.192   3.078  71.400  1.00  0.00     0.232 A  
HETATM   28 CL   UNL     1     -10.798   4.025  73.807  1.00  0.00    -0.316 Cl 
HETATM   29 CL   UNL     1      -9.727   1.720  69.117  1.00  0.00    -0.079 Cl 
HETATM   30  C   UNL     1      -9.853   3.155  70.056  1.00  0.00     0.200 A  
ENDBRANCH  21  23
BRANCH  21  31
HETATM   31  C   UNL     1     -11.328   7.542  72.501  1.00  0.00    -0.334 C  
BRANCH  31  32
HETATM   32  N   UNL     1     -11.375   8.824  71.835  1.00  0.00    -0.339 NA 
HETATM   33  C   UNL     1     -10.809   9.165  70.644  1.00  0.00    -0.264 A  
HETATM   34  C   UNL     1     -12.100  10.688  71.276  1.00  0.00    -0.299 A  
HETATM   35  N   UNL     1     -11.241  10.346  70.272  1.00  0.00    -0.304 NA 
HETATM   36  N   UNL     1     -12.215   9.787  72.254  1.00  0.00    -0.060 NA 
ENDBRANCH  31  32
ENDBRANCH  21  31
ENDBRANCH  17  18
ENDBRANCH  16  17
ENDBRANCH  13  16
ENDBRANCH   7  10
ENDBRANCH   2   4
TORSDOF 8
ENDMDL
MODEL      201
REMARK 921   NORMALIZED FREE ENERGY PREDICTED BY IDOCK:   -1.22 KCAL/MOL
REMARK 922        TOTAL FREE ENERGY PREDICTED BY IDOCK:   -2.97 KCAL/MOL
REMARK 923 INTER-LIGAND FREE ENERGY PREDICTED BY IDOCK:   -4.42 KCAL/MOL
REMARK 924 INTRA-LIGAND FREE ENERGY PREDICTED BY IDOCK:    1.46 KCAL/MOL
REMARK 927      BINDING AFFINITY PREDICTED BY RF-SCORE:    0.00 PKD
ROOT
HETATM    1  C   UNL     1     -11.609  17.766  67.352  1.00  0.00     1.256 C  
HETATM    2  C   UNL     1     -10.700  18.947  66.955  1.00  0.00    -0.402 C  
HETATM    3  C   UNL     1     -11.127  20.141  67.824  1.00  0.00     0.304 C  
ENDROOT
BRANCH   2   4
HETATM    4  N   UNL     1      -9.273  18.578  67.116  1.00  0.00    -0.273 NA 
HETATM    5  C   UNL     1      -8.990  17.976  68.447  1.00  0.00    -0.279 C  
HETATM    6  C   UNL     1      -9.521  16.538  68.636  1.00  0.00    -0.243 C  
HETATM    7  N   UNL     1      -8.974  15.668  67.581  1.00  0.00    -0.179 NA 
HETATM    8  C   UNL     1      -8.744  17.631  66.095  1.00  0.00    -0.106 C  
HETATM    9  C   UNL     1      -9.217  16.154  66.215  1.00  0.00    -0.331 C  
BRANCH   7  10
HETATM   10  C   UNL     1      -8.810  14.316  67.838  1.00  0.00    -0.179 A  
HETATM   11  C   UNL     1      -7.618  13.656  67.536  1.00  0.00    -0.180 A  
HETATM   12  C   UNL     1      -7.512  12.267  67.592  1.00  0.00    -0.134 A  
HETATM   13  C   UNL     1      -8.602  11.477  67.954  1.00  0.00    -0.143 A  
HETATM   14  C   UNL     1      -9.875  13.523  68.292  1.00  0.00    -0.233 A  
HETATM   15  C   UNL     1      -9.779  12.119  68.342  1.00  0.00    -0.193 A  
BRANCH  13  16
HETATM   16  O   UNL     1      -8.610  10.099  67.935  1.00  0.00    -0.118 OA 
BRANCH  16  17
HETATM   17  C   UNL     1      -7.394   9.518  67.450  1.00  0.00    -0.087 C  
BRANCH  17  18
HETATM   18  C   UNL     1      -7.376   7.994  67.486  1.00  0.00    -0.089 C  
HETATM   19  C   UNL     1      -7.672   7.418  68.846  1.00  0.00    -0.115 C  
HETATM   20  O   UNL     1      -8.353   6.196  68.563  1.00  0.00    -0.113 OA 
HETATM   21  C   UNL     1      -9.035   6.383  67.298  1.00  0.00    -0.107 C  
HETATM   22  O   UNL     1      -8.438   7.521  66.650  1.00  0.00    -0.121 OA 
BRANCH  21  23
HETATM   23  C   UNL     1      -8.836   5.162  66.397  1.00  0.00    -0.120 A  
HETATM   24  C   UNL     1      -9.438   3.933  66.750  1.00  0.00    -0.223 A  
HETATM   25  C   UNL     1      -8.087   5.187  65.201  1.00  0.00    -0.118 A  
HETATM   26  C   UNL     1      -9.347   2.807  65.928  1.00  0.00    -0.030 A  
HETATM   27  C   UNL     1      -8.012   4.062  64.368  1.00  0.00    -0.086 A  
HETATM   28 CL   UNL     1      -7.173   6.562  64.686  1.00  0.00    -0.060 Cl 
HETATM   29 CL   UNL     1      -8.576   1.512  63.694  1.00  0.00    -0.076 Cl 
HETATM   30  C   UNL     1      -8.651   2.883  64.729  1.00  0.00    -0.102 A  
ENDBRANCH  21  23
BRANCH  21  31
HETATM   31  C   UNL     1     -10.512   6.729  67.597  1.00  0.00    -0.229 C  
BRANCH  31  32
HETATM   32  N   UNL     1     -10.824   6.961  68.989  1.00  0.00    -0.226 NA 
HETATM   33  C   UNL     1     -10.923   8.158  69.632  1.00  0.00    -0.088 A  
HETATM   34  C   UNL     1     -11.637   6.628  70.871  1.00  0.00    -0.361 A  
HETATM   35  N   UNL     1     -11.423   7.976  70.831  1.00  0.00    -0.278 NA 
HETATM   36  N   UNL     1     -11.285   5.966  69.766  1.00  0.00    -0.363 NA 
ENDBRANCH  31  32
ENDBRANCH  21  31
ENDBRANCH  17  18
ENDBRANCH  16  17
ENDBRANCH  13  16
ENDBRANCH   7  10
ENDBRANCH   2   4
TORSDOF 8
ENDMDL
MODEL      202
REMARK 921   NORMALIZED FREE ENERGY PREDICTED BY IDOCK:   -1.17 KCAL/MOL
REMARK 922        TOTAL FREE ENERGY PREDICTED BY IDOCK:   -2.88 KCAL/MOL
REMARK 923 INTER-LIGAND FREE ENERGY PREDICTED BY IDOCK:   -4.98 KCAL/MOL
REMARK 924 INTRA-LIGAND FREE ENERGY PREDICTED BY IDOCK:    2.09 KCAL/MOL
REMARK 927      BINDING AFFINITY PREDICTED BY RF-SCORE:    0.00 PKD
ROOT
HETATM    1  C   UNL     1     -12.654  14.705  65.539  1.00  0.00    -0.106 C  
HETATM    2  C   UNL     1     -11.425  14.122  64.813  1.00  0.00    -0.383 C  
HETATM    3  C   UNL     1     -10.349  13.891  65.886  1.00  0.00    -0.318 C  
ENDROOT
BRANCH   2   4
HETATM    4  N   UNL     1     -11.796  12.893  64.072  1.00  0.00    -0.408 NA 
HETATM    5  C   UNL     1     -10.687  12.388  63.219  1.00  0.00    -0.213 C  
HETATM    6  C   UNL     1      -9.522  11.730  63.991  1.00  0.00    -0.005 C  
HETATM    7  N   UNL     1     -10.039  10.629  64.820  1.00  0.00    -0.327 NA 
HETATM    8  C   UNL     1     -12.240  11.751  64.921  1.00  0.00     0.198 C  
HETATM    9  C   UNL     1     -11.128  11.020  65.727  1.00  0.00     0.052 C  
BRANCH   7  10
HETATM   10  C   UNL     1      -9.206   9.564  65.125  1.00  0.00    -0.244 A  
HETATM   11  C   UNL     1      -9.003   9.152  66.443  1.00  0.00    -0.182 A  
HETATM   12  C   UNL     1      -8.015   8.228  66.780  1.00  0.00    -0.099 A  
HETATM   13  C   UNL     1      -7.183   7.677  65.806  1.00  0.00    -0.065 A  
HETATM   14  C   UNL     1      -8.429   8.937  64.139  1.00  0.00    -0.156 A  
HETATM   15  C   UNL     1      -7.422   8.011  64.473  1.00  0.00    -0.102 A  
BRANCH  13  16
HETATM   16  O   UNL     1      -6.120   6.840  66.068  1.00  0.00    -0.035 OA 
BRANCH  16  17
HETATM   17  C   UNL     1      -5.313   7.256  67.175  1.00  0.00    -0.022 C  
BRANCH  17  18
HETATM   18  C   UNL     1      -5.685   6.595  68.498  1.00  0.00    -0.017 C  
HETATM   19  C   UNL     1      -5.386   7.447  69.704  1.00  0.00    -0.022 C  
HETATM   20  O   UNL     1      -6.412   7.102  70.635  1.00  0.00    -0.042 OA 
HETATM   21  C   UNL     1      -7.566   6.705  69.853  1.00  0.00    -0.100 C  
HETATM   22  O   UNL     1      -7.106   6.420  68.518  1.00  0.00    -0.077 OA 
BRANCH  21  23
HETATM   23  C   UNL     1      -8.189   5.430  70.425  1.00  0.00    -0.105 A  
HETATM   24  C   UNL     1      -8.844   4.528  69.558  1.00  0.00    -0.129 A  
HETATM   25  C   UNL     1      -8.137   5.081  71.792  1.00  0.00    -0.115 A  
HETATM   26  C   UNL     1      -9.369   3.317  70.017  1.00  0.00    -0.238 A  
HETATM   27  C   UNL     1      -8.647   3.857  72.249  1.00  0.00    -0.112 A  
HETATM   28 CL   UNL     1      -7.497   6.126  73.013  1.00  0.00    -0.096 Cl 
HETATM   29 CL   UNL     1      -9.853   1.468  71.917  1.00  0.00    -0.191 Cl 
HETATM   30  C   UNL     1      -9.249   2.978  71.358  1.00  0.00    -0.120 A  
ENDBRANCH  21  23
BRANCH  21  31
HETATM   31  C   UNL     1      -8.529   7.913  69.773  1.00  0.00    -0.132 C  
BRANCH  31  32
HETATM   32  N   UNL     1      -9.923   7.609  70.000  1.00  0.00    -0.188 NA 
HETATM   33  C   UNL     1     -10.796   7.013  69.140  1.00  0.00    -0.195 A  
HETATM   34  C   UNL     1     -11.656   7.144  71.044  1.00  0.00    -0.309 A  
HETATM   35  N   UNL     1     -11.907   6.720  69.771  1.00  0.00    -0.171 NA 
HETATM   36  N   UNL     1     -10.455   7.695  71.232  1.00  0.00    -0.206 NA 
ENDBRANCH  31  32
ENDBRANCH  21  31
ENDBRANCH  17  18
ENDBRANCH  16  17
ENDBRANCH  13  16
ENDBRANCH   7  10
ENDBRANCH   2   4
TORSDOF 8
ENDMDL
MODEL      203
REMARK 921   NORMALIZED FREE ENERGY PREDICTED BY IDOCK:   -1.10 KCAL/MOL
REMARK 922        TOTAL FREE ENERGY PREDICTED BY IDOCK:   -2.79 KCAL/MOL
REMARK 923 INTER-LIGAND FREE ENERGY PREDICTED BY IDOCK:   -3.41 KCAL/MOL
REMARK 924 INTRA-LIGAND FREE ENERGY PREDICTED BY IDOCK:    0.62 KCAL/MOL
REMARK 927      BINDING AFFINITY PREDICTED BY RF-SCORE:    0.00 PKD
ROOT
HETATM    1  C   UNL     1     -13.265  13.573  72.534  1.00  0.00    -0.551 C  
HETATM    2  C   UNL     1     -13.024  13.629  71.012  1.00  0.00    -0.232 C  
HETATM    3  C   UNL     1     -11.548  14.015  70.816  1.00  0.00    -0.064 C  
ENDROOT
BRANCH   2   4
HETATM    4  N   UNL     1     -13.386  12.337  70.384  1.00  0.00     0.910 NA 
HETATM    5  C   UNL     1     -12.274  11.768  69.574  1.00  0.00    -0.169 C  
HETATM    6  C   UNL     1     -11.101  11.191  70.395  1.00  0.00     0.242 C  
HETATM    7  N   UNL     1     -11.606  10.162  71.320  1.00  0.00    -0.351 NA 
HETATM    8  C   UNL     1     -13.816  11.269  71.330  1.00  0.00     1.045 C  
HETATM    9  C   UNL     1     -12.696  10.621  72.194  1.00  0.00    -0.017 C  
BRANCH   7  10
HETATM   10  C   UNL     1     -10.762   9.135  71.713  1.00  0.00    -0.335 A  
HETATM   11  C   UNL     1     -11.174   8.163  72.627  1.00  0.00    -0.447 A  
HETATM   12  C   UNL     1     -10.277   7.255  73.188  1.00  0.00    -0.344 A  
HETATM   13  C   UNL     1      -8.923   7.284  72.857  1.00  0.00    -0.134 A  
HETATM   14  C   UNL     1      -9.417   9.099  71.314  1.00  0.00    -0.313 A  
HETATM   15  C   UNL     1      -8.504   8.191  71.884  1.00  0.00    -0.196 A  
BRANCH  13  16
HETATM   16  O   UNL     1      -7.958   6.492  73.442  1.00  0.00    -0.099 OA 
BRANCH  16  17
HETATM   17  C   UNL     1      -6.882   6.144  72.564  1.00  0.00    -0.070 C  
BRANCH  17  18
HETATM   18  C   UNL     1      -7.134   4.885  71.741  1.00  0.00    -0.062 C  
HETATM   19  C   UNL     1      -8.211   3.998  72.308  1.00  0.00    -0.097 C  
HETATM   20  O   UNL     1      -8.816   3.409  71.157  1.00  0.00    -0.075 OA 
HETATM   21  C   UNL     1      -8.660   4.358  70.074  1.00  0.00    -0.069 C  
HETATM   22  O   UNL     1      -7.631   5.289  70.460  1.00  0.00    -0.068 OA 
BRANCH  21  23
HETATM   23  C   UNL     1      -8.205   3.646  68.798  1.00  0.00    -0.084 A  
HETATM   24  C   UNL     1      -8.980   2.584  68.282  1.00  0.00    -0.188 A  
HETATM   25  C   UNL     1      -7.042   3.997  68.079  1.00  0.00    -0.059 A  
HETATM   26  C   UNL     1      -8.648   1.946  67.084  1.00  0.00    -0.114 A  
HETATM   27  C   UNL     1      -6.720   3.369  66.868  1.00  0.00    -0.049 A  
HETATM   28 CL   UNL     1      -5.905   5.177  68.635  1.00  0.00    -0.019 Cl 
HETATM   29 CL   UNL     1      -7.144   1.603  64.874  1.00  0.00    -0.046 Cl 
HETATM   30  C   UNL     1      -7.530   2.356  66.372  1.00  0.00    -0.070 A  
ENDBRANCH  21  23
BRANCH  21  31
HETATM   31  C   UNL     1      -9.982   5.147  69.933  1.00  0.00    -0.246 C  
BRANCH  31  32
HETATM   32  N   UNL     1     -10.032   6.081  68.831  1.00  0.00    -0.145 NA 
HETATM   33  C   UNL     1      -9.075   6.972  68.450  1.00  0.00    -0.127 A  
HETATM   34  C   UNL     1     -10.567   6.867  66.986  1.00  0.00    -0.333 A  
HETATM   35  N   UNL     1      -9.394   7.495  67.291  1.00  0.00    -0.136 NA 
HETATM   36  N   UNL     1     -10.997   5.993  67.899  1.00  0.00    -0.294 NA 
ENDBRANCH  31  32
ENDBRANCH  21  31
ENDBRANCH  17  18
ENDBRANCH  16  17
ENDBRANCH  13  16
ENDBRANCH   7  10
ENDBRANCH   2   4
TORSDOF 8
ENDMDL
MODEL      204
REMARK 921   NORMALIZED FREE ENERGY PREDICTED BY IDOCK:   -1.06 KCAL/MOL
REMARK 922        TOTAL FREE ENERGY PREDICTED BY IDOCK:   -2.73 KCAL/MOL
REMARK 923 INTER-LIGAND FREE ENERGY PREDICTED BY IDOCK:   -3.22 KCAL/MOL
REMARK 924 INTRA-LIGAND FREE ENERGY PREDICTED BY IDOCK:    0.49 KCAL/MOL
REMARK 927      BINDING AFFINITY PREDICTED BY RF-SCORE:    0.00 PKD
ROOT
HETATM    1  C   UNL     1     -12.787  13.078  72.121  1.00  0.00    -0.253 C  
HETATM    2  C   UNL     1     -12.646  13.437  70.628  1.00  0.00    -0.253 C  
HETATM    3  C   UNL     1     -11.224  13.989  70.441  1.00  0.00     0.136 C  
ENDROOT
BRANCH   2   4
HETATM    4  N   UNL     1     -12.938  12.255  69.783  1.00  0.00     0.791 NA 
HETATM    5  C   UNL     1     -11.859  11.984  68.794  1.00  0.00    -0.302 C  
HETATM    6  C   UNL     1     -10.561  11.401  69.393  1.00  0.00    -0.052 C  
HETATM    7  N   UNL     1     -10.869  10.164  70.129  1.00  0.00    -0.294 NA 
HETATM    8  C   UNL     1     -13.167  10.984  70.527  1.00  0.00     0.207 C  
HETATM    9  C   UNL     1     -11.910  10.318  71.156  1.00  0.00    -0.362 C  
BRANCH   7  10
HETATM   10  C   UNL     1      -9.893   9.186  70.245  1.00  0.00    -0.207 A  
HETATM   11  C   UNL     1     -10.102   8.035  71.008  1.00  0.00    -0.213 A  
HETATM   12  C   UNL     1      -9.065   7.152  71.303  1.00  0.00    -0.151 A  
HETATM   13  C   UNL     1      -7.769   7.386  70.845  1.00  0.00    -0.088 A  
HETATM   14  C   UNL     1      -8.609   9.366  69.710  1.00  0.00    -0.182 A  
HETATM   15  C   UNL     1      -7.554   8.483  70.012  1.00  0.00    -0.064 A  
BRANCH  13  16
HETATM   16  O   UNL     1      -6.672   6.619  71.178  1.00  0.00    -0.055 OA 
BRANCH  16  17
HETATM   17  C   UNL     1      -5.734   6.453  70.109  1.00  0.00    -0.018 C  
BRANCH  17  18
HETATM   18  C   UNL     1      -5.973   5.211  69.259  1.00  0.00    -0.021 C  
HETATM   19  C   UNL     1      -6.168   3.954  70.067  1.00  0.00    -0.027 C  
HETATM   20  O   UNL     1      -7.083   3.181  69.289  1.00  0.00    -0.044 OA 
HETATM   21  C   UNL     1      -7.895   4.123  68.545  1.00  0.00    -0.073 C  
HETATM   22  O   UNL     1      -7.209   5.389  68.557  1.00  0.00    -0.070 OA 
BRANCH  21  23
HETATM   23  C   UNL     1      -8.040   3.673  67.090  1.00  0.00    -0.091 A  
HETATM   24  C   UNL     1      -7.103   2.767  66.547  1.00  0.00    -0.053 A  
HETATM   25  C   UNL     1      -9.082   4.102  66.239  1.00  0.00    -0.134 A  
HETATM   26  C   UNL     1      -7.228   2.270  65.247  1.00  0.00    -0.058 A  
HETATM   27  C   UNL     1      -9.218   3.589  64.942  1.00  0.00    -0.144 A  
HETATM   28 CL   UNL     1     -10.236   5.309  66.691  1.00  0.00    -0.254 Cl 
HETATM   29 CL   UNL     1      -8.480   2.023  62.873  1.00  0.00    -0.072 Cl 
HETATM   30  C   UNL     1      -8.298   2.668  64.457  1.00  0.00    -0.087 A  
ENDBRANCH  21  23
BRANCH  21  31
HETATM   31  C   UNL     1      -9.233   4.303  69.300  1.00  0.00    -0.145 C  
BRANCH  31  32
HETATM   32  N   UNL     1      -9.454   3.384  70.394  1.00  0.00    -0.171 NA 
HETATM   33  C   UNL     1      -9.521   2.025  70.340  1.00  0.00    -0.086 A  
HETATM   34  C   UNL     1      -9.439   2.651  72.336  1.00  0.00    -0.105 A  
HETATM   35  N   UNL     1      -9.525   1.534  71.556  1.00  0.00    -0.100 NA 
HETATM   36  N   UNL     1      -9.392   3.806  71.669  1.00  0.00    -0.122 NA 
ENDBRANCH  31  32
ENDBRANCH  21  31
ENDBRANCH  17  18
ENDBRANCH  16  17
ENDBRANCH  13  16
ENDBRANCH   7  10
ENDBRANCH   2   4
TORSDOF 8
ENDMDL
MODEL      205
REMARK 921   NORMALIZED FREE ENERGY PREDICTED BY IDOCK:   -0.82 KCAL/MOL
REMARK 922        TOTAL FREE ENERGY PREDICTED BY IDOCK:   -2.37 KCAL/MOL
REMARK 923 INTER-LIGAND FREE ENERGY PREDICTED BY IDOCK:   -3.50 KCAL/MOL
REMARK 924 INTRA-LIGAND FREE ENERGY PREDICTED BY IDOCK:    1.13 KCAL/MOL
REMARK 927      BINDING AFFINITY PREDICTED BY RF-SCORE:    0.00 PKD
ROOT
HETATM    1  C   UNL     1      -7.245   3.639  74.521  1.00  0.00    -0.053 C  
HETATM    2  C   UNL     1      -8.410   3.996  73.575  1.00  0.00    -0.089 C  
HETATM    3  C   UNL     1      -8.924   5.377  74.014  1.00  0.00    -0.119 C  
ENDROOT
BRANCH   2   4
HETATM    4  N   UNL     1      -7.960   3.953  72.164  1.00  0.00    -0.078 NA 
HETATM    5  C   UNL     1      -9.012   4.416  71.219  1.00  0.00    -0.122 C  
HETATM    6  C   UNL     1      -9.271   5.938  71.229  1.00  0.00    -0.143 C  
HETATM    7  N   UNL     1      -8.015   6.654  70.947  1.00  0.00    -0.109 NA 
HETATM    8  C   UNL     1      -6.735   4.747  71.864  1.00  0.00    -0.043 C  
HETATM    9  C   UNL     1      -6.905   6.294  71.842  1.00  0.00    -0.068 C  
BRANCH   7  10
HETATM   10  C   UNL     1      -8.069   7.900  70.344  1.00  0.00    -0.114 A  
HETATM   11  C   UNL     1      -8.662   8.080  69.094  1.00  0.00    -0.137 A  
HETATM   12  C   UNL     1      -8.539   9.275  68.386  1.00  0.00    -0.124 A  
HETATM   13  C   UNL     1      -7.810  10.345  68.905  1.00  0.00    -0.115 A  
HETATM   14  C   UNL     1      -7.417   9.011  70.900  1.00  0.00    -0.128 A  
HETATM   15  C   UNL     1      -7.280  10.218  70.188  1.00  0.00    -0.138 A  
BRANCH  13  16
HETATM   16  O   UNL     1      -7.555  11.518  68.227  1.00  0.00    -0.100 OA 
BRANCH  16  17
HETATM   17  C   UNL     1      -8.627  11.944  67.379  1.00  0.00    -0.164 C  
BRANCH  17  18
HETATM   18  C   UNL     1      -8.597  13.430  67.038  1.00  0.00    -0.158 C  
HETATM   19  C   UNL     1      -8.826  13.720  65.578  1.00  0.00     1.448 C  
HETATM   20  O   UNL     1      -9.511  14.973  65.578  1.00  0.00    -0.252 OA 
HETATM   21  C   UNL     1     -10.253  15.041  66.821  1.00  0.00    -0.260 C  
HETATM   22  O   UNL     1      -9.694  14.058  67.712  1.00  0.00    -0.218 OA 
BRANCH  21  23
HETATM   23  C   UNL     1     -10.088  16.419  67.467  1.00  0.00    -0.261 A  
HETATM   24  C   UNL     1     -11.064  16.879  68.379  1.00  0.00    -0.216 A  
HETATM   25  C   UNL     1      -8.992  17.273  67.218  1.00  0.00    -0.227 A  
HETATM   26  C   UNL     1     -10.928  18.097  69.049  1.00  0.00     0.917 A  
HETATM   27  C   UNL     1      -8.846  18.486  67.906  1.00  0.00    -0.301 A  
HETATM   28 CL   UNL     1      -7.777  16.933  66.034  1.00  0.00    -0.251 Cl 
HETATM   29 CL   UNL     1      -9.615  20.363  69.683  1.00  0.00     0.462 Cl 
HETATM   30  C   UNL     1      -9.808  18.886  68.825  1.00  0.00    -0.404 A  
ENDBRANCH  21  23
BRANCH  21  31
HETATM   31  C   UNL     1     -11.717  14.638  66.528  1.00  0.00    -0.325 C  
BRANCH  31  32
HETATM   32  N   UNL     1     -11.940  14.004  65.249  1.00  0.00    -0.360 NA 
HETATM   33  C   UNL     1     -11.820  12.683  64.942  1.00  0.00    -0.387 A  
HETATM   34  C   UNL     1     -12.735  13.697  63.356  1.00  0.00     0.450 A  
HETATM   35  N   UNL     1     -12.303  12.461  63.743  1.00  0.00    -0.578 NA 
HETATM   36  N   UNL     1     -12.534  14.672  64.245  1.00  0.00    -0.738 NA 
ENDBRANCH  31  32
ENDBRANCH  21  31
ENDBRANCH  17  18
ENDBRANCH  16  17
ENDBRANCH  13  16
ENDBRANCH   7  10
ENDBRANCH   2   4
TORSDOF 8
ENDMDL
MODEL      206
REMARK 921   NORMALIZED FREE ENERGY PREDICTED BY IDOCK:   -0.71 KCAL/MOL
REMARK 922        TOTAL FREE ENERGY PREDICTED BY IDOCK:   -2.21 KCAL/MOL
REMARK 923 INTER-LIGAND FREE ENERGY PREDICTED BY IDOCK:   -3.01 KCAL/MOL
REMARK 924 INTRA-LIGAND FREE ENERGY PREDICTED BY IDOCK:    0.80 KCAL/MOL
REMARK 927      BINDING AFFINITY PREDICTED BY RF-SCORE:    0.00 PKD
ROOT
HETATM    1  C   UNL     1      -9.589   1.543  68.132  1.00  0.00    -0.173 C  
HETATM    2  C   UNL     1      -8.919   2.857  67.680  1.00  0.00    -0.160 C  
HETATM    3  C   UNL     1      -9.702   3.349  66.452  1.00  0.00     0.016 C  
ENDROOT
BRANCH   2   4
HETATM    4  N   UNL     1      -8.892   3.833  68.795  1.00  0.00    -0.101 NA 
HETATM    5  C   UNL     1      -7.508   4.142  69.245  1.00  0.00    -0.054 C  
HETATM    6  C   UNL     1      -6.692   5.025  68.277  1.00  0.00    -0.054 C  
HETATM    7  N   UNL     1      -7.415   6.283  68.028  1.00  0.00    -0.088 NA 
HETATM    8  C   UNL     1      -9.552   5.138  68.512  1.00  0.00    -0.140 C  
HETATM    9  C   UNL     1      -8.794   6.100  67.552  1.00  0.00    -0.106 C  
BRANCH   7  10
HETATM   10  C   UNL     1      -6.695   7.423  67.707  1.00  0.00    -0.062 A  
HETATM   11  C   UNL     1      -5.912   8.082  68.655  1.00  0.00    -0.040 A  
HETATM   12  C   UNL     1      -5.356   9.337  68.407  1.00  0.00    -0.037 A  
HETATM   13  C   UNL     1      -5.565   9.987  67.191  1.00  0.00    -0.046 A  
HETATM   14  C   UNL     1      -6.823   8.040  66.453  1.00  0.00    -0.062 A  
HETATM   15  C   UNL     1      -6.274   9.311  66.197  1.00  0.00    -0.064 A  
BRANCH  13  16
HETATM   16  O   UNL     1      -5.138  11.266  66.906  1.00  0.00    -0.060 OA 
BRANCH  16  17
HETATM   17  C   UNL     1      -5.864  12.288  67.597  1.00  0.00    -0.118 C  
BRANCH  17  18
HETATM   18  C   UNL     1      -7.361  12.291  67.307  1.00  0.00    -0.140 C  
HETATM   19  C   UNL     1      -8.186  11.631  68.381  1.00  0.00    -0.155 C  
HETATM   20  O   UNL     1      -9.413  12.361  68.373  1.00  0.00    -0.212 OA 
HETATM   21  C   UNL     1      -9.095  13.703  67.928  1.00  0.00    -0.198 C  
HETATM   22  O   UNL     1      -7.804  13.653  67.292  1.00  0.00    -0.159 OA 
BRANCH  21  23
HETATM   23  C   UNL     1     -10.118  14.181  66.894  1.00  0.00    -0.258 A  
HETATM   24  C   UNL     1     -11.296  13.431  66.685  1.00  0.00    -0.350 A  
HETATM   25  C   UNL     1      -9.964  15.358  66.129  1.00  0.00    -0.307 A  
HETATM   26  C   UNL     1     -12.294  13.859  65.806  1.00  0.00    -0.518 A  
HETATM   27  C   UNL     1     -10.974  15.796  65.261  1.00  0.00    -0.354 A  
HETATM   28 CL   UNL     1      -8.529  16.323  66.155  1.00  0.00    -0.362 Cl 
HETATM   29 CL   UNL     1     -13.383  15.603  64.064  1.00  0.00     1.786 Cl 
HETATM   30  C   UNL     1     -12.137  15.051  65.113  1.00  0.00    -0.073 A  
ENDBRANCH  21  23
BRANCH  21  31
HETATM   31  C   UNL     1      -8.972  14.606  69.177  1.00  0.00    -0.025 C  
BRANCH  31  32
HETATM   32  N   UNL     1      -9.810  15.783  69.175  1.00  0.00    -0.230 NA 
HETATM   33  C   UNL     1     -11.020  15.946  69.778  1.00  0.00    -0.328 A  
HETATM   34  C   UNL     1     -10.318  17.795  69.092  1.00  0.00    -0.157 A  
HETATM   35  N   UNL     1     -11.373  17.207  69.729  1.00  0.00     0.646 NA 
HETATM   36  N   UNL     1      -9.338  16.962  68.734  1.00  0.00    -0.262 NA 
ENDBRANCH  31  32
ENDBRANCH  21  31
ENDBRANCH  17  18
ENDBRANCH  16  17
ENDBRANCH  13  16
ENDBRANCH   7  10
ENDBRANCH   2   4
TORSDOF 8
ENDMDL
MODEL      207
REMARK 921   NORMALIZED FREE ENERGY PREDICTED BY IDOCK:   -0.53 KCAL/MOL
REMARK 922        TOTAL FREE ENERGY PREDICTED BY IDOCK:   -1.95 KCAL/MOL
REMARK 923 INTER-LIGAND FREE ENERGY PREDICTED BY IDOCK:   -3.41 KCAL/MOL
REMARK 924 INTRA-LIGAND FREE ENERGY PREDICTED BY IDOCK:    1.46 KCAL/MOL
REMARK 927      BINDING AFFINITY PREDICTED BY RF-SCORE:    0.00 PKD
ROOT
HETATM    1  C   UNL     1     -13.007  14.197  65.783  1.00  0.00    -0.235 C  
HETATM    2  C   UNL     1     -12.559  14.028  64.317  1.00  0.00    -0.126 C  
HETATM    3  C   UNL     1     -11.292  14.881  64.144  1.00  0.00     0.082 C  
ENDROOT
BRANCH   2   4
HETATM    4  N   UNL     1     -12.355  12.594  64.001  1.00  0.00    -0.559 NA 
HETATM    5  C   UNL     1     -11.007  12.326  63.430  1.00  0.00    -0.405 C  
HETATM    6  C   UNL     1      -9.844  12.405  64.442  1.00  0.00    -0.090 C  
HETATM    7  N   UNL     1     -10.095  11.475  65.555  1.00  0.00    -0.232 NA 
HETATM    8  C   UNL     1     -12.527  11.661  65.150  1.00  0.00     1.095 C  
HETATM    9  C   UNL     1     -11.395  11.665  66.217  1.00  0.00    -0.227 C  
BRANCH   7  10
HETATM   10  C   UNL     1      -9.018  10.937  66.242  1.00  0.00    -0.176 A  
HETATM   11  C   UNL     1      -9.146  10.478  67.554  1.00  0.00    -0.144 A  
HETATM   12  C   UNL     1      -8.037  10.133  68.325  1.00  0.00    -0.102 A  
HETATM   13  C   UNL     1      -6.744  10.236  67.810  1.00  0.00    -0.073 A  
HETATM   14  C   UNL     1      -7.724  10.950  65.701  1.00  0.00     0.012 A  
HETATM   15  C   UNL     1      -6.597  10.612  66.475  1.00  0.00    -0.108 A  
BRANCH  13  16
HETATM   16  O   UNL     1      -5.594  10.014  68.536  1.00  0.00    -0.039 OA 
BRANCH  16  17
HETATM   17  C   UNL     1      -5.754  10.195  69.948  1.00  0.00    -0.045 C  
BRANCH  17  18
HETATM   18  C   UNL     1      -6.114   8.919  70.701  1.00  0.00    -0.037 C  
HETATM   19  C   UNL     1      -6.675   9.167  72.077  1.00  0.00     0.175 C  
HETATM   20  O   UNL     1      -7.604   8.101  72.270  1.00  0.00    -0.102 OA 
HETATM   21  C   UNL     1      -8.092   7.732  70.956  1.00  0.00    -0.098 C  
HETATM   22  O   UNL     1      -7.173   8.270  69.987  1.00  0.00    -0.056 OA 
BRANCH  21  23
HETATM   23  C   UNL     1      -8.112   6.210  70.800  1.00  0.00    -0.124 A  
HETATM   24  C   UNL     1      -7.478   5.403  71.772  1.00  0.00    -0.092 A  
HETATM   25  C   UNL     1      -8.749   5.542  69.732  1.00  0.00    -0.116 A  
HETATM   26  C   UNL     1      -7.526   4.009  71.714  1.00  0.00    -0.060 A  
HETATM   27  C   UNL     1      -8.813   4.142  69.685  1.00  0.00    -0.135 A  
HETATM   28 CL   UNL     1      -9.455   6.368  68.385  1.00  0.00    -0.120 Cl 
HETATM   29 CL   UNL     1      -8.311   1.668  70.634  1.00  0.00    -0.060 Cl 
HETATM   30  C   UNL     1      -8.212   3.384  70.682  1.00  0.00    -0.056 A  
ENDBRANCH  21  23
BRANCH  21  31
HETATM   31  C   UNL     1      -9.461   8.419  70.743  1.00  0.00    -0.169 C  
BRANCH  31  32
HETATM   32  N   UNL     1     -10.588   7.756  71.357  1.00  0.00    -0.213 NA 
HETATM   33  C   UNL     1     -10.722   7.372  72.657  1.00  0.00    -0.288 A  
HETATM   34  C   UNL     1     -12.560   7.185  71.672  1.00  0.00    -0.375 A  
HETATM   35  N   UNL     1     -11.957   6.993  72.881  1.00  0.00     0.154 NA 
HETATM   36  N   UNL     1     -11.761   7.650  70.708  1.00  0.00    -0.272 NA 
ENDBRANCH  31  32
ENDBRANCH  21  31
ENDBRANCH  17  18
ENDBRANCH  16  17
ENDBRANCH  13  16
ENDBRANCH   7  10
ENDBRANCH   2   4
TORSDOF 8
ENDMDL
MODEL      208
REMARK 921   NORMALIZED FREE ENERGY PREDICTED BY IDOCK:   -0.44 KCAL/MOL
REMARK 922        TOTAL FREE ENERGY PREDICTED BY IDOCK:   -1.81 KCAL/MOL
REMARK 923 INTER-LIGAND FREE ENERGY PREDICTED BY IDOCK:   -4.47 KCAL/MOL
REMARK 924 INTRA-LIGAND FREE ENERGY PREDICTED BY IDOCK:    2.66 KCAL/MOL
REMARK 927      BINDING AFFINITY PREDICTED BY RF-SCORE:    0.00 PKD
ROOT
HETATM    1  C   UNL     1      -9.943   9.173  66.097  1.00  0.00    -0.338 C  
HETATM    2  C   UNL     1      -9.636  10.467  65.316  1.00  0.00    -0.259 C  
HETATM    3  C   UNL     1     -10.517  11.568  65.928  1.00  0.00    -0.303 C  
ENDROOT
BRANCH   2   4
HETATM    4  N   UNL     1      -8.186  10.771  65.369  1.00  0.00    -0.123 NA 
HETATM    5  C   UNL     1      -7.859  11.797  66.396  1.00  0.00     0.100 C  
HETATM    6  C   UNL     1      -7.944  11.303  67.857  1.00  0.00    -0.118 C  
HETATM    7  N   UNL     1      -7.064  10.137  68.036  1.00  0.00    -0.083 NA 
HETATM    8  C   UNL     1      -7.302   9.601  65.634  1.00  0.00    -0.101 C  
HETATM    9  C   UNL     1      -7.315   9.043  67.087  1.00  0.00    -0.087 C  
BRANCH   7  10
HETATM   10  C   UNL     1      -6.523   9.885  69.287  1.00  0.00    -0.048 A  
HETATM   11  C   UNL     1      -5.602   8.855  69.488  1.00  0.00    -0.034 A  
HETATM   12  C   UNL     1      -5.212   8.457  70.766  1.00  0.00    -0.025 A  
HETATM   13  C   UNL     1      -5.733   9.076  71.902  1.00  0.00    -0.064 A  
HETATM   14  C   UNL     1      -6.971  10.564  70.430  1.00  0.00     0.062 A  
HETATM   15  C   UNL     1      -6.590  10.161  71.724  1.00  0.00     1.039 A  
BRANCH  13  16
HETATM   16  O   UNL     1      -5.480   8.675  73.196  1.00  0.00    -0.066 OA 
BRANCH  16  17
HETATM   17  C   UNL     1      -6.638   8.208  73.898  1.00  0.00    -0.119 C  
BRANCH  17  18
HETATM   18  C   UNL     1      -7.478   7.207  73.113  1.00  0.00    -0.072 C  
HETATM   19  C   UNL     1      -8.274   6.271  73.985  1.00  0.00    -0.111 C  
HETATM   20  O   UNL     1      -9.459   6.019  73.230  1.00  0.00    -0.142 OA 
HETATM   21  C   UNL     1      -9.691   7.195  72.415  1.00  0.00    -0.149 C  
HETATM   22  O   UNL     1      -8.460   7.941  72.373  1.00  0.00    -0.117 OA 
BRANCH  21  23
HETATM   23  C   UNL     1     -10.054   6.792  70.984  1.00  0.00    -0.206 A  
HETATM   24  C   UNL     1     -10.228   7.794  70.004  1.00  0.00    -0.210 A  
HETATM   25  C   UNL     1     -10.214   5.453  70.566  1.00  0.00    -0.256 A  
HETATM   26  C   UNL     1     -10.492   7.478  68.669  1.00  0.00    -0.207 A  
HETATM   27  C   UNL     1     -10.460   5.136  69.222  1.00  0.00    -0.193 A  
HETATM   28 CL   UNL     1     -10.172   4.110  71.655  1.00  0.00    -0.189 Cl 
HETATM   29 CL   UNL     1     -10.863   5.756  66.629  1.00  0.00    -0.343 Cl 
HETATM   30  C   UNL     1     -10.585   6.149  68.280  1.00  0.00    -0.262 A  
ENDBRANCH  21  23
BRANCH  21  31
HETATM   31  C   UNL     1     -10.750   8.069  73.126  1.00  0.00    -0.135 C  
BRANCH  31  32
HETATM   32  N   UNL     1     -11.534   8.919  72.260  1.00  0.00    -0.311 NA 
HETATM   33  C   UNL     1     -11.088   9.913  71.442  1.00  0.00    -0.137 A  
HETATM   34  C   UNL     1     -13.101   9.511  71.033  1.00  0.00    -0.198 A  
HETATM   35  N   UNL     1     -12.063  10.316  70.663  1.00  0.00    -0.313 NA 
HETATM   36  N   UNL     1     -12.824   8.640  72.006  1.00  0.00    -0.356 NA 
ENDBRANCH  31  32
ENDBRANCH  21  31
ENDBRANCH  17  18
ENDBRANCH  16  17
ENDBRANCH  13  16
ENDBRANCH   7  10
ENDBRANCH   2   4
TORSDOF 8
ENDMDL
MODEL      209
REMARK 921   NORMALIZED FREE ENERGY PREDICTED BY IDOCK:   -0.42 KCAL/MOL
REMARK 922        TOTAL FREE ENERGY PREDICTED BY IDOCK:   -1.79 KCAL/MOL
REMARK 923 INTER-LIGAND FREE ENERGY PREDICTED BY IDOCK:   -3.28 KCAL/MOL
REMARK 924 INTRA-LIGAND FREE ENERGY PREDICTED BY IDOCK:    1.49 KCAL/MOL
REMARK 927      BINDING AFFINITY PREDICTED BY RF-SCORE:    0.00 PKD
ROOT
HETATM    1  C   UNL     1     -13.930  10.890  72.358  1.00  0.00     0.647 C  
HETATM    2  C   UNL     1     -12.876  10.124  71.533  1.00  0.00    -0.443 C  
HETATM    3  C   UNL     1     -11.742  11.119  71.237  1.00  0.00     0.385 C  
ENDROOT
BRANCH   2   4
HETATM    4  N   UNL     1     -12.427   8.915  72.265  1.00  0.00    -0.379 NA 
HETATM    5  C   UNL     1     -13.190   7.699  71.874  1.00  0.00    -0.253 C  
HETATM    6  C   UNL     1     -12.851   7.141  70.475  1.00  0.00     0.265 C  
HETATM    7  N   UNL     1     -11.409   6.857  70.393  1.00  0.00    -0.309 NA 
HETATM    8  C   UNL     1     -10.982   8.582  72.112  1.00  0.00    -0.357 C  
HETATM    9  C   UNL     1     -10.551   8.001  70.735  1.00  0.00    -0.214 C  
BRANCH   7  10
HETATM   10  C   UNL     1     -10.964   5.863  69.535  1.00  0.00    -0.368 A  
HETATM   11  C   UNL     1     -10.404   4.680  70.020  1.00  0.00    -0.037 A  
HETATM   12  C   UNL     1      -9.764   3.771  69.178  1.00  0.00    -0.107 A  
HETATM   13  C   UNL     1      -9.657   4.012  67.808  1.00  0.00    -0.150 A  
HETATM   14  C   UNL     1     -10.935   6.054  68.146  1.00  0.00    -0.340 A  
HETATM   15  C   UNL     1     -10.282   5.146  67.290  1.00  0.00    -0.239 A  
BRANCH  13  16
HETATM   16  O   UNL     1      -8.955   3.218  66.928  1.00  0.00    -0.135 OA 
BRANCH  16  17
HETATM   17  C   UNL     1      -7.545   3.180  67.177  1.00  0.00    -0.074 C  
BRANCH  17  18
HETATM   18  C   UNL     1      -6.921   4.550  67.419  1.00  0.00    -0.060 C  
HETATM   19  C   UNL     1      -5.426   4.574  67.233  1.00  0.00    -0.013 C  
HETATM   20  O   UNL     1      -5.160   5.885  66.734  1.00  0.00    -0.005 OA 
HETATM   21  C   UNL     1      -6.345   6.302  66.010  1.00  0.00    -0.039 C  
HETATM   22  O   UNL     1      -7.427   5.447  66.423  1.00  0.00    -0.084 OA 
BRANCH  21  23
HETATM   23  C   UNL     1      -6.712   7.743  66.370  1.00  0.00    -0.054 A  
HETATM   24  C   UNL     1      -5.704   8.627  66.816  1.00  0.00    -0.048 A  
HETATM   25  C   UNL     1      -8.020   8.265  66.269  1.00  0.00    -0.100 A  
HETATM   26  C   UNL     1      -5.972   9.970  67.091  1.00  0.00    -0.051 A  
HETATM   27  C   UNL     1      -8.285   9.617  66.527  1.00  0.00    -0.119 A  
HETATM   28 CL   UNL     1      -9.398   7.296  65.872  1.00  0.00    -0.021 Cl 
HETATM   29 CL   UNL     1      -7.581  12.128  67.218  1.00  0.00    -0.153 Cl 
HETATM   30  C   UNL     1      -7.258  10.464  66.924  1.00  0.00    -0.099 A  
ENDBRANCH  21  23
BRANCH  21  31
HETATM   31  C   UNL     1      -6.097   6.058  64.504  1.00  0.00    -0.026 C  
BRANCH  31  32
HETATM   32  N   UNL     1      -7.220   5.520  63.771  1.00  0.00    -0.048 NA 
HETATM   33  C   UNL     1      -8.028   4.483  64.127  1.00  0.00    -0.093 A  
HETATM   34  C   UNL     1      -8.840   5.476  62.473  1.00  0.00     0.060 A  
HETATM   35  N   UNL     1      -9.056   4.423  63.315  1.00  0.00    -0.141 NA 
HETATM   36  N   UNL     1      -7.729   6.176  62.713  1.00  0.00    -0.080 NA 
ENDBRANCH  31  32
ENDBRANCH  21  31
ENDBRANCH  17  18
ENDBRANCH  16  17
ENDBRANCH  13  16
ENDBRANCH   7  10
ENDBRANCH   2   4
TORSDOF 8
ENDMDL
MODEL      210
REMARK 921   NORMALIZED FREE ENERGY PREDICTED BY IDOCK:   -0.27 KCAL/MOL
REMARK 922        TOTAL FREE ENERGY PREDICTED BY IDOCK:   -1.57 KCAL/MOL
REMARK 923 INTER-LIGAND FREE ENERGY PREDICTED BY IDOCK:   -2.46 KCAL/MOL
REMARK 924 INTRA-LIGAND FREE ENERGY PREDICTED BY IDOCK:    0.89 KCAL/MOL
REMARK 927      BINDING AFFINITY PREDICTED BY RF-SCORE:    0.00 PKD
ROOT
HETATM    1  C   UNL     1     -12.787  13.080  72.119  1.00  0.00    -0.253 C  
HETATM    2  C   UNL     1     -12.648  13.391  70.615  1.00  0.00    -0.253 C  
HETATM    3  C   UNL     1     -11.261  14.024  70.424  1.00  0.00     0.136 C  
ENDROOT
BRANCH   2   4
HETATM    4  N   UNL     1     -12.854  12.163  69.812  1.00  0.00     0.513 NA 
HETATM    5  C   UNL     1     -11.767  11.945  68.819  1.00  0.00    -0.321 C  
HETATM    6  C   UNL     1     -10.421  11.486  69.420  1.00  0.00     0.049 C  
HETATM    7  N   UNL     1     -10.622  10.254  70.198  1.00  0.00    -0.276 NA 
HETATM    8  C   UNL     1     -12.974  10.903  70.599  1.00  0.00    -0.184 C  
HETATM    9  C   UNL     1     -11.662  10.359  71.233  1.00  0.00    -0.231 C  
BRANCH   7  10
HETATM   10  C   UNL     1      -9.571   9.360  70.333  1.00  0.00    -0.266 A  
HETATM   11  C   UNL     1      -9.671   8.236  71.154  1.00  0.00    -0.209 A  
HETATM   12  C   UNL     1      -8.562   7.449  71.462  1.00  0.00    -0.120 A  
HETATM   13  C   UNL     1      -7.299   7.759  70.958  1.00  0.00    -0.072 A  
HETATM   14  C   UNL     1      -8.318   9.611  69.754  1.00  0.00    -0.183 A  
HETATM   15  C   UNL     1      -7.191   8.827  70.068  1.00  0.00    -0.052 A  
BRANCH  13  16
HETATM   16  O   UNL     1      -6.139   7.096  71.295  1.00  0.00    -0.036 OA 
BRANCH  16  17
HETATM   17  C   UNL     1      -5.226   6.930  70.205  1.00  0.00    -0.018 C  
BRANCH  17  18
HETATM   18  C   UNL     1      -5.342   5.585  69.497  1.00  0.00    -0.004 C  
HETATM   19  C   UNL     1      -6.112   4.554  70.280  1.00  0.00    -0.018 C  
HETATM   20  O   UNL     1      -6.757   3.769  69.277  1.00  0.00    -0.039 OA 
HETATM   21  C   UNL     1      -6.971   4.641  68.140  1.00  0.00    -0.056 C  
HETATM   22  O   UNL     1      -6.106   5.781  68.301  1.00  0.00    -0.016 OA 
BRANCH  21  23
HETATM   23  C   UNL     1      -6.586   3.930  66.840  1.00  0.00    -0.046 A  
HETATM   24  C   UNL     1      -6.987   2.591  66.636  1.00  0.00    -0.048 A  
HETATM   25  C   UNL     1      -5.852   4.544  65.802  1.00  0.00    -0.022 A  
HETATM   26  C   UNL     1      -6.722   1.919  65.440  1.00  0.00    -0.034 A  
HETATM   27  C   UNL     1      -5.604   3.875  64.595  1.00  0.00    -0.014 A  
HETATM   28 CL   UNL     1      -5.165   6.126  65.935  1.00  0.00    -0.012 Cl 
HETATM   29 CL   UNL     1      -5.763   1.761  62.927  1.00  0.00    -0.007 Cl 
HETATM   30  C   UNL     1      -6.050   2.572  64.417  1.00  0.00    -0.018 A  
ENDBRANCH  21  23
BRANCH  21  31
HETATM   31  C   UNL     1      -8.432   5.145  68.190  1.00  0.00    -0.099 C  
BRANCH  31  32
HETATM   32  N   UNL     1      -9.103   5.225  66.913  1.00  0.00    -0.113 NA 
HETATM   33  C   UNL     1      -8.686   5.877  65.792  1.00  0.00    -0.151 A  
HETATM   34  C   UNL     1     -10.330   4.665  65.334  1.00  0.00    -0.146 A  
HETATM   35  N   UNL     1      -9.452   5.551  64.779  1.00  0.00     0.381 NA 
HETATM   36  N   UNL     1     -10.155   4.435  66.637  1.00  0.00    -0.216 NA 
ENDBRANCH  31  32
ENDBRANCH  21  31
ENDBRANCH  17  18
ENDBRANCH  16  17
ENDBRANCH  13  16
ENDBRANCH   7  10
ENDBRANCH   2   4
TORSDOF 8
ENDMDL
MODEL      211
REMARK 921   NORMALIZED FREE ENERGY PREDICTED BY IDOCK:   -0.03 KCAL/MOL
REMARK 922        TOTAL FREE ENERGY PREDICTED BY IDOCK:   -1.22 KCAL/MOL
REMARK 923 INTER-LIGAND FREE ENERGY PREDICTED BY IDOCK:   -2.54 KCAL/MOL
REMARK 924 INTRA-LIGAND FREE ENERGY PREDICTED BY IDOCK:    1.32 KCAL/MOL
REMARK 927      BINDING AFFINITY PREDICTED BY RF-SCORE:    0.00 PKD
ROOT
HETATM    1  C   UNL     1      -5.464  15.673  71.358  1.00  0.00     0.157 C  
HETATM    2  C   UNL     1      -6.003  16.394  70.106  1.00  0.00    -0.134 C  
HETATM    3  C   UNL     1      -5.127  17.642  69.907  1.00  0.00    -0.194 C  
ENDROOT
BRANCH   2   4
HETATM    4  N   UNL     1      -6.002  15.478  68.942  1.00  0.00    -0.101 NA 
HETATM    5  C   UNL     1      -6.119  14.050  69.344  1.00  0.00    -0.102 C  
HETATM    6  C   UNL     1      -7.518  13.627  69.843  1.00  0.00     0.857 C  
HETATM    7  N   UNL     1      -8.521  13.925  68.808  1.00  0.00    -0.071 NA 
HETATM    8  C   UNL     1      -7.072  15.729  67.936  1.00  0.00    -0.133 C  
HETATM    9  C   UNL     1      -8.516  15.323  68.350  1.00  0.00    -0.158 C  
BRANCH   7  10
HETATM   10  C   UNL     1      -9.675  13.160  68.745  1.00  0.00     0.049 A  
HETATM   11  C   UNL     1     -10.737  13.368  69.627  1.00  0.00     0.302 A  
HETATM   12  C   UNL     1     -11.806  12.477  69.714  1.00  0.00    -0.380 A  
HETATM   13  C   UNL     1     -11.856  11.334  68.917  1.00  0.00    -0.345 A  
HETATM   14  C   UNL     1      -9.777  12.059  67.881  1.00  0.00    -0.194 A  
HETATM   15  C   UNL     1     -10.849  11.150  67.969  1.00  0.00    -0.274 A  
BRANCH  13  16
HETATM   16  O   UNL     1     -12.821  10.356  69.014  1.00  0.00     0.291 OA 
BRANCH  16  17
HETATM   17  C   UNL     1     -12.640   9.469  70.123  1.00  0.00     0.511 C  
BRANCH  17  18
HETATM   18  C   UNL     1     -11.623   8.361  69.874  1.00  0.00     0.297 C  
HETATM   19  C   UNL     1     -10.402   8.821  69.121  1.00  0.00    -0.217 C  
HETATM   20  O   UNL     1      -9.349   8.009  69.641  1.00  0.00    -0.156 OA 
HETATM   21  C   UNL     1      -9.715   7.676  71.003  1.00  0.00    -0.163 C  
HETATM   22  O   UNL     1     -11.125   7.925  71.145  1.00  0.00    -0.247 OA 
BRANCH  21  23
HETATM   23  C   UNL     1      -9.463   6.191  71.277  1.00  0.00    -0.177 A  
HETATM   24  C   UNL     1      -8.636   5.454  70.401  1.00  0.00    -0.127 A  
HETATM   25  C   UNL     1     -10.003   5.498  72.382  1.00  0.00    -0.168 A  
HETATM   26  C   UNL     1      -8.318   4.115  70.643  1.00  0.00    -0.086 A  
HETATM   27  C   UNL     1      -9.668   4.161  72.634  1.00  0.00    -0.196 A  
HETATM   28 CL   UNL     1     -11.141   6.204  73.478  1.00  0.00    -0.109 Cl 
HETATM   29 CL   UNL     1      -8.392   1.846  72.095  1.00  0.00    -0.052 Cl 
HETATM   30  C   UNL     1      -8.819   3.480  71.771  1.00  0.00    -0.095 A  
ENDBRANCH  21  23
BRANCH  21  31
HETATM   31  C   UNL     1      -8.966   8.642  71.950  1.00  0.00    -0.231 C  
BRANCH  31  32
HETATM   32  N   UNL     1      -7.682   9.105  71.474  1.00  0.00    -0.342 NA 
HETATM   33  C   UNL     1      -7.433   9.933  70.422  1.00  0.00    -0.122 A  
HETATM   34  C   UNL     1      -5.682   9.657  71.534  1.00  0.00    -0.050 A  
HETATM   35  N   UNL     1      -6.172  10.289  70.427  1.00  0.00    -0.107 NA 
HETATM   36  N   UNL     1      -6.570   8.921  72.206  1.00  0.00    -0.269 NA 
ENDBRANCH  31  32
ENDBRANCH  21  31
ENDBRANCH  17  18
ENDBRANCH  16  17
ENDBRANCH  13  16
ENDBRANCH   7  10
ENDBRANCH   2   4
TORSDOF 8
ENDMDL
MODEL      212
REMARK 921   NORMALIZED FREE ENERGY PREDICTED BY IDOCK:    0.10 KCAL/MOL
REMARK 922        TOTAL FREE ENERGY PREDICTED BY IDOCK:   -1.03 KCAL/MOL
REMARK 923 INTER-LIGAND FREE ENERGY PREDICTED BY IDOCK:   -1.76 KCAL/MOL
REMARK 924 INTRA-LIGAND FREE ENERGY PREDICTED BY IDOCK:    0.73 KCAL/MOL
REMARK 927      BINDING AFFINITY PREDICTED BY RF-SCORE:    0.00 PKD
ROOT
HETATM    1  C   UNL     1      -8.791  14.929  66.933  1.00  0.00    -0.284 C  
HETATM    2  C   UNL     1      -7.589  14.184  67.547  1.00  0.00    -0.184 C  
HETATM    3  C   UNL     1      -6.730  15.244  68.255  1.00  0.00    -0.124 C  
ENDROOT
BRANCH   2   4
HETATM    4  N   UNL     1      -8.057  13.103  68.448  1.00  0.00    -0.146 NA 
HETATM    5  C   UNL     1      -9.436  12.651  68.122  1.00  0.00    -0.218 C  
HETATM    6  C   UNL     1      -9.557  11.809  66.834  1.00  0.00    -0.193 C  
HETATM    7  N   UNL     1      -8.670  10.639  66.923  1.00  0.00    -0.131 NA 
HETATM    8  C   UNL     1      -7.200  11.884  68.474  1.00  0.00    -0.100 C  
HETATM    9  C   UNL     1      -7.267  10.969  67.217  1.00  0.00    -0.102 C  
BRANCH   7  10
HETATM   10  C   UNL     1      -9.000   9.486  66.228  1.00  0.00    -0.157 A  
HETATM   11  C   UNL     1      -9.577   8.389  66.869  1.00  0.00    -0.264 A  
HETATM   12  C   UNL     1      -9.720   7.156  66.233  1.00  0.00    -0.059 A  
HETATM   13  C   UNL     1      -9.285   6.971  64.921  1.00  0.00     1.039 A  
HETATM   14  C   UNL     1      -8.650   9.319  64.880  1.00  0.00    -0.204 A  
HETATM   15  C   UNL     1      -8.782   8.075  64.233  1.00  0.00     0.341 A  
BRANCH  13  16
HETATM   16  O   UNL     1      -9.295   5.762  64.258  1.00  0.00     0.563 OA 
BRANCH  16  17
HETATM   17  C   UNL     1      -8.185   4.915  64.577  1.00  0.00    -0.123 C  
BRANCH  17  18
HETATM   18  C   UNL     1      -8.135   4.482  66.038  1.00  0.00    -0.103 C  
HETATM   19  C   UNL     1      -7.156   3.368  66.304  1.00  0.00    -0.063 C  
HETATM   20  O   UNL     1      -6.684   3.630  67.626  1.00  0.00    -0.041 OA 
HETATM   21  C   UNL     1      -6.766   5.064  67.819  1.00  0.00    -0.055 C  
HETATM   22  O   UNL     1      -7.648   5.587  66.809  1.00  0.00    -0.086 OA 
BRANCH  21  23
HETATM   23  C   UNL     1      -7.367   5.386  69.190  1.00  0.00    -0.066 A  
HETATM   24  C   UNL     1      -6.691   6.280  70.051  1.00  0.00    -0.053 A  
HETATM   25  C   UNL     1      -8.587   4.849  69.654  1.00  0.00    -0.083 A  
HETATM   26  C   UNL     1      -7.229   6.662  71.282  1.00  0.00    -0.078 A  
HETATM   27  C   UNL     1      -9.135   5.248  70.881  1.00  0.00    -0.168 A  
HETATM   28 CL   UNL     1      -9.477   3.641  68.794  1.00  0.00    -0.228 Cl 
HETATM   29 CL   UNL     1      -9.146   6.664  73.177  1.00  0.00    -0.138 Cl 
HETATM   30  C   UNL     1      -8.460   6.160  71.683  1.00  0.00    -0.130 A  
ENDBRANCH  21  23
BRANCH  21  31
HETATM   31  C   UNL     1      -5.361   5.661  67.575  1.00  0.00    -0.005 C  
BRANCH  31  32
HETATM   32  N   UNL     1      -5.253   6.547  66.439  1.00  0.00    -0.013 NA 
HETATM   33  C   UNL     1      -5.303   6.218  65.118  1.00  0.00    -0.017 A  
HETATM   34  C   UNL     1      -5.392   8.298  65.332  1.00  0.00    -0.032 A  
HETATM   35  N   UNL     1      -5.379   7.307  64.393  1.00  0.00    -0.029 NA 
HETATM   36  N   UNL     1      -5.317   7.881  66.598  1.00  0.00    -0.027 NA 
ENDBRANCH  31  32
ENDBRANCH  21  31
ENDBRANCH  17  18
ENDBRANCH  16  17
ENDBRANCH  13  16
ENDBRANCH   7  10
ENDBRANCH   2   4
TORSDOF 8
ENDMDL
MODEL      213
REMARK 921   NORMALIZED FREE ENERGY PREDICTED BY IDOCK:    0.12 KCAL/MOL
REMARK 922        TOTAL FREE ENERGY PREDICTED BY IDOCK:   -0.99 KCAL/MOL
REMARK 923 INTER-LIGAND FREE ENERGY PREDICTED BY IDOCK:   -5.03 KCAL/MOL
REMARK 924 INTRA-LIGAND FREE ENERGY PREDICTED BY IDOCK:    4.04 KCAL/MOL
REMARK 927      BINDING AFFINITY PREDICTED BY RF-SCORE:    0.00 PKD
ROOT
HETATM    1  C   UNL     1      -9.732  12.809  68.318  1.00  0.00    -0.216 C  
HETATM    2  C   UNL     1     -10.576  12.673  67.035  1.00  0.00    -0.240 C  
HETATM    3  C   UNL     1      -9.606  12.270  65.912  1.00  0.00    -0.207 C  
ENDROOT
BRANCH   2   4
HETATM    4  N   UNL     1     -11.678  11.704  67.242  1.00  0.00    -0.611 NA 
HETATM    5  C   UNL     1     -11.214  10.292  67.163  1.00  0.00     0.055 C  
HETATM    6  C   UNL     1     -10.386   9.811  68.374  1.00  0.00    -0.201 C  
HETATM    7  N   UNL     1     -11.163   9.999  69.609  1.00  0.00    -0.249 NA 
HETATM    8  C   UNL     1     -12.411  11.842  68.532  1.00  0.00     0.435 C  
HETATM    9  C   UNL     1     -11.655  11.371  69.808  1.00  0.00    -0.332 C  
BRANCH   7  10
HETATM   10  C   UNL     1     -10.928   9.163  70.690  1.00  0.00    -0.263 A  
HETATM   11  C   UNL     1      -9.720   9.200  71.389  1.00  0.00    -0.338 A  
HETATM   12  C   UNL     1      -9.389   8.231  72.335  1.00  0.00    -0.338 A  
HETATM   13  C   UNL     1     -10.258   7.178  72.620  1.00  0.00    -0.200 A  
HETATM   14  C   UNL     1     -11.836   8.156  71.048  1.00  0.00    -0.279 A  
HETATM   15  C   UNL     1     -11.505   7.168  71.996  1.00  0.00    -0.310 A  
BRANCH  13  16
HETATM   16  O   UNL     1      -9.963   6.128  73.463  1.00  0.00    -0.167 OA 
BRANCH  16  17
HETATM   17  C   UNL     1      -9.281   5.044  72.823  1.00  0.00    -0.132 C  
BRANCH  17  18
HETATM   18  C   UNL     1      -9.254   5.138  71.301  1.00  0.00    -0.145 C  
HETATM   19  C   UNL     1      -8.536   6.356  70.784  1.00  0.00    -0.135 C  
HETATM   20  O   UNL     1      -7.952   5.919  69.556  1.00  0.00    -0.101 OA 
HETATM   21  C   UNL     1      -7.703   4.498  69.698  1.00  0.00    -0.054 C  
HETATM   22  O   UNL     1      -8.497   4.029  70.804  1.00  0.00    -0.069 OA 
BRANCH  21  23
HETATM   23  C   UNL     1      -8.148   3.748  68.440  1.00  0.00    -0.079 A  
HETATM   24  C   UNL     1      -9.048   4.367  67.544  1.00  0.00    -0.146 A  
HETATM   25  C   UNL     1      -7.695   2.455  68.101  1.00  0.00    -0.055 A  
HETATM   26  C   UNL     1      -9.431   3.756  66.348  1.00  0.00    -0.197 A  
HETATM   27  C   UNL     1      -8.065   1.851  66.891  1.00  0.00    -0.073 A  
HETATM   28 CL   UNL     1      -6.701   1.496  69.143  1.00  0.00    -0.029 Cl 
HETATM   29 CL   UNL     1      -9.355   1.774  64.524  1.00  0.00    -0.132 Cl 
HETATM   30  C   UNL     1      -8.921   2.508  66.017  1.00  0.00    -0.121 A  
ENDBRANCH  21  23
BRANCH  21  31
HETATM   31  C   UNL     1      -6.214   4.308  70.069  1.00  0.00    -0.026 C  
BRANCH  31  32
HETATM   32  N   UNL     1      -5.896   4.493  71.467  1.00  0.00    -0.015 NA 
HETATM   33  C   UNL     1      -5.569   5.653  72.100  1.00  0.00    -0.022 A  
HETATM   34  C   UNL     1      -5.901   4.145  73.514  1.00  0.00    -0.008 A  
HETATM   35  N   UNL     1      -5.553   5.460  73.397  1.00  0.00    -0.022 NA 
HETATM   36  N   UNL     1      -6.121   3.512  72.359  1.00  0.00    -0.009 NA 
ENDBRANCH  31  32
ENDBRANCH  21  31
ENDBRANCH  17  18
ENDBRANCH  16  17
ENDBRANCH  13  16
ENDBRANCH   7  10
ENDBRANCH   2   4
TORSDOF 8
ENDMDL
MODEL      214
REMARK 921   NORMALIZED FREE ENERGY PREDICTED BY IDOCK:    0.60 KCAL/MOL
REMARK 922        TOTAL FREE ENERGY PREDICTED BY IDOCK:   -0.29 KCAL/MOL
REMARK 923 INTER-LIGAND FREE ENERGY PREDICTED BY IDOCK:   -2.13 KCAL/MOL
REMARK 924 INTRA-LIGAND FREE ENERGY PREDICTED BY IDOCK:    1.84 KCAL/MOL
REMARK 927      BINDING AFFINITY PREDICTED BY RF-SCORE:    0.00 PKD
ROOT
HETATM    1  C   UNL     1     -13.023  14.198  65.771  1.00  0.00    -0.235 C  
HETATM    2  C   UNL     1     -12.608  14.054  64.293  1.00  0.00    -0.126 C  
HETATM    3  C   UNL     1     -11.406  14.988  64.081  1.00  0.00     0.079 C  
ENDROOT
BRANCH   2   4
HETATM    4  N   UNL     1     -12.319  12.636  63.973  1.00  0.00    -0.559 NA 
HETATM    5  C   UNL     1     -10.974  12.455  63.363  1.00  0.00    -0.386 C  
HETATM    6  C   UNL     1      -9.790  12.613  64.341  1.00  0.00    -0.047 C  
HETATM    7  N   UNL     1      -9.947  11.672  65.462  1.00  0.00    -0.234 NA 
HETATM    8  C   UNL     1     -12.396  11.697  65.128  1.00  0.00     0.823 C  
HETATM    9  C   UNL     1     -11.236  11.779  66.161  1.00  0.00    -0.306 C  
BRANCH   7  10
HETATM   10  C   UNL     1      -8.817  11.209  66.118  1.00  0.00    -0.190 A  
HETATM   11  C   UNL     1      -8.885  10.703  67.418  1.00  0.00    -0.132 A  
HETATM   12  C   UNL     1      -7.738  10.432  68.162  1.00  0.00    -0.092 A  
HETATM   13  C   UNL     1      -6.467  10.659  67.633  1.00  0.00    -0.057 A  
HETATM   14  C   UNL     1      -7.538  11.346  65.559  1.00  0.00     0.581 A  
HETATM   15  C   UNL     1      -6.374  11.084  66.308  1.00  0.00    -0.119 A  
BRANCH  13  16
HETATM   16  O   UNL     1      -5.291  10.515  68.336  1.00  0.00    -0.035 OA 
BRANCH  16  17
HETATM   17  C   UNL     1      -5.442  10.649  69.754  1.00  0.00    -0.040 C  
BRANCH  17  18
HETATM   18  C   UNL     1      -5.801   9.350  70.466  1.00  0.00    -0.052 C  
HETATM   19  C   UNL     1      -7.156   9.375  71.124  1.00  0.00     0.008 C  
HETATM   20  O   UNL     1      -7.617   8.029  71.019  1.00  0.00    -0.077 OA 
HETATM   21  C   UNL     1      -7.006   7.472  69.829  1.00  0.00    -0.055 C  
HETATM   22  O   UNL     1      -5.894   8.317  69.478  1.00  0.00    -0.029 OA 
BRANCH  21  23
HETATM   23  C   UNL     1      -6.466   6.068  70.111  1.00  0.00    -0.039 A  
HETATM   24  C   UNL     1      -6.368   5.617  71.447  1.00  0.00    -0.043 A  
HETATM   25  C   UNL     1      -6.066   5.166  69.101  1.00  0.00    -0.021 A  
HETATM   26  C   UNL     1      -5.948   4.321  71.756  1.00  0.00    -0.016 A  
HETATM   27  C   UNL     1      -5.663   3.860  69.412  1.00  0.00    -0.018 A  
HETATM   28 CL   UNL     1      -5.990   5.594  67.427  1.00  0.00    -0.017 Cl 
HETATM   29 CL   UNL     1      -5.145   1.831  71.111  1.00  0.00     0.000 Cl 
HETATM   30  C   UNL     1      -5.617   3.441  70.735  1.00  0.00    -0.013 A  
ENDBRANCH  21  23
BRANCH  21  31
HETATM   31  C   UNL     1      -8.038   7.546  68.680  1.00  0.00    -0.124 C  
BRANCH  31  32
HETATM   32  N   UNL     1      -9.014   6.481  68.655  1.00  0.00    -0.127 NA 
HETATM   33  C   UNL     1      -9.821   6.066  69.672  1.00  0.00    -0.163 A  
HETATM   34  C   UNL     1     -10.419   5.163  67.881  1.00  0.00    -0.032 A  
HETATM   35  N   UNL     1     -10.712   5.221  69.213  1.00  0.00    -0.130 NA 
HETATM   36  N   UNL     1      -9.388   5.917  67.493  1.00  0.00    -0.111 NA 
ENDBRANCH  31  32
ENDBRANCH  21  31
ENDBRANCH  17  18
ENDBRANCH  16  17
ENDBRANCH  13  16
ENDBRANCH   7  10
ENDBRANCH   2   4
TORSDOF 8
ENDMDL
MODEL      215
REMARK 921   NORMALIZED FREE ENERGY PREDICTED BY IDOCK:    0.85 KCAL/MOL
REMARK 922        TOTAL FREE ENERGY PREDICTED BY IDOCK:    0.07 KCAL/MOL
REMARK 923 INTER-LIGAND FREE ENERGY PREDICTED BY IDOCK:   -0.41 KCAL/MOL
REMARK 924 INTRA-LIGAND FREE ENERGY PREDICTED BY IDOCK:    0.48 KCAL/MOL
REMARK 927      BINDING AFFINITY PREDICTED BY RF-SCORE:    0.00 PKD
ROOT
HETATM    1  C   UNL     1     -10.695   8.906  65.424  1.00  0.00     2.916 C  
HETATM    2  C   UNL     1     -10.389  10.141  64.553  1.00  0.00     0.278 C  
HETATM    3  C   UNL     1     -11.025  11.347  65.264  1.00  0.00    -0.251 C  
ENDROOT
BRANCH   2   4
HETATM    4  N   UNL     1      -8.928  10.278  64.347  1.00  0.00    -0.207 NA 
HETATM    5  C   UNL     1      -8.356  11.434  65.090  1.00  0.00     0.441 C  
HETATM    6  C   UNL     1      -8.255  11.237  66.618  1.00  0.00    -0.164 C  
HETATM    7  N   UNL     1      -7.464  10.030  66.909  1.00  0.00    -0.094 NA 
HETATM    8  C   UNL     1      -8.120   9.084  64.721  1.00  0.00    -0.144 C  
HETATM    9  C   UNL     1      -7.955   8.814  66.244  1.00  0.00    -0.106 C  
BRANCH   7  10
HETATM   10  C   UNL     1      -6.759   9.956  68.100  1.00  0.00    -0.060 A  
HETATM   11  C   UNL     1      -5.708   9.053  68.270  1.00  0.00    -0.038 A  
HETATM   12  C   UNL     1      -5.132   8.820  69.518  1.00  0.00    -0.031 A  
HETATM   13  C   UNL     1      -5.589   9.486  70.655  1.00  0.00    -0.049 A  
HETATM   14  C   UNL     1      -7.150  10.690  69.230  1.00  0.00    -0.107 A  
HETATM   15  C   UNL     1      -6.581  10.454  70.496  1.00  0.00    -0.074 A  
BRANCH  13  16
HETATM   16  O   UNL     1      -5.145   9.239  71.936  1.00  0.00    -0.043 OA 
BRANCH  16  17
HETATM   17  C   UNL     1      -5.952   8.302  72.660  1.00  0.00    -0.065 C  
BRANCH  17  18
HETATM   18  C   UNL     1      -6.381   7.089  71.842  1.00  0.00    -0.041 C  
HETATM   19  C   UNL     1      -6.489   5.823  72.649  1.00  0.00    -0.066 C  
HETATM   20  O   UNL     1      -7.551   5.103  72.024  1.00  0.00    -0.092 OA 
HETATM   21  C   UNL     1      -8.437   6.091  71.443  1.00  0.00    -0.128 C  
HETATM   22  O   UNL     1      -7.708   7.330  71.361  1.00  0.00    -0.086 OA 
BRANCH  21  23
HETATM   23  C   UNL     1      -8.842   5.681  70.026  1.00  0.00    -0.136 A  
HETATM   24  C   UNL     1      -8.183   4.598  69.401  1.00  0.00    -0.073 A  
HETATM   25  C   UNL     1      -9.865   6.317  69.290  1.00  0.00    -0.141 A  
HETATM   26  C   UNL     1      -8.560   4.139  68.137  1.00  0.00    -0.109 A  
HETATM   27  C   UNL     1     -10.255   5.844  68.029  1.00  0.00    -0.224 A  
HETATM   28 CL   UNL     1     -10.683   7.739  69.840  1.00  0.00    -0.246 Cl 
HETATM   29 CL   UNL     1     -10.105   4.158  65.929  1.00  0.00    -0.200 Cl 
HETATM   30  C   UNL     1      -9.609   4.751  67.465  1.00  0.00    -0.158 A  
ENDBRANCH  21  23
BRANCH  21  31
HETATM   31  C   UNL     1      -9.621   6.302  72.415  1.00  0.00    -0.150 C  
BRANCH  31  32
HETATM   32  N   UNL     1     -10.252   5.094  72.895  1.00  0.00    -0.173 NA 
HETATM   33  C   UNL     1     -10.253   3.865  72.307  1.00  0.00    -0.146 A  
HETATM   34  C   UNL     1     -11.024   3.721  74.247  1.00  0.00     0.016 A  
HETATM   35  N   UNL     1     -10.749   2.979  73.136  1.00  0.00    -0.168 NA 
HETATM   36  N   UNL     1     -10.737   5.021  74.146  1.00  0.00    -0.288 NA 
ENDBRANCH  31  32
ENDBRANCH  21  31
ENDBRANCH  17  18
ENDBRANCH  16  17
ENDBRANCH  13  16
ENDBRANCH   7  10
ENDBRANCH   2   4
TORSDOF 8
ENDMDL
MODEL      216
REMARK 921   NORMALIZED FREE ENERGY PREDICTED BY IDOCK:    0.95 KCAL/MOL
REMARK 922        TOTAL FREE ENERGY PREDICTED BY IDOCK:    0.22 KCAL/MOL
REMARK 923 INTER-LIGAND FREE ENERGY PREDICTED BY IDOCK:   -1.65 KCAL/MOL
REMARK 924 INTRA-LIGAND FREE ENERGY PREDICTED BY IDOCK:    1.87 KCAL/MOL
REMARK 927      BINDING AFFINITY PREDICTED BY RF-SCORE:    0.00 PKD
ROOT
HETATM    1  C   UNL     1     -11.722   8.387  68.721  1.00  0.00     1.585 C  
HETATM    2  C   UNL     1     -10.990   8.339  67.365  1.00  0.00     0.153 C  
HETATM    3  C   UNL     1     -11.149   9.731  66.731  1.00  0.00     0.228 C  
ENDROOT
BRANCH   2   4
HETATM    4  N   UNL     1      -9.578   7.933  67.554  1.00  0.00    -0.147 NA 
HETATM    5  C   UNL     1      -8.660   8.611  66.599  1.00  0.00    -0.117 C  
HETATM    6  C   UNL     1      -8.407  10.106  66.891  1.00  0.00    -0.122 C  
HETATM    7  N   UNL     1      -7.887  10.260  68.259  1.00  0.00    -0.099 NA 
HETATM    8  C   UNL     1      -9.027   8.168  68.918  1.00  0.00    -0.141 C  
HETATM    9  C   UNL     1      -8.731   9.648  69.296  1.00  0.00    -0.159 C  
BRANCH   7  10
HETATM   10  C   UNL     1      -7.068  11.339  68.553  1.00  0.00    -0.083 A  
HETATM   11  C   UNL     1      -6.897  11.789  69.863  1.00  0.00     0.184 A  
HETATM   12  C   UNL     1      -6.250  12.991  70.150  1.00  0.00    -0.033 A  
HETATM   13  C   UNL     1      -5.747  13.797  69.129  1.00  0.00    -0.083 A  
HETATM   14  C   UNL     1      -6.478  12.108  67.538  1.00  0.00    -0.134 A  
HETATM   15  C   UNL     1      -5.832  13.328  67.818  1.00  0.00    -0.132 A  
BRANCH  13  16
HETATM   16  O   UNL     1      -5.190  15.043  69.321  1.00  0.00    -0.091 OA 
BRANCH  16  17
HETATM   17  C   UNL     1      -5.706  16.052  68.445  1.00  0.00    -0.106 C  
BRANCH  17  18
HETATM   18  C   UNL     1      -7.198  16.315  68.612  1.00  0.00    -0.166 C  
HETATM   19  C   UNL     1      -7.755  17.294  67.612  1.00  0.00    -0.184 C  
HETATM   20  O   UNL     1      -9.092  16.844  67.394  1.00  0.00    -0.215 OA 
HETATM   21  C   UNL     1      -9.090  15.411  67.616  1.00  0.00    -0.182 C  
HETATM   22  O   UNL     1      -7.893  15.090  68.350  1.00  0.00    -0.116 OA 
BRANCH  21  23
HETATM   23  C   UNL     1     -10.295  14.999  68.465  1.00  0.00    -0.230 A  
HETATM   24  C   UNL     1     -10.184  13.893  69.337  1.00  0.00     0.235 A  
HETATM   25  C   UNL     1     -11.533  15.675  68.444  1.00  0.00    -0.369 A  
HETATM   26  C   UNL     1     -11.229  13.517  70.183  1.00  0.00     0.187 A  
HETATM   27  C   UNL     1     -12.575  15.309  69.308  1.00  0.00     0.115 A  
HETATM   28 CL   UNL     1     -11.891  16.961  67.343  1.00  0.00     0.995 Cl 
HETATM   29 CL   UNL     1     -13.685  13.807  71.254  1.00  0.00    -0.187 Cl 
HETATM   30  C   UNL     1     -12.414  14.240  70.180  1.00  0.00    -0.335 A  
ENDBRANCH  21  23
BRANCH  21  31
HETATM   31  C   UNL     1      -9.002  14.713  66.239  1.00  0.00    -0.077 C  
BRANCH  31  32
HETATM   32  N   UNL     1     -10.231  14.116  65.769  1.00  0.00    -0.318 NA 
HETATM   33  C   UNL     1     -11.030  13.228  66.423  1.00  0.00    -0.289 A  
HETATM   34  C   UNL     1     -12.004  13.923  64.706  1.00  0.00    -0.406 A  
HETATM   35  N   UNL     1     -12.154  13.076  65.766  1.00  0.00    -0.434 NA 
HETATM   36  N   UNL     1     -10.843  14.581  64.666  1.00  0.00    -0.373 NA 
ENDBRANCH  31  32
ENDBRANCH  21  31
ENDBRANCH  17  18
ENDBRANCH  16  17
ENDBRANCH  13  16
ENDBRANCH   7  10
ENDBRANCH   2   4
TORSDOF 8
ENDMDL
MODEL      217
REMARK 921   NORMALIZED FREE ENERGY PREDICTED BY IDOCK:    1.08 KCAL/MOL
REMARK 922        TOTAL FREE ENERGY PREDICTED BY IDOCK:    0.42 KCAL/MOL
REMARK 923 INTER-LIGAND FREE ENERGY PREDICTED BY IDOCK:   -2.56 KCAL/MOL
REMARK 924 INTRA-LIGAND FREE ENERGY PREDICTED BY IDOCK:    2.98 KCAL/MOL
REMARK 927      BINDING AFFINITY PREDICTED BY RF-SCORE:    0.00 PKD
ROOT
HETATM    1  C   UNL     1      -7.673  16.320  70.400  1.00  0.00     1.954 C  
HETATM    2  C   UNL     1      -7.797  14.921  69.764  1.00  0.00     0.045 C  
HETATM    3  C   UNL     1      -8.918  15.013  68.716  1.00  0.00    -0.196 C  
ENDROOT
BRANCH   2   4
HETATM    4  N   UNL     1      -6.495  14.491  69.202  1.00  0.00    -0.099 NA 
HETATM    5  C   UNL     1      -5.949  13.289  69.889  1.00  0.00    -0.136 C  
HETATM    6  C   UNL     1      -6.677  11.967  69.562  1.00  0.00    -0.035 C  
HETATM    7  N   UNL     1      -6.664  11.744  68.107  1.00  0.00    -0.061 NA 
HETATM    8  C   UNL     1      -6.504  14.185  67.744  1.00  0.00    -0.168 C  
HETATM    9  C   UNL     1      -7.207  12.863  67.322  1.00  0.00    -0.067 C  
BRANCH   7  10
HETATM   10  C   UNL     1      -6.707  10.446  67.622  1.00  0.00    -0.074 A  
HETATM   11  C   UNL     1      -6.604   9.346  68.475  1.00  0.00    -0.053 A  
HETATM   12  C   UNL     1      -6.435   8.051  67.987  1.00  0.00    -0.056 A  
HETATM   13  C   UNL     1      -6.361   7.803  66.617  1.00  0.00    -0.050 A  
HETATM   14  C   UNL     1      -6.726  10.179  66.245  1.00  0.00    -0.102 A  
HETATM   15  C   UNL     1      -6.546   8.876  65.744  1.00  0.00    -0.064 A  
BRANCH  13  16
HETATM   16  O   UNL     1      -6.094   6.572  66.059  1.00  0.00    -0.031 OA 
BRANCH  16  17
HETATM   17  C   UNL     1      -7.248   5.911  65.529  1.00  0.00    -0.074 C  
BRANCH  17  18
HETATM   18  C   UNL     1      -8.558   6.317  66.196  1.00  0.00    -0.143 C  
HETATM   19  C   UNL     1      -9.679   5.337  65.974  1.00  0.00    -0.139 C  
HETATM   20  O   UNL     1     -10.450   5.414  67.173  1.00  0.00    -0.232 OA 
HETATM   21  C   UNL     1      -9.533   5.783  68.233  1.00  0.00    -0.118 C  
HETATM   22  O   UNL     1      -8.348   6.317  67.613  1.00  0.00    -0.116 OA 
BRANCH  21  23
HETATM   23  C   UNL     1     -10.144   6.875  69.114  1.00  0.00    -0.180 A  
HETATM   24  C   UNL     1     -10.150   8.212  68.659  1.00  0.00    -0.211 A  
HETATM   25  C   UNL     1     -10.728   6.626  70.374  1.00  0.00    -0.250 A  
HETATM   26  C   UNL     1     -10.756   9.235  69.392  1.00  0.00    -0.222 A  
HETATM   27  C   UNL     1     -11.353   7.650  71.100  1.00  0.00    -0.286 A  
HETATM   28 CL   UNL     1     -10.689   5.078  71.147  1.00  0.00    -0.149 Cl 
HETATM   29 CL   UNL     1     -12.161  10.195  71.482  1.00  0.00    -0.463 Cl 
HETATM   30  C   UNL     1     -11.374   8.945  70.600  1.00  0.00    -0.259 A  
ENDBRANCH  21  23
BRANCH  21  31
HETATM   31  C   UNL     1      -9.132   4.495  68.989  1.00  0.00    -0.122 C  
BRANCH  31  32
HETATM   32  N   UNL     1      -8.468   3.489  68.190  1.00  0.00    -0.086 NA 
HETATM   33  C   UNL     1      -7.430   2.687  68.555  1.00  0.00    -0.048 A  
HETATM   34  C   UNL     1      -8.217   2.038  66.727  1.00  0.00    -0.082 A  
HETATM   35  N   UNL     1      -7.240   1.766  67.641  1.00  0.00    -0.046 NA 
HETATM   36  N   UNL     1      -8.993   3.083  67.021  1.00  0.00    -0.144 NA 
ENDBRANCH  31  32
ENDBRANCH  21  31
ENDBRANCH  17  18
ENDBRANCH  16  17
ENDBRANCH  13  16
ENDBRANCH   7  10
ENDBRANCH   2   4
TORSDOF 8
ENDMDL
MODEL      218
REMARK 921   NORMALIZED FREE ENERGY PREDICTED BY IDOCK:    1.38 KCAL/MOL
REMARK 922        TOTAL FREE ENERGY PREDICTED BY IDOCK:    0.85 KCAL/MOL
REMARK 923 INTER-LIGAND FREE ENERGY PREDICTED BY IDOCK:   -1.16 KCAL/MOL
REMARK 924 INTRA-LIGAND FREE ENERGY PREDICTED BY IDOCK:    2.01 KCAL/MOL
REMARK 927      BINDING AFFINITY PREDICTED BY RF-SCORE:    0.00 PKD
ROOT
HETATM    1  C   UNL     1     -12.589  13.754  70.325  1.00  0.00    -0.288 C  
HETATM    2  C   UNL     1     -12.743  12.262  69.966  1.00  0.00     0.339 C  
HETATM    3  C   UNL     1     -11.394  11.809  69.383  1.00  0.00    -0.337 C  
ENDROOT
BRANCH   2   4
HETATM    4  N   UNL     1     -13.165  11.485  71.156  1.00  0.00    -0.065 NA 
HETATM    5  C   UNL     1     -13.892  10.239  70.791  1.00  0.00     0.636 C  
HETATM    6  C   UNL     1     -13.006   9.117  70.208  1.00  0.00     0.933 C  
HETATM    7  N   UNL     1     -11.931   8.792  71.159  1.00  0.00    -0.292 NA 
HETATM    8  C   UNL     1     -12.063  11.085  72.075  1.00  0.00     1.050 C  
HETATM    9  C   UNL     1     -11.124   9.950  71.573  1.00  0.00     0.002 C  
BRANCH   7  10
HETATM   10  C   UNL     1     -11.397   7.513  71.164  1.00  0.00    -0.267 A  
HETATM   11  C   UNL     1     -10.995   6.896  72.350  1.00  0.00    -0.280 A  
HETATM   12  C   UNL     1     -10.268   5.706  72.350  1.00  0.00    -0.232 A  
HETATM   13  C   UNL     1      -9.910   5.083  71.155  1.00  0.00    -0.187 A  
HETATM   14  C   UNL     1     -11.115   6.833  69.970  1.00  0.00    -0.366 A  
HETATM   15  C   UNL     1     -10.373   5.636  69.961  1.00  0.00    -0.345 A  
BRANCH  13  16
HETATM   16  O   UNL     1      -9.108   3.965  71.066  1.00  0.00    -0.101 OA 
BRANCH  16  17
HETATM   17  C   UNL     1      -8.007   4.111  70.163  1.00  0.00    -0.054 C  
BRANCH  17  18
HETATM   18  C   UNL     1      -8.416   4.440  68.732  1.00  0.00    -0.084 C  
HETATM   19  C   UNL     1      -7.647   5.588  68.132  1.00  0.00    -0.081 C  
HETATM   20  O   UNL     1      -7.561   5.260  66.745  1.00  0.00    -0.086 OA 
HETATM   21  C   UNL     1      -7.584   3.813  66.659  1.00  0.00    -0.081 C  
HETATM   22  O   UNL     1      -8.091   3.313  67.910  1.00  0.00    -0.077 OA 
BRANCH  21  23
HETATM   23  C   UNL     1      -8.529   3.358  65.545  1.00  0.00    -0.108 A  
HETATM   24  C   UNL     1      -8.709   1.977  65.307  1.00  0.00    -0.116 A  
HETATM   25  C   UNL     1      -9.263   4.248  64.731  1.00  0.00    -0.156 A  
HETATM   26  C   UNL     1      -9.612   1.508  64.350  1.00  0.00    -0.102 A  
HETATM   27  C   UNL     1     -10.183   3.775  63.784  1.00  0.00    -0.219 A  
HETATM   28 CL   UNL     1      -9.066   5.966  64.789  1.00  0.00     0.262 Cl 
HETATM   29 CL   UNL     1     -11.506   1.833  62.462  1.00  0.00    -0.238 Cl 
HETATM   30  C   UNL     1     -10.361   2.409  63.607  1.00  0.00    -0.146 A  
ENDBRANCH  21  23
BRANCH  21  31
HETATM   31  C   UNL     1      -6.126   3.319  66.508  1.00  0.00    -0.024 C  
BRANCH  31  32
HETATM   32  N   UNL     1      -5.649   3.205  65.148  1.00  0.00    -0.013 NA 
HETATM   33  C   UNL     1      -5.388   2.065  64.450  1.00  0.00    -0.008 A  
HETATM   34  C   UNL     1      -5.336   3.712  63.159  1.00  0.00    -0.008 A  
HETATM   35  N   UNL     1      -5.173   2.357  63.190  1.00  0.00    -0.007 NA 
HETATM   36  N   UNL     1      -5.628   4.275  64.334  1.00  0.00    -0.013 NA 
ENDBRANCH  31  32
ENDBRANCH  21  31
ENDBRANCH  17  18
ENDBRANCH  16  17
ENDBRANCH  13  16
ENDBRANCH   7  10
ENDBRANCH   2   4
TORSDOF 8
ENDMDL
MODEL      219
REMARK 921   NORMALIZED FREE ENERGY PREDICTED BY IDOCK:    2.24 KCAL/MOL
REMARK 922        TOTAL FREE ENERGY PREDICTED BY IDOCK:    2.12 KCAL/MOL
REMARK 923 INTER-LIGAND FREE ENERGY PREDICTED BY IDOCK:   -0.24 KCAL/MOL
REMARK 924 INTRA-LIGAND FREE ENERGY PREDICTED BY IDOCK:    2.36 KCAL/MOL
REMARK 927      BINDING AFFINITY PREDICTED BY RF-SCORE:    0.00 PKD
ROOT
HETATM    1  C   UNL     1      -6.961  16.201  70.660  1.00  0.00     1.551 C  
HETATM    2  C   UNL     1      -7.022  14.833  69.951  1.00  0.00    -0.128 C  
HETATM    3  C   UNL     1      -8.019  14.984  68.791  1.00  0.00    -0.162 C  
ENDROOT
BRANCH   2   4
HETATM    4  N   UNL     1      -5.668  14.415  69.517  1.00  0.00    -0.092 NA 
HETATM    5  C   UNL     1      -5.292  13.075  70.042  1.00  0.00    -0.102 C  
HETATM    6  C   UNL     1      -6.017  11.888  69.372  1.00  0.00    -0.084 C  
HETATM    7  N   UNL     1      -5.784  11.924  67.919  1.00  0.00    -0.049 NA 
HETATM    8  C   UNL     1      -5.460  14.372  68.042  1.00  0.00    -0.117 C  
HETATM    9  C   UNL     1      -6.146  13.200  67.283  1.00  0.00     0.145 C  
BRANCH   7  10
HETATM   10  C   UNL     1      -5.809  10.739  67.201  1.00  0.00    -0.050 A  
HETATM   11  C   UNL     1      -6.083   9.518  67.819  1.00  0.00    -0.052 A  
HETATM   12  C   UNL     1      -5.905   8.303  67.159  1.00  0.00    -0.043 A  
HETATM   13  C   UNL     1      -5.441   8.260  65.844  1.00  0.00    -0.032 A  
HETATM   14  C   UNL     1      -5.432  10.693  65.850  1.00  0.00    -0.114 A  
HETATM   15  C   UNL     1      -5.241   9.470  65.179  1.00  0.00    -0.044 A  
BRANCH  13  16
HETATM   16  O   UNL     1      -5.143   7.103  65.159  1.00  0.00    -0.026 OA 
BRANCH  16  17
HETATM   17  C   UNL     1      -6.168   6.684  64.251  1.00  0.00    -0.035 C  
BRANCH  17  18
HETATM   18  C   UNL     1      -7.529   7.317  64.517  1.00  0.00    -0.092 C  
HETATM   19  C   UNL     1      -8.689   6.473  64.055  1.00  0.00     0.572 C  
HETATM   20  O   UNL     1      -9.723   6.761  64.996  1.00  0.00     1.260 OA 
HETATM   21  C   UNL     1      -9.067   7.105  66.242  1.00  0.00    -0.147 C  
HETATM   22  O   UNL     1      -7.696   7.422  65.936  1.00  0.00    -0.086 OA 
BRANCH  21  23
HETATM   23  C   UNL     1      -9.715   8.345  66.864  1.00  0.00    -0.292 A  
HETATM   24  C   UNL     1     -10.444   8.217  68.067  1.00  0.00    -0.239 A  
HETATM   25  C   UNL     1      -9.617   9.639  66.309  1.00  0.00    -0.221 A  
HETATM   26  C   UNL     1     -10.996   9.326  68.713  1.00  0.00    -0.047 A  
HETATM   27  C   UNL     1     -10.155  10.754  66.968  1.00  0.00    -0.249 A  
HETATM   28 CL   UNL     1      -8.882   9.959  64.776  1.00  0.00    -0.208 Cl 
HETATM   29 CL   UNL     1     -11.470  11.965  68.988  1.00  0.00    -0.323 Cl 
HETATM   30  C   UNL     1     -10.831  10.593  68.171  1.00  0.00    -0.245 A  
ENDBRANCH  21  23
BRANCH  21  31
HETATM   31  C   UNL     1      -9.073   5.852  67.148  1.00  0.00    -0.113 C  
BRANCH  31  32
HETATM   32  N   UNL     1      -8.056   4.869  66.852  1.00  0.00    -0.107 NA 
HETATM   33  C   UNL     1      -7.055   4.435  67.666  1.00  0.00    -0.064 A  
HETATM   34  C   UNL     1      -7.164   3.216  65.968  1.00  0.00    -0.070 A  
HETATM   35  N   UNL     1      -6.464   3.397  67.126  1.00  0.00    -0.036 NA 
HETATM   36  N   UNL     1      -8.147   4.094  65.757  1.00  0.00    -0.101 NA 
ENDBRANCH  31  32
ENDBRANCH  21  31
ENDBRANCH  17  18
ENDBRANCH  16  17
ENDBRANCH  13  16
ENDBRANCH   7  10
ENDBRANCH   2   4
TORSDOF 8
ENDMDL
MODEL      220
REMARK 921   NORMALIZED FREE ENERGY PREDICTED BY IDOCK:    2.48 KCAL/MOL
REMARK 922        TOTAL FREE ENERGY PREDICTED BY IDOCK:    2.46 KCAL/MOL
REMARK 923 INTER-LIGAND FREE ENERGY PREDICTED BY IDOCK:   -4.77 KCAL/MOL
REMARK 924 INTRA-LIGAND FREE ENERGY PREDICTED BY IDOCK:    7.23 KCAL/MOL
REMARK 927      BINDING AFFINITY PREDICTED BY RF-SCORE:    0.00 PKD
ROOT
HETATM    1  C   UNL     1      -9.450  12.472  68.076  1.00  0.00    -0.209 C  
HETATM    2  C   UNL     1     -10.359  12.433  66.831  1.00  0.00    -0.224 C  
HETATM    3  C   UNL     1      -9.475  11.988  65.655  1.00  0.00    -0.150 C  
ENDROOT
BRANCH   2   4
HETATM    4  N   UNL     1     -11.521  11.544  67.068  1.00  0.00    -0.496 NA 
HETATM    5  C   UNL     1     -11.184  10.107  66.874  1.00  0.00     0.262 C  
HETATM    6  C   UNL     1     -10.314   9.488  67.990  1.00  0.00    -0.214 C  
HETATM    7  N   UNL     1     -10.983   9.661  69.290  1.00  0.00    -0.204 NA 
HETATM    8  C   UNL     1     -12.145  11.660  68.416  1.00  0.00    -0.035 C  
HETATM    9  C   UNL     1     -11.342  11.052  69.602  1.00  0.00    -0.292 C  
BRANCH   7  10
HETATM   10  C   UNL     1     -10.741   8.744  70.301  1.00  0.00    -0.227 A  
HETATM   11  C   UNL     1      -9.490   8.645  70.911  1.00  0.00    -0.242 A  
HETATM   12  C   UNL     1      -9.173   7.597  71.774  1.00  0.00    -0.167 A  
HETATM   13  C   UNL     1     -10.102   6.597  72.062  1.00  0.00    -0.183 A  
HETATM   14  C   UNL     1     -11.700   7.788  70.668  1.00  0.00    -0.191 A  
HETATM   15  C   UNL     1     -11.385   6.721  71.530  1.00  0.00    -0.316 A  
BRANCH  13  16
HETATM   16  O   UNL     1      -9.835   5.477  72.819  1.00  0.00    -0.162 OA 
BRANCH  16  17
HETATM   17  C   UNL     1      -9.350   4.364  72.060  1.00  0.00    -0.132 C  
BRANCH  17  18
HETATM   18  C   UNL     1      -9.601   4.479  70.561  1.00  0.00    -0.204 C  
HETATM   19  C   UNL     1      -9.573   5.895  70.050  1.00  0.00    -0.163 C  
HETATM   20  O   UNL     1      -9.053   5.776  68.725  1.00  0.00    -0.115 OA 
HETATM   21  C   UNL     1      -8.193   4.610  68.721  1.00  0.00    -0.082 C  
HETATM   22  O   UNL     1      -8.523   3.825  69.882  1.00  0.00    -0.055 OA 
BRANCH  21  23
HETATM   23  C   UNL     1      -8.454   3.756  67.478  1.00  0.00    -0.103 A  
HETATM   24  C   UNL     1      -9.470   4.138  66.574  1.00  0.00    -0.201 A  
HETATM   25  C   UNL     1      -7.719   2.594  67.160  1.00  0.00    -0.070 A  
HETATM   26  C   UNL     1      -9.704   3.434  65.390  1.00  0.00    -0.053 A  
HETATM   27  C   UNL     1      -7.941   1.899  65.962  1.00  0.00    -0.078 A  
HETATM   28 CL   UNL     1      -6.533   1.905  68.215  1.00  0.00    -0.028 Cl 
HETATM   29 CL   UNL     1      -9.178   1.489  63.601  1.00  0.00    -0.091 Cl 
HETATM   30  C   UNL     1      -8.923   2.329  65.080  1.00  0.00    -0.126 A  
ENDBRANCH  21  23
BRANCH  21  31
HETATM   31  C   UNL     1      -6.732   5.092  68.876  1.00  0.00    -0.050 C  
BRANCH  31  32
HETATM   32  N   UNL     1      -6.252   5.960  67.824  1.00  0.00    -0.031 NA 
HETATM   33  C   UNL     1      -5.551   5.611  66.710  1.00  0.00    -0.017 A  
HETATM   34  C   UNL     1      -6.177   7.603  66.556  1.00  0.00    -0.045 A  
HETATM   35  N   UNL     1      -5.477   6.635  65.895  1.00  0.00    -0.018 NA 
HETATM   36  N   UNL     1      -6.670   7.235  67.741  1.00  0.00    -0.062 NA 
ENDBRANCH  31  32
ENDBRANCH  21  31
ENDBRANCH  17  18
ENDBRANCH  16  17
ENDBRANCH  13  16
ENDBRANCH   7  10
ENDBRANCH   2   4
TORSDOF 8
ENDMDL
MODEL      221
REMARK 921   NORMALIZED FREE ENERGY PREDICTED BY IDOCK:    2.68 KCAL/MOL
REMARK 922        TOTAL FREE ENERGY PREDICTED BY IDOCK:    2.77 KCAL/MOL
REMARK 923 INTER-LIGAND FREE ENERGY PREDICTED BY IDOCK:   -3.79 KCAL/MOL
REMARK 924 INTRA-LIGAND FREE ENERGY PREDICTED BY IDOCK:    6.55 KCAL/MOL
REMARK 927      BINDING AFFINITY PREDICTED BY RF-SCORE:    0.00 PKD
ROOT
HETATM    1  C   UNL     1      -5.819   6.167  67.656  1.00  0.00    -0.016 C  
HETATM    2  C   UNL     1      -6.706   7.299  68.213  1.00  0.00    -0.054 C  
HETATM    3  C   UNL     1      -6.247   7.545  69.660  1.00  0.00    -0.031 C  
ENDROOT
BRANCH   2   4
HETATM    4  N   UNL     1      -6.613   8.501  67.351  1.00  0.00    -0.058 NA 
HETATM    5  C   UNL     1      -7.846   8.718  66.547  1.00  0.00    -0.103 C  
HETATM    6  C   UNL     1      -9.064   9.225  67.349  1.00  0.00    -0.126 C  
HETATM    7  N   UNL     1      -8.711  10.473  68.046  1.00  0.00    -0.126 NA 
HETATM    8  C   UNL     1      -6.339   9.777  68.069  1.00  0.00    -0.056 C  
HETATM    9  C   UNL     1      -7.515  10.369  68.897  1.00  0.00    -0.099 C  
BRANCH   7  10
HETATM   10  C   UNL     1      -9.707  11.395  68.327  1.00  0.00    -0.202 A  
HETATM   11  C   UNL     1     -10.054  11.715  69.641  1.00  0.00     0.693 A  
HETATM   12  C   UNL     1     -11.185  12.474  69.938  1.00  0.00     0.088 A  
HETATM   13  C   UNL     1     -12.020  12.946  68.925  1.00  0.00    -0.250 A  
HETATM   14  C   UNL     1     -10.498  11.951  67.311  1.00  0.00    -0.248 A  
HETATM   15  C   UNL     1     -11.647  12.711  67.602  1.00  0.00    -0.414 A  
BRANCH  13  16
HETATM   16  O   UNL     1     -13.207  13.613  69.139  1.00  0.00     1.391 OA 
BRANCH  16  17
HETATM   17  C   UNL     1     -13.076  14.789  69.947  1.00  0.00     0.322 C  
BRANCH  17  18
HETATM   18  C   UNL     1     -11.724  15.482  69.819  1.00  0.00    -0.349 C  
HETATM   19  C   UNL     1     -10.551  14.542  69.920  1.00  0.00     0.087 C  
HETATM   20  O   UNL     1      -9.568  15.123  69.063  1.00  0.00    -0.211 OA 
HETATM   21  C   UNL     1     -10.289  15.843  68.032  1.00  0.00    -0.262 C  
HETATM   22  O   UNL     1     -11.636  16.036  68.501  1.00  0.00    -0.381 OA 
BRANCH  21  23
HETATM   23  C   UNL     1      -9.662  17.220  67.802  1.00  0.00    -0.270 A  
HETATM   24  C   UNL     1     -10.365  18.378  68.202  1.00  0.00    -0.393 A  
HETATM   25  C   UNL     1      -8.391  17.412  67.218  1.00  0.00    -0.207 A  
HETATM   26  C   UNL     1      -9.809  19.654  68.079  1.00  0.00    -0.524 A  
HETATM   27  C   UNL     1      -7.826  18.691  67.113  1.00  0.00    -0.241 A  
HETATM   28 CL   UNL     1      -7.451  16.123  66.550  1.00  0.00    -0.199 Cl 
HETATM   29 CL   UNL     1      -7.829  21.368  67.445  1.00  0.00     0.152 Cl 
HETATM   30  C   UNL     1      -8.533  19.803  67.554  1.00  0.00    -0.322 A  
ENDBRANCH  21  23
BRANCH  21  31
HETATM   31  C   UNL     1     -10.349  14.945  66.774  1.00  0.00    -0.269 C  
BRANCH  31  32
HETATM   32  N   UNL     1     -11.215  15.417  65.718  1.00  0.00    -0.255 NA 
HETATM   33  C   UNL     1     -10.910  16.290  64.718  1.00  0.00    -0.224 A  
HETATM   34  C   UNL     1     -12.770  15.407  64.342  1.00  0.00     0.428 A  
HETATM   35  N   UNL     1     -11.882  16.313  63.838  1.00  0.00    -0.922 NA 
HETATM   36  N   UNL     1     -12.404  14.833  65.490  1.00  0.00    -0.138 NA 
ENDBRANCH  31  32
ENDBRANCH  21  31
ENDBRANCH  17  18
ENDBRANCH  16  17
ENDBRANCH  13  16
ENDBRANCH   7  10
ENDBRANCH   2   4
TORSDOF 8
ENDMDL
MODEL      222
REMARK 921   NORMALIZED FREE ENERGY PREDICTED BY IDOCK:    2.99 KCAL/MOL
REMARK 922        TOTAL FREE ENERGY PREDICTED BY IDOCK:    3.22 KCAL/MOL
REMARK 923 INTER-LIGAND FREE ENERGY PREDICTED BY IDOCK:    1.27 KCAL/MOL
REMARK 924 INTRA-LIGAND FREE ENERGY PREDICTED BY IDOCK:    1.95 KCAL/MOL
REMARK 927      BINDING AFFINITY PREDICTED BY RF-SCORE:    0.00 PKD
ROOT
HETATM    1  C   UNL     1      -8.927  14.730  67.171  1.00  0.00    -0.239 C  
HETATM    2  C   UNL     1      -8.000  14.206  68.286  1.00  0.00    -0.140 C  
HETATM    3  C   UNL     1      -7.143  15.399  68.740  1.00  0.00    -0.125 C  
ENDROOT
BRANCH   2   4
HETATM    4  N   UNL     1      -8.798  13.601  69.379  1.00  0.00     0.717 NA 
HETATM    5  C   UNL     1     -10.165  13.214  68.936  1.00  0.00    -0.005 C  
HETATM    6  C   UNL     1     -10.224  11.969  68.024  1.00  0.00    -0.198 C  
HETATM    7  N   UNL     1      -9.591  10.828  68.705  1.00  0.00    -0.179 NA 
HETATM    8  C   UNL     1      -8.194  12.394  70.011  1.00  0.00     3.004 C  
HETATM    9  C   UNL     1      -8.220  11.088  69.167  1.00  0.00    -0.045 C  
BRANCH   7  10
HETATM   10  C   UNL     1     -10.008   9.542  68.396  1.00  0.00    -0.164 A  
HETATM   11  C   UNL     1     -10.528   8.691  69.373  1.00  0.00    -0.224 A  
HETATM   12  C   UNL     1     -10.753   7.338  69.124  1.00  0.00    -0.201 A  
HETATM   13  C   UNL     1     -10.461   6.777  67.881  1.00  0.00    -0.218 A  
HETATM   14  C   UNL     1      -9.805   8.993  67.122  1.00  0.00    -0.262 A  
HETATM   15  C   UNL     1     -10.020   7.625  66.865  1.00  0.00    -0.325 A  
BRANCH  13  16
HETATM   16  O   UNL     1     -10.557   5.434  67.588  1.00  0.00    -0.192 OA 
BRANCH  16  17
HETATM   17  C   UNL     1      -9.969   4.580  68.576  1.00  0.00    -0.035 C  
BRANCH  17  18
HETATM   18  C   UNL     1      -9.509   5.310  69.833  1.00  0.00    -0.155 C  
HETATM   19  C   UNL     1      -9.431   4.427  71.051  1.00  0.00    -0.162 C  
HETATM   20  O   UNL     1      -8.346   4.970  71.803  1.00  0.00    -0.112 OA 
HETATM   21  C   UNL     1      -7.439   5.573  70.848  1.00  0.00    -0.089 C  
HETATM   22  O   UNL     1      -8.165   5.754  69.618  1.00  0.00    -0.105 OA 
BRANCH  21  23
HETATM   23  C   UNL     1      -6.981   6.948  71.339  1.00  0.00    -0.066 A  
HETATM   24  C   UNL     1      -5.604   7.264  71.335  1.00  0.00    -0.035 A  
HETATM   25  C   UNL     1      -7.866   7.951  71.790  1.00  0.00    -0.099 A  
HETATM   26  C   UNL     1      -5.139   8.527  71.707  1.00  0.00    -0.034 A  
HETATM   27  C   UNL     1      -7.400   9.225  72.145  1.00  0.00     0.559 A  
HETATM   28 CL   UNL     1      -9.565   7.695  71.990  1.00  0.00    -0.189 Cl 
HETATM   29 CL   UNL     1      -5.475  11.080  72.504  1.00  0.00     0.595 Cl 
HETATM   30  C   UNL     1      -6.041   9.510  72.090  1.00  0.00     0.222 A  
ENDBRANCH  21  23
BRANCH  21  31
HETATM   31  C   UNL     1      -6.292   4.571  70.578  1.00  0.00    -0.026 C  
BRANCH  31  32
HETATM   32  N   UNL     1      -6.564   3.578  69.563  1.00  0.00    -0.033 NA 
HETATM   33  C   UNL     1      -6.893   2.269  69.746  1.00  0.00    -0.033 A  
HETATM   34  C   UNL     1      -7.164   2.793  67.738  1.00  0.00    -0.053 A  
HETATM   35  N   UNL     1      -7.265   1.743  68.604  1.00  0.00    -0.043 NA 
HETATM   36  N   UNL     1      -6.739   3.936  68.279  1.00  0.00    -0.046 NA 
ENDBRANCH  31  32
ENDBRANCH  21  31
ENDBRANCH  17  18
ENDBRANCH  16  17
ENDBRANCH  13  16
ENDBRANCH   7  10
ENDBRANCH   2   4
TORSDOF 8
ENDMDL
MODEL      223
REMARK 921   NORMALIZED FREE ENERGY PREDICTED BY IDOCK:    3.07 KCAL/MOL
REMARK 922        TOTAL FREE ENERGY PREDICTED BY IDOCK:    3.34 KCAL/MOL
REMARK 923 INTER-LIGAND FREE ENERGY PREDICTED BY IDOCK:    1.26 KCAL/MOL
REMARK 924 INTRA-LIGAND FREE ENERGY PREDICTED BY IDOCK:    2.08 KCAL/MOL
REMARK 927      BINDING AFFINITY PREDICTED BY RF-SCORE:    0.00 PKD
ROOT
HETATM    1  C   UNL     1      -7.110   4.449  73.583  1.00  0.00    -0.067 C  
HETATM    2  C   UNL     1      -7.897   5.284  72.553  1.00  0.00    -0.102 C  
HETATM    3  C   UNL     1      -8.256   6.609  73.245  1.00  0.00    -0.120 C  
ENDROOT
BRANCH   2   4
HETATM    4  N   UNL     1      -7.102   5.460  71.315  1.00  0.00    -0.067 NA 
HETATM    5  C   UNL     1      -7.884   6.108  70.227  1.00  0.00    -0.102 C  
HETATM    6  C   UNL     1      -8.150   7.615  70.427  1.00  0.00    -0.113 C  
HETATM    7  N   UNL     1      -6.871   8.324  70.597  1.00  0.00    -0.037 NA 
HETATM    8  C   UNL     1      -5.849   6.250  71.472  1.00  0.00    -0.031 C  
HETATM    9  C   UNL     1      -6.021   7.784  71.668  1.00  0.00    -0.035 C  
BRANCH   7  10
HETATM   10  C   UNL     1      -6.781   9.654  70.219  1.00  0.00    -0.099 A  
HETATM   11  C   UNL     1      -6.999  10.053  68.899  1.00  0.00    -0.062 A  
HETATM   12  C   UNL     1      -6.708  11.346  68.464  1.00  0.00    -0.069 A  
HETATM   13  C   UNL     1      -6.182  12.297  69.338  1.00  0.00    -0.110 A  
HETATM   14  C   UNL     1      -6.340  10.641  71.113  1.00  0.00     0.472 A  
HETATM   15  C   UNL     1      -6.035  11.946  70.679  1.00  0.00     0.024 A  
BRANCH  13  16
HETATM   16  O   UNL     1      -5.773  13.559  68.964  1.00  0.00    -0.072 OA 
BRANCH  16  17
HETATM   17  C   UNL     1      -6.243  13.964  67.673  1.00  0.00    -0.095 C  
BRANCH  17  18
HETATM   18  C   UNL     1      -6.533  15.456  67.558  1.00  0.00    -0.144 C  
HETATM   19  C   UNL     1      -6.445  15.982  66.150  1.00  0.00     2.065 C  
HETATM   20  O   UNL     1      -7.422  17.023  66.107  1.00  0.00    -0.293 OA 
HETATM   21  C   UNL     1      -8.450  16.666  67.063  1.00  0.00    -0.198 C  
HETATM   22  O   UNL     1      -7.896  15.671  67.944  1.00  0.00    -0.125 OA 
BRANCH  21  23
HETATM   23  C   UNL     1      -8.843  17.882  67.906  1.00  0.00    -0.260 A  
HETATM   24  C   UNL     1     -10.175  18.015  68.355  1.00  0.00    -0.399 A  
HETATM   25  C   UNL     1      -7.936  18.896  68.285  1.00  0.00    -0.310 A  
HETATM   26  C   UNL     1     -10.570  19.069  69.183  1.00  0.00     0.497 A  
HETATM   27  C   UNL     1      -8.328  19.942  69.132  1.00  0.00     0.093 A  
HETATM   28 CL   UNL     1      -6.304  18.967  67.716  1.00  0.00    -0.214 Cl 
HETATM   29 CL   UNL     1     -10.112  21.287  70.643  1.00  0.00     2.329 Cl 
HETATM   30  C   UNL     1      -9.639  20.016  69.586  1.00  0.00     0.334 A  
ENDBRANCH  21  23
BRANCH  21  31
HETATM   31  C   UNL     1      -9.620  16.015  66.289  1.00  0.00    -0.307 C  
BRANCH  31  32
HETATM   32  N   UNL     1      -9.504  14.590  66.078  1.00  0.00    -0.270 NA 
HETATM   33  C   UNL     1      -9.134  13.641  66.982  1.00  0.00    -0.248 A  
HETATM   34  C   UNL     1      -9.878  12.721  65.255  1.00  0.00    -0.101 A  
HETATM   35  N   UNL     1      -9.347  12.447  66.482  1.00  0.00    -0.233 NA 
HETATM   36  N   UNL     1      -9.993  14.018  64.963  1.00  0.00    -0.271 NA 
ENDBRANCH  31  32
ENDBRANCH  21  31
ENDBRANCH  17  18
ENDBRANCH  16  17
ENDBRANCH  13  16
ENDBRANCH   7  10
ENDBRANCH   2   4
TORSDOF 8
ENDMDL
MODEL      224
REMARK 921   NORMALIZED FREE ENERGY PREDICTED BY IDOCK:    3.14 KCAL/MOL
REMARK 922        TOTAL FREE ENERGY PREDICTED BY IDOCK:    3.44 KCAL/MOL
REMARK 923 INTER-LIGAND FREE ENERGY PREDICTED BY IDOCK:    3.51 KCAL/MOL
REMARK 924 INTRA-LIGAND FREE ENERGY PREDICTED BY IDOCK:   -0.08 KCAL/MOL
REMARK 927      BINDING AFFINITY PREDICTED BY RF-SCORE:    0.00 PKD
ROOT
HETATM    1  C   UNL     1     -10.273  18.008  71.256  1.00  0.00     3.694 C  
HETATM    2  C   UNL     1     -11.126  16.963  72.003  1.00  0.00     1.220 C  
HETATM    3  C   UNL     1     -11.645  17.649  73.278  1.00  0.00     1.235 C  
ENDROOT
BRANCH   2   4
HETATM    4  N   UNL     1     -12.205  16.453  71.124  1.00  0.00     0.068 NA 
HETATM    5  C   UNL     1     -11.942  16.727  69.686  1.00  0.00     1.226 C  
HETATM    6  C   UNL     1     -10.834  15.859  69.051  1.00  0.00    -0.266 C  
HETATM    7  N   UNL     1     -11.163  14.435  69.223  1.00  0.00    -0.265 NA 
HETATM    8  C   UNL     1     -12.480  14.993  71.239  1.00  0.00    -0.334 C  
HETATM    9  C   UNL     1     -11.420  14.041  70.616  1.00  0.00     0.062 C  
BRANCH   7  10
HETATM   10  C   UNL     1     -10.693  13.516  68.298  1.00  0.00    -0.258 A  
HETATM   11  C   UNL     1      -9.465  12.874  68.469  1.00  0.00    -0.098 A  
HETATM   12  C   UNL     1      -8.886  12.113  67.454  1.00  0.00    -0.181 A  
HETATM   13  C   UNL     1      -9.515  11.966  66.218  1.00  0.00    -0.227 A  
HETATM   14  C   UNL     1     -11.363  13.287  67.087  1.00  0.00    -0.351 A  
HETATM   15  C   UNL     1     -10.781  12.529  66.054  1.00  0.00    -0.292 A  
BRANCH  13  16
HETATM   16  O   UNL     1      -8.964  11.319  65.133  1.00  0.00    -0.152 OA 
BRANCH  16  17
HETATM   17  C   UNL     1      -9.535  10.032  64.872  1.00  0.00    -0.293 C  
BRANCH  17  18
HETATM   18  C   UNL     1      -8.509   8.955  64.536  1.00  0.00    -0.161 C  
HETATM   19  C   UNL     1      -7.147   9.213  65.124  1.00  0.00    -0.088 C  
HETATM   20  O   UNL     1      -6.633   7.908  65.394  1.00  0.00    -0.044 OA 
HETATM   21  C   UNL     1      -7.777   7.057  65.654  1.00  0.00    -0.102 C  
HETATM   22  O   UNL     1      -8.942   7.731  65.141  1.00  0.00     0.080 OA 
BRANCH  21  23
HETATM   23  C   UNL     1      -7.633   5.725  64.915  1.00  0.00    -0.088 A  
HETATM   24  C   UNL     1      -8.696   5.259  64.110  1.00  0.00    -0.017 A  
HETATM   25  C   UNL     1      -6.474   4.921  64.973  1.00  0.00    -0.036 A  
HETATM   26  C   UNL     1      -8.590   4.085  63.360  1.00  0.00    -0.100 A  
HETATM   27  C   UNL     1      -6.362   3.753  64.205  1.00  0.00    -0.026 A  
HETATM   28 CL   UNL     1      -5.134   5.266  66.011  1.00  0.00    -0.005 Cl 
HETATM   29 CL   UNL     1      -7.264   1.928  62.437  1.00  0.00    -0.033 Cl 
HETATM   30  C   UNL     1      -7.414   3.348  63.395  1.00  0.00    -0.058 A  
ENDBRANCH  21  23
BRANCH  21  31
HETATM   31  C   UNL     1      -7.941   6.929  67.186  1.00  0.00    -0.113 C  
BRANCH  31  32
HETATM   32  N   UNL     1      -9.303   6.822  67.657  1.00  0.00    -0.120 NA 
HETATM   33  C   UNL     1      -9.803   5.941  68.568  1.00  0.00    -0.135 A  
HETATM   34  C   UNL     1     -11.230   7.415  68.152  1.00  0.00     0.338 A  
HETATM   35  N   UNL     1     -11.026   6.284  68.890  1.00  0.00    -0.340 NA 
HETATM   36  N   UNL     1     -10.203   7.782  67.382  1.00  0.00    -0.225 NA 
ENDBRANCH  31  32
ENDBRANCH  21  31
ENDBRANCH  17  18
ENDBRANCH  16  17
ENDBRANCH  13  16
ENDBRANCH   7  10
ENDBRANCH   2   4
TORSDOF 8
ENDMDL
MODEL      225
REMARK 921   NORMALIZED FREE ENERGY PREDICTED BY IDOCK:    3.55 KCAL/MOL
REMARK 922        TOTAL FREE ENERGY PREDICTED BY IDOCK:    4.03 KCAL/MOL
REMARK 923 INTER-LIGAND FREE ENERGY PREDICTED BY IDOCK:    2.54 KCAL/MOL
REMARK 924 INTRA-LIGAND FREE ENERGY PREDICTED BY IDOCK:    1.49 KCAL/MOL
REMARK 927      BINDING AFFINITY PREDICTED BY RF-SCORE:    0.00 PKD
ROOT
HETATM    1  C   UNL     1     -12.598  13.003  72.077  1.00  0.00    -0.020 C  
HETATM    2  C   UNL     1     -13.463  13.327  70.843  1.00  0.00     0.356 C  
HETATM    3  C   UNL     1     -13.384  14.848  70.638  1.00  0.00    -0.253 C  
ENDROOT
BRANCH   2   4
HETATM    4  N   UNL     1     -13.003  12.547  69.670  1.00  0.00     0.918 NA 
HETATM    5  C   UNL     1     -11.519  12.502  69.566  1.00  0.00    -0.230 C  
HETATM    6  C   UNL     1     -10.821  11.600  70.606  1.00  0.00     1.923 C  
HETATM    7  N   UNL     1     -11.357  10.232  70.512  1.00  0.00    -0.323 NA 
HETATM    8  C   UNL     1     -13.479  11.135  69.620  1.00  0.00     2.071 C  
HETATM    9  C   UNL     1     -12.821  10.150  70.628  1.00  0.00    -0.240 C  
BRANCH   7  10
HETATM   10  C   UNL     1     -10.553   9.164  70.878  1.00  0.00    -0.273 A  
HETATM   11  C   UNL     1     -10.936   8.275  71.884  1.00  0.00    -0.354 A  
HETATM   12  C   UNL     1     -10.053   7.330  72.405  1.00  0.00    -0.218 A  
HETATM   13  C   UNL     1      -8.742   7.237  71.938  1.00  0.00    -0.115 A  
HETATM   14  C   UNL     1      -9.264   9.003  70.349  1.00  0.00    -0.243 A  
HETATM   15  C   UNL     1      -8.363   8.058  70.876  1.00  0.00    -0.119 A  
BRANCH  13  16
HETATM   16  O   UNL     1      -7.781   6.403  72.468  1.00  0.00    -0.099 OA 
BRANCH  16  17
HETATM   17  C   UNL     1      -6.501   6.517  71.838  1.00  0.00    -0.050 C  
BRANCH  17  18
HETATM   18  C   UNL     1      -6.250   5.480  70.749  1.00  0.00    -0.030 C  
HETATM   19  C   UNL     1      -5.262   4.415  71.145  1.00  0.00     0.000 C  
HETATM   20  O   UNL     1      -5.718   3.247  70.462  1.00  0.00    -0.015 OA 
HETATM   21  C   UNL     1      -7.153   3.387  70.313  1.00  0.00    -0.037 C  
HETATM   22  O   UNL     1      -7.476   4.775  70.522  1.00  0.00    -0.055 OA 
BRANCH  21  23
HETATM   23  C   UNL     1      -7.585   3.005  68.896  1.00  0.00    -0.048 A  
HETATM   24  C   UNL     1      -6.602   2.670  67.937  1.00  0.00    -0.036 A  
HETATM   25  C   UNL     1      -8.932   2.949  68.477  1.00  0.00    -0.141 A  
HETATM   26  C   UNL     1      -6.945   2.248  66.650  1.00  0.00    -0.044 A  
HETATM   27  C   UNL     1      -9.275   2.507  67.192  1.00  0.00    -0.141 A  
HETATM   28 CL   UNL     1     -10.254   3.454  69.472  1.00  0.00     0.734 Cl 
HETATM   29 CL   UNL     1      -8.707   1.584  64.722  1.00  0.00    -0.096 Cl 
HETATM   30  C   UNL     1      -8.282   2.148  66.290  1.00  0.00    -0.089 A  
ENDBRANCH  21  23
BRANCH  21  31
HETATM   31  C   UNL     1      -7.832   2.569  71.436  1.00  0.00    -0.044 C  
BRANCH  31  32
HETATM   32  N   UNL     1      -7.219   2.678  72.740  1.00  0.00    -0.038 NA 
HETATM   33  C   UNL     1      -6.176   1.955  73.233  1.00  0.00    -0.008 A  
HETATM   34  C   UNL     1      -6.598   3.553  74.518  1.00  0.00    -0.039 A  
HETATM   35  N   UNL     1      -5.770   2.478  74.365  1.00  0.00     0.000 NA 
HETATM   36  N   UNL     1      -7.501   3.715  73.548  1.00  0.00    -0.060 NA 
ENDBRANCH  31  32
ENDBRANCH  21  31
ENDBRANCH  17  18
ENDBRANCH  16  17
ENDBRANCH  13  16
ENDBRANCH   7  10
ENDBRANCH   2   4
TORSDOF 8
ENDMDL
MODEL      226
REMARK 921   NORMALIZED FREE ENERGY PREDICTED BY IDOCK:    4.85 KCAL/MOL
REMARK 922        TOTAL FREE ENERGY PREDICTED BY IDOCK:    5.95 KCAL/MOL
REMARK 923 INTER-LIGAND FREE ENERGY PREDICTED BY IDOCK:    2.82 KCAL/MOL
REMARK 924 INTRA-LIGAND FREE ENERGY PREDICTED BY IDOCK:    3.12 KCAL/MOL
REMARK 927      BINDING AFFINITY PREDICTED BY RF-SCORE:    0.00 PKD
ROOT
HETATM    1  C   UNL     1      -6.342  15.275  73.155  1.00  0.00     2.256 C  
HETATM    2  C   UNL     1      -6.583  14.124  72.159  1.00  0.00     1.838 C  
HETATM    3  C   UNL     1      -7.692  14.595  71.204  1.00  0.00     2.548 C  
ENDROOT
BRANCH   2   4
HETATM    4  N   UNL     1      -5.322  13.764  71.469  1.00  0.00    -0.189 NA 
HETATM    5  C   UNL     1      -5.128  12.292  71.373  1.00  0.00    -0.105 C  
HETATM    6  C   UNL     1      -6.043  11.582  70.352  1.00  0.00    -0.091 C  
HETATM    7  N   UNL     1      -5.860  12.185  69.022  1.00  0.00    -0.061 NA 
HETATM    8  C   UNL     1      -5.176  14.308  70.089  1.00  0.00    -0.092 C  
HETATM    9  C   UNL     1      -6.054  13.643  68.991  1.00  0.00    -0.088 C  
BRANCH   7  10
HETATM   10  C   UNL     1      -6.084  11.413  67.893  1.00  0.00    -0.050 A  
HETATM   11  C   UNL     1      -6.702  10.164  67.975  1.00  0.00    -0.063 A  
HETATM   12  C   UNL     1      -6.744   9.291  66.889  1.00  0.00    -0.076 A  
HETATM   13  C   UNL     1      -6.163   9.634  65.668  1.00  0.00    -0.068 A  
HETATM   14  C   UNL     1      -5.584  11.789  66.637  1.00  0.00    -0.059 A  
HETATM   15  C   UNL     1      -5.614  10.910  65.538  1.00  0.00    -0.097 A  
BRANCH  13  16
HETATM   16  O   UNL     1      -6.071   8.791  64.582  1.00  0.00    -0.064 OA 
BRANCH  16  17
HETATM   17  C   UNL     1      -6.950   9.134  63.504  1.00  0.00    -0.089 C  
BRANCH  17  18
HETATM   18  C   UNL     1      -8.087  10.068  63.903  1.00  0.00    -0.152 C  
HETATM   19  C   UNL     1      -9.370   9.812  63.156  1.00  0.00    -0.082 C  
HETATM   20  O   UNL     1     -10.391  10.136  64.099  1.00  0.00    -0.002 OA 
HETATM   21  C   UNL     1      -9.838   9.879  65.414  1.00  0.00    -0.313 C  
HETATM   22  O   UNL     1      -8.407   9.811  65.276  1.00  0.00    -0.130 OA 
BRANCH  21  23
HETATM   23  C   UNL     1     -10.171  11.029  66.368  1.00  0.00    -0.284 A  
HETATM   24  C   UNL     1     -10.385  10.755  67.738  1.00  0.00    -0.226 A  
HETATM   25  C   UNL     1     -10.264  12.378  65.964  1.00  0.00    -0.245 A  
HETATM   26  C   UNL     1     -10.622  11.774  68.663  1.00  0.00    -0.250 A  
HETATM   27  C   UNL     1     -10.483  13.402  66.896  1.00  0.00    -0.273 A  
HETATM   28 CL   UNL     1     -10.166  12.880  64.311  1.00  0.00    -0.379 Cl 
HETATM   29 CL   UNL     1     -10.896  14.356  69.385  1.00  0.00    -0.252 Cl 
HETATM   30  C   UNL     1     -10.650  13.096  68.241  1.00  0.00    -0.248 A  
ENDBRANCH  21  23
BRANCH  21  31
HETATM   31  C   UNL     1     -10.336   8.491  65.880  1.00  0.00     0.887 C  
BRANCH  31  32
HETATM   32  N   UNL     1      -9.325   7.631  66.452  1.00  0.00    -0.185 NA 
HETATM   33  C   UNL     1      -9.086   7.389  67.771  1.00  0.00    -0.129 A  
HETATM   34  C   UNL     1      -7.986   6.051  66.595  1.00  0.00    -0.102 A  
HETATM   35  N   UNL     1      -8.232   6.402  67.891  1.00  0.00    -0.115 NA 
HETATM   36  N   UNL     1      -8.633   6.776  65.680  1.00  0.00    -0.144 NA 
ENDBRANCH  31  32
ENDBRANCH  21  31
ENDBRANCH  17  18
ENDBRANCH  16  17
ENDBRANCH  13  16
ENDBRANCH   7  10
ENDBRANCH   2   4
TORSDOF 8
ENDMDL
MODEL      227
REMARK 921   NORMALIZED FREE ENERGY PREDICTED BY IDOCK:    4.87 KCAL/MOL
REMARK 922        TOTAL FREE ENERGY PREDICTED BY IDOCK:    5.97 KCAL/MOL
REMARK 923 INTER-LIGAND FREE ENERGY PREDICTED BY IDOCK:   -2.41 KCAL/MOL
REMARK 924 INTRA-LIGAND FREE ENERGY PREDICTED BY IDOCK:    8.39 KCAL/MOL
REMARK 927      BINDING AFFINITY PREDICTED BY RF-SCORE:    0.00 PKD
ROOT
HETATM    1  C   UNL     1      -8.180  11.159  69.732  1.00  0.00     0.735 C  
HETATM    2  C   UNL     1      -9.398  11.403  68.818  1.00  0.00    -0.106 C  
HETATM    3  C   UNL     1      -9.037  10.822  67.441  1.00  0.00    -0.148 C  
ENDROOT
BRANCH   2   4
HETATM    4  N   UNL     1     -10.617  10.806  69.412  1.00  0.00    -0.227 NA 
HETATM    5  C   UNL     1     -10.985   9.514  68.771  1.00  0.00    -0.080 C  
HETATM    6  C   UNL     1     -10.067   8.325  69.131  1.00  0.00    -0.202 C  
HETATM    7  N   UNL     1     -10.034   8.152  70.592  1.00  0.00    -0.188 NA 
HETATM    8  C   UNL     1     -10.550  10.553  70.879  1.00  0.00     0.817 C  
HETATM    9  C   UNL     1      -9.654   9.364  71.333  1.00  0.00    -0.006 C  
BRANCH   7  10
HETATM   10  C   UNL     1      -9.795   6.892  71.118  1.00  0.00    -0.177 A  
HETATM   11  C   UNL     1      -8.563   6.255  70.953  1.00  0.00    -0.135 A  
HETATM   12  C   UNL     1      -8.378   4.915  71.290  1.00  0.00    -0.115 A  
HETATM   13  C   UNL     1      -9.424   4.152  71.807  1.00  0.00    -0.147 A  
HETATM   14  C   UNL     1     -10.816   6.146  71.725  1.00  0.00    -0.303 A  
HETATM   15  C   UNL     1     -10.640   4.789  72.059  1.00  0.00    -0.176 A  
BRANCH  13  16
HETATM   16  O   UNL     1      -9.352   2.801  72.067  1.00  0.00    -0.092 OA 
BRANCH  16  17
HETATM   17  C   UNL     1      -9.337   1.983  70.892  1.00  0.00    -0.128 C  
BRANCH  17  18
HETATM   18  C   UNL     1      -9.720   2.723  69.615  1.00  0.00     0.141 C  
HETATM   19  C   UNL     1      -9.376   4.189  69.640  1.00  0.00    -0.171 C  
HETATM   20  O   UNL     1      -9.062   4.494  68.282  1.00  0.00    -0.111 OA 
HETATM   21  C   UNL     1      -8.548   3.275  67.690  1.00  0.00    -0.103 C  
HETATM   22  O   UNL     1      -8.940   2.183  68.542  1.00  0.00    -0.093 OA 
BRANCH  21  23
HETATM   23  C   UNL     1      -9.168   3.047  66.309  1.00  0.00    -0.126 A  
HETATM   24  C   UNL     1      -9.015   1.793  65.677  1.00  0.00    -0.109 A  
HETATM   25  C   UNL     1      -9.913   4.026  65.616  1.00  0.00    -0.156 A  
HETATM   26  C   UNL     1      -9.618   1.510  64.450  1.00  0.00    -0.102 A  
HETATM   27  C   UNL     1     -10.534   3.735  64.393  1.00  0.00    -0.227 A  
HETATM   28 CL   UNL     1     -10.087   5.654  66.174  1.00  0.00    -0.139 Cl 
HETATM   29 CL   UNL     1     -11.174   2.115  62.334  1.00  0.00    -0.195 Cl 
HETATM   30  C   UNL     1     -10.393   2.476  63.823  1.00  0.00    -0.126 A  
ENDBRANCH  21  23
BRANCH  21  31
HETATM   31  C   UNL     1      -7.004   3.352  67.698  1.00  0.00    -0.050 C  
BRANCH  31  32
HETATM   32  N   UNL     1      -6.441   4.557  67.133  1.00  0.00    -0.041 NA 
HETATM   33  C   UNL     1      -5.934   4.733  65.881  1.00  0.00    -0.023 A  
HETATM   34  C   UNL     1      -6.123   6.587  66.834  1.00  0.00    -0.029 A  
HETATM   35  N   UNL     1      -5.711   6.007  65.669  1.00  0.00    -0.023 NA 
HETATM   36  N   UNL     1      -6.578   5.739  67.759  1.00  0.00    -0.051 NA 
ENDBRANCH  31  32
ENDBRANCH  21  31
ENDBRANCH  17  18
ENDBRANCH  16  17
ENDBRANCH  13  16
ENDBRANCH   7  10
ENDBRANCH   2   4
TORSDOF 8
ENDMDL
MODEL      228
REMARK 921   NORMALIZED FREE ENERGY PREDICTED BY IDOCK:    4.95 KCAL/MOL
REMARK 922        TOTAL FREE ENERGY PREDICTED BY IDOCK:    6.09 KCAL/MOL
REMARK 923 INTER-LIGAND FREE ENERGY PREDICTED BY IDOCK:   -2.61 KCAL/MOL
REMARK 924 INTRA-LIGAND FREE ENERGY PREDICTED BY IDOCK:    8.70 KCAL/MOL
REMARK 927      BINDING AFFINITY PREDICTED BY RF-SCORE:    0.00 PKD
ROOT
HETATM    1  C   UNL     1      -8.573  16.187  66.123  1.00  0.00    -0.331 C  
HETATM    2  C   UNL     1      -7.647  16.577  67.293  1.00  0.00    -0.161 C  
HETATM    3  C   UNL     1      -8.061  17.992  67.728  1.00  0.00    -0.237 C  
ENDROOT
BRANCH   2   4
HETATM    4  N   UNL     1      -7.737  15.574  68.380  1.00  0.00    -0.121 NA 
HETATM    5  C   UNL     1      -9.144  15.201  68.692  1.00  0.00    -0.195 C  
HETATM    6  C   UNL     1      -9.829  14.310  67.634  1.00  0.00    -0.224 C  
HETATM    7  N   UNL     1      -9.036  13.088  67.428  1.00  0.00    -0.194 NA 
HETATM    8  C   UNL     1      -7.001  14.302  68.133  1.00  0.00    -0.129 C  
HETATM    9  C   UNL     1      -7.627  13.336  67.087  1.00  0.00     0.030 C  
BRANCH   7  10
HETATM   10  C   UNL     1      -9.674  11.928  67.017  1.00  0.00    -0.194 A  
HETATM   11  C   UNL     1     -10.918  11.559  67.533  1.00  0.00    -0.308 A  
HETATM   12  C   UNL     1     -11.471  10.303  67.290  1.00  0.00     0.389 A  
HETATM   13  C   UNL     1     -10.797   9.358  66.516  1.00  0.00     0.202 A  
HETATM   14  C   UNL     1      -9.046  11.009  66.164  1.00  0.00    -0.208 A  
HETATM   15  C   UNL     1      -9.593   9.734  65.922  1.00  0.00    -0.313 A  
BRANCH  13  16
HETATM   16  O   UNL     1     -11.226   8.064  66.315  1.00  0.00     1.425 OA 
BRANCH  16  17
HETATM   17  C   UNL     1     -10.858   7.160  67.363  1.00  0.00    -0.276 C  
BRANCH  17  18
HETATM   18  C   UNL     1      -9.681   7.635  68.208  1.00  0.00    -0.157 C  
HETATM   19  C   UNL     1      -9.466   9.126  68.161  1.00  0.00    -0.142 C  
HETATM   20  O   UNL     1      -8.962   9.444  69.458  1.00  0.00    -0.143 OA 
HETATM   21  C   UNL     1      -9.512   8.461  70.370  1.00  0.00    -0.168 C  
HETATM   22  O   UNL     1      -9.982   7.353  69.580  1.00  0.00    -0.173 OA 
BRANCH  21  23
HETATM   23  C   UNL     1      -8.427   7.944  71.318  1.00  0.00    -0.127 A  
HETATM   24  C   UNL     1      -8.677   6.793  72.098  1.00  0.00    -0.132 A  
HETATM   25  C   UNL     1      -7.158   8.547  71.457  1.00  0.00    -0.092 A  
HETATM   26  C   UNL     1      -7.698   6.239  72.926  1.00  0.00    -0.104 A  
HETATM   27  C   UNL     1      -6.170   7.980  72.274  1.00  0.00    -0.051 A  
HETATM   28 CL   UNL     1      -6.728  10.035  70.686  1.00  0.00    -0.108 Cl 
HETATM   29 CL   UNL     1      -5.220   6.118  73.978  1.00  0.00    -0.038 Cl 
HETATM   30  C   UNL     1      -6.441   6.824  72.994  1.00  0.00    -0.063 A  
ENDBRANCH  21  23
BRANCH  21  31
HETATM   31  C   UNL     1     -10.735   9.092  71.074  1.00  0.00    -0.293 C  
BRANCH  31  32
HETATM   32  N   UNL     1     -11.821   8.183  71.363  1.00  0.00    -0.289 NA 
HETATM   33  C   UNL     1     -12.879   7.869  70.566  1.00  0.00     0.594 A  
HETATM   34  C   UNL     1     -12.819   6.570  72.205  1.00  0.00     0.098 A  
HETATM   35  N   UNL     1     -13.537   6.859  71.081  1.00  0.00    -0.094 NA 
HETATM   36  N   UNL     1     -11.760   7.353  72.419  1.00  0.00    -0.284 NA 
ENDBRANCH  31  32
ENDBRANCH  21  31
ENDBRANCH  17  18
ENDBRANCH  16  17
ENDBRANCH  13  16
ENDBRANCH   7  10
ENDBRANCH   2   4
TORSDOF 8
ENDMDL
MODEL      229
REMARK 921   NORMALIZED FREE ENERGY PREDICTED BY IDOCK:    5.46 KCAL/MOL
REMARK 922        TOTAL FREE ENERGY PREDICTED BY IDOCK:    6.84 KCAL/MOL
REMARK 923 INTER-LIGAND FREE ENERGY PREDICTED BY IDOCK:   -2.68 KCAL/MOL
REMARK 924 INTRA-LIGAND FREE ENERGY PREDICTED BY IDOCK:    9.52 KCAL/MOL
REMARK 927      BINDING AFFINITY PREDICTED BY RF-SCORE:    0.00 PKD
ROOT
HETATM    1  C   UNL     1      -9.137  10.693  70.285  1.00  0.00     1.137 C  
HETATM    2  C   UNL     1     -10.195  10.776  69.166  1.00  0.00    -0.211 C  
HETATM    3  C   UNL     1      -9.505  10.310  67.874  1.00  0.00    -0.154 C  
ENDROOT
BRANCH   2   4
HETATM    4  N   UNL     1     -11.388   9.973  69.523  1.00  0.00    -0.206 NA 
HETATM    5  C   UNL     1     -11.297   8.572  69.029  1.00  0.00     0.575 C  
HETATM    6  C   UNL     1     -10.301   7.676  69.796  1.00  0.00    -0.223 C  
HETATM    7  N   UNL     1     -10.646   7.666  71.227  1.00  0.00    -0.218 NA 
HETATM    8  C   UNL     1     -11.687   9.895  70.981  1.00  0.00    -0.382 C  
HETATM    9  C   UNL     1     -10.739   9.003  71.832  1.00  0.00    -0.331 C  
BRANCH   7  10
HETATM   10  C   UNL     1     -10.319   6.558  71.993  1.00  0.00    -0.199 A  
HETATM   11  C   UNL     1      -8.991   6.235  72.277  1.00  0.00    -0.136 A  
HETATM   12  C   UNL     1      -8.640   5.019  72.863  1.00  0.00    -0.118 A  
HETATM   13  C   UNL     1      -9.609   4.071  73.187  1.00  0.00    -0.117 A  
HETATM   14  C   UNL     1     -11.296   5.640  72.407  1.00  0.00    -0.327 A  
HETATM   15  C   UNL     1     -10.949   4.406  72.990  1.00  0.00    -0.289 A  
BRANCH  13  16
HETATM   16  O   UNL     1      -9.337   2.809  73.671  1.00  0.00    -0.083 OA 
BRANCH  16  17
HETATM   17  C   UNL     1      -9.133   1.827  72.649  1.00  0.00    -0.069 C  
BRANCH  17  18
HETATM   18  C   UNL     1      -9.415   2.331  71.238  1.00  0.00    -0.143 C  
HETATM   19  C   UNL     1      -9.728   3.802  71.173  1.00  0.00    -0.175 C  
HETATM   20  O   UNL     1      -9.203   4.213  69.910  1.00  0.00    -0.110 OA 
HETATM   21  C   UNL     1      -8.090   3.332  69.617  1.00  0.00    -0.048 C  
HETATM   22  O   UNL     1      -8.216   2.178  70.469  1.00  0.00    -0.041 OA 
BRANCH  21  23
HETATM   23  C   UNL     1      -8.149   2.861  68.163  1.00  0.00    -0.070 A  
HETATM   24  C   UNL     1      -9.275   3.184  67.373  1.00  0.00    -0.224 A  
HETATM   25  C   UNL     1      -7.122   2.120  67.539  1.00  0.00    -0.047 A  
HETATM   26  C   UNL     1      -9.348   2.838  66.021  1.00  0.00    -0.026 A  
HETATM   27  C   UNL     1      -7.188   1.790  66.178  1.00  0.00    -0.052 A  
HETATM   28 CL   UNL     1      -5.738   1.521  68.388  1.00  0.00    -0.018 Cl 
HETATM   29 CL   UNL     1      -8.362   1.774  63.750  1.00  0.00    -0.076 Cl 
HETATM   30  C   UNL     1      -8.294   2.161  65.425  1.00  0.00    -0.091 A  
ENDBRANCH  21  23
BRANCH  21  31
HETATM   31  C   UNL     1      -6.785   4.066  70.004  1.00  0.00    -0.034 C  
BRANCH  31  32
HETATM   32  N   UNL     1      -6.436   5.192  69.168  1.00  0.00    -0.037 NA 
HETATM   33  C   UNL     1      -7.253   6.192  68.734  1.00  0.00    -0.084 A  
HETATM   34  C   UNL     1      -5.260   6.671  68.308  1.00  0.00    -0.011 A  
HETATM   35  N   UNL     1      -6.536   7.136  68.174  1.00  0.00    -0.047 NA 
HETATM   36  N   UNL     1      -5.149   5.485  68.910  1.00  0.00     0.000 NA 
ENDBRANCH  31  32
ENDBRANCH  21  31
ENDBRANCH  17  18
ENDBRANCH  16  17
ENDBRANCH  13  16
ENDBRANCH   7  10
ENDBRANCH   2   4
TORSDOF 8
ENDMDL
MODEL      230
REMARK 921   NORMALIZED FREE ENERGY PREDICTED BY IDOCK:    5.77 KCAL/MOL
REMARK 922        TOTAL FREE ENERGY PREDICTED BY IDOCK:    7.29 KCAL/MOL
REMARK 923 INTER-LIGAND FREE ENERGY PREDICTED BY IDOCK:    3.09 KCAL/MOL
REMARK 924 INTRA-LIGAND FREE ENERGY PREDICTED BY IDOCK:    4.20 KCAL/MOL
REMARK 927      BINDING AFFINITY PREDICTED BY RF-SCORE:    0.00 PKD
ROOT
HETATM    1  C   UNL     1      -6.595   6.624  71.359  1.00  0.00    -0.053 C  
HETATM    2  C   UNL     1      -5.679   7.649  70.661  1.00  0.00    -0.030 C  
HETATM    3  C   UNL     1      -6.112   7.691  69.186  1.00  0.00    -0.034 C  
ENDROOT
BRANCH   2   4
HETATM    4  N   UNL     1      -5.761   8.963  71.340  1.00  0.00    -0.044 NA 
HETATM    5  C   UNL     1      -5.324  10.083  70.463  1.00  0.00    -0.051 C  
HETATM    6  C   UNL     1      -6.316  10.453  69.339  1.00  0.00    -0.053 C  
HETATM    7  N   UNL     1      -7.627  10.777  69.925  1.00  0.00     0.012 NA 
HETATM    8  C   UNL     1      -7.109   9.326  71.859  1.00  0.00     0.350 C  
HETATM    9  C   UNL     1      -8.173   9.724  70.796  1.00  0.00     0.298 C  
BRANCH   7  10
HETATM   10  C   UNL     1      -8.466  11.657  69.260  1.00  0.00     0.460 A  
HETATM   11  C   UNL     1      -9.244  12.586  69.952  1.00  0.00     2.929 A  
HETATM   12  C   UNL     1     -10.241  13.328  69.319  1.00  0.00     0.330 A  
HETATM   13  C   UNL     1     -10.501  13.167  67.958  1.00  0.00    -0.239 A  
HETATM   14  C   UNL     1      -8.670  11.568  67.875  1.00  0.00    -0.144 A  
HETATM   15  C   UNL     1      -9.681  12.306  67.229  1.00  0.00    -0.195 A  
BRANCH  13  16
HETATM   16  O   UNL     1     -11.532  13.784  67.282  1.00  0.00    -0.309 OA 
BRANCH  16  17
HETATM   17  C   UNL     1     -12.533  12.880  66.800  1.00  0.00     0.309 C  
BRANCH  17  18
HETATM   18  C   UNL     1     -12.030  11.901  65.745  1.00  0.00     0.102 C  
HETATM   19  C   UNL     1     -12.781  11.978  64.442  1.00  0.00    -0.115 C  
HETATM   20  O   UNL     1     -11.797  11.666  63.456  1.00  0.00    -0.431 OA 
HETATM   21  C   UNL     1     -10.521  12.094  63.993  1.00  0.00    -0.386 C  
HETATM   22  O   UNL     1     -10.685  12.264  65.413  1.00  0.00    -0.268 OA 
BRANCH  21  23
HETATM   23  C   UNL     1      -9.455  11.020  63.762  1.00  0.00    -0.286 A  
HETATM   24  C   UNL     1      -8.540  11.168  62.696  1.00  0.00    -0.225 A  
HETATM   25  C   UNL     1      -9.314   9.872  64.572  1.00  0.00    -0.275 A  
HETATM   26  C   UNL     1      -7.505  10.254  62.483  1.00  0.00    -0.151 A  
HETATM   27  C   UNL     1      -8.264   8.965  64.369  1.00  0.00    -0.164 A  
HETATM   28 CL   UNL     1     -10.424   9.460  65.832  1.00  0.00     0.007 Cl 
HETATM   29 CL   UNL     1      -6.059   8.066  63.102  1.00  0.00    -0.071 Cl 
HETATM   30  C   UNL     1      -7.359   9.167  63.334  1.00  0.00    -0.096 A  
ENDBRANCH  21  23
BRANCH  21  31
HETATM   31  C   UNL     1     -10.185  13.476  63.386  1.00  0.00     2.445 C  
BRANCH  31  32
HETATM   32  N   UNL     1     -10.481  14.611  64.230  1.00  0.00     0.188 NA 
HETATM   33  C   UNL     1      -9.720  15.120  65.239  1.00  0.00    -0.112 A  
HETATM   34  C   UNL     1     -11.291  16.434  64.804  1.00  0.00    -0.150 A  
HETATM   35  N   UNL     1     -10.217  16.268  65.631  1.00  0.00    -0.469 NA 
HETATM   36  N   UNL     1     -11.492  15.445  63.931  1.00  0.00     0.017 NA 
ENDBRANCH  31  32
ENDBRANCH  21  31
ENDBRANCH  17  18
ENDBRANCH  16  17
ENDBRANCH  13  16
ENDBRANCH   7  10
ENDBRANCH   2   4
TORSDOF 8
ENDMDL
MODEL      231
REMARK 921   NORMALIZED FREE ENERGY PREDICTED BY IDOCK:    8.38 KCAL/MOL
REMARK 922        TOTAL FREE ENERGY PREDICTED BY IDOCK:   11.13 KCAL/MOL
REMARK 923 INTER-LIGAND FREE ENERGY PREDICTED BY IDOCK:    3.03 KCAL/MOL
REMARK 924 INTRA-LIGAND FREE ENERGY PREDICTED BY IDOCK:    8.11 KCAL/MOL
REMARK 927      BINDING AFFINITY PREDICTED BY RF-SCORE:    0.00 PKD
ROOT
HETATM    1  C   UNL     1     -12.781  14.102  70.347  1.00  0.00    -0.341 C  
HETATM    2  C   UNL     1     -13.069  12.611  70.075  1.00  0.00     1.035 C  
HETATM    3  C   UNL     1     -11.890  12.081  69.242  1.00  0.00    -0.377 C  
ENDROOT
BRANCH   2   4
HETATM    4  N   UNL     1     -13.268  11.882  71.350  1.00  0.00    -0.203 NA 
HETATM    5  C   UNL     1     -13.816  10.515  71.141  1.00  0.00     0.629 C  
HETATM    6  C   UNL     1     -12.813   9.494  70.561  1.00  0.00     0.195 C  
HETATM    7  N   UNL     1     -11.628   9.417  71.431  1.00  0.00    -0.352 NA 
HETATM    8  C   UNL     1     -12.048  11.732  72.191  1.00  0.00     1.952 C  
HETATM    9  C   UNL     1     -10.984  10.714  71.688  1.00  0.00     2.261 C  
BRANCH   7  10
HETATM   10  C   UNL     1     -10.900   8.238  71.478  1.00  0.00    -0.249 A  
HETATM   11  C   UNL     1     -10.233   7.839  72.637  1.00  0.00    -0.340 A  
HETATM   12  C   UNL     1      -9.333   6.775  72.638  1.00  0.00    -0.152 A  
HETATM   13  C   UNL     1      -9.060   6.063  71.470  1.00  0.00    -0.143 A  
HETATM   14  C   UNL     1     -10.692   7.460  70.329  1.00  0.00    -0.250 A  
HETATM   15  C   UNL     1      -9.777   6.390  70.319  1.00  0.00    -0.186 A  
BRANCH  13  16
HETATM   16  O   UNL     1      -8.110   5.070  71.364  1.00  0.00    -0.107 OA 
BRANCH  16  17
HETATM   17  C   UNL     1      -7.453   5.027  70.092  1.00  0.00    -0.059 C  
BRANCH  17  18
HETATM   18  C   UNL     1      -8.352   5.391  68.916  1.00  0.00    -0.100 C  
HETATM   19  C   UNL     1      -8.424   6.871  68.646  1.00  0.00    -0.121 C  
HETATM   20  O   UNL     1      -8.585   6.958  67.230  1.00  0.00    -0.120 OA 
HETATM   21  C   UNL     1      -7.940   5.788  66.667  1.00  0.00    -0.102 C  
HETATM   22  O   UNL     1      -7.775   4.832  67.731  1.00  0.00    -0.082 OA 
BRANCH  21  23
HETATM   23  C   UNL     1      -8.824   5.156  65.590  1.00  0.00    -0.146 A  
HETATM   24  C   UNL     1      -9.887   4.307  65.974  1.00  0.00    -0.232 A  
HETATM   25  C   UNL     1      -8.654   5.381  64.207  1.00  0.00    -0.044 A  
HETATM   26  C   UNL     1     -10.766   3.760  65.036  1.00  0.00     0.161 A  
HETATM   27  C   UNL     1      -9.548   4.847  63.269  1.00  0.00     0.325 A  
HETATM   28 CL   UNL     1      -7.328   6.279  63.551  1.00  0.00    -0.062 Cl 
HETATM   29 CL   UNL     1     -11.713   3.415  62.537  1.00  0.00     0.712 Cl 
HETATM   30  C   UNL     1     -10.605   4.050  63.689  1.00  0.00    -0.120 A  
ENDBRANCH  21  23
BRANCH  21  31
HETATM   31  C   UNL     1      -6.532   6.204  66.182  1.00  0.00    -0.046 C  
BRANCH  31  32
HETATM   32  N   UNL     1      -6.402   7.582  65.767  1.00  0.00    -0.041 NA 
HETATM   33  C   UNL     1      -5.334   8.173  65.162  1.00  0.00    -0.032 A  
HETATM   34  C   UNL     1      -6.978   9.469  65.119  1.00  0.00    -0.100 A  
HETATM   35  N   UNL     1      -5.666   9.374  64.753  1.00  0.00    -0.062 NA 
HETATM   36  N   UNL     1      -7.472   8.396  65.742  1.00  0.00    -0.076 NA 
ENDBRANCH  31  32
ENDBRANCH  21  31
ENDBRANCH  17  18
ENDBRANCH  16  17
ENDBRANCH  13  16
ENDBRANCH   7  10
ENDBRANCH   2   4
TORSDOF 8
ENDMDL
MODEL      232
REMARK 921   NORMALIZED FREE ENERGY PREDICTED BY IDOCK:    8.62 KCAL/MOL
REMARK 922        TOTAL FREE ENERGY PREDICTED BY IDOCK:   11.48 KCAL/MOL
REMARK 923 INTER-LIGAND FREE ENERGY PREDICTED BY IDOCK:   10.49 KCAL/MOL
REMARK 924 INTRA-LIGAND FREE ENERGY PREDICTED BY IDOCK:    0.99 KCAL/MOL
REMARK 927      BINDING AFFINITY PREDICTED BY RF-SCORE:    0.00 PKD
ROOT
HETATM    1  C   UNL     1     -11.419  18.684  67.331  1.00  0.00     0.826 C  
HETATM    2  C   UNL     1     -10.658  20.005  67.095  1.00  0.00    -0.314 C  
HETATM    3  C   UNL     1     -11.450  21.104  67.821  1.00  0.00     4.207 C  
ENDROOT
BRANCH   2   4
HETATM    4  N   UNL     1      -9.255  19.882  67.558  1.00  0.00    -0.333 NA 
HETATM    5  C   UNL     1      -9.162  19.596  69.015  1.00  0.00    -0.189 C  
HETATM    6  C   UNL     1      -9.561  18.161  69.422  1.00  0.00     0.215 C  
HETATM    7  N   UNL     1      -8.737  17.191  68.682  1.00  0.00    -0.271 NA 
HETATM    8  C   UNL     1      -8.447  18.841  66.863  1.00  0.00    -0.279 C  
HETATM    9  C   UNL     1      -8.773  17.363  67.221  1.00  0.00    -0.224 C  
BRANCH   7  10
HETATM   10  C   UNL     1      -8.480  15.952  69.247  1.00  0.00    -0.242 A  
HETATM   11  C   UNL     1      -7.193  15.414  69.268  1.00  0.00    -0.186 A  
HETATM   12  C   UNL     1      -6.955  14.091  69.640  1.00  0.00     0.036 A  
HETATM   13  C   UNL     1      -8.003  13.248  70.006  1.00  0.00     2.250 A  
HETATM   14  C   UNL     1      -9.518  15.128  69.706  1.00  0.00    -0.045 A  
HETATM   15  C   UNL     1      -9.288  13.788  70.074  1.00  0.00     2.242 A  
BRANCH  13  16
HETATM   16  O   UNL     1      -7.865  11.906  70.286  1.00  0.00     1.708 OA 
BRANCH  16  17
HETATM   17  C   UNL     1      -6.542  11.400  70.071  1.00  0.00    -0.031 C  
BRANCH  17  18
HETATM   18  C   UNL     1      -6.391   9.911  70.361  1.00  0.00    -0.106 C  
HETATM   19  C   UNL     1      -7.044   9.477  71.648  1.00  0.00     0.475 C  
HETATM   20  O   UNL     1      -7.482   8.145  71.382  1.00  0.00    -0.066 OA 
HETATM   21  C   UNL     1      -7.746   8.071  69.959  1.00  0.00    -0.088 C  
HETATM   22  O   UNL     1      -7.087   9.190  69.338  1.00  0.00    -0.051 OA 
BRANCH  21  23
HETATM   23  C   UNL     1      -7.159   6.786  69.371  1.00  0.00    -0.080 A  
HETATM   24  C   UNL     1      -6.738   6.767  68.022  1.00  0.00    -0.068 A  
HETATM   25  C   UNL     1      -6.992   5.594  70.109  1.00  0.00    -0.065 A  
HETATM   26  C   UNL     1      -6.132   5.643  67.457  1.00  0.00    -0.026 A  
HETATM   27  C   UNL     1      -6.366   4.473  69.546  1.00  0.00    -0.028 A  
HETATM   28 CL   UNL     1      -7.572   5.393  71.726  1.00  0.00    -0.095 Cl 
HETATM   29 CL   UNL     1      -5.143   3.138  67.547  1.00  0.00    -0.008 Cl 
HETATM   30  C   UNL     1      -5.930   4.507  68.228  1.00  0.00    -0.027 A  
ENDBRANCH  21  23
BRANCH  21  31
HETATM   31  C   UNL     1      -9.268   8.240  69.745  1.00  0.00    -0.154 C  
BRANCH  31  32
HETATM   32  N   UNL     1      -9.987   8.832  70.850  1.00  0.00    -0.205 NA 
HETATM   33  C   UNL     1     -10.406  10.121  70.976  1.00  0.00     0.526 A  
HETATM   34  C   UNL     1     -11.252   8.951  72.492  1.00  0.00     0.096 A  
HETATM   35  N   UNL     1     -11.199  10.229  72.015  1.00  0.00     1.307 NA 
HETATM   36  N   UNL     1     -10.526   8.062  71.811  1.00  0.00    -0.219 NA 
ENDBRANCH  31  32
ENDBRANCH  21  31
ENDBRANCH  17  18
ENDBRANCH  16  17
ENDBRANCH  13  16
ENDBRANCH   7  10
ENDBRANCH   2   4
TORSDOF 8
ENDMDL
MODEL      233
REMARK 921   NORMALIZED FREE ENERGY PREDICTED BY IDOCK:   12.85 KCAL/MOL
REMARK 922        TOTAL FREE ENERGY PREDICTED BY IDOCK:   17.69 KCAL/MOL
REMARK 923 INTER-LIGAND FREE ENERGY PREDICTED BY IDOCK:   15.04 KCAL/MOL
REMARK 924 INTRA-LIGAND FREE ENERGY PREDICTED BY IDOCK:    2.65 KCAL/MOL
REMARK 927      BINDING AFFINITY PREDICTED BY RF-SCORE:    0.00 PKD
ROOT
HETATM    1  C   UNL     1     -13.358  16.782  73.797  1.00  0.00     0.751 C  
HETATM    2  C   UNL     1     -12.919  16.046  72.516  1.00  0.00    -0.387 C  
HETATM    3  C   UNL     1     -12.793  17.114  71.417  1.00  0.00     5.962 C  
ENDROOT
BRANCH   2   4
HETATM    4  N   UNL     1     -11.665  15.294  72.756  1.00  0.00    -0.429 NA 
HETATM    5  C   UNL     1     -11.822  14.249  73.804  1.00  0.00     0.888 C  
HETATM    6  C   UNL     1     -12.637  13.012  73.371  1.00  0.00     3.544 C  
HETATM    7  N   UNL     1     -12.026  12.412  72.174  1.00  0.00     1.857 NA 
HETATM    8  C   UNL     1     -11.092  14.616  71.558  1.00  0.00     0.514 C  
HETATM    9  C   UNL     1     -11.844  13.350  71.057  1.00  0.00     0.278 C  
BRANCH   7  10
HETATM   10  C   UNL     1     -12.180  11.053  71.946  1.00  0.00     0.468 A  
HETATM   11  C   UNL     1     -13.416  10.423  72.104  1.00  0.00    -0.301 A  
HETATM   12  C   UNL     1     -13.541   9.035  72.083  1.00  0.00    -0.523 A  
HETATM   13  C   UNL     1     -12.427   8.215  71.903  1.00  0.00    -0.332 A  
HETATM   14  C   UNL     1     -11.080  10.227  71.672  1.00  0.00     0.874 A  
HETATM   15  C   UNL     1     -11.196   8.824  71.659  1.00  0.00    -0.394 A  
BRANCH  13  16
HETATM   16  O   UNL     1     -12.451   6.839  71.973  1.00  0.00    -0.316 OA 
BRANCH  16  17
HETATM   17  C   UNL     1     -12.405   6.192  70.696  1.00  0.00     0.725 C  
BRANCH  17  18
HETATM   18  C   UNL     1     -11.125   6.456  69.911  1.00  0.00    -0.381 C  
HETATM   19  C   UNL     1     -11.144   5.890  68.516  1.00  0.00    -0.087 C  
HETATM   20  O   UNL     1     -10.360   6.812  67.758  1.00  0.00    -0.164 OA 
HETATM   21  C   UNL     1     -10.500   8.103  68.401  1.00  0.00    -0.161 C  
HETATM   22  O   UNL     1     -11.003   7.871  69.730  1.00  0.00    -0.233 OA 
BRANCH  21  23
HETATM   23  C   UNL     1      -9.139   8.792  68.519  1.00  0.00    -0.138 A  
HETATM   24  C   UNL     1      -9.075  10.130  68.969  1.00  0.00    -0.176 A  
HETATM   25  C   UNL     1      -7.914   8.160  68.217  1.00  0.00    -0.123 A  
HETATM   26  C   UNL     1      -7.855  10.783  69.161  1.00  0.00    -0.142 A  
HETATM   27  C   UNL     1      -6.689   8.810  68.429  1.00  0.00    -0.064 A  
HETATM   28 CL   UNL     1      -7.810   6.576  67.528  1.00  0.00    -0.111 Cl 
HETATM   29 CL   UNL     1      -5.163  10.899  69.190  1.00  0.00    -0.041 Cl 
HETATM   30  C   UNL     1      -6.667  10.113  68.910  1.00  0.00    -0.053 A  
ENDBRANCH  21  23
BRANCH  21  31
HETATM   31  C   UNL     1     -11.566   8.911  67.625  1.00  0.00     1.937 C  
BRANCH  31  32
HETATM   32  N   UNL     1     -11.057   9.744  66.560  1.00  0.00     0.280 NA 
HETATM   33  C   UNL     1     -10.740   9.370  65.289  1.00  0.00     2.092 A  
HETATM   34  C   UNL     1     -10.723  11.458  65.436  1.00  0.00    -0.253 A  
HETATM   35  N   UNL     1     -10.511  10.434  64.559  1.00  0.00    -0.121 NA 
HETATM   36  N   UNL     1     -11.059  11.084  66.673  1.00  0.00    -0.199 NA 
ENDBRANCH  31  32
ENDBRANCH  21  31
ENDBRANCH  17  18
ENDBRANCH  16  17
ENDBRANCH  13  16
ENDBRANCH   7  10
ENDBRANCH   2   4
TORSDOF 8
ENDMDL
MODEL      234
REMARK 921   NORMALIZED FREE ENERGY PREDICTED BY IDOCK:   13.43 KCAL/MOL
REMARK 922        TOTAL FREE ENERGY PREDICTED BY IDOCK:   18.54 KCAL/MOL
REMARK 923 INTER-LIGAND FREE ENERGY PREDICTED BY IDOCK:    6.19 KCAL/MOL
REMARK 924 INTRA-LIGAND FREE ENERGY PREDICTED BY IDOCK:   12.35 KCAL/MOL
REMARK 927      BINDING AFFINITY PREDICTED BY RF-SCORE:    0.00 PKD
ROOT
HETATM    1  C   UNL     1     -12.862  14.167  70.366  1.00  0.00    -0.256 C  
HETATM    2  C   UNL     1     -13.310  12.700  70.204  1.00  0.00     1.523 C  
HETATM    3  C   UNL     1     -12.211  11.993  69.395  1.00  0.00    -0.155 C  
ENDROOT
BRANCH   2   4
HETATM    4  N   UNL     1     -13.557  12.086  71.529  1.00  0.00     0.180 NA 
HETATM    5  C   UNL     1     -14.143  10.722  71.422  1.00  0.00     1.320 C  
HETATM    6  C   UNL     1     -13.160   9.628  70.951  1.00  0.00    -0.165 C  
HETATM    7  N   UNL     1     -11.997   9.589  71.853  1.00  0.00    -0.358 NA 
HETATM    8  C   UNL     1     -12.360  11.971  72.409  1.00  0.00     1.830 C  
HETATM    9  C   UNL     1     -11.318  10.884  72.016  1.00  0.00     3.281 C  
BRANCH   7  10
HETATM   10  C   UNL     1     -11.306   8.398  72.013  1.00  0.00    -0.342 A  
HETATM   11  C   UNL     1     -10.691   8.070  73.222  1.00  0.00    -0.057 A  
HETATM   12  C   UNL     1      -9.823   6.985  73.335  1.00  0.00    -0.273 A  
HETATM   13  C   UNL     1      -9.532   6.180  72.234  1.00  0.00    -0.149 A  
HETATM   14  C   UNL     1     -11.083   7.530  70.934  1.00  0.00    -0.279 A  
HETATM   15  C   UNL     1     -10.200   6.438  71.037  1.00  0.00    -0.227 A  
BRANCH  13  16
HETATM   16  O   UNL     1      -8.610   5.155  72.237  1.00  0.00    -0.123 OA 
BRANCH  16  17
HETATM   17  C   UNL     1      -7.981   4.937  70.969  1.00  0.00    -0.091 C  
BRANCH  17  18
HETATM   18  C   UNL     1      -8.848   5.310  69.772  1.00  0.00    -0.104 C  
HETATM   19  C   UNL     1      -9.061   6.793  69.619  1.00  0.00    -0.143 C  
HETATM   20  O   UNL     1      -9.152   6.986  68.208  1.00  0.00    -0.128 OA 
HETATM   21  C   UNL     1      -8.359   5.941  67.593  1.00  0.00    -0.104 C  
HETATM   22  O   UNL     1      -8.152   4.917  68.584  1.00  0.00    -0.084 OA 
BRANCH  21  23
HETATM   23  C   UNL     1      -9.112   5.319  66.415  1.00  0.00    -0.137 A  
HETATM   24  C   UNL     1      -9.112   5.978  65.165  1.00  0.00     0.226 A  
HETATM   25  C   UNL     1      -9.810   4.095  66.492  1.00  0.00    -0.192 A  
HETATM   26  C   UNL     1      -9.724   5.421  64.041  1.00  0.00     1.074 A  
HETATM   27  C   UNL     1     -10.408   3.527  65.358  1.00  0.00     0.352 A  
HETATM   28 CL   UNL     1     -10.030   3.222  67.970  1.00  0.00     0.199 Cl 
HETATM   29 CL   UNL     1     -11.067   3.477  62.743  1.00  0.00    -0.044 Cl 
HETATM   30  C   UNL     1     -10.352   4.187  64.137  1.00  0.00    -0.093 A  
ENDBRANCH  21  23
BRANCH  21  31
HETATM   31  C   UNL     1      -6.978   6.537  67.233  1.00  0.00    -0.075 C  
BRANCH  31  32
HETATM   32  N   UNL     1      -6.396   7.400  68.235  1.00  0.00    -0.039 NA 
HETATM   33  C   UNL     1      -5.246   8.125  68.144  1.00  0.00    -0.033 A  
HETATM   34  C   UNL     1      -6.303   8.688  69.861  1.00  0.00    -0.038 A  
HETATM   35  N   UNL     1      -5.155   8.940  69.166  1.00  0.00    -0.036 NA 
HETATM   36  N   UNL     1      -7.094   7.753  69.328  1.00  0.00    -0.073 NA 
ENDBRANCH  31  32
ENDBRANCH  21  31
ENDBRANCH  17  18
ENDBRANCH  16  17
ENDBRANCH  13  16
ENDBRANCH   7  10
ENDBRANCH   2   4
TORSDOF 8
ENDMDL
MODEL      235
REMARK 921   NORMALIZED FREE ENERGY PREDICTED BY IDOCK:   16.92 KCAL/MOL
REMARK 922        TOTAL FREE ENERGY PREDICTED BY IDOCK:   23.65 KCAL/MOL
REMARK 923 INTER-LIGAND FREE ENERGY PREDICTED BY IDOCK:   13.16 KCAL/MOL
REMARK 924 INTRA-LIGAND FREE ENERGY PREDICTED BY IDOCK:   10.49 KCAL/MOL
REMARK 927      BINDING AFFINITY PREDICTED BY RF-SCORE:    0.00 PKD
ROOT
HETATM    1  C   UNL     1      -5.507   9.331  71.222  1.00  0.00    -0.055 C  
HETATM    2  C   UNL     1      -5.128  10.490  70.277  1.00  0.00    -0.043 C  
HETATM    3  C   UNL     1      -5.888  10.250  68.962  1.00  0.00    -0.037 C  
ENDROOT
BRANCH   2   4
HETATM    4  N   UNL     1      -5.437  11.793  70.910  1.00  0.00    -0.259 NA 
HETATM    5  C   UNL     1      -5.181  12.941  69.999  1.00  0.00    -0.095 C  
HETATM    6  C   UNL     1      -6.205  13.104  68.855  1.00  0.00    -0.088 C  
HETATM    7  N   UNL     1      -7.559  13.223  69.418  1.00  0.00     0.356 NA 
HETATM    8  C   UNL     1      -6.835  11.943  71.405  1.00  0.00     4.195 C  
HETATM    9  C   UNL     1      -7.935  12.124  70.320  1.00  0.00     3.557 C  
BRANCH   7  10
HETATM   10  C   UNL     1      -8.524  13.929  68.716  1.00  0.00    -0.008 A  
HETATM   11  C   UNL     1      -9.048  15.128  69.203  1.00  0.00    -0.215 A  
HETATM   12  C   UNL     1     -10.159  15.735  68.618  1.00  0.00    -0.211 A  
HETATM   13  C   UNL     1     -10.794  15.163  67.516  1.00  0.00    -0.301 A  
HETATM   14  C   UNL     1      -9.109  13.409  67.552  1.00  0.00    -0.215 A  
HETATM   15  C   UNL     1     -10.237  14.011  66.962  1.00  0.00    -0.261 A  
BRANCH  13  16
HETATM   16  O   UNL     1     -11.953  15.644  66.947  1.00  0.00     0.304 OA 
BRANCH  16  17
HETATM   17  C   UNL     1     -13.074  14.762  67.077  1.00  0.00     2.394 C  
BRANCH  17  18
HETATM   18  C   UNL     1     -12.902  13.428  66.360  1.00  0.00     0.340 C  
HETATM   19  C   UNL     1     -13.680  13.328  65.074  1.00  0.00     1.984 C  
HETATM   20  O   UNL     1     -12.868  12.501  64.241  1.00  0.00    -0.708 OA 
HETATM   21  C   UNL     1     -11.496  12.711  64.658  1.00  0.00    -0.330 C  
HETATM   22  O   UNL     1     -11.529  13.314  65.965  1.00  0.00    -0.312 OA 
BRANCH  21  23
HETATM   23  C   UNL     1     -10.759  11.375  64.768  1.00  0.00    -0.362 A  
HETATM   24  C   UNL     1     -11.106  10.473  65.798  1.00  0.00     0.325 A  
HETATM   25  C   UNL     1      -9.742  10.968  63.878  1.00  0.00    -0.292 A  
HETATM   26  C   UNL     1     -10.513   9.212  65.902  1.00  0.00     0.484 A  
HETATM   27  C   UNL     1      -9.161   9.695  63.971  1.00  0.00    -0.202 A  
HETATM   28 CL   UNL     1      -9.097  11.996  62.644  1.00  0.00     0.643 Cl 
HETATM   29 CL   UNL     1      -8.861   7.252  65.072  1.00  0.00     0.198 Cl 
HETATM   30  C   UNL     1      -9.558   8.821  64.974  1.00  0.00     0.571 A  
ENDBRANCH  21  23
BRANCH  21  31
HETATM   31  C   UNL     1     -10.850  13.726  63.686  1.00  0.00     0.886 C  
BRANCH  31  32
HETATM   32  N   UNL     1     -10.955  15.113  64.078  1.00  0.00     0.497 NA 
HETATM   33  C   UNL     1     -12.049  15.920  63.996  1.00  0.00     0.323 A  
HETATM   34  C   UNL     1     -10.555  16.864  65.119  1.00  0.00    -0.069 A  
HETATM   35  N   UNL     1     -11.819  17.042  64.635  1.00  0.00     0.275 NA 
HETATM   36  N   UNL     1      -9.987  15.698  64.803  1.00  0.00    -0.108 NA 
ENDBRANCH  31  32
ENDBRANCH  21  31
ENDBRANCH  17  18
ENDBRANCH  16  17
ENDBRANCH  13  16
ENDBRANCH   7  10
ENDBRANCH   2   4
TORSDOF 8
ENDMDL
MODEL      236
REMARK 921   NORMALIZED FREE ENERGY PREDICTED BY IDOCK:   22.77 KCAL/MOL
REMARK 922        TOTAL FREE ENERGY PREDICTED BY IDOCK:   32.25 KCAL/MOL
REMARK 923 INTER-LIGAND FREE ENERGY PREDICTED BY IDOCK:   23.79 KCAL/MOL
REMARK 924 INTRA-LIGAND FREE ENERGY PREDICTED BY IDOCK:    8.47 KCAL/MOL
REMARK 927      BINDING AFFINITY PREDICTED BY RF-SCORE:    0.00 PKD
ROOT
HETATM    1  C   UNL     1     -11.531   3.573  71.329  1.00  0.00     4.150 C  
HETATM    2  C   UNL     1     -11.405   2.130  70.799  1.00  0.00     4.827 C  
HETATM    3  C   UNL     1     -12.781   1.470  70.992  1.00  0.00     7.214 C  
ENDROOT
BRANCH   2   4
HETATM    4  N   UNL     1     -10.943   2.135  69.391  1.00  0.00     4.201 NA 
HETATM    5  C   UNL     1     -11.188   3.439  68.719  1.00  0.00     7.466 C  
HETATM    6  C   UNL     1     -10.257   4.586  69.167  1.00  0.00     0.119 C  
HETATM    7  N   UNL     1      -8.853   4.190  68.966  1.00  0.00    -0.091 NA 
HETATM    8  C   UNL     1      -9.501   1.815  69.196  1.00  0.00    -0.084 C  
HETATM    9  C   UNL     1      -8.488   2.921  69.612  1.00  0.00    -0.061 C  
BRANCH   7  10
HETATM   10  C   UNL     1      -7.902   5.171  68.732  1.00  0.00    -0.079 A  
HETATM   11  C   UNL     1      -7.791   6.290  69.558  1.00  0.00    -0.101 A  
HETATM   12  C   UNL     1      -6.988   7.378  69.219  1.00  0.00    -0.065 A  
HETATM   13  C   UNL     1      -6.259   7.390  68.030  1.00  0.00    -0.043 A  
HETATM   14  C   UNL     1      -7.095   5.149  67.585  1.00  0.00    -0.066 A  
HETATM   15  C   UNL     1      -6.289   6.248  67.229  1.00  0.00    -0.037 A  
BRANCH  13  16
HETATM   16  O   UNL     1      -5.526   8.464  67.573  1.00  0.00    -0.037 OA 
BRANCH  16  17
HETATM   17  C   UNL     1      -5.431   9.543  68.511  1.00  0.00    -0.040 C  
BRANCH  17  18
HETATM   18  C   UNL     1      -6.718   9.809  69.284  1.00  0.00    -0.053 C  
HETATM   19  C   UNL     1      -7.337  11.149  68.984  1.00  0.00    -0.120 C  
HETATM   20  O   UNL     1      -8.740  10.918  69.109  1.00  0.00    -0.137 OA 
HETATM   21  C   UNL     1      -8.964   9.526  68.772  1.00  0.00    -0.133 C  
HETATM   22  O   UNL     1      -7.695   8.852  68.856  1.00  0.00    -0.091 OA 
BRANCH  21  23
HETATM   23  C   UNL     1      -9.916   8.878  69.779  1.00  0.00    -0.196 A  
HETATM   24  C   UNL     1      -9.952   9.354  71.108  1.00  0.00    -0.311 A  
HETATM   25  C   UNL     1     -10.793   7.820  69.455  1.00  0.00    -0.153 A  
HETATM   26  C   UNL     1     -10.851   8.845  72.048  1.00  0.00    -0.404 A  
HETATM   27  C   UNL     1     -11.708   7.322  70.394  1.00  0.00    -0.219 A  
HETATM   28 CL   UNL     1     -10.790   7.023  67.920  1.00  0.00    -0.268 Cl 
HETATM   29 CL   UNL     1     -12.878   7.248  72.823  1.00  0.00     0.575 Cl 
HETATM   30  C   UNL     1     -11.740   7.845  71.681  1.00  0.00    -0.281 A  
ENDBRANCH  21  23
BRANCH  21  31
HETATM   31  C   UNL     1      -9.438   9.460  67.302  1.00  0.00    -0.133 C  
BRANCH  31  32
HETATM   32  N   UNL     1     -10.474  10.401  66.942  1.00  0.00    -0.243 NA 
HETATM   33  C   UNL     1     -11.457  10.904  67.740  1.00  0.00    -0.243 A  
HETATM   34  C   UNL     1     -11.409  11.955  65.931  1.00  0.00    -0.308 A  
HETATM   35  N   UNL     1     -12.074  11.880  67.121  1.00  0.00    -0.522 NA 
HETATM   36  N   UNL     1     -10.422  11.070  65.777  1.00  0.00    -0.246 NA 
ENDBRANCH  31  32
ENDBRANCH  21  31
ENDBRANCH  17  18
ENDBRANCH  16  17
ENDBRANCH  13  16
ENDBRANCH   7  10
ENDBRANCH   2   4
TORSDOF 8
ENDMDL
MODEL      237
REMARK 921   NORMALIZED FREE ENERGY PREDICTED BY IDOCK:   26.76 KCAL/MOL
REMARK 922        TOTAL FREE ENERGY PREDICTED BY IDOCK:   38.10 KCAL/MOL
REMARK 923 INTER-LIGAND FREE ENERGY PREDICTED BY IDOCK:   27.16 KCAL/MOL
REMARK 924 INTRA-LIGAND FREE ENERGY PREDICTED BY IDOCK:   10.94 KCAL/MOL
REMARK 927      BINDING AFFINITY PREDICTED BY RF-SCORE:    0.00 PKD
ROOT
HETATM    1  C   UNL     1     -11.531   3.573  71.329  1.00  0.00     4.150 C  
HETATM    2  C   UNL     1     -11.422   2.134  70.784  1.00  0.00     5.513 C  
HETATM    3  C   UNL     1     -12.803   1.486  70.977  1.00  0.00     7.443 C  
ENDROOT
BRANCH   2   4
HETATM    4  N   UNL     1     -10.968   2.150  69.373  1.00  0.00     4.201 NA 
HETATM    5  C   UNL     1     -11.204   3.464  68.716  1.00  0.00     7.466 C  
HETATM    6  C   UNL     1     -10.259   4.597  69.171  1.00  0.00     0.024 C  
HETATM    7  N   UNL     1      -8.861   4.190  68.957  1.00  0.00    -0.091 NA 
HETATM    8  C   UNL     1      -9.530   1.819  69.166  1.00  0.00    -0.084 C  
HETATM    9  C   UNL     1      -8.504   2.910  69.588  1.00  0.00    -0.061 C  
BRANCH   7  10
HETATM   10  C   UNL     1      -7.901   5.164  68.728  1.00  0.00    -0.079 A  
HETATM   11  C   UNL     1      -7.775   6.273  69.566  1.00  0.00    -0.099 A  
HETATM   12  C   UNL     1      -6.964   7.357  69.233  1.00  0.00    -0.065 A  
HETATM   13  C   UNL     1      -6.242   7.375  68.040  1.00  0.00    -0.043 A  
HETATM   14  C   UNL     1      -7.101   5.147  67.576  1.00  0.00    -0.066 A  
HETATM   15  C   UNL     1      -6.287   6.241  67.228  1.00  0.00    -0.037 A  
BRANCH  13  16
HETATM   16  O   UNL     1      -5.501   8.447  67.591  1.00  0.00    -0.033 OA 
BRANCH  16  17
HETATM   17  C   UNL     1      -5.391   9.515  68.539  1.00  0.00    -0.033 C  
BRANCH  17  18
HETATM   18  C   UNL     1      -6.671   9.785  69.322  1.00  0.00    -0.053 C  
HETATM   19  C   UNL     1      -7.205  11.181  69.144  1.00  0.00    -0.123 C  
HETATM   20  O   UNL     1      -8.621  11.025  69.234  1.00  0.00    -0.061 OA 
HETATM   21  C   UNL     1      -8.922   9.686  68.766  1.00  0.00    -0.134 C  
HETATM   22  O   UNL     1      -7.696   8.932  68.798  1.00  0.00    -0.093 OA 
BRANCH  21  23
HETATM   23  C   UNL     1      -9.925   9.005  69.699  1.00  0.00    -0.196 A  
HETATM   24  C   UNL     1     -11.187   8.617  69.198  1.00  0.00     0.291 A  
HETATM   25  C   UNL     1      -9.661   8.719  71.056  1.00  0.00    -0.229 A  
HETATM   26  C   UNL     1     -12.113   7.930  69.987  1.00  0.00     0.640 A  
HETATM   27  C   UNL     1     -10.582   8.013  71.842  1.00  0.00    -0.305 A  
HETATM   28 CL   UNL     1      -8.227   9.241  71.872  1.00  0.00     0.369 Cl 
HETATM   29 CL   UNL     1     -12.916   6.728  72.261  1.00  0.00    -0.031 Cl 
HETATM   30  C   UNL     1     -11.797   7.613  71.301  1.00  0.00    -0.292 A  
ENDBRANCH  21  23
BRANCH  21  31
HETATM   31  C   UNL     1      -9.378   9.785  67.292  1.00  0.00    -0.138 C  
BRANCH  31  32
HETATM   32  N   UNL     1      -8.324   9.674  66.309  1.00  0.00    -0.115 NA 
HETATM   33  C   UNL     1      -8.451   9.413  64.978  1.00  0.00    -0.159 A  
HETATM   34  C   UNL     1      -6.485   9.994  65.401  1.00  0.00    -0.106 A  
HETATM   35  N   UNL     1      -7.298   9.595  64.380  1.00  0.00    -0.119 NA 
HETATM   36  N   UNL     1      -7.069  10.057  66.600  1.00  0.00    -0.089 NA 
ENDBRANCH  31  32
ENDBRANCH  21  31
ENDBRANCH  17  18
ENDBRANCH  16  17
ENDBRANCH  13  16
ENDBRANCH   7  10
ENDBRANCH   2   4
TORSDOF 8
ENDMDL
MODEL      238
REMARK 921   NORMALIZED FREE ENERGY PREDICTED BY IDOCK:   28.27 KCAL/MOL
REMARK 922        TOTAL FREE ENERGY PREDICTED BY IDOCK:   40.32 KCAL/MOL
REMARK 923 INTER-LIGAND FREE ENERGY PREDICTED BY IDOCK:   38.06 KCAL/MOL
REMARK 924 INTRA-LIGAND FREE ENERGY PREDICTED BY IDOCK:    2.27 KCAL/MOL
REMARK 927      BINDING AFFINITY PREDICTED BY RF-SCORE:    0.00 PKD
ROOT
HETATM    1  C   UNL     1     -11.738   1.471  67.129  1.00  0.00    11.735 C  
HETATM    2  C   UNL     1     -11.722   1.975  68.587  1.00  0.00    12.084 C  
HETATM    3  C   UNL     1     -13.048   1.524  69.222  1.00  0.00    15.800 C  
ENDROOT
BRANCH   2   4
HETATM    4  N   UNL     1     -10.523   1.468  69.295  1.00  0.00     1.098 NA 
HETATM    5  C   UNL     1      -9.273   1.680  68.517  1.00  0.00    -0.165 C  
HETATM    6  C   UNL     1      -8.783   3.144  68.461  1.00  0.00    -0.104 C  
HETATM    7  N   UNL     1      -8.599   3.656  69.829  1.00  0.00    -0.066 NA 
HETATM    8  C   UNL     1     -10.292   2.050  70.647  1.00  0.00     0.951 C  
HETATM    9  C   UNL     1      -9.786   3.521  70.686  1.00  0.00    -0.022 C  
BRANCH   7  10
HETATM   10  C   UNL     1      -7.665   4.655  70.056  1.00  0.00    -0.054 A  
HETATM   11  C   UNL     1      -7.253   4.986  71.348  1.00  0.00    -0.065 A  
HETATM   12  C   UNL     1      -6.481   6.119  71.605  1.00  0.00    -0.050 A  
HETATM   13  C   UNL     1      -6.090   6.972  70.574  1.00  0.00    -0.027 A  
HETATM   14  C   UNL     1      -7.191   5.465  69.014  1.00  0.00    -0.062 A  
HETATM   15  C   UNL     1      -6.420   6.616  69.266  1.00  0.00    -0.039 A  
BRANCH  13  16
HETATM   16  O   UNL     1      -5.418   8.161  70.756  1.00  0.00    -0.029 OA 
BRANCH  16  17
HETATM   17  C   UNL     1      -5.956   9.254  70.004  1.00  0.00    -0.035 C  
BRANCH  17  18
HETATM   18  C   UNL     1      -7.462   9.435  70.161  1.00  0.00    -0.120 C  
HETATM   19  C   UNL     1      -8.048  10.462  69.228  1.00  0.00    -0.157 C  
HETATM   20  O   UNL     1      -9.359   9.969  68.951  1.00  0.00    -0.156 OA 
HETATM   21  C   UNL     1      -9.293   8.526  69.064  1.00  0.00    -0.146 C  
HETATM   22  O   UNL     1      -8.094   8.204  69.794  1.00  0.00    -0.112 OA 
BRANCH  21  23
HETATM   23  C   UNL     1     -10.490   7.995  69.856  1.00  0.00    -0.233 A  
HETATM   24  C   UNL     1     -10.719   6.602  69.918  1.00  0.00    -0.297 A  
HETATM   25  C   UNL     1     -11.393   8.823  70.557  1.00  0.00    -0.227 A  
HETATM   26  C   UNL     1     -11.756   6.061  70.683  1.00  0.00    -0.005 A  
HETATM   27  C   UNL     1     -12.421   8.279  71.339  1.00  0.00    -0.315 A  
HETATM   28 CL   UNL     1     -11.347  10.551  70.481  1.00  0.00    -0.403 Cl 
HETATM   29 CL   UNL     1     -13.837   6.236  72.386  1.00  0.00     0.251 Cl 
HETATM   30  C   UNL     1     -12.589   6.902  71.407  1.00  0.00    -0.353 A  
ENDBRANCH  21  23
BRANCH  21  31
HETATM   31  C   UNL     1      -9.152   7.940  67.640  1.00  0.00    -0.133 C  
BRANCH  31  32
HETATM   32  N   UNL     1      -9.525   8.830  66.565  1.00  0.00    -0.200 NA 
HETATM   33  C   UNL     1     -10.739   9.405  66.343  1.00  0.00     0.148 A  
HETATM   34  C   UNL     1      -9.309  10.261  65.076  1.00  0.00    -0.237 A  
HETATM   35  N   UNL     1     -10.636  10.306  65.396  1.00  0.00    -0.060 NA 
HETATM   36  N   UNL     1      -8.590   9.372  65.765  1.00  0.00    -0.138 NA 
ENDBRANCH  31  32
ENDBRANCH  21  31
ENDBRANCH  17  18
ENDBRANCH  16  17
ENDBRANCH  13  16
ENDBRANCH   7  10
ENDBRANCH   2   4
TORSDOF 8
ENDMDL
MODEL      239
REMARK 921   NORMALIZED FREE ENERGY PREDICTED BY IDOCK:   35.87 KCAL/MOL
REMARK 922        TOTAL FREE ENERGY PREDICTED BY IDOCK:   51.47 KCAL/MOL
REMARK 923 INTER-LIGAND FREE ENERGY PREDICTED BY IDOCK:   45.98 KCAL/MOL
REMARK 924 INTRA-LIGAND FREE ENERGY PREDICTED BY IDOCK:    5.49 KCAL/MOL
REMARK 927      BINDING AFFINITY PREDICTED BY RF-SCORE:    0.00 PKD
ROOT
HETATM    1  C   UNL     1     -10.908  19.020  66.937  1.00  0.00    -0.393 C  
HETATM    2  C   UNL     1     -11.460  20.453  67.077  1.00  0.00     1.891 C  
HETATM    3  C   UNL     1     -12.290  20.728  65.813  1.00  0.00     5.588 C  
ENDROOT
BRANCH   2   4
HETATM    4  N   UNL     1     -12.232  20.589  68.334  1.00  0.00     3.991 NA 
HETATM    5  C   UNL     1     -13.360  19.622  68.414  1.00  0.00     9.428 C  
HETATM    6  C   UNL     1     -12.944  18.158  68.673  1.00  0.00     9.499 C  
HETATM    7  N   UNL     1     -12.149  18.082  69.909  1.00  0.00     6.070 NA 
HETATM    8  C   UNL     1     -11.440  20.428  69.586  1.00  0.00     3.307 C  
HETATM    9  C   UNL     1     -10.986  18.981  69.933  1.00  0.00     2.564 C  
BRANCH   7  10
HETATM   10  C   UNL     1     -12.157  16.908  70.647  1.00  0.00     2.109 A  
HETATM   11  C   UNL     1     -10.977  16.348  71.137  1.00  0.00     0.247 A  
HETATM   12  C   UNL     1     -10.945  15.070  71.694  1.00  0.00     0.097 A  
HETATM   13  C   UNL     1     -12.102  14.295  71.781  1.00  0.00    -0.139 A  
HETATM   14  C   UNL     1     -13.332  16.162  70.823  1.00  0.00     1.450 A  
HETATM   15  C   UNL     1     -13.308  14.867  71.375  1.00  0.00    -0.487 A  
BRANCH  13  16
HETATM   16  O   UNL     1     -12.136  12.990  72.222  1.00  0.00     0.834 OA 
BRANCH  16  17
HETATM   17  C   UNL     1     -11.291  12.104  71.479  1.00  0.00     3.485 C  
BRANCH  17  18
HETATM   18  C   UNL     1     -11.551  12.110  69.977  1.00  0.00    -0.171 C  
HETATM   19  C   UNL     1     -12.455  13.227  69.525  1.00  0.00     0.081 C  
HETATM   20  O   UNL     1     -11.979  13.550  68.219  1.00  0.00    -0.356 OA 
HETATM   21  C   UNL     1     -10.566  13.232  68.201  1.00  0.00    -0.249 C  
HETATM   22  O   UNL     1     -10.305  12.358  69.315  1.00  0.00     0.076 OA 
BRANCH  21  23
HETATM   23  C   UNL     1     -10.201  12.486  66.915  1.00  0.00    -0.237 A  
HETATM   24  C   UNL     1     -11.169  12.343  65.897  1.00  0.00    -0.373 A  
HETATM   25  C   UNL     1      -8.926  11.933  66.668  1.00  0.00    -0.198 A  
HETATM   26  C   UNL     1     -10.869  11.733  64.677  1.00  0.00    -0.363 A  
HETATM   27  C   UNL     1      -8.619  11.338  65.436  1.00  0.00     0.066 A  
HETATM   28 CL   UNL     1      -7.664  11.895  67.851  1.00  0.00    -0.121 Cl 
HETATM   29 CL   UNL     1      -9.202  10.541  62.926  1.00  0.00    -0.275 Cl 
HETATM   30  C   UNL     1      -9.588  11.251  64.444  1.00  0.00    -0.225 A  
ENDBRANCH  21  23
BRANCH  21  31
HETATM   31  C   UNL     1      -9.776  14.541  68.432  1.00  0.00    -0.224 C  
BRANCH  31  32
HETATM   32  N   UNL     1      -9.626  15.387  67.269  1.00  0.00    -0.210 NA 
HETATM   33  C   UNL     1      -8.931  15.119  66.129  1.00  0.00    -0.166 A  
HETATM   34  C   UNL     1     -10.093  16.841  65.862  1.00  0.00    -0.304 A  
HETATM   35  N   UNL     1      -9.197  16.031  65.225  1.00  0.00    -0.014 NA 
HETATM   36  N   UNL     1     -10.385  16.486  67.116  1.00  0.00    -0.296 NA 
ENDBRANCH  31  32
ENDBRANCH  21  31
ENDBRANCH  17  18
ENDBRANCH  16  17
ENDBRANCH  13  16
ENDBRANCH   7  10
ENDBRANCH   2   4
TORSDOF 8
ENDMDL
MODEL      240
REMARK 921   NORMALIZED FREE ENERGY PREDICTED BY IDOCK:   40.09 KCAL/MOL
REMARK 922        TOTAL FREE ENERGY PREDICTED BY IDOCK:   57.66 KCAL/MOL
REMARK 923 INTER-LIGAND FREE ENERGY PREDICTED BY IDOCK:   56.64 KCAL/MOL
REMARK 924 INTRA-LIGAND FREE ENERGY PREDICTED BY IDOCK:    1.02 KCAL/MOL
REMARK 927      BINDING AFFINITY PREDICTED BY RF-SCORE:    0.00 PKD
ROOT
HETATM    1  C   UNL     1     -13.099  19.605  65.943  1.00  0.00    10.399 C  
HETATM    2  C   UNL     1     -13.003  19.865  64.426  1.00  0.00    14.359 C  
HETATM    3  C   UNL     1     -13.273  21.365  64.219  1.00  0.00    11.320 C  
ENDROOT
BRANCH   2   4
HETATM    4  N   UNL     1     -11.686  19.424  63.908  1.00  0.00     5.895 NA 
HETATM    5  C   UNL     1     -10.557  19.899  64.752  1.00  0.00     1.558 C  
HETATM    6  C   UNL     1     -10.413  19.178  66.110  1.00  0.00    -0.477 C  
HETATM    7  N   UNL     1     -10.279  17.730  65.888  1.00  0.00    -0.573 NA 
HETATM    8  C   UNL     1     -11.523  17.950  63.763  1.00  0.00     7.048 C  
HETATM    9  C   UNL     1     -11.360  17.142  65.082  1.00  0.00     0.582 C  
BRANCH   7  10
HETATM   10  C   UNL     1      -9.583  16.966  66.812  1.00  0.00    -0.262 A  
HETATM   11  C   UNL     1      -8.788  15.889  66.417  1.00  0.00    -0.368 A  
HETATM   12  C   UNL     1      -8.256  14.990  67.340  1.00  0.00    -0.215 A  
HETATM   13  C   UNL     1      -8.502  15.132  68.706  1.00  0.00    -0.180 A  
HETATM   14  C   UNL     1      -9.749  17.157  68.192  1.00  0.00    -0.276 A  
HETATM   15  C   UNL     1      -9.223  16.248  69.131  1.00  0.00    -0.235 A  
BRANCH  13  16
HETATM   16  O   UNL     1      -8.100  14.233  69.670  1.00  0.00     0.255 OA 
BRANCH  16  17
HETATM   17  C   UNL     1      -7.376  13.111  69.152  1.00  0.00     0.131 C  
BRANCH  17  18
HETATM   18  C   UNL     1      -7.754  11.779  69.790  1.00  0.00     0.997 C  
HETATM   19  C   UNL     1      -8.730  11.911  70.930  1.00  0.00     8.627 C  
HETATM   20  O   UNL     1      -9.508  10.716  70.860  1.00  0.00     1.499 OA 
HETATM   21  C   UNL     1      -9.521  10.310  69.468  1.00  0.00    -0.185 C  
HETATM   22  O   UNL     1      -8.444  10.999  68.807  1.00  0.00    -0.148 OA 
BRANCH  21  23
HETATM   23  C   UNL     1      -9.271   8.805  69.346  1.00  0.00    -0.146 A  
HETATM   24  C   UNL     1      -8.623   8.300  68.197  1.00  0.00    -0.132 A  
HETATM   25  C   UNL     1      -9.639   7.869  70.337  1.00  0.00    -0.171 A  
HETATM   26  C   UNL     1      -8.308   6.945  68.067  1.00  0.00    -0.121 A  
HETATM   27  C   UNL     1      -9.305   6.513  70.214  1.00  0.00    -0.163 A  
HETATM   28 CL   UNL     1     -10.557   8.289  71.742  1.00  0.00    -0.303 Cl 
HETATM   29 CL   UNL     1      -8.205   4.401  68.948  1.00  0.00    -0.079 Cl 
HETATM   30  C   UNL     1      -8.632   6.061  69.086  1.00  0.00    -0.117 A  
ENDBRANCH  21  23
BRANCH  21  31
HETATM   31  C   UNL     1     -10.849  10.795  68.841  1.00  0.00    -0.227 C  
BRANCH  31  32
HETATM   32  N   UNL     1     -11.735  11.502  69.737  1.00  0.00    -0.326 NA 
HETATM   33  C   UNL     1     -12.300  11.040  70.887  1.00  0.00    -0.402 A  
HETATM   34  C   UNL     1     -12.609  13.104  70.728  1.00  0.00    -0.260 A  
HETATM   35  N   UNL     1     -12.871  12.030  71.529  1.00  0.00    -0.353 NA 
HETATM   36  N   UNL     1     -11.916  12.829  69.620  1.00  0.00    -0.310 NA 
ENDBRANCH  31  32
ENDBRANCH  21  31
ENDBRANCH  17  18
ENDBRANCH  16  17
ENDBRANCH  13  16
ENDBRANCH   7  10
ENDBRANCH   2   4
TORSDOF 8
ENDMDL
MODEL      241
REMARK 921   NORMALIZED FREE ENERGY PREDICTED BY IDOCK:   44.13 KCAL/MOL
REMARK 922        TOTAL FREE ENERGY PREDICTED BY IDOCK:   63.60 KCAL/MOL
REMARK 923 INTER-LIGAND FREE ENERGY PREDICTED BY IDOCK:   59.78 KCAL/MOL
REMARK 924 INTRA-LIGAND FREE ENERGY PREDICTED BY IDOCK:    3.82 KCAL/MOL
REMARK 927      BINDING AFFINITY PREDICTED BY RF-SCORE:    0.00 PKD
ROOT
HETATM    1  C   UNL     1     -11.955   1.495  67.193  1.00  0.00    14.037 C  
HETATM    2  C   UNL     1     -11.987   2.177  68.575  1.00  0.00    15.481 C  
HETATM    3  C   UNL     1     -13.417   2.008  69.115  1.00  0.00    21.912 C  
ENDROOT
BRANCH   2   4
HETATM    4  N   UNL     1     -10.948   1.600  69.460  1.00  0.00     3.140 NA 
HETATM    5  C   UNL     1      -9.607   1.572  68.817  1.00  0.00    -0.112 C  
HETATM    6  C   UNL     1      -8.920   2.949  68.687  1.00  0.00    -0.138 C  
HETATM    7  N   UNL     1      -8.809   3.572  70.015  1.00  0.00    -0.079 NA 
HETATM    8  C   UNL     1     -10.780   2.286  70.772  1.00  0.00     2.152 C  
HETATM    9  C   UNL     1     -10.085   3.678  70.738  1.00  0.00     0.219 C  
BRANCH   7  10
HETATM   10  C   UNL     1      -7.777   4.465  70.259  1.00  0.00    -0.052 A  
HETATM   11  C   UNL     1      -6.906   4.295  71.336  1.00  0.00    -0.031 A  
HETATM   12  C   UNL     1      -6.002   5.287  71.715  1.00  0.00    -0.025 A  
HETATM   13  C   UNL     1      -5.935   6.498  71.028  1.00  0.00    -0.028 A  
HETATM   14  C   UNL     1      -7.639   5.646  69.515  1.00  0.00    -0.072 A  
HETATM   15  C   UNL     1      -6.736   6.657  69.897  1.00  0.00    -0.050 A  
BRANCH  13  16
HETATM   16  O   UNL     1      -5.146   7.565  71.400  1.00  0.00    -0.027 OA 
BRANCH  16  17
HETATM   17  C   UNL     1      -5.854   8.807  71.491  1.00  0.00    -0.052 C  
BRANCH  17  18
HETATM   18  C   UNL     1      -7.228   8.692  72.141  1.00  0.00    -0.023 C  
HETATM   19  C   UNL     1      -8.045   9.955  72.055  1.00  0.00     2.935 C  
HETATM   20  O   UNL     1      -9.391   9.491  71.958  1.00  0.00     0.133 OA 
HETATM   21  C   UNL     1      -9.338   8.193  71.314  1.00  0.00    -0.156 C  
HETATM   22  O   UNL     1      -7.982   7.719  71.409  1.00  0.00    -0.090 OA 
BRANCH  21  23
HETATM   23  C   UNL     1     -10.244   7.197  72.041  1.00  0.00    -0.209 A  
HETATM   24  C   UNL     1     -11.423   6.743  71.411  1.00  0.00    -0.336 A  
HETATM   25  C   UNL     1      -9.964   6.678  73.324  1.00  0.00    -0.191 A  
HETATM   26  C   UNL     1     -12.248   5.782  72.000  1.00  0.00     0.176 A  
HETATM   27  C   UNL     1     -10.782   5.700  73.906  1.00  0.00    -0.228 A  
HETATM   28 CL   UNL     1      -8.640   7.222  74.297  1.00  0.00    -0.223 Cl 
HETATM   29 CL   UNL     1     -12.902   4.033  73.943  1.00  0.00     2.626 Cl 
HETATM   30  C   UNL     1     -11.912   5.249  73.237  1.00  0.00     0.348 A  
ENDBRANCH  21  23
BRANCH  21  31
HETATM   31  C   UNL     1      -9.667   8.389  69.816  1.00  0.00    -0.180 C  
BRANCH  31  32
HETATM   32  N   UNL     1     -10.679   9.380  69.529  1.00  0.00    -0.223 NA 
HETATM   33  C   UNL     1     -10.999   9.917  68.319  1.00  0.00    -0.196 A  
HETATM   34  C   UNL     1     -12.434  10.468  69.739  1.00  0.00    -0.064 A  
HETATM   35  N   UNL     1     -12.099  10.622  68.425  1.00  0.00    -0.339 NA 
HETATM   36  N   UNL     1     -11.595   9.716  70.454  1.00  0.00    -0.255 NA 
ENDBRANCH  31  32
ENDBRANCH  21  31
ENDBRANCH  17  18
ENDBRANCH  16  17
ENDBRANCH  13  16
ENDBRANCH   7  10
ENDBRANCH   2   4
TORSDOF 8
ENDMDL
MODEL      242
REMARK 921   NORMALIZED FREE ENERGY PREDICTED BY IDOCK:   53.59 KCAL/MOL
REMARK 922        TOTAL FREE ENERGY PREDICTED BY IDOCK:   77.48 KCAL/MOL
REMARK 923 INTER-LIGAND FREE ENERGY PREDICTED BY IDOCK:   31.92 KCAL/MOL
REMARK 924 INTRA-LIGAND FREE ENERGY PREDICTED BY IDOCK:   45.55 KCAL/MOL
REMARK 927      BINDING AFFINITY PREDICTED BY RF-SCORE:    0.00 PKD
ROOT
HETATM    1  C   UNL     1     -12.738  15.131  70.382  1.00  0.00    -0.378 C  
HETATM    2  C   UNL     1     -13.087  13.629  70.433  1.00  0.00     0.190 C  
HETATM    3  C   UNL     1     -12.227  12.943  69.358  1.00  0.00    -0.145 C  
ENDROOT
BRANCH   2   4
HETATM    4  N   UNL     1     -12.868  13.094  71.797  1.00  0.00    -0.294 NA 
HETATM    5  C   UNL     1     -13.343  11.691  71.938  1.00  0.00    -0.298 C  
HETATM    6  C   UNL     1     -12.462  10.633  71.239  1.00  0.00    -0.410 C  
HETATM    7  N   UNL     1     -11.081  10.732  71.738  1.00  0.00     2.114 NA 
HETATM    8  C   UNL     1     -11.455  13.118  72.269  1.00  0.00     4.212 C  
HETATM    9  C   UNL     1     -10.495  12.076  71.624  1.00  0.00     9.074 C  
BRANCH   7  10
HETATM   10  C   UNL     1     -10.278   9.602  71.733  1.00  0.00     0.674 A  
HETATM   11  C   UNL     1      -9.237   9.444  72.650  1.00  0.00     2.108 A  
HETATM   12  C   UNL     1      -8.297   8.422  72.525  1.00  0.00    -0.213 A  
HETATM   13  C   UNL     1      -8.359   7.513  71.469  1.00  0.00    -0.107 A  
HETATM   14  C   UNL     1     -10.390   8.629  70.729  1.00  0.00    -0.249 A  
HETATM   15  C   UNL     1      -9.438   7.600  70.590  1.00  0.00    -0.163 A  
BRANCH  13  16
HETATM   16  O   UNL     1      -7.414   6.542  71.217  1.00  0.00    -0.085 OA 
BRANCH  16  17
HETATM   17  C   UNL     1      -7.251   6.236  69.828  1.00  0.00    -0.074 C  
BRANCH  17  18
HETATM   18  C   UNL     1      -8.392   6.730  68.945  1.00  0.00    -0.121 C  
HETATM   19  C   UNL     1      -9.360   5.647  68.546  1.00  0.00    -0.123 C  
HETATM   20  O   UNL     1     -10.616   6.320  68.461  1.00  0.00    -0.205 OA 
HETATM   21  C   UNL     1     -10.559   7.426  69.396  1.00  0.00    -0.226 C  
HETATM   22  O   UNL     1      -9.173   7.654  69.712  1.00  0.00    -0.147 OA 
BRANCH  21  23
HETATM   23  C   UNL     1     -11.118   8.698  68.754  1.00  0.00     0.239 A  
HETATM   24  C   UNL     1     -12.474   9.039  68.954  1.00  0.00     3.626 A  
HETATM   25  C   UNL     1     -10.345   9.582  67.971  1.00  0.00    -0.214 A  
HETATM   26  C   UNL     1     -13.016  10.224  68.449  1.00  0.00     4.727 A  
HETATM   27  C   UNL     1     -10.885  10.780  67.481  1.00  0.00    -0.342 A  
HETATM   28 CL   UNL     1      -8.709   9.257  67.511  1.00  0.00    -0.116 Cl 
HETATM   29 CL   UNL     1     -12.866  12.580  67.150  1.00  0.00     1.786 Cl 
HETATM   30  C   UNL     1     -12.213  11.099  67.733  1.00  0.00     0.817 A  
ENDBRANCH  21  23
BRANCH  21  31
HETATM   31  C   UNL     1     -11.276   6.992  70.695  1.00  0.00    -0.288 C  
BRANCH  31  32
HETATM   32  N   UNL     1     -11.038   5.628  71.108  1.00  0.00    -0.189 NA 
HETATM   33  C   UNL     1     -11.902   4.577  71.049  1.00  0.00     4.445 A  
HETATM   34  C   UNL     1      -9.982   3.888  71.518  1.00  0.00    -0.139 A  
HETATM   35  N   UNL     1     -11.264   3.464  71.317  1.00  0.00     2.609 NA 
HETATM   36  N   UNL     1      -9.796   5.204  71.400  1.00  0.00    -0.171 NA 
ENDBRANCH  31  32
ENDBRANCH  21  31
ENDBRANCH  17  18
ENDBRANCH  16  17
ENDBRANCH  13  16
ENDBRANCH   7  10
ENDBRANCH   2   4
TORSDOF 8
ENDMDL
