MODEL        1
REMARK 921   NORMALIZED FREE ENERGY PREDICTED BY IDOCK:   -6.78 KCAL/MOL
REMARK 922        TOTAL FREE ENERGY PREDICTED BY IDOCK:   -9.70 KCAL/MOL
REMARK 923 INTER-LIGAND FREE ENERGY PREDICTED BY IDOCK:   -9.16 KCAL/MOL
REMARK 924 INTRA-LIGAND FREE ENERGY PREDICTED BY IDOCK:   -0.54 KCAL/MOL
REMARK 927      BINDING AFFINITY PREDICTED BY RF-SCORE:    0.00 PKD
ROOT
HETATM    1  O   UNL     1     -10.915  17.154  64.787  1.00  0.00    -0.898 OA 
HETATM    2  C   UNL     1     -11.322  16.030  64.526  1.00  0.00    -0.295 C  
HETATM    3  N   UNL     1     -12.388  15.751  63.723  1.00  0.00    -0.560 NA 
HETATM    4  O   UNL     1     -12.689  14.378  63.650  1.00  0.00    -0.773 OA 
HETATM    5  C   UNL     1     -11.737  13.714  64.493  1.00  0.00    -0.400 C  
HETATM    6  C   UNL     1     -10.718  14.735  64.987  1.00  0.00    -0.433 C  
ENDROOT
BRANCH   6   7
HETATM    7  N   UNL     1     -10.608  14.658  66.457  1.00  0.00    -0.294 NA 
HETATM    8  H   UNL     1      -9.746  14.865  66.961  1.00  0.00     0.000 HD 
BRANCH   7   9
HETATM    9  C   UNL     1     -11.700  14.306  67.046  1.00  0.00    -0.403 C  
BRANCH   9  10
HETATM   10  C   UNL     1     -11.692  13.328  68.149  1.00  0.00    -0.397 A  
HETATM   11  C   UNL     1     -11.444  11.990  67.831  1.00  0.00    -0.396 A  
HETATM   12  C   UNL     1     -11.625  11.008  68.806  1.00  0.00    -0.386 A  
HETATM   13  C   UNL     1     -12.035  11.368  70.094  1.00  0.00    -0.460 A  
HETATM   14  C   UNL     1     -12.215  12.712  70.430  1.00  0.00    -0.368 A  
HETATM   15  C   UNL     1     -12.048  13.697  69.451  1.00  0.00    -0.364 A  
BRANCH  13  16
HETATM   16  C   UNL     1     -12.367  10.322  71.081  1.00  0.00    -0.395 C  
BRANCH  16  17
HETATM   17  N   UNL     1     -11.444   9.581  71.598  1.00  0.00    -0.389 NA 
HETATM   18  H   UNL     1     -10.451   9.790  71.492  1.00  0.00     0.000 HD 
BRANCH  17  19
HETATM   19  C   UNL     1     -11.930   8.415  72.350  1.00  0.00    -0.384 C  
HETATM   20  C   UNL     1     -12.541   7.401  71.397  1.00  0.00    -0.370 C  
HETATM   21  O   UNL     1     -12.371   6.114  72.007  1.00  0.00    -0.290 OA 
HETATM   22  N   UNL     1     -11.242   6.255  72.852  1.00  0.00    -0.233 NA 
HETATM   23  C   UNL     1     -10.836   7.566  72.936  1.00  0.00    -0.373 C  
HETATM   24  O   UNL     1      -9.801   7.948  73.463  1.00  0.00    -0.293 OA 
ENDBRANCH  17  19
ENDBRANCH  16  17
ENDBRANCH  13  16
ENDBRANCH   9  10
ENDBRANCH   7   9
ENDBRANCH   6   7
TORSDOF 6
ENDMDL
MODEL        2
REMARK 921   NORMALIZED FREE ENERGY PREDICTED BY IDOCK:   -6.76 KCAL/MOL
REMARK 922        TOTAL FREE ENERGY PREDICTED BY IDOCK:   -9.67 KCAL/MOL
REMARK 923 INTER-LIGAND FREE ENERGY PREDICTED BY IDOCK:   -9.12 KCAL/MOL
REMARK 924 INTRA-LIGAND FREE ENERGY PREDICTED BY IDOCK:   -0.56 KCAL/MOL
REMARK 927      BINDING AFFINITY PREDICTED BY RF-SCORE:    0.00 PKD
ROOT
HETATM    1  O   UNL     1     -11.652   6.141  69.831  1.00  0.00    -0.404 OA 
HETATM    2  C   UNL     1     -11.425   6.556  70.959  1.00  0.00    -0.336 C  
HETATM    3  N   UNL     1     -11.393   5.787  72.084  1.00  0.00    -0.278 NA 
HETATM    4  O   UNL     1     -11.184   6.527  73.262  1.00  0.00    -0.173 OA 
HETATM    5  C   UNL     1     -11.084   7.900  72.860  1.00  0.00    -0.379 C  
HETATM    6  C   UNL     1     -11.092   7.970  71.337  1.00  0.00    -0.241 C  
ENDROOT
BRANCH   6   7
HETATM    7  N   UNL     1     -12.120   8.929  70.887  1.00  0.00    -0.444 NA 
HETATM    8  H   UNL     1     -12.954   8.649  70.371  1.00  0.00     0.000 HD 
BRANCH   7   9
HETATM    9  C   UNL     1     -11.869  10.154  71.205  1.00  0.00    -0.360 C  
BRANCH   9  10
HETATM   10  C   UNL     1     -11.938  11.233  70.203  1.00  0.00    -0.452 A  
HETATM   11  C   UNL     1     -11.582  10.924  68.888  1.00  0.00    -0.378 A  
HETATM   12  C   UNL     1     -11.440  11.954  67.957  1.00  0.00    -0.389 A  
HETATM   13  C   UNL     1     -11.670  13.279  68.338  1.00  0.00    -0.389 A  
HETATM   14  C   UNL     1     -12.094  13.580  69.635  1.00  0.00    -0.365 A  
HETATM   15  C   UNL     1     -12.223  12.552  70.575  1.00  0.00    -0.382 A  
BRANCH  13  16
HETATM   16  C   UNL     1     -11.379  14.379  67.396  1.00  0.00    -0.337 C  
BRANCH  16  17
HETATM   17  N   UNL     1     -10.354  14.326  66.612  1.00  0.00    -0.275 NA 
HETATM   18  H   UNL     1      -9.430  14.044  66.938  1.00  0.00     0.000 HD 
BRANCH  17  19
HETATM   19  C   UNL     1     -10.619  14.702  65.216  1.00  0.00    -0.391 C  
HETATM   20  C   UNL     1     -12.006  14.234  64.806  1.00  0.00    -0.440 C  
HETATM   21  O   UNL     1     -12.460  15.142  63.793  1.00  0.00    -0.719 OA 
HETATM   22  N   UNL     1     -11.759  16.348  64.040  1.00  0.00    -1.045 NA 
HETATM   23  C   UNL     1     -10.791  16.181  65.003  1.00  0.00    -0.363 C  
HETATM   24  O   UNL     1     -10.152  17.085  65.521  1.00  0.00    -0.577 OA 
ENDBRANCH  17  19
ENDBRANCH  16  17
ENDBRANCH  13  16
ENDBRANCH   9  10
ENDBRANCH   7   9
ENDBRANCH   6   7
TORSDOF 6
ENDMDL
MODEL        3
REMARK 921   NORMALIZED FREE ENERGY PREDICTED BY IDOCK:   -6.69 KCAL/MOL
REMARK 922        TOTAL FREE ENERGY PREDICTED BY IDOCK:   -9.58 KCAL/MOL
REMARK 923 INTER-LIGAND FREE ENERGY PREDICTED BY IDOCK:   -9.05 KCAL/MOL
REMARK 924 INTRA-LIGAND FREE ENERGY PREDICTED BY IDOCK:   -0.53 KCAL/MOL
REMARK 927      BINDING AFFINITY PREDICTED BY RF-SCORE:    0.00 PKD
ROOT
HETATM    1  O   UNL     1      -9.711   8.010  73.422  1.00  0.00    -0.280 OA 
HETATM    2  C   UNL     1     -10.654   7.569  72.780  1.00  0.00    -0.313 C  
HETATM    3  N   UNL     1     -10.821   6.261  72.433  1.00  0.00    -0.231 NA 
HETATM    4  O   UNL     1     -11.955   6.035  71.630  1.00  0.00    -0.205 OA 
HETATM    5  C   UNL     1     -12.566   7.317  71.432  1.00  0.00    -0.388 C  
HETATM    6  C   UNL     1     -11.837   8.350  72.284  1.00  0.00    -0.389 C  
ENDROOT
BRANCH   6   7
HETATM    7  N   UNL     1     -11.440   9.498  71.445  1.00  0.00    -0.370 NA 
HETATM    8  H   UNL     1     -10.571   9.523  70.912  1.00  0.00     0.000 HD 
BRANCH   7   9
HETATM    9  C   UNL     1     -12.291  10.467  71.448  1.00  0.00    -0.397 C  
BRANCH   9  10
HETATM   10  C   UNL     1     -12.272  11.503  70.399  1.00  0.00    -0.442 A  
HETATM   11  C   UNL     1     -11.901  11.117  69.109  1.00  0.00    -0.419 A  
HETATM   12  C   UNL     1     -11.676  12.095  68.139  1.00  0.00    -0.402 A  
HETATM   13  C   UNL     1     -11.837  13.447  68.457  1.00  0.00    -0.401 A  
HETATM   14  C   UNL     1     -12.276  13.828  69.728  1.00  0.00    -0.368 A  
HETATM   15  C   UNL     1     -12.489  12.851  70.706  1.00  0.00    -0.370 A  
BRANCH  13  16
HETATM   16  C   UNL     1     -11.459  14.486  67.478  1.00  0.00    -0.356 C  
BRANCH  16  17
HETATM   17  N   UNL     1     -10.452  14.316  66.688  1.00  0.00    -0.275 NA 
HETATM   18  H   UNL     1      -9.541  14.001  67.021  1.00  0.00     0.000 HD 
BRANCH  17  19
HETATM   19  C   UNL     1     -10.716  14.609  65.271  1.00  0.00    -0.381 C  
HETATM   20  C   UNL     1     -12.084  14.077  64.877  1.00  0.00    -0.420 C  
HETATM   21  O   UNL     1     -12.557  14.916  63.814  1.00  0.00    -0.791 OA 
HETATM   22  N   UNL     1     -11.896  16.155  64.003  1.00  0.00    -0.859 NA 
HETATM   23  C   UNL     1     -10.932  16.069  64.980  1.00  0.00    -0.380 C  
HETATM   24  O   UNL     1     -10.326  17.019  65.454  1.00  0.00    -0.617 OA 
ENDBRANCH  17  19
ENDBRANCH  16  17
ENDBRANCH  13  16
ENDBRANCH   9  10
ENDBRANCH   7   9
ENDBRANCH   6   7
TORSDOF 6
ENDMDL
MODEL        4
REMARK 921   NORMALIZED FREE ENERGY PREDICTED BY IDOCK:   -6.59 KCAL/MOL
REMARK 922        TOTAL FREE ENERGY PREDICTED BY IDOCK:   -9.44 KCAL/MOL
REMARK 923 INTER-LIGAND FREE ENERGY PREDICTED BY IDOCK:   -8.77 KCAL/MOL
REMARK 924 INTRA-LIGAND FREE ENERGY PREDICTED BY IDOCK:   -0.67 KCAL/MOL
REMARK 927      BINDING AFFINITY PREDICTED BY RF-SCORE:    0.00 PKD
ROOT
HETATM    1  O   UNL     1     -12.858  13.287  64.882  1.00  0.00    -0.695 OA 
HETATM    2  C   UNL     1     -12.279  14.360  64.781  1.00  0.00    -0.446 C  
HETATM    3  N   UNL     1     -12.431  15.236  63.747  1.00  0.00    -0.558 NA 
HETATM    4  O   UNL     1     -11.592  16.362  63.840  1.00  0.00    -1.100 OA 
HETATM    5  C   UNL     1     -10.820  16.188  65.036  1.00  0.00    -0.363 C  
HETATM    6  C   UNL     1     -11.328  14.956  65.777  1.00  0.00    -0.314 C  
ENDROOT
BRANCH   6   7
HETATM    7  N   UNL     1     -10.199  14.057  66.084  1.00  0.00    -0.293 NA 
HETATM    8  H   UNL     1      -9.732  13.490  65.377  1.00  0.00     0.000 HD 
BRANCH   7   9
HETATM    9  C   UNL     1      -9.855  14.054  67.328  1.00  0.00    -0.242 C  
BRANCH   9  10
HETATM   10  C   UNL     1     -10.553  13.205  68.311  1.00  0.00    -0.260 A  
HETATM   11  C   UNL     1     -10.509  11.822  68.124  1.00  0.00    -0.221 A  
HETATM   12  C   UNL     1     -11.316  10.998  68.910  1.00  0.00    -0.346 A  
HETATM   13  C   UNL     1     -12.149  11.557  69.884  1.00  0.00    -0.389 A  
HETATM   14  C   UNL     1     -12.140  12.935  70.116  1.00  0.00    -0.373 A  
HETATM   15  C   UNL     1     -11.342  13.764  69.322  1.00  0.00    -0.325 A  
BRANCH  13  16
HETATM   16  C   UNL     1     -13.109  10.704  70.612  1.00  0.00    -0.169 C  
BRANCH  16  17
HETATM   17  N   UNL     1     -13.030  10.561  71.893  1.00  0.00    -0.466 NA 
HETATM   18  H   UNL     1     -12.922  11.353  72.527  1.00  0.00     0.000 HD 
BRANCH  17  19
HETATM   19  C   UNL     1     -13.105   9.173  72.371  1.00  0.00    -0.423 C  
HETATM   20  C   UNL     1     -14.189   8.422  71.615  1.00  0.00    -0.440 C  
HETATM   21  O   UNL     1     -13.794   7.043  71.598  1.00  0.00    -0.346 OA 
HETATM   22  N   UNL     1     -12.383   7.065  71.720  1.00  0.00    -0.343 NA 
HETATM   23  C   UNL     1     -11.918   8.330  71.991  1.00  0.00    -0.348 C  
HETATM   24  O   UNL     1     -10.742   8.662  71.987  1.00  0.00    -0.311 OA 
ENDBRANCH  17  19
ENDBRANCH  16  17
ENDBRANCH  13  16
ENDBRANCH   9  10
ENDBRANCH   7   9
ENDBRANCH   6   7
TORSDOF 6
ENDMDL
MODEL        5
REMARK 921   NORMALIZED FREE ENERGY PREDICTED BY IDOCK:   -6.56 KCAL/MOL
REMARK 922        TOTAL FREE ENERGY PREDICTED BY IDOCK:   -9.40 KCAL/MOL
REMARK 923 INTER-LIGAND FREE ENERGY PREDICTED BY IDOCK:   -8.83 KCAL/MOL
REMARK 924 INTRA-LIGAND FREE ENERGY PREDICTED BY IDOCK:   -0.57 KCAL/MOL
REMARK 927      BINDING AFFINITY PREDICTED BY RF-SCORE:    0.00 PKD
ROOT
HETATM    1  O   UNL     1     -13.250  11.959  63.462  1.00  0.00    -0.676 OA 
HETATM    2  C   UNL     1     -12.216  12.555  63.727  1.00  0.00    -0.525 C  
HETATM    3  N   UNL     1     -10.960  12.120  63.421  1.00  0.00    -0.431 NA 
HETATM    4  O   UNL     1      -9.942  12.962  63.907  1.00  0.00    -0.324 OA 
HETATM    5  C   UNL     1     -10.603  14.030  64.600  1.00  0.00    -0.395 C  
HETATM    6  C   UNL     1     -12.108  13.896  64.395  1.00  0.00    -0.443 C  
ENDROOT
BRANCH   6   7
HETATM    7  N   UNL     1     -12.794  13.929  65.702  1.00  0.00    -0.601 NA 
HETATM    8  H   UNL     1     -13.786  13.722  65.814  1.00  0.00     0.000 HD 
BRANCH   7   9
HETATM    9  C   UNL     1     -12.025  14.244  66.689  1.00  0.00    -0.430 C  
BRANCH   9  10
HETATM   10  C   UNL     1     -11.838  13.332  67.832  1.00  0.00    -0.388 A  
HETATM   11  C   UNL     1     -11.532  11.997  67.557  1.00  0.00    -0.403 A  
HETATM   12  C   UNL     1     -11.545  11.063  68.594  1.00  0.00    -0.385 A  
HETATM   13  C   UNL     1     -11.846  11.469  69.898  1.00  0.00    -0.430 A  
HETATM   14  C   UNL     1     -12.083  12.816  70.183  1.00  0.00    -0.370 A  
HETATM   15  C   UNL     1     -12.084  13.752  69.144  1.00  0.00    -0.374 A  
BRANCH  13  16
HETATM   16  C   UNL     1     -12.003  10.462  70.966  1.00  0.00    -0.382 C  
BRANCH  16  17
HETATM   17  N   UNL     1     -12.273   9.231  70.682  1.00  0.00    -0.483 NA 
HETATM   18  H   UNL     1     -13.108   8.960  70.163  1.00  0.00     0.000 HD 
BRANCH  17  19
HETATM   19  C   UNL     1     -11.288   8.251  71.162  1.00  0.00    -0.263 C  
HETATM   20  C   UNL     1     -11.475   8.014  72.651  1.00  0.00    -0.402 C  
HETATM   21  O   UNL     1     -11.027   6.676  72.910  1.00  0.00    -0.247 OA 
HETATM   22  N   UNL     1     -11.190   5.990  71.680  1.00  0.00    -0.277 NA 
HETATM   23  C   UNL     1     -11.525   6.852  70.662  1.00  0.00    -0.336 C  
HETATM   24  O   UNL     1     -11.877   6.512  69.543  1.00  0.00    -0.266 OA 
ENDBRANCH  17  19
ENDBRANCH  16  17
ENDBRANCH  13  16
ENDBRANCH   9  10
ENDBRANCH   7   9
ENDBRANCH   6   7
TORSDOF 6
ENDMDL
MODEL        6
REMARK 921   NORMALIZED FREE ENERGY PREDICTED BY IDOCK:   -6.56 KCAL/MOL
REMARK 922        TOTAL FREE ENERGY PREDICTED BY IDOCK:   -9.40 KCAL/MOL
REMARK 923 INTER-LIGAND FREE ENERGY PREDICTED BY IDOCK:   -8.69 KCAL/MOL
REMARK 924 INTRA-LIGAND FREE ENERGY PREDICTED BY IDOCK:   -0.71 KCAL/MOL
REMARK 927      BINDING AFFINITY PREDICTED BY RF-SCORE:    0.00 PKD
ROOT
HETATM    1  O   UNL     1     -13.574   7.754  71.348  1.00  0.00    -0.329 OA 
HETATM    2  C   UNL     1     -12.386   7.699  71.633  1.00  0.00    -0.326 C  
HETATM    3  N   UNL     1     -11.829   8.206  72.770  1.00  0.00    -0.337 NA 
HETATM    4  O   UNL     1     -10.429   8.074  72.814  1.00  0.00    -0.307 OA 
HETATM    5  C   UNL     1     -10.048   7.436  71.588  1.00  0.00    -0.183 C  
HETATM    6  C   UNL     1     -11.307   7.033  70.829  1.00  0.00    -0.298 C  
ENDROOT
BRANCH   6   7
HETATM    7  N   UNL     1     -11.241   7.545  69.446  1.00  0.00    -0.450 NA 
HETATM    8  H   UNL     1     -11.754   7.123  68.671  1.00  0.00     0.000 HD 
BRANCH   7   9
HETATM    9  C   UNL     1     -10.475   8.573  69.304  1.00  0.00    -0.215 C  
BRANCH   9  10
HETATM   10  C   UNL     1     -10.994   9.844  68.768  1.00  0.00    -0.217 A  
HETATM   11  C   UNL     1     -10.744  10.136  67.425  1.00  0.00    -0.336 A  
HETATM   12  C   UNL     1     -11.039  11.407  66.932  1.00  0.00    -0.356 A  
HETATM   13  C   UNL     1     -11.596  12.373  67.776  1.00  0.00    -0.413 A  
HETATM   14  C   UNL     1     -11.910  12.059  69.101  1.00  0.00    -0.369 A  
HETATM   15  C   UNL     1     -11.602  10.790  69.601  1.00  0.00    -0.388 A  
BRANCH  13  16
HETATM   16  C   UNL     1     -11.773  13.759  67.297  1.00  0.00    -0.382 C  
BRANCH  16  17
HETATM   17  N   UNL     1     -10.779  14.421  66.806  1.00  0.00    -0.289 NA 
HETATM   18  H   UNL     1      -9.985  14.718  67.373  1.00  0.00     0.000 HD 
BRANCH  17  19
HETATM   19  C   UNL     1     -10.878  14.716  65.369  1.00  0.00    -0.356 C  
HETATM   20  C   UNL     1     -12.249  14.319  64.850  1.00  0.00    -0.440 C  
HETATM   21  O   UNL     1     -12.532  15.183  63.740  1.00  0.00    -0.719 OA 
HETATM   22  N   UNL     1     -11.768  16.351  63.983  1.00  0.00    -1.045 NA 
HETATM   23  C   UNL     1     -10.914  16.185  65.047  1.00  0.00    -0.344 C  
HETATM   24  O   UNL     1     -10.262  17.077  65.570  1.00  0.00    -0.589 OA 
ENDBRANCH  17  19
ENDBRANCH  16  17
ENDBRANCH  13  16
ENDBRANCH   9  10
ENDBRANCH   7   9
ENDBRANCH   6   7
TORSDOF 6
ENDMDL
MODEL        7
REMARK 921   NORMALIZED FREE ENERGY PREDICTED BY IDOCK:   -6.52 KCAL/MOL
REMARK 922        TOTAL FREE ENERGY PREDICTED BY IDOCK:   -9.35 KCAL/MOL
REMARK 923 INTER-LIGAND FREE ENERGY PREDICTED BY IDOCK:   -8.71 KCAL/MOL
REMARK 924 INTRA-LIGAND FREE ENERGY PREDICTED BY IDOCK:   -0.65 KCAL/MOL
REMARK 927      BINDING AFFINITY PREDICTED BY RF-SCORE:    0.00 PKD
ROOT
HETATM    1  O   UNL     1     -13.405  12.005  64.127  1.00  0.00    -0.725 OA 
HETATM    2  C   UNL     1     -12.363  12.642  64.204  1.00  0.00    -0.436 C  
HETATM    3  N   UNL     1     -11.142  12.197  63.790  1.00  0.00    -0.395 NA 
HETATM    4  O   UNL     1     -10.097  13.100  64.062  1.00  0.00    -0.356 OA 
HETATM    5  C   UNL     1     -10.698  14.221  64.722  1.00  0.00    -0.416 C  
HETATM    6  C   UNL     1     -12.212  14.044  64.718  1.00  0.00    -0.433 C  
ENDROOT
BRANCH   6   7
HETATM    7  N   UNL     1     -12.737  14.199  66.089  1.00  0.00    -0.491 NA 
HETATM    8  H   UNL     1     -13.733  14.246  66.301  1.00  0.00     0.000 HD 
BRANCH   7   9
HETATM    9  C   UNL     1     -11.821  14.270  66.995  1.00  0.00    -0.428 C  
BRANCH   9  10
HETATM   10  C   UNL     1     -11.777  13.310  68.113  1.00  0.00    -0.397 A  
HETATM   11  C   UNL     1     -11.606  11.958  67.806  1.00  0.00    -0.393 A  
HETATM   12  C   UNL     1     -11.760  11.001  68.810  1.00  0.00    -0.383 A  
HETATM   13  C   UNL     1     -12.066  11.400  70.115  1.00  0.00    -0.439 A  
HETATM   14  C   UNL     1     -12.169  12.756  70.436  1.00  0.00    -0.371 A  
HETATM   15  C   UNL     1     -12.029  13.716  69.429  1.00  0.00    -0.394 A  
BRANCH  13  16
HETATM   16  C   UNL     1     -12.373  10.385  71.143  1.00  0.00    -0.400 C  
BRANCH  16  17
HETATM   17  N   UNL     1     -11.459   9.581  71.574  1.00  0.00    -0.391 NA 
HETATM   18  H   UNL     1     -10.465   9.740  71.404  1.00  0.00     0.000 HD 
BRANCH  17  19
HETATM   19  C   UNL     1     -11.955   8.421  72.328  1.00  0.00    -0.389 C  
HETATM   20  C   UNL     1     -12.669   7.460  71.392  1.00  0.00    -0.369 C  
HETATM   21  O   UNL     1     -12.525   6.152  71.962  1.00  0.00    -0.250 OA 
HETATM   22  N   UNL     1     -11.343   6.220  72.741  1.00  0.00    -0.236 NA 
HETATM   23  C   UNL     1     -10.870   7.508  72.829  1.00  0.00    -0.346 C  
HETATM   24  O   UNL     1      -9.789   7.827  73.301  1.00  0.00    -0.269 OA 
ENDBRANCH  17  19
ENDBRANCH  16  17
ENDBRANCH  13  16
ENDBRANCH   9  10
ENDBRANCH   7   9
ENDBRANCH   6   7
TORSDOF 6
ENDMDL
MODEL        8
REMARK 921   NORMALIZED FREE ENERGY PREDICTED BY IDOCK:   -6.50 KCAL/MOL
REMARK 922        TOTAL FREE ENERGY PREDICTED BY IDOCK:   -9.32 KCAL/MOL
REMARK 923 INTER-LIGAND FREE ENERGY PREDICTED BY IDOCK:   -8.60 KCAL/MOL
REMARK 924 INTRA-LIGAND FREE ENERGY PREDICTED BY IDOCK:   -0.72 KCAL/MOL
REMARK 927      BINDING AFFINITY PREDICTED BY RF-SCORE:    0.00 PKD
ROOT
HETATM    1  O   UNL     1     -12.787  13.103  64.891  1.00  0.00    -0.703 OA 
HETATM    2  C   UNL     1     -12.273  14.205  64.762  1.00  0.00    -0.440 C  
HETATM    3  N   UNL     1     -12.626  15.130  63.824  1.00  0.00    -0.586 NA 
HETATM    4  O   UNL     1     -11.824  16.285  63.847  1.00  0.00    -0.994 OA 
HETATM    5  C   UNL     1     -10.857  16.081  64.887  1.00  0.00    -0.372 C  
HETATM    6  C   UNL     1     -11.190  14.788  65.623  1.00  0.00    -0.343 C  
ENDROOT
BRANCH   6   7
HETATM    7  N   UNL     1      -9.994  13.926  65.683  1.00  0.00    -0.439 NA 
HETATM    8  H   UNL     1      -9.477  13.633  64.854  1.00  0.00     0.000 HD 
BRANCH   7   9
HETATM    9  C   UNL     1      -9.660  13.575  66.879  1.00  0.00    -0.258 C  
BRANCH   9  10
HETATM   10  C   UNL     1     -10.606  12.865  67.759  1.00  0.00    -0.231 A  
HETATM   11  C   UNL     1     -11.111  13.554  68.864  1.00  0.00    -0.305 A  
HETATM   12  C   UNL     1     -11.846  12.862  69.827  1.00  0.00    -0.380 A  
HETATM   13  C   UNL     1     -12.086  11.492  69.674  1.00  0.00    -0.363 A  
HETATM   14  C   UNL     1     -11.640  10.819  68.534  1.00  0.00    -0.325 A  
HETATM   15  C   UNL     1     -10.891  11.507  67.574  1.00  0.00    -0.285 A  
BRANCH  13  16
HETATM   16  C   UNL     1     -12.734  10.731  70.760  1.00  0.00    -0.360 C  
BRANCH  16  17
HETATM   17  N   UNL     1     -12.048  10.288  71.760  1.00  0.00    -0.232 NA 
HETATM   18  H   UNL     1     -11.387  10.872  72.272  1.00  0.00     0.000 HD 
BRANCH  17  19
HETATM   19  C   UNL     1     -12.289   8.879  72.105  1.00  0.00    -0.378 C  
HETATM   20  C   UNL     1     -13.738   8.517  71.826  1.00  0.00    -0.407 C  
HETATM   21  O   UNL     1     -13.758   7.114  71.527  1.00  0.00    -0.377 OA 
HETATM   22  N   UNL     1     -12.461   6.827  71.034  1.00  0.00    -0.337 NA 
HETATM   23  C   UNL     1     -11.614   7.900  71.185  1.00  0.00    -0.280 C  
HETATM   24  O   UNL     1     -10.493   7.982  70.705  1.00  0.00    -0.203 OA 
ENDBRANCH  17  19
ENDBRANCH  16  17
ENDBRANCH  13  16
ENDBRANCH   9  10
ENDBRANCH   7   9
ENDBRANCH   6   7
TORSDOF 6
ENDMDL
MODEL        9
REMARK 921   NORMALIZED FREE ENERGY PREDICTED BY IDOCK:   -6.45 KCAL/MOL
REMARK 922        TOTAL FREE ENERGY PREDICTED BY IDOCK:   -9.25 KCAL/MOL
REMARK 923 INTER-LIGAND FREE ENERGY PREDICTED BY IDOCK:   -8.59 KCAL/MOL
REMARK 924 INTRA-LIGAND FREE ENERGY PREDICTED BY IDOCK:   -0.66 KCAL/MOL
REMARK 927      BINDING AFFINITY PREDICTED BY RF-SCORE:    0.00 PKD
ROOT
HETATM    1  O   UNL     1     -12.707   9.345  71.146  1.00  0.00    -0.315 OA 
HETATM    2  C   UNL     1     -12.607  10.560  71.047  1.00  0.00    -0.400 C  
HETATM    3  N   UNL     1     -13.174  11.464  71.896  1.00  0.00    -0.458 NA 
HETATM    4  O   UNL     1     -12.966  12.801  71.509  1.00  0.00    -0.377 OA 
HETATM    5  C   UNL     1     -12.206  12.753  70.294  1.00  0.00    -0.277 C  
HETATM    6  C   UNL     1     -11.815  11.307  70.013  1.00  0.00    -0.367 C  
ENDROOT
BRANCH   6   7
HETATM    7  N   UNL     1     -12.204  10.944  68.636  1.00  0.00    -0.810 NA 
HETATM    8  H   UNL     1     -13.148  10.651  68.384  1.00  0.00     0.000 HD 
BRANCH   7   9
HETATM    9  C   UNL     1     -11.242  11.030  67.780  1.00  0.00    -0.308 C  
BRANCH   9  10
HETATM   10  C   UNL     1     -11.049  12.244  66.969  1.00  0.00    -0.339 A  
HETATM   11  C   UNL     1      -9.829  12.916  67.080  1.00  0.00    -0.225 A  
HETATM   12  C   UNL     1      -9.679  14.171  66.488  1.00  0.00    -0.307 A  
HETATM   13  C   UNL     1     -10.740  14.739  65.776  1.00  0.00    -0.333 A  
HETATM   14  C   UNL     1     -11.936  14.037  65.606  1.00  0.00    -0.408 A  
HETATM   15  C   UNL     1     -12.094  12.786  66.210  1.00  0.00    -0.400 A  
BRANCH  13  16
HETATM   16  C   UNL     1     -10.634  16.125  65.276  1.00  0.00    -0.369 C  
BRANCH  16  17
HETATM   17  N   UNL     1      -9.842  16.974  65.841  1.00  0.00    -0.521 NA 
HETATM   18  H   UNL     1      -8.863  17.072  65.572  1.00  0.00     0.000 HD 
BRANCH  17  19
HETATM   19  C   UNL     1     -10.457  17.789  66.899  1.00  0.00    -0.307 C  
HETATM   20  C   UNL     1      -9.615  17.719  68.162  1.00  0.00    -0.303 C  
HETATM   21  O   UNL     1      -9.828  18.954  68.862  1.00  0.00    -0.399 OA 
HETATM   22  N   UNL     1     -10.191  19.886  67.859  1.00  0.00    -0.432 NA 
HETATM   23  C   UNL     1     -10.390  19.271  66.646  1.00  0.00    -0.438 C  
HETATM   24  O   UNL     1     -10.553  19.851  65.583  1.00  0.00    -0.495 OA 
ENDBRANCH  17  19
ENDBRANCH  16  17
ENDBRANCH  13  16
ENDBRANCH   9  10
ENDBRANCH   7   9
ENDBRANCH   6   7
TORSDOF 6
ENDMDL
MODEL       10
REMARK 921   NORMALIZED FREE ENERGY PREDICTED BY IDOCK:   -6.45 KCAL/MOL
REMARK 922        TOTAL FREE ENERGY PREDICTED BY IDOCK:   -9.25 KCAL/MOL
REMARK 923 INTER-LIGAND FREE ENERGY PREDICTED BY IDOCK:   -8.86 KCAL/MOL
REMARK 924 INTRA-LIGAND FREE ENERGY PREDICTED BY IDOCK:   -0.39 KCAL/MOL
REMARK 927      BINDING AFFINITY PREDICTED BY RF-SCORE:    0.00 PKD
ROOT
HETATM    1  O   UNL     1     -10.938   8.342  72.688  1.00  0.00    -0.352 OA 
HETATM    2  C   UNL     1     -12.099   8.095  72.390  1.00  0.00    -0.348 C  
HETATM    3  N   UNL     1     -12.548   6.896  71.922  1.00  0.00    -0.328 NA 
HETATM    4  O   UNL     1     -13.915   6.904  71.585  1.00  0.00    -0.299 OA 
HETATM    5  C   UNL     1     -14.384   8.233  71.849  1.00  0.00    -0.476 C  
HETATM    6  C   UNL     1     -13.268   9.028  72.517  1.00  0.00    -0.406 C  
ENDROOT
BRANCH   6   7
HETATM    7  N   UNL     1     -13.056  10.296  71.792  1.00  0.00    -0.446 NA 
HETATM    8  H   UNL     1     -13.287  11.208  72.187  1.00  0.00     0.000 HD 
BRANCH   7   9
HETATM    9  C   UNL     1     -12.554  10.148  70.613  1.00  0.00    -0.269 C  
BRANCH   9  10
HETATM   10  C   UNL     1     -12.078  11.306  69.835  1.00  0.00    -0.414 A  
HETATM   11  C   UNL     1     -12.261  12.578  70.381  1.00  0.00    -0.368 A  
HETATM   12  C   UNL     1     -12.010  13.705  69.597  1.00  0.00    -0.402 A  
HETATM   13  C   UNL     1     -11.564  13.555  68.280  1.00  0.00    -0.381 A  
HETATM   14  C   UNL     1     -11.314  12.283  67.757  1.00  0.00    -0.362 A  
HETATM   15  C   UNL     1     -11.578  11.152  68.537  1.00  0.00    -0.385 A  
BRANCH  13  16
HETATM   16  C   UNL     1     -11.439  14.737  67.404  1.00  0.00    -0.363 C  
BRANCH  16  17
HETATM   17  N   UNL     1     -10.466  15.572  67.553  1.00  0.00    -0.276 NA 
HETATM   18  H   UNL     1     -10.004  15.720  68.450  1.00  0.00     0.000 HD 
BRANCH  17  19
HETATM   19  C   UNL     1     -10.072  16.293  66.334  1.00  0.00    -0.305 C  
HETATM   20  C   UNL     1     -11.013  15.938  65.194  1.00  0.00    -0.377 C  
HETATM   21  O   UNL     1     -11.039  17.074  64.318  1.00  0.00    -1.092 OA 
HETATM   22  N   UNL     1     -10.713  18.180  65.142  1.00  0.00    -0.541 NA 
HETATM   23  C   UNL     1     -10.316  17.776  66.395  1.00  0.00    -0.351 C  
HETATM   24  O   UNL     1     -10.134  18.521  67.347  1.00  0.00    -0.320 OA 
ENDBRANCH  17  19
ENDBRANCH  16  17
ENDBRANCH  13  16
ENDBRANCH   9  10
ENDBRANCH   7   9
ENDBRANCH   6   7
TORSDOF 6
ENDMDL
MODEL       11
REMARK 921   NORMALIZED FREE ENERGY PREDICTED BY IDOCK:   -6.44 KCAL/MOL
REMARK 922        TOTAL FREE ENERGY PREDICTED BY IDOCK:   -9.24 KCAL/MOL
REMARK 923 INTER-LIGAND FREE ENERGY PREDICTED BY IDOCK:   -8.66 KCAL/MOL
REMARK 924 INTRA-LIGAND FREE ENERGY PREDICTED BY IDOCK:   -0.58 KCAL/MOL
REMARK 927      BINDING AFFINITY PREDICTED BY RF-SCORE:    0.00 PKD
ROOT
HETATM    1  O   UNL     1     -11.637   6.372  69.618  1.00  0.00    -0.417 OA 
HETATM    2  C   UNL     1     -11.481   6.796  70.754  1.00  0.00    -0.342 C  
HETATM    3  N   UNL     1     -11.299   6.021  71.861  1.00  0.00    -0.284 NA 
HETATM    4  O   UNL     1     -11.221   6.761  73.056  1.00  0.00    -0.239 OA 
HETATM    5  C   UNL     1     -11.379   8.137  72.685  1.00  0.00    -0.381 C  
HETATM    6  C   UNL     1     -11.412   8.239  71.165  1.00  0.00    -0.273 C  
ENDROOT
BRANCH   6   7
HETATM    7  N   UNL     1     -12.603   9.001  70.742  1.00  0.00    -0.494 NA 
HETATM    8  H   UNL     1     -13.396   8.573  70.264  1.00  0.00     0.000 HD 
BRANCH   7   9
HETATM    9  C   UNL     1     -12.550  10.257  71.030  1.00  0.00    -0.390 C  
BRANCH   9  10
HETATM   10  C   UNL     1     -12.125  11.253  70.030  1.00  0.00    -0.425 A  
HETATM   11  C   UNL     1     -12.267  12.605  70.355  1.00  0.00    -0.368 A  
HETATM   12  C   UNL     1     -12.067  13.572  69.369  1.00  0.00    -0.340 A  
HETATM   13  C   UNL     1     -11.712  13.187  68.073  1.00  0.00    -0.394 A  
HETATM   14  C   UNL     1     -11.502  11.840  67.766  1.00  0.00    -0.381 A  
HETATM   15  C   UNL     1     -11.715  10.867  68.749  1.00  0.00    -0.355 A  
BRANCH  13  16
HETATM   16  C   UNL     1     -11.644  14.195  66.996  1.00  0.00    -0.382 C  
BRANCH  16  17
HETATM   17  N   UNL     1     -12.520  14.212  66.048  1.00  0.00    -0.464 NA 
HETATM   18  H   UNL     1     -13.511  14.377  66.221  1.00  0.00     0.000 HD 
BRANCH  17  19
HETATM   19  C   UNL     1     -11.982  13.975  64.699  1.00  0.00    -0.430 C  
HETATM   20  C   UNL     1     -10.475  13.794  64.766  1.00  0.00    -0.428 C  
HETATM   21  O   UNL     1     -10.117  12.948  63.665  1.00  0.00    -0.339 OA 
HETATM   22  N   UNL     1     -11.283  12.190  63.391  1.00  0.00    -0.429 NA 
HETATM   23  C   UNL     1     -12.360  12.642  64.116  1.00  0.00    -0.436 C  
HETATM   24  O   UNL     1     -13.441  12.076  64.194  1.00  0.00    -0.672 OA 
ENDBRANCH  17  19
ENDBRANCH  16  17
ENDBRANCH  13  16
ENDBRANCH   9  10
ENDBRANCH   7   9
ENDBRANCH   6   7
TORSDOF 6
ENDMDL
MODEL       12
REMARK 921   NORMALIZED FREE ENERGY PREDICTED BY IDOCK:   -6.43 KCAL/MOL
REMARK 922        TOTAL FREE ENERGY PREDICTED BY IDOCK:   -9.23 KCAL/MOL
REMARK 923 INTER-LIGAND FREE ENERGY PREDICTED BY IDOCK:   -8.52 KCAL/MOL
REMARK 924 INTRA-LIGAND FREE ENERGY PREDICTED BY IDOCK:   -0.71 KCAL/MOL
REMARK 927      BINDING AFFINITY PREDICTED BY RF-SCORE:    0.00 PKD
ROOT
HETATM    1  O   UNL     1     -10.021   8.546  72.570  1.00  0.00    -0.293 OA 
HETATM    2  C   UNL     1     -10.931   7.939  72.022  1.00  0.00    -0.274 C  
HETATM    3  N   UNL     1     -10.829   7.286  70.830  1.00  0.00    -0.236 NA 
HETATM    4  O   UNL     1     -12.047   6.733  70.389  1.00  0.00    -0.357 OA 
HETATM    5  C   UNL     1     -13.023   7.072  71.383  1.00  0.00    -0.340 C  
HETATM    6  C   UNL     1     -12.320   7.745  72.557  1.00  0.00    -0.092 C  
ENDROOT
BRANCH   6   7
HETATM    7  N   UNL     1     -12.985   9.025  72.870  1.00  0.00    -0.650 NA 
HETATM    8  H   UNL     1     -13.035   9.409  73.814  1.00  0.00     0.000 HD 
BRANCH   7   9
HETATM    9  C   UNL     1     -13.499   9.613  71.843  1.00  0.00    -0.413 C  
BRANCH   9  10
HETATM   10  C   UNL     1     -12.831  10.764  71.209  1.00  0.00    -0.540 A  
HETATM   11  C   UNL     1     -13.065  12.031  71.748  1.00  0.00    -0.460 A  
HETATM   12  C   UNL     1     -12.618  13.161  71.062  1.00  0.00    -0.397 A  
HETATM   13  C   UNL     1     -11.928  13.020  69.854  1.00  0.00    -0.381 A  
HETATM   14  C   UNL     1     -11.633  11.750  69.352  1.00  0.00    -0.386 A  
HETATM   15  C   UNL     1     -12.092  10.616  70.030  1.00  0.00    -0.393 A  
BRANCH  13  16
HETATM   16  C   UNL     1     -11.584  14.214  69.057  1.00  0.00    -0.304 C  
BRANCH  16  17
HETATM   17  N   UNL     1     -12.310  14.569  68.050  1.00  0.00    -0.594 NA 
HETATM   18  H   UNL     1     -13.325  14.655  68.109  1.00  0.00     0.000 HD 
BRANCH  17  19
HETATM   19  C   UNL     1     -11.566  14.842  66.811  1.00  0.00    -0.324 C  
HETATM   20  C   UNL     1     -10.193  14.194  66.877  1.00  0.00    -0.267 C  
HETATM   21  O   UNL     1      -9.815  13.902  65.524  1.00  0.00    -0.270 OA 
HETATM   22  N   UNL     1     -11.038  13.766  64.823  1.00  0.00    -0.359 NA 
HETATM   23  C   UNL     1     -12.111  14.132  65.602  1.00  0.00    -0.415 C  
HETATM   24  O   UNL     1     -13.284  13.963  65.306  1.00  0.00    -0.774 OA 
ENDBRANCH  17  19
ENDBRANCH  16  17
ENDBRANCH  13  16
ENDBRANCH   9  10
ENDBRANCH   7   9
ENDBRANCH   6   7
TORSDOF 6
ENDMDL
MODEL       13
REMARK 921   NORMALIZED FREE ENERGY PREDICTED BY IDOCK:   -6.41 KCAL/MOL
REMARK 922        TOTAL FREE ENERGY PREDICTED BY IDOCK:   -9.19 KCAL/MOL
REMARK 923 INTER-LIGAND FREE ENERGY PREDICTED BY IDOCK:   -8.59 KCAL/MOL
REMARK 924 INTRA-LIGAND FREE ENERGY PREDICTED BY IDOCK:   -0.60 KCAL/MOL
REMARK 927      BINDING AFFINITY PREDICTED BY RF-SCORE:    0.00 PKD
ROOT
HETATM    1  O   UNL     1     -10.826   7.051  71.254  1.00  0.00    -0.231 OA 
HETATM    2  C   UNL     1     -11.887   7.613  71.483  1.00  0.00    -0.295 C  
HETATM    3  N   UNL     1     -13.120   7.048  71.339  1.00  0.00    -0.360 NA 
HETATM    4  O   UNL     1     -14.178   7.940  71.599  1.00  0.00    -0.413 OA 
HETATM    5  C   UNL     1     -13.571   9.196  71.928  1.00  0.00    -0.432 C  
HETATM    6  C   UNL     1     -12.060   9.009  72.009  1.00  0.00    -0.370 C  
ENDROOT
BRANCH   6   7
HETATM    7  N   UNL     1     -11.386  10.015  71.165  1.00  0.00    -0.359 NA 
HETATM    8  H   UNL     1     -10.477  10.415  71.395  1.00  0.00     0.000 HD 
BRANCH   7   9
HETATM    9  C   UNL     1     -12.052  10.342  70.109  1.00  0.00    -0.256 C  
BRANCH   9  10
HETATM   10  C   UNL     1     -11.986  11.708  69.558  1.00  0.00    -0.383 A  
HETATM   11  C   UNL     1     -11.606  11.853  68.221  1.00  0.00    -0.390 A  
HETATM   12  C   UNL     1     -11.337  13.127  67.719  1.00  0.00    -0.326 A  
HETATM   13  C   UNL     1     -11.465  14.247  68.547  1.00  0.00    -0.329 A  
HETATM   14  C   UNL     1     -11.912  14.107  69.863  1.00  0.00    -0.398 A  
HETATM   15  C   UNL     1     -12.169  12.830  70.373  1.00  0.00    -0.371 A  
BRANCH  13  16
HETATM   16  C   UNL     1     -11.041  15.576  68.062  1.00  0.00    -0.322 C  
BRANCH  16  17
HETATM   17  N   UNL     1      -9.837  15.774  67.640  1.00  0.00    -0.231 NA 
HETATM   18  H   UNL     1      -9.016  15.469  68.163  1.00  0.00     0.000 HD 
BRANCH  17  19
HETATM   19  C   UNL     1      -9.737  16.471  66.349  1.00  0.00    -0.285 C  
HETATM   20  C   UNL     1     -10.664  15.823  65.335  1.00  0.00    -0.404 C  
HETATM   21  O   UNL     1     -11.037  16.851  64.407  1.00  0.00    -1.128 OA 
HETATM   22  N   UNL     1     -10.910  18.062  65.132  1.00  0.00    -0.611 NA 
HETATM   23  C   UNL     1     -10.318  17.858  66.357  1.00  0.00    -0.365 C  
HETATM   24  O   UNL     1     -10.233  18.695  67.243  1.00  0.00    -0.336 OA 
ENDBRANCH  17  19
ENDBRANCH  16  17
ENDBRANCH  13  16
ENDBRANCH   9  10
ENDBRANCH   7   9
ENDBRANCH   6   7
TORSDOF 6
ENDMDL
MODEL       14
REMARK 921   NORMALIZED FREE ENERGY PREDICTED BY IDOCK:   -6.39 KCAL/MOL
REMARK 922        TOTAL FREE ENERGY PREDICTED BY IDOCK:   -9.17 KCAL/MOL
REMARK 923 INTER-LIGAND FREE ENERGY PREDICTED BY IDOCK:   -8.43 KCAL/MOL
REMARK 924 INTRA-LIGAND FREE ENERGY PREDICTED BY IDOCK:   -0.75 KCAL/MOL
REMARK 927      BINDING AFFINITY PREDICTED BY RF-SCORE:    0.00 PKD
ROOT
HETATM    1  O   UNL     1     -11.359   6.137  71.648  1.00  0.00    -0.278 OA 
HETATM    2  C   UNL     1     -12.247   6.952  71.855  1.00  0.00    -0.332 C  
HETATM    3  N   UNL     1     -13.573   6.744  71.616  1.00  0.00    -0.185 NA 
HETATM    4  O   UNL     1     -14.372   7.874  71.872  1.00  0.00    -0.408 OA 
HETATM    5  C   UNL     1     -13.477   8.907  72.305  1.00  0.00    -0.455 C  
HETATM    6  C   UNL     1     -12.078   8.320  72.452  1.00  0.00    -0.369 C  
ENDROOT
BRANCH   6   7
HETATM    7  N   UNL     1     -11.109   9.144  71.703  1.00  0.00    -0.356 NA 
HETATM    8  H   UNL     1     -10.122   8.901  71.616  1.00  0.00     0.000 HD 
BRANCH   7   9
HETATM    9  C   UNL     1     -11.623  10.199  71.167  1.00  0.00    -0.346 C  
BRANCH   9  10
HETATM   10  C   UNL     1     -11.229  10.639  69.817  1.00  0.00    -0.363 A  
HETATM   11  C   UNL     1     -11.928  11.708  69.250  1.00  0.00    -0.382 A  
HETATM   12  C   UNL     1     -11.726  12.025  67.906  1.00  0.00    -0.393 A  
HETATM   13  C   UNL     1     -10.817  11.285  67.142  1.00  0.00    -0.321 A  
HETATM   14  C   UNL     1     -10.068  10.262  67.728  1.00  0.00    -0.213 A  
HETATM   15  C   UNL     1     -10.279   9.933  69.070  1.00  0.00    -0.213 A  
BRANCH  13  16
HETATM   16  C   UNL     1     -10.710  11.523  65.689  1.00  0.00    -0.267 C  
BRANCH  16  17
HETATM   17  N   UNL     1      -9.973  12.476  65.226  1.00  0.00    -0.392 NA 
HETATM   18  H   UNL     1      -9.000  12.602  65.506  1.00  0.00     0.000 HD 
BRANCH  17  19
HETATM   19  C   UNL     1     -10.639  13.368  64.265  1.00  0.00    -0.341 C  
HETATM   20  C   UNL     1     -11.780  12.635  63.581  1.00  0.00    -0.522 C  
HETATM   21  O   UNL     1     -12.748  13.632  63.223  1.00  0.00    -0.765 OA 
HETATM   22  N   UNL     1     -12.544  14.689  64.144  1.00  0.00    -0.790 NA 
HETATM   23  C   UNL     1     -11.417  14.485  64.905  1.00  0.00    -0.396 C  
HETATM   24  O   UNL     1     -11.096  15.153  65.877  1.00  0.00    -0.339 OA 
ENDBRANCH  17  19
ENDBRANCH  16  17
ENDBRANCH  13  16
ENDBRANCH   9  10
ENDBRANCH   7   9
ENDBRANCH   6   7
TORSDOF 6
ENDMDL
MODEL       15
REMARK 921   NORMALIZED FREE ENERGY PREDICTED BY IDOCK:   -6.38 KCAL/MOL
REMARK 922        TOTAL FREE ENERGY PREDICTED BY IDOCK:   -9.16 KCAL/MOL
REMARK 923 INTER-LIGAND FREE ENERGY PREDICTED BY IDOCK:   -8.49 KCAL/MOL
REMARK 924 INTRA-LIGAND FREE ENERGY PREDICTED BY IDOCK:   -0.67 KCAL/MOL
REMARK 927      BINDING AFFINITY PREDICTED BY RF-SCORE:    0.00 PKD
ROOT
HETATM    1  O   UNL     1      -9.778  17.043  65.591  1.00  0.00    -0.543 OA 
HETATM    2  C   UNL     1     -10.632  16.316  65.102  1.00  0.00    -0.304 C  
HETATM    3  N   UNL     1     -11.570  16.712  64.195  1.00  0.00    -1.093 NA 
HETATM    4  O   UNL     1     -12.480  15.694  63.852  1.00  0.00    -0.693 OA 
HETATM    5  C   UNL     1     -12.100  14.543  64.618  1.00  0.00    -0.473 C  
HETATM    6  C   UNL     1     -10.801  14.847  65.355  1.00  0.00    -0.369 C  
ENDROOT
BRANCH   6   7
HETATM    7  N   UNL     1     -10.959  14.538  66.790  1.00  0.00    -0.309 NA 
HETATM    8  H   UNL     1     -10.333  14.902  67.509  1.00  0.00     0.000 HD 
BRANCH   7   9
HETATM    9  C   UNL     1     -11.958  13.767  67.054  1.00  0.00    -0.413 C  
BRANCH   9  10
HETATM   10  C   UNL     1     -11.760  12.442  67.670  1.00  0.00    -0.412 A  
HETATM   11  C   UNL     1     -11.906  12.340  69.056  1.00  0.00    -0.358 A  
HETATM   12  C   UNL     1     -11.533  11.159  69.700  1.00  0.00    -0.383 A  
HETATM   13  C   UNL     1     -11.032  10.085  68.957  1.00  0.00    -0.249 A  
HETATM   14  C   UNL     1     -10.951  10.164  67.564  1.00  0.00    -0.319 A  
HETATM   15  C   UNL     1     -11.312  11.350  66.918  1.00  0.00    -0.284 A  
BRANCH  13  16
HETATM   16  C   UNL     1     -10.501   8.894  69.649  1.00  0.00    -0.216 C  
BRANCH  16  17
HETATM   17  N   UNL     1     -11.258   7.876  69.891  1.00  0.00    -0.444 NA 
HETATM   18  H   UNL     1     -11.977   7.561  69.239  1.00  0.00     0.000 HD 
BRANCH  17  19
HETATM   19  C   UNL     1     -11.008   7.206  71.176  1.00  0.00    -0.248 C  
HETATM   20  C   UNL     1      -9.513   7.129  71.438  1.00  0.00    -0.161 C  
HETATM   21  O   UNL     1      -9.349   7.120  72.863  1.00  0.00    -0.140 OA 
HETATM   22  N   UNL     1     -10.500   7.775  73.368  1.00  0.00    -0.301 NA 
HETATM   23  C   UNL     1     -11.423   8.011  72.377  1.00  0.00    -0.389 C  
HETATM   24  O   UNL     1     -12.427   8.697  72.501  1.00  0.00    -0.391 OA 
ENDBRANCH  17  19
ENDBRANCH  16  17
ENDBRANCH  13  16
ENDBRANCH   9  10
ENDBRANCH   7   9
ENDBRANCH   6   7
TORSDOF 6
ENDMDL
MODEL       16
REMARK 921   NORMALIZED FREE ENERGY PREDICTED BY IDOCK:   -6.37 KCAL/MOL
REMARK 922        TOTAL FREE ENERGY PREDICTED BY IDOCK:   -9.14 KCAL/MOL
REMARK 923 INTER-LIGAND FREE ENERGY PREDICTED BY IDOCK:   -8.25 KCAL/MOL
REMARK 924 INTRA-LIGAND FREE ENERGY PREDICTED BY IDOCK:   -0.89 KCAL/MOL
REMARK 927      BINDING AFFINITY PREDICTED BY RF-SCORE:    0.00 PKD
ROOT
HETATM    1  O   UNL     1     -11.064  15.422  70.865  1.00  0.00    -0.324 OA 
HETATM    2  C   UNL     1     -11.920  14.735  71.404  1.00  0.00    -0.345 C  
HETATM    3  N   UNL     1     -12.463  14.981  72.630  1.00  0.00    -0.348 NA 
HETATM    4  O   UNL     1     -13.374  13.992  73.047  1.00  0.00    -0.641 OA 
HETATM    5  C   UNL     1     -13.411  13.015  71.999  1.00  0.00    -0.492 C  
HETATM    6  C   UNL     1     -12.582  13.519  70.824  1.00  0.00    -0.309 C  
ENDROOT
BRANCH   6   7
HETATM    7  N   UNL     1     -11.606  12.486  70.422  1.00  0.00    -0.495 NA 
HETATM    8  H   UNL     1     -10.938  12.070  71.071  1.00  0.00     0.000 HD 
BRANCH   7   9
HETATM    9  C   UNL     1     -11.675  12.157  69.177  1.00  0.00    -0.328 C  
BRANCH   9  10
HETATM   10  C   UNL     1     -11.232  13.080  68.117  1.00  0.00    -0.305 A  
HETATM   11  C   UNL     1      -9.883  13.443  68.091  1.00  0.00    -0.234 A  
HETATM   12  C   UNL     1      -9.463  14.463  67.236  1.00  0.00    -0.215 A  
HETATM   13  C   UNL     1     -10.387  15.102  66.403  1.00  0.00    -0.292 A  
HETATM   14  C   UNL     1     -11.722  14.692  66.380  1.00  0.00    -0.329 A  
HETATM   15  C   UNL     1     -12.148  13.679  67.245  1.00  0.00    -0.385 A  
BRANCH  13  16
HETATM   16  C   UNL     1      -9.974  16.276  65.608  1.00  0.00    -0.274 C  
BRANCH  16  17
HETATM   17  N   UNL     1     -10.573  17.412  65.744  1.00  0.00    -0.478 NA 
HETATM   18  H   UNL     1     -11.497  17.595  65.351  1.00  0.00     0.000 HD 
BRANCH  17  19
HETATM   19  C   UNL     1      -9.826  18.423  66.507  1.00  0.00    -0.359 C  
HETATM   20  C   UNL     1     -10.142  19.811  65.978  1.00  0.00    -0.477 C  
HETATM   21  O   UNL     1      -9.977  20.715  67.080  1.00  0.00    -0.452 OA 
HETATM   22  N   UNL     1     -10.196  19.926  68.237  1.00  0.00    -0.445 NA 
HETATM   23  C   UNL     1     -10.298  18.590  67.925  1.00  0.00    -0.392 C  
HETATM   24  O   UNL     1     -10.643  17.713  68.702  1.00  0.00    -0.335 OA 
ENDBRANCH  17  19
ENDBRANCH  16  17
ENDBRANCH  13  16
ENDBRANCH   9  10
ENDBRANCH   7   9
ENDBRANCH   6   7
TORSDOF 6
ENDMDL
MODEL       17
REMARK 921   NORMALIZED FREE ENERGY PREDICTED BY IDOCK:   -6.36 KCAL/MOL
REMARK 922        TOTAL FREE ENERGY PREDICTED BY IDOCK:   -9.13 KCAL/MOL
REMARK 923 INTER-LIGAND FREE ENERGY PREDICTED BY IDOCK:   -8.42 KCAL/MOL
REMARK 924 INTRA-LIGAND FREE ENERGY PREDICTED BY IDOCK:   -0.71 KCAL/MOL
REMARK 927      BINDING AFFINITY PREDICTED BY RF-SCORE:    0.00 PKD
ROOT
HETATM    1  O   UNL     1     -10.040   8.817  71.976  1.00  0.00    -0.313 OA 
HETATM    2  C   UNL     1     -11.093   8.236  71.753  1.00  0.00    -0.278 C  
HETATM    3  N   UNL     1     -11.256   7.231  70.847  1.00  0.00    -0.264 NA 
HETATM    4  O   UNL     1     -12.588   6.789  70.734  1.00  0.00    -0.311 OA 
HETATM    5  C   UNL     1     -13.354   7.593  71.642  1.00  0.00    -0.350 C  
HETATM    6  C   UNL     1     -12.403   8.470  72.449  1.00  0.00    -0.359 C  
ENDROOT
BRANCH   6   7
HETATM    7  N   UNL     1     -12.837   9.878  72.372  1.00  0.00    -0.361 NA 
HETATM    8  H   UNL     1     -12.841  10.504  73.178  1.00  0.00     0.000 HD 
BRANCH   7   9
HETATM    9  C   UNL     1     -13.211  10.248  71.194  1.00  0.00    -0.343 C  
BRANCH   9  10
HETATM   10  C   UNL     1     -12.427  11.223  70.414  1.00  0.00    -0.355 A  
HETATM   11  C   UNL     1     -12.389  12.543  70.872  1.00  0.00    -0.349 A  
HETATM   12  C   UNL     1     -11.831  13.533  70.063  1.00  0.00    -0.371 A  
HETATM   13  C   UNL     1     -11.301  13.200  68.813  1.00  0.00    -0.333 A  
HETATM   14  C   UNL     1     -11.277  11.870  68.386  1.00  0.00    -0.312 A  
HETATM   15  C   UNL     1     -11.848  10.877  69.188  1.00  0.00    -0.389 A  
BRANCH  13  16
HETATM   16  C   UNL     1     -10.845  14.265  67.897  1.00  0.00    -0.253 C  
BRANCH  16  17
HETATM   17  N   UNL     1     -10.823  14.076  66.620  1.00  0.00    -0.295 NA 
HETATM   18  H   UNL     1     -10.159  13.446  66.171  1.00  0.00     0.000 HD 
BRANCH  17  19
HETATM   19  C   UNL     1     -11.827  14.837  65.862  1.00  0.00    -0.204 C  
HETATM   20  C   UNL     1     -11.138  15.832  64.943  1.00  0.00    -0.399 C  
HETATM   21  O   UNL     1     -12.015  16.028  63.824  1.00  0.00    -0.844 OA 
HETATM   22  N   UNL     1     -12.779  14.838  63.745  1.00  0.00    -0.644 NA 
HETATM   23  C   UNL     1     -12.561  14.023  64.831  1.00  0.00    -0.342 C  
HETATM   24  O   UNL     1     -12.964  12.875  64.940  1.00  0.00    -0.754 OA 
ENDBRANCH  17  19
ENDBRANCH  16  17
ENDBRANCH  13  16
ENDBRANCH   9  10
ENDBRANCH   7   9
ENDBRANCH   6   7
TORSDOF 6
ENDMDL
MODEL       18
REMARK 921   NORMALIZED FREE ENERGY PREDICTED BY IDOCK:   -6.32 KCAL/MOL
REMARK 922        TOTAL FREE ENERGY PREDICTED BY IDOCK:   -9.08 KCAL/MOL
REMARK 923 INTER-LIGAND FREE ENERGY PREDICTED BY IDOCK:   -8.50 KCAL/MOL
REMARK 924 INTRA-LIGAND FREE ENERGY PREDICTED BY IDOCK:   -0.58 KCAL/MOL
REMARK 927      BINDING AFFINITY PREDICTED BY RF-SCORE:    0.00 PKD
ROOT
HETATM    1  O   UNL     1     -11.031  14.786  65.037  1.00  0.00    -0.365 OA 
HETATM    2  C   UNL     1     -11.664  13.841  64.589  1.00  0.00    -0.395 C  
HETATM    3  N   UNL     1     -12.930  13.498  64.963  1.00  0.00    -0.735 NA 
HETATM    4  O   UNL     1     -13.397  12.323  64.347  1.00  0.00    -0.786 OA 
HETATM    5  C   UNL     1     -12.330  11.860  63.508  1.00  0.00    -0.490 C  
HETATM    6  C   UNL     1     -11.212  12.895  63.514  1.00  0.00    -0.297 C  
ENDROOT
BRANCH   6   7
HETATM    7  N   UNL     1      -9.930  12.243  63.843  1.00  0.00    -0.566 NA 
HETATM    8  H   UNL     1      -9.045  12.748  63.892  1.00  0.00     0.000 HD 
BRANCH   7   9
HETATM    9  C   UNL     1     -10.028  10.975  64.063  1.00  0.00    -0.335 C  
BRANCH   9  10
HETATM   10  C   UNL     1      -9.927  10.427  65.427  1.00  0.00    -0.362 A  
HETATM   11  C   UNL     1      -9.487   9.108  65.568  1.00  0.00    -0.276 A  
HETATM   12  C   UNL     1      -9.567   8.488  66.816  1.00  0.00    -0.273 A  
HETATM   13  C   UNL     1     -10.071   9.190  67.915  1.00  0.00    -0.246 A  
HETATM   14  C   UNL     1     -10.446  10.530  67.788  1.00  0.00    -0.263 A  
HETATM   15  C   UNL     1     -10.379  11.150  66.537  1.00  0.00    -0.290 A  
BRANCH  13  16
HETATM   16  C   UNL     1     -10.293   8.492  69.197  1.00  0.00    -0.217 C  
BRANCH  16  17
HETATM   17  N   UNL     1     -11.485   8.333  69.667  1.00  0.00    -0.364 NA 
HETATM   18  H   UNL     1     -12.218   7.849  69.148  1.00  0.00     0.000 HD 
BRANCH  17  19
HETATM   19  C   UNL     1     -11.709   8.901  71.005  1.00  0.00    -0.289 C  
HETATM   20  C   UNL     1     -12.428  10.234  70.889  1.00  0.00    -0.370 C  
HETATM   21  O   UNL     1     -13.184  10.396  72.098  1.00  0.00    -0.452 OA 
HETATM   22  N   UNL     1     -13.425   9.078  72.558  1.00  0.00    -0.466 NA 
HETATM   23  C   UNL     1     -12.721   8.151  71.826  1.00  0.00    -0.330 C  
HETATM   24  O   UNL     1     -12.865   6.940  71.904  1.00  0.00    -0.333 OA 
ENDBRANCH  17  19
ENDBRANCH  16  17
ENDBRANCH  13  16
ENDBRANCH   9  10
ENDBRANCH   7   9
ENDBRANCH   6   7
TORSDOF 6
ENDMDL
MODEL       19
REMARK 921   NORMALIZED FREE ENERGY PREDICTED BY IDOCK:   -6.31 KCAL/MOL
REMARK 922        TOTAL FREE ENERGY PREDICTED BY IDOCK:   -9.07 KCAL/MOL
REMARK 923 INTER-LIGAND FREE ENERGY PREDICTED BY IDOCK:   -8.70 KCAL/MOL
REMARK 924 INTRA-LIGAND FREE ENERGY PREDICTED BY IDOCK:   -0.37 KCAL/MOL
REMARK 927      BINDING AFFINITY PREDICTED BY RF-SCORE:    0.00 PKD
ROOT
HETATM    1  O   UNL     1     -11.861   5.667  72.548  1.00  0.00    -0.282 OA 
HETATM    2  C   UNL     1     -10.984   6.506  72.693  1.00  0.00    -0.255 C  
HETATM    3  N   UNL     1     -10.297   6.729  73.850  1.00  0.00    -0.357 NA 
HETATM    4  O   UNL     1      -9.393   7.805  73.766  1.00  0.00    -0.280 OA 
HETATM    5  C   UNL     1      -9.519   8.330  72.438  1.00  0.00    -0.287 C  
HETATM    6  C   UNL     1     -10.449   7.428  71.635  1.00  0.00    -0.197 C  
ENDROOT
BRANCH   6   7
HETATM    7  N   UNL     1     -11.511   8.238  71.007  1.00  0.00    -0.273 NA 
HETATM    8  H   UNL     1     -12.289   7.829  70.489  1.00  0.00     0.000 HD 
BRANCH   7   9
HETATM    9  C   UNL     1     -11.366   9.509  71.171  1.00  0.00    -0.370 C  
BRANCH   9  10
HETATM   10  C   UNL     1     -11.271  10.422  70.018  1.00  0.00    -0.385 A  
HETATM   11  C   UNL     1     -11.792  11.710  70.162  1.00  0.00    -0.428 A  
HETATM   12  C   UNL     1     -11.904  12.534  69.041  1.00  0.00    -0.344 A  
HETATM   13  C   UNL     1     -11.480  12.075  67.790  1.00  0.00    -0.394 A  
HETATM   14  C   UNL     1     -10.895  10.813  67.659  1.00  0.00    -0.332 A  
HETATM   15  C   UNL     1     -10.795   9.980  68.778  1.00  0.00    -0.252 A  
BRANCH  13  16
HETATM   16  C   UNL     1     -11.732  12.887  66.582  1.00  0.00    -0.390 C  
BRANCH  16  17
HETATM   17  N   UNL     1     -10.881  13.775  66.192  1.00  0.00    -0.279 NA 
HETATM   18  H   UNL     1      -9.878  13.593  66.151  1.00  0.00     0.000 HD 
BRANCH  17  19
HETATM   19  C   UNL     1     -11.463  15.071  65.812  1.00  0.00    -0.236 C  
HETATM   20  C   UNL     1     -10.369  16.119  65.699  1.00  0.00    -0.382 C  
HETATM   21  O   UNL     1     -10.824  17.081  64.737  1.00  0.00    -0.820 OA 
HETATM   22  N   UNL     1     -11.726  16.371  63.907  1.00  0.00    -1.024 NA 
HETATM   23  C   UNL     1     -11.987  15.115  64.402  1.00  0.00    -0.310 C  
HETATM   24  O   UNL     1     -12.599  14.240  63.809  1.00  0.00    -0.821 OA 
ENDBRANCH  17  19
ENDBRANCH  16  17
ENDBRANCH  13  16
ENDBRANCH   9  10
ENDBRANCH   7   9
ENDBRANCH   6   7
TORSDOF 6
ENDMDL
MODEL       20
REMARK 921   NORMALIZED FREE ENERGY PREDICTED BY IDOCK:   -6.28 KCAL/MOL
REMARK 922        TOTAL FREE ENERGY PREDICTED BY IDOCK:   -9.02 KCAL/MOL
REMARK 923 INTER-LIGAND FREE ENERGY PREDICTED BY IDOCK:   -8.98 KCAL/MOL
REMARK 924 INTRA-LIGAND FREE ENERGY PREDICTED BY IDOCK:   -0.04 KCAL/MOL
REMARK 927      BINDING AFFINITY PREDICTED BY RF-SCORE:    0.00 PKD
ROOT
HETATM    1  O   UNL     1     -12.229  16.649  73.620  1.00  0.00    -0.461 OA 
HETATM    2  C   UNL     1     -12.798  15.649  73.203  1.00  0.00    -0.509 C  
HETATM    3  N   UNL     1     -12.768  14.424  73.802  1.00  0.00    -0.341 NA 
HETATM    4  O   UNL     1     -13.446  13.429  73.073  1.00  0.00    -0.537 OA 
HETATM    5  C   UNL     1     -13.947  14.070  71.892  1.00  0.00    -0.449 C  
HETATM    6  C   UNL     1     -13.675  15.566  71.988  1.00  0.00    -0.498 C  
ENDROOT
BRANCH   6   7
HETATM    7  N   UNL     1     -12.988  16.028  70.766  1.00  0.00    -0.540 NA 
HETATM    8  H   UNL     1     -13.484  16.384  69.949  1.00  0.00     0.000 HD 
BRANCH   7   9
HETATM    9  C   UNL     1     -11.702  15.940  70.823  1.00  0.00    -0.401 C  
BRANCH   9  10
HETATM   10  C   UNL     1     -10.949  15.113  69.862  1.00  0.00    -0.291 A  
HETATM   11  C   UNL     1      -9.853  15.695  69.220  1.00  0.00    -0.269 A  
HETATM   12  C   UNL     1      -9.240  15.021  68.163  1.00  0.00    -0.183 A  
HETATM   13  C   UNL     1      -9.713  13.767  67.765  1.00  0.00    -0.230 A  
HETATM   14  C   UNL     1     -10.764  13.155  68.452  1.00  0.00    -0.270 A  
HETATM   15  C   UNL     1     -11.390  13.834  69.503  1.00  0.00    -0.283 A  
BRANCH  13  16
HETATM   16  C   UNL     1      -9.161  13.120  66.557  1.00  0.00    -0.177 C  
BRANCH  16  17
HETATM   17  N   UNL     1      -9.533  13.493  65.378  1.00  0.00    -0.448 NA 
HETATM   18  H   UNL     1      -8.878  13.589  64.602  1.00  0.00     0.000 HD 
BRANCH  17  19
HETATM   19  C   UNL     1     -10.970  13.769  65.237  1.00  0.00    -0.322 C  
HETATM   20  C   UNL     1     -11.178  15.179  64.710  1.00  0.00    -0.388 C  
HETATM   21  O   UNL     1     -12.416  15.165  63.985  1.00  0.00    -0.771 OA 
HETATM   22  N   UNL     1     -12.578  13.822  63.563  1.00  0.00    -0.808 NA 
HETATM   23  C   UNL     1     -11.635  12.998  64.130  1.00  0.00    -0.407 C  
HETATM   24  O   UNL     1     -11.444  11.831  63.819  1.00  0.00    -0.397 OA 
ENDBRANCH  17  19
ENDBRANCH  16  17
ENDBRANCH  13  16
ENDBRANCH   9  10
ENDBRANCH   7   9
ENDBRANCH   6   7
TORSDOF 6
ENDMDL
MODEL       21
REMARK 921   NORMALIZED FREE ENERGY PREDICTED BY IDOCK:   -6.28 KCAL/MOL
REMARK 922        TOTAL FREE ENERGY PREDICTED BY IDOCK:   -9.02 KCAL/MOL
REMARK 923 INTER-LIGAND FREE ENERGY PREDICTED BY IDOCK:   -8.57 KCAL/MOL
REMARK 924 INTRA-LIGAND FREE ENERGY PREDICTED BY IDOCK:   -0.45 KCAL/MOL
REMARK 927      BINDING AFFINITY PREDICTED BY RF-SCORE:    0.00 PKD
ROOT
HETATM    1  O   UNL     1     -10.101  18.127  67.328  1.00  0.00    -0.317 OA 
HETATM    2  C   UNL     1     -10.399  17.449  66.354  1.00  0.00    -0.317 C  
HETATM    3  N   UNL     1     -10.842  17.944  65.163  1.00  0.00    -0.638 NA 
HETATM    4  O   UNL     1     -11.186  16.943  64.235  1.00  0.00    -1.204 OA 
HETATM    5  C   UNL     1     -10.956  15.690  64.894  1.00  0.00    -0.431 C  
HETATM    6  C   UNL     1     -10.301  15.955  66.245  1.00  0.00    -0.314 C  
ENDROOT
BRANCH   6   7
HETATM    7  N   UNL     1     -11.055  15.263  67.309  1.00  0.00    -0.332 NA 
HETATM    8  H   UNL     1     -11.171  15.646  68.247  1.00  0.00     0.000 HD 
BRANCH   7   9
HETATM    9  C   UNL     1     -11.554  14.131  66.946  1.00  0.00    -0.391 C  
BRANCH   9  10
HETATM   10  C   UNL     1     -11.846  13.074  67.930  1.00  0.00    -0.389 A  
HETATM   11  C   UNL     1     -12.077  13.461  69.253  1.00  0.00    -0.312 A  
HETATM   12  C   UNL     1     -12.158  12.487  70.249  1.00  0.00    -0.373 A  
HETATM   13  C   UNL     1     -12.024  11.135  69.918  1.00  0.00    -0.439 A  
HETATM   14  C   UNL     1     -11.863  10.744  68.586  1.00  0.00    -0.208 A  
HETATM   15  C   UNL     1     -11.768  11.719  67.587  1.00  0.00    -0.320 A  
BRANCH  13  16
HETATM   16  C   UNL     1     -11.963  10.116  70.985  1.00  0.00    -0.378 C  
BRANCH  16  17
HETATM   17  N   UNL     1     -11.982   8.857  70.701  1.00  0.00    -0.471 NA 
HETATM   18  H   UNL     1     -12.629   8.459  70.021  1.00  0.00     0.000 HD 
BRANCH  17  19
HETATM   19  C   UNL     1     -11.003   8.039  71.432  1.00  0.00    -0.234 C  
HETATM   20  C   UNL     1     -11.388   7.957  72.900  1.00  0.00    -0.337 C  
HETATM   21  O   UNL     1     -10.877   6.707  73.386  1.00  0.00    -0.279 OA 
HETATM   22  N   UNL     1     -10.802   5.873  72.244  1.00  0.00    -0.233 NA 
HETATM   23  C   UNL     1     -11.051   6.575  71.088  1.00  0.00    -0.282 C  
HETATM   24  O   UNL     1     -11.207   6.077  69.983  1.00  0.00    -0.372 OA 
ENDBRANCH  17  19
ENDBRANCH  16  17
ENDBRANCH  13  16
ENDBRANCH   9  10
ENDBRANCH   7   9
ENDBRANCH   6   7
TORSDOF 6
ENDMDL
MODEL       22
REMARK 921   NORMALIZED FREE ENERGY PREDICTED BY IDOCK:   -6.24 KCAL/MOL
REMARK 922        TOTAL FREE ENERGY PREDICTED BY IDOCK:   -8.98 KCAL/MOL
REMARK 923 INTER-LIGAND FREE ENERGY PREDICTED BY IDOCK:   -8.18 KCAL/MOL
REMARK 924 INTRA-LIGAND FREE ENERGY PREDICTED BY IDOCK:   -0.79 KCAL/MOL
REMARK 927      BINDING AFFINITY PREDICTED BY RF-SCORE:    0.00 PKD
ROOT
HETATM    1  O   UNL     1     -12.130  12.333  66.359  1.00  0.00    -0.623 OA 
HETATM    2  C   UNL     1     -11.670  13.444  66.136  1.00  0.00    -0.368 C  
HETATM    3  N   UNL     1     -11.134  13.846  64.949  1.00  0.00    -0.350 NA 
HETATM    4  O   UNL     1     -10.609  15.151  64.985  1.00  0.00    -0.393 OA 
HETATM    5  C   UNL     1     -10.814  15.628  66.322  1.00  0.00    -0.262 C  
HETATM    6  C   UNL     1     -11.638  14.602  67.091  1.00  0.00    -0.378 C  
ENDROOT
BRANCH   6   7
HETATM    7  N   UNL     1     -10.960  14.267  68.359  1.00  0.00    -0.245 NA 
HETATM    8  H   UNL     1      -9.975  14.010  68.411  1.00  0.00     0.000 HD 
BRANCH   7   9
HETATM    9  C   UNL     1     -11.727  14.328  69.395  1.00  0.00    -0.316 C  
BRANCH   9  10
HETATM   10  C   UNL     1     -12.031  13.126  70.191  1.00  0.00    -0.381 A  
HETATM   11  C   UNL     1     -11.601  11.892  69.699  1.00  0.00    -0.387 A  
HETATM   12  C   UNL     1     -12.038  10.717  70.313  1.00  0.00    -0.433 A  
HETATM   13  C   UNL     1     -12.888  10.783  71.422  1.00  0.00    -0.557 A  
HETATM   14  C   UNL     1     -13.262  12.018  71.956  1.00  0.00    -0.481 A  
HETATM   15  C   UNL     1     -12.836  13.196  71.334  1.00  0.00    -0.401 A  
BRANCH  13  16
HETATM   16  C   UNL     1     -13.468   9.545  71.980  1.00  0.00    -0.443 C  
BRANCH  16  17
HETATM   17  N   UNL     1     -12.886   8.919  72.948  1.00  0.00    -0.587 NA 
HETATM   18  H   UNL     1     -12.893   9.266  73.907  1.00  0.00     0.000 HD 
BRANCH  17  19
HETATM   19  C   UNL     1     -12.213   7.669  72.565  1.00  0.00    -0.099 C  
HETATM   20  C   UNL     1     -12.789   7.148  71.259  1.00  0.00    -0.349 C  
HETATM   21  O   UNL     1     -11.742   6.406  70.619  1.00  0.00    -0.373 OA 
HETATM   22  N   UNL     1     -10.539   6.963  71.120  1.00  0.00    -0.220 NA 
HETATM   23  C   UNL     1     -10.781   7.850  72.143  1.00  0.00    -0.257 C  
HETATM   24  O   UNL     1      -9.946   8.588  72.644  1.00  0.00    -0.278 OA 
ENDBRANCH  17  19
ENDBRANCH  16  17
ENDBRANCH  13  16
ENDBRANCH   9  10
ENDBRANCH   7   9
ENDBRANCH   6   7
TORSDOF 6
ENDMDL
MODEL       23
REMARK 921   NORMALIZED FREE ENERGY PREDICTED BY IDOCK:   -6.24 KCAL/MOL
REMARK 922        TOTAL FREE ENERGY PREDICTED BY IDOCK:   -8.97 KCAL/MOL
REMARK 923 INTER-LIGAND FREE ENERGY PREDICTED BY IDOCK:   -8.53 KCAL/MOL
REMARK 924 INTRA-LIGAND FREE ENERGY PREDICTED BY IDOCK:   -0.44 KCAL/MOL
REMARK 927      BINDING AFFINITY PREDICTED BY RF-SCORE:    0.00 PKD
ROOT
HETATM    1  O   UNL     1     -11.627   6.268  69.662  1.00  0.00    -0.430 OA 
HETATM    2  C   UNL     1     -11.460   6.559  70.839  1.00  0.00    -0.351 C  
HETATM    3  N   UNL     1     -11.224   5.663  71.840  1.00  0.00    -0.223 NA 
HETATM    4  O   UNL     1     -11.145   6.257  73.114  1.00  0.00    -0.243 OA 
HETATM    5  C   UNL     1     -11.362   7.660  72.915  1.00  0.00    -0.341 C  
HETATM    6  C   UNL     1     -11.435   7.943  71.419  1.00  0.00    -0.260 C  
ENDROOT
BRANCH   6   7
HETATM    7  N   UNL     1     -12.663   8.703  71.114  1.00  0.00    -0.483 NA 
HETATM    8  H   UNL     1     -13.364   8.382  70.446  1.00  0.00     0.000 HD 
BRANCH   7   9
HETATM    9  C   UNL     1     -12.769   9.810  71.767  1.00  0.00    -0.426 C  
BRANCH   9  10
HETATM   10  C   UNL     1     -12.686  11.113  71.081  1.00  0.00    -0.510 A  
HETATM   11  C   UNL     1     -12.094  11.147  69.816  1.00  0.00    -0.414 A  
HETATM   12  C   UNL     1     -11.815  12.378  69.222  1.00  0.00    -0.361 A  
HETATM   13  C   UNL     1     -12.143  13.565  69.885  1.00  0.00    -0.408 A  
HETATM   14  C   UNL     1     -12.798  13.530  71.119  1.00  0.00    -0.387 A  
HETATM   15  C   UNL     1     -13.066  12.297  71.723  1.00  0.00    -0.449 A  
BRANCH  13  16
HETATM   16  C   UNL     1     -11.717  14.864  69.326  1.00  0.00    -0.316 C  
BRANCH  16  17
HETATM   17  N   UNL     1     -11.992  15.182  68.106  1.00  0.00    -0.521 NA 
HETATM   18  H   UNL     1     -12.949  15.255  67.761  1.00  0.00     0.000 HD 
BRANCH  17  19
HETATM   19  C   UNL     1     -10.823  15.430  67.249  1.00  0.00    -0.316 C  
HETATM   20  C   UNL     1     -11.137  15.037  65.815  1.00  0.00    -0.346 C  
HETATM   21  O   UNL     1     -10.323  15.868  64.976  1.00  0.00    -0.508 OA 
HETATM   22  N   UNL     1     -10.074  17.033  65.745  1.00  0.00    -0.566 NA 
HETATM   23  C   UNL     1     -10.519  16.888  67.038  1.00  0.00    -0.281 C  
HETATM   24  O   UNL     1     -10.576  17.787  67.865  1.00  0.00    -0.386 OA 
ENDBRANCH  17  19
ENDBRANCH  16  17
ENDBRANCH  13  16
ENDBRANCH   9  10
ENDBRANCH   7   9
ENDBRANCH   6   7
TORSDOF 6
ENDMDL
MODEL       24
REMARK 921   NORMALIZED FREE ENERGY PREDICTED BY IDOCK:   -6.24 KCAL/MOL
REMARK 922        TOTAL FREE ENERGY PREDICTED BY IDOCK:   -8.96 KCAL/MOL
REMARK 923 INTER-LIGAND FREE ENERGY PREDICTED BY IDOCK:   -8.22 KCAL/MOL
REMARK 924 INTRA-LIGAND FREE ENERGY PREDICTED BY IDOCK:   -0.74 KCAL/MOL
REMARK 927      BINDING AFFINITY PREDICTED BY RF-SCORE:    0.00 PKD
ROOT
HETATM    1  O   UNL     1     -14.094   7.379  71.214  1.00  0.00    -0.396 OA 
HETATM    2  C   UNL     1     -12.903   7.493  71.471  1.00  0.00    -0.360 C  
HETATM    3  N   UNL     1     -12.384   8.305  72.436  1.00  0.00    -0.350 NA 
HETATM    4  O   UNL     1     -10.977   8.303  72.471  1.00  0.00    -0.338 OA 
HETATM    5  C   UNL     1     -10.552   7.419  71.425  1.00  0.00    -0.214 C  
HETATM    6  C   UNL     1     -11.777   6.742  70.821  1.00  0.00    -0.386 C  
ENDROOT
BRANCH   6   7
HETATM    7  N   UNL     1     -11.765   6.906  69.354  1.00  0.00    -0.567 NA 
HETATM    8  H   UNL     1     -12.615   6.933  68.790  1.00  0.00     0.000 HD 
BRANCH   7   9
HETATM    9  C   UNL     1     -10.583   7.012  68.849  1.00  0.00    -0.215 C  
BRANCH   9  10
HETATM   10  C   UNL     1     -10.250   8.094  67.905  1.00  0.00    -0.274 A  
HETATM   11  C   UNL     1     -10.797   9.358  68.143  1.00  0.00    -0.174 A  
HETATM   12  C   UNL     1     -10.673  10.353  67.172  1.00  0.00    -0.316 A  
HETATM   13  C   UNL     1      -9.991  10.087  65.980  1.00  0.00    -0.334 A  
HETATM   14  C   UNL     1      -9.385   8.845  65.773  1.00  0.00    -0.286 A  
HETATM   15  C   UNL     1      -9.519   7.842  66.738  1.00  0.00    -0.251 A  
BRANCH  13  16
HETATM   16  C   UNL     1      -9.986  11.088  64.895  1.00  0.00    -0.288 C  
BRANCH  16  17
HETATM   17  N   UNL     1      -9.711  12.326  65.137  1.00  0.00    -0.441 NA 
HETATM   18  H   UNL     1      -8.878  12.612  65.652  1.00  0.00     0.000 HD 
BRANCH  17  19
HETATM   19  C   UNL     1     -10.687  13.294  64.614  1.00  0.00    -0.400 C  
HETATM   20  C   UNL     1     -11.510  12.655  63.508  1.00  0.00    -0.491 C  
HETATM   21  O   UNL     1     -12.784  13.314  63.516  1.00  0.00    -0.708 OA 
HETATM   22  N   UNL     1     -12.944  13.787  64.841  1.00  0.00    -0.722 NA 
HETATM   23  C   UNL     1     -11.794  13.626  65.577  1.00  0.00    -0.362 C  
HETATM   24  O   UNL     1     -11.702  13.799  66.784  1.00  0.00    -0.349 OA 
ENDBRANCH  17  19
ENDBRANCH  16  17
ENDBRANCH  13  16
ENDBRANCH   9  10
ENDBRANCH   7   9
ENDBRANCH   6   7
TORSDOF 6
ENDMDL
MODEL       25
REMARK 921   NORMALIZED FREE ENERGY PREDICTED BY IDOCK:   -6.19 KCAL/MOL
REMARK 922        TOTAL FREE ENERGY PREDICTED BY IDOCK:   -8.90 KCAL/MOL
REMARK 923 INTER-LIGAND FREE ENERGY PREDICTED BY IDOCK:   -8.29 KCAL/MOL
REMARK 924 INTRA-LIGAND FREE ENERGY PREDICTED BY IDOCK:   -0.61 KCAL/MOL
REMARK 927      BINDING AFFINITY PREDICTED BY RF-SCORE:    0.00 PKD
ROOT
HETATM    1  O   UNL     1      -9.558   7.580  73.778  1.00  0.00    -0.274 OA 
HETATM    2  C   UNL     1      -8.990   8.103  72.830  1.00  0.00    -0.246 C  
HETATM    3  N   UNL     1      -7.671   8.448  72.801  1.00  0.00    -0.285 NA 
HETATM    4  O   UNL     1      -7.290   9.104  71.615  1.00  0.00    -0.315 OA 
HETATM    5  C   UNL     1      -8.475   9.202  70.814  1.00  0.00    -0.212 C  
HETATM    6  C   UNL     1      -9.599   8.433  71.498  1.00  0.00    -0.208 C  
ENDROOT
BRANCH   6   7
HETATM    7  N   UNL     1     -10.790   9.297  71.623  1.00  0.00    -0.372 NA 
HETATM    8  H   UNL     1     -10.983   9.861  72.451  1.00  0.00     0.000 HD 
BRANCH   7   9
HETATM    9  C   UNL     1     -11.564   9.274  70.591  1.00  0.00    -0.252 C  
BRANCH   9  10
HETATM   10  C   UNL     1     -11.747  10.469  69.748  1.00  0.00    -0.354 A  
HETATM   11  C   UNL     1     -11.442  10.361  68.389  1.00  0.00    -0.227 A  
HETATM   12  C   UNL     1     -11.409  11.511  67.599  1.00  0.00    -0.358 A  
HETATM   13  C   UNL     1     -11.695  12.757  68.166  1.00  0.00    -0.392 A  
HETATM   14  C   UNL     1     -12.068  12.856  69.509  1.00  0.00    -0.274 A  
HETATM   15  C   UNL     1     -12.089  11.707  70.305  1.00  0.00    -0.443 A  
BRANCH  13  16
HETATM   16  C   UNL     1     -11.518  13.988  67.369  1.00  0.00    -0.348 C  
BRANCH  16  17
HETATM   17  N   UNL     1     -10.452  14.173  66.664  1.00  0.00    -0.276 NA 
HETATM   18  H   UNL     1      -9.514  14.049  67.046  1.00  0.00     0.000 HD 
BRANCH  17  19
HETATM   19  C   UNL     1     -10.690  14.576  65.270  1.00  0.00    -0.376 C  
HETATM   20  C   UNL     1     -12.150  14.360  64.909  1.00  0.00    -0.436 C  
HETATM   21  O   UNL     1     -12.466  15.324  63.895  1.00  0.00    -0.737 OA 
HETATM   22  N   UNL     1     -11.553  16.387  64.103  1.00  0.00    -1.029 NA 
HETATM   23  C   UNL     1     -10.601  16.059  65.039  1.00  0.00    -0.316 C  
HETATM   24  O   UNL     1      -9.794  16.840  65.523  1.00  0.00    -0.564 OA 
ENDBRANCH  17  19
ENDBRANCH  16  17
ENDBRANCH  13  16
ENDBRANCH   9  10
ENDBRANCH   7   9
ENDBRANCH   6   7
TORSDOF 6
ENDMDL
MODEL       26
REMARK 921   NORMALIZED FREE ENERGY PREDICTED BY IDOCK:   -6.18 KCAL/MOL
REMARK 922        TOTAL FREE ENERGY PREDICTED BY IDOCK:   -8.89 KCAL/MOL
REMARK 923 INTER-LIGAND FREE ENERGY PREDICTED BY IDOCK:   -8.58 KCAL/MOL
REMARK 924 INTRA-LIGAND FREE ENERGY PREDICTED BY IDOCK:   -0.31 KCAL/MOL
REMARK 927      BINDING AFFINITY PREDICTED BY RF-SCORE:    0.00 PKD
ROOT
HETATM    1  O   UNL     1     -11.302   6.424  70.780  1.00  0.00    -0.311 OA 
HETATM    2  C   UNL     1     -12.053   7.247  71.285  1.00  0.00    -0.338 C  
HETATM    3  N   UNL     1     -13.395   7.077  71.462  1.00  0.00    -0.343 NA 
HETATM    4  O   UNL     1     -14.036   8.209  71.999  1.00  0.00    -0.357 OA 
HETATM    5  C   UNL     1     -13.016   9.203  72.171  1.00  0.00    -0.425 C  
HETATM    6  C   UNL     1     -11.661   8.580  71.852  1.00  0.00    -0.341 C  
ENDROOT
BRANCH   6   7
HETATM    7  N   UNL     1     -10.945   9.419  70.871  1.00  0.00    -0.291 NA 
HETATM    8  H   UNL     1     -10.047   9.156  70.465  1.00  0.00     0.000 HD 
BRANCH   7   9
HETATM    9  C   UNL     1     -11.557  10.515  70.573  1.00  0.00    -0.350 C  
BRANCH   9  10
HETATM   10  C   UNL     1     -11.382  11.155  69.257  1.00  0.00    -0.349 A  
HETATM   11  C   UNL     1     -11.809  12.477  69.113  1.00  0.00    -0.348 A  
HETATM   12  C   UNL     1     -11.847  13.051  67.841  1.00  0.00    -0.389 A  
HETATM   13  C   UNL     1     -11.444  12.309  66.727  1.00  0.00    -0.421 A  
HETATM   14  C   UNL     1     -10.951  11.011  66.880  1.00  0.00    -0.311 A  
HETATM   15  C   UNL     1     -10.925  10.428  68.151  1.00  0.00    -0.334 A  
BRANCH  13  16
HETATM   16  C   UNL     1     -11.621  12.863  65.369  1.00  0.00    -0.350 C  
BRANCH  16  17
HETATM   17  N   UNL     1     -10.813  13.757  64.908  1.00  0.00    -0.367 NA 
HETATM   18  H   UNL     1     -10.125  13.552  64.183  1.00  0.00     0.000 HD 
BRANCH  17  19
HETATM   19  C   UNL     1     -10.957  15.094  65.505  1.00  0.00    -0.365 C  
HETATM   20  C   UNL     1      -9.589  15.726  65.697  1.00  0.00    -0.264 C  
HETATM   21  O   UNL     1      -9.781  17.145  65.619  1.00  0.00    -0.545 OA 
HETATM   22  N   UNL     1     -10.945  17.314  64.829  1.00  0.00    -0.911 NA 
HETATM   23  C   UNL     1     -11.566  16.113  64.581  1.00  0.00    -0.133 C  
HETATM   24  O   UNL     1     -12.492  15.949  63.800  1.00  0.00    -0.735 OA 
ENDBRANCH  17  19
ENDBRANCH  16  17
ENDBRANCH  13  16
ENDBRANCH   9  10
ENDBRANCH   7   9
ENDBRANCH   6   7
TORSDOF 6
ENDMDL
MODEL       27
REMARK 921   NORMALIZED FREE ENERGY PREDICTED BY IDOCK:   -6.18 KCAL/MOL
REMARK 922        TOTAL FREE ENERGY PREDICTED BY IDOCK:   -8.89 KCAL/MOL
REMARK 923 INTER-LIGAND FREE ENERGY PREDICTED BY IDOCK:   -8.10 KCAL/MOL
REMARK 924 INTRA-LIGAND FREE ENERGY PREDICTED BY IDOCK:   -0.78 KCAL/MOL
REMARK 927      BINDING AFFINITY PREDICTED BY RF-SCORE:    0.00 PKD
ROOT
HETATM    1  O   UNL     1     -13.901   7.823  71.322  1.00  0.00    -0.303 OA 
HETATM    2  C   UNL     1     -12.739   7.709  71.687  1.00  0.00    -0.343 C  
HETATM    3  N   UNL     1     -12.152   8.447  72.672  1.00  0.00    -0.345 NA 
HETATM    4  O   UNL     1     -10.783   8.167  72.841  1.00  0.00    -0.352 OA 
HETATM    5  C   UNL     1     -10.457   7.165  71.868  1.00  0.00    -0.197 C  
HETATM    6  C   UNL     1     -11.737   6.718  71.171  1.00  0.00    -0.345 C  
ENDROOT
BRANCH   6   7
HETATM    7  N   UNL     1     -11.564   6.803  69.707  1.00  0.00    -0.606 NA 
HETATM    8  H   UNL     1     -12.270   6.483  69.045  1.00  0.00     0.000 HD 
BRANCH   7   9
HETATM    9  C   UNL     1     -10.440   7.319  69.342  1.00  0.00    -0.216 C  
BRANCH   9  10
HETATM   10  C   UNL     1     -10.391   8.547  68.529  1.00  0.00    -0.230 A  
HETATM   11  C   UNL     1     -10.884   9.725  69.098  1.00  0.00    -0.231 A  
HETATM   12  C   UNL     1     -11.042  10.858  68.299  1.00  0.00    -0.324 A  
HETATM   13  C   UNL     1     -10.692  10.815  66.946  1.00  0.00    -0.309 A  
HETATM   14  C   UNL     1     -10.134   9.658  66.395  1.00  0.00    -0.317 A  
HETATM   15  C   UNL     1      -9.988   8.517  67.189  1.00  0.00    -0.304 A  
BRANCH  13  16
HETATM   16  C   UNL     1     -10.995  11.964  66.069  1.00  0.00    -0.309 C  
BRANCH  16  17
HETATM   17  N   UNL     1     -12.147  12.544  66.111  1.00  0.00    -0.615 NA 
HETATM   18  H   UNL     1     -13.020  12.024  66.204  1.00  0.00     0.000 HD 
BRANCH  17  19
HETATM   19  C   UNL     1     -12.109  14.011  66.016  1.00  0.00    -0.439 C  
HETATM   20  C   UNL     1     -10.764  14.528  66.497  1.00  0.00    -0.312 C  
HETATM   21  O   UNL     1     -10.524  15.756  65.795  1.00  0.00    -0.324 OA 
HETATM   22  N   UNL     1     -11.269  15.644  64.596  1.00  0.00    -0.419 NA 
HETATM   23  C   UNL     1     -12.077  14.531  64.605  1.00  0.00    -0.473 C  
HETATM   24  O   UNL     1     -12.701  14.109  63.642  1.00  0.00    -0.790 OA 
ENDBRANCH  17  19
ENDBRANCH  16  17
ENDBRANCH  13  16
ENDBRANCH   9  10
ENDBRANCH   7   9
ENDBRANCH   6   7
TORSDOF 6
ENDMDL
MODEL       28
REMARK 921   NORMALIZED FREE ENERGY PREDICTED BY IDOCK:   -6.17 KCAL/MOL
REMARK 922        TOTAL FREE ENERGY PREDICTED BY IDOCK:   -8.88 KCAL/MOL
REMARK 923 INTER-LIGAND FREE ENERGY PREDICTED BY IDOCK:   -8.36 KCAL/MOL
REMARK 924 INTRA-LIGAND FREE ENERGY PREDICTED BY IDOCK:   -0.52 KCAL/MOL
REMARK 927      BINDING AFFINITY PREDICTED BY RF-SCORE:    0.00 PKD
ROOT
HETATM    1  O   UNL     1     -10.878  18.058  65.018  1.00  0.00    -0.738 OA 
HETATM    2  C   UNL     1     -10.594  18.733  65.998  1.00  0.00    -0.386 C  
HETATM    3  N   UNL     1      -9.989  19.954  65.958  1.00  0.00    -0.466 NA 
HETATM    4  O   UNL     1      -9.708  20.481  67.233  1.00  0.00    -0.443 OA 
HETATM    5  C   UNL     1     -10.162  19.503  68.179  1.00  0.00    -0.444 C  
HETATM    6  C   UNL     1     -10.885  18.390  67.430  1.00  0.00    -0.268 C  
ENDROOT
BRANCH   6   7
HETATM    7  N   UNL     1     -10.326  17.081  67.820  1.00  0.00    -0.322 NA 
HETATM    8  H   UNL     1      -9.645  16.576  67.252  1.00  0.00     0.000 HD 
BRANCH   7   9
HETATM    9  C   UNL     1     -10.774  16.633  68.943  1.00  0.00    -0.337 C  
BRANCH   9  10
HETATM   10  C   UNL     1     -11.290  15.257  69.066  1.00  0.00    -0.311 A  
HETATM   11  C   UNL     1     -11.929  14.905  70.257  1.00  0.00    -0.365 A  
HETATM   12  C   UNL     1     -12.252  13.568  70.493  1.00  0.00    -0.433 A  
HETATM   13  C   UNL     1     -11.949  12.595  69.534  1.00  0.00    -0.332 A  
HETATM   14  C   UNL     1     -11.373  12.959  68.314  1.00  0.00    -0.326 A  
HETATM   15  C   UNL     1     -11.037  14.296  68.081  1.00  0.00    -0.275 A  
BRANCH  13  16
HETATM   16  C   UNL     1     -12.155  11.166  69.843  1.00  0.00    -0.344 C  
BRANCH  16  17
HETATM   17  N   UNL     1     -11.248  10.484  70.458  1.00  0.00    -0.402 NA 
HETATM   18  H   UNL     1     -10.262  10.522  70.196  1.00  0.00     0.000 HD 
BRANCH  17  19
HETATM   19  C   UNL     1     -11.739   9.648  71.563  1.00  0.00    -0.400 C  
HETATM   20  C   UNL     1     -13.156  10.055  71.931  1.00  0.00    -0.460 C  
HETATM   21  O   UNL     1     -13.793   8.883  72.460  1.00  0.00    -0.456 OA 
HETATM   22  N   UNL     1     -13.102   7.794  71.873  1.00  0.00    -0.300 NA 
HETATM   23  C   UNL     1     -11.991   8.215  71.180  1.00  0.00    -0.273 C  
HETATM   24  O   UNL     1     -11.310   7.510  70.450  1.00  0.00    -0.275 OA 
ENDBRANCH  17  19
ENDBRANCH  16  17
ENDBRANCH  13  16
ENDBRANCH   9  10
ENDBRANCH   7   9
ENDBRANCH   6   7
TORSDOF 6
ENDMDL
MODEL       29
REMARK 921   NORMALIZED FREE ENERGY PREDICTED BY IDOCK:   -6.17 KCAL/MOL
REMARK 922        TOTAL FREE ENERGY PREDICTED BY IDOCK:   -8.87 KCAL/MOL
REMARK 923 INTER-LIGAND FREE ENERGY PREDICTED BY IDOCK:   -8.44 KCAL/MOL
REMARK 924 INTRA-LIGAND FREE ENERGY PREDICTED BY IDOCK:   -0.43 KCAL/MOL
REMARK 927      BINDING AFFINITY PREDICTED BY RF-SCORE:    0.00 PKD
ROOT
HETATM    1  O   UNL     1     -10.890   8.689  72.124  1.00  0.00    -0.332 OA 
HETATM    2  C   UNL     1     -12.072   8.395  72.008  1.00  0.00    -0.356 C  
HETATM    3  N   UNL     1     -12.546   7.140  71.764  1.00  0.00    -0.348 NA 
HETATM    4  O   UNL     1     -13.943   7.093  71.600  1.00  0.00    -0.380 OA 
HETATM    5  C   UNL     1     -14.408   8.442  71.738  1.00  0.00    -0.472 C  
HETATM    6  C   UNL     1     -13.239   9.329  72.150  1.00  0.00    -0.461 C  
ENDROOT
BRANCH   6   7
HETATM    7  N   UNL     1     -13.146  10.487  71.240  1.00  0.00    -0.390 NA 
HETATM    8  H   UNL     1     -13.126  10.396  70.224  1.00  0.00     0.000 HD 
BRANCH   7   9
HETATM    9  C   UNL     1     -13.092  11.625  71.845  1.00  0.00    -0.385 C  
BRANCH   9  10
HETATM   10  C   UNL     1     -12.713  12.855  71.127  1.00  0.00    -0.366 A  
HETATM   11  C   UNL     1     -12.018  12.718  69.923  1.00  0.00    -0.368 A  
HETATM   12  C   UNL     1     -11.467  13.848  69.316  1.00  0.00    -0.348 A  
HETATM   13  C   UNL     1     -11.627  15.106  69.905  1.00  0.00    -0.329 A  
HETATM   14  C   UNL     1     -12.382  15.252  71.072  1.00  0.00    -0.426 A  
HETATM   15  C   UNL     1     -12.923  14.120  71.689  1.00  0.00    -0.423 A  
BRANCH  13  16
HETATM   16  C   UNL     1     -10.923  16.278  69.345  1.00  0.00    -0.337 C  
BRANCH  16  17
HETATM   17  N   UNL     1     -11.165  16.683  68.143  1.00  0.00    -0.287 NA 
HETATM   18  H   UNL     1     -11.826  16.209  67.527  1.00  0.00     0.000 HD 
BRANCH  17  19
HETATM   19  C   UNL     1     -10.415  17.878  67.727  1.00  0.00    -0.400 C  
HETATM   20  C   UNL     1      -9.021  17.853  68.331  1.00  0.00    -0.282 C  
HETATM   21  O   UNL     1      -8.173  18.579  67.429  1.00  0.00    -0.248 OA 
HETATM   22  N   UNL     1      -8.802  18.467  66.165  1.00  0.00    -0.494 NA 
HETATM   23  C   UNL     1     -10.047  17.891  66.268  1.00  0.00    -0.351 C  
HETATM   24  O   UNL     1     -10.735  17.532  65.325  1.00  0.00    -0.656 OA 
ENDBRANCH  17  19
ENDBRANCH  16  17
ENDBRANCH  13  16
ENDBRANCH   9  10
ENDBRANCH   7   9
ENDBRANCH   6   7
TORSDOF 6
ENDMDL
MODEL       30
REMARK 921   NORMALIZED FREE ENERGY PREDICTED BY IDOCK:   -6.15 KCAL/MOL
REMARK 922        TOTAL FREE ENERGY PREDICTED BY IDOCK:   -8.85 KCAL/MOL
REMARK 923 INTER-LIGAND FREE ENERGY PREDICTED BY IDOCK:   -8.32 KCAL/MOL
REMARK 924 INTRA-LIGAND FREE ENERGY PREDICTED BY IDOCK:   -0.53 KCAL/MOL
REMARK 927      BINDING AFFINITY PREDICTED BY RF-SCORE:    0.00 PKD
ROOT
HETATM    1  O   UNL     1      -8.367  19.472  65.716  1.00  0.00    -0.420 OA 
HETATM    2  C   UNL     1      -9.110  18.976  66.551  1.00  0.00    -0.334 C  
HETATM    3  N   UNL     1      -9.100  19.272  67.882  1.00  0.00    -0.305 NA 
HETATM    4  O   UNL     1     -10.009  18.503  68.633  1.00  0.00    -0.359 OA 
HETATM    5  C   UNL     1     -10.654  17.623  67.702  1.00  0.00    -0.362 C  
HETATM    6  C   UNL     1     -10.207  17.985  66.290  1.00  0.00    -0.381 C  
ENDROOT
BRANCH   6   7
HETATM    7  N   UNL     1      -9.720  16.777  65.596  1.00  0.00    -0.553 NA 
HETATM    8  H   UNL     1      -8.734  16.611  65.395  1.00  0.00     0.000 HD 
BRANCH   7   9
HETATM    9  C   UNL     1     -10.654  15.951  65.265  1.00  0.00    -0.419 C  
BRANCH   9  10
HETATM   10  C   UNL     1     -10.689  14.581  65.807  1.00  0.00    -0.320 A  
HETATM   11  C   UNL     1     -11.851  13.831  65.610  1.00  0.00    -0.383 A  
HETATM   12  C   UNL     1     -12.003  12.613  66.274  1.00  0.00    -0.439 A  
HETATM   13  C   UNL     1     -10.990  12.145  67.117  1.00  0.00    -0.316 A  
HETATM   14  C   UNL     1      -9.799  12.862  67.260  1.00  0.00    -0.218 A  
HETATM   15  C   UNL     1      -9.650  14.089  66.606  1.00  0.00    -0.299 A  
BRANCH  13  16
HETATM   16  C   UNL     1     -11.210  10.933  67.932  1.00  0.00    -0.321 C  
BRANCH  16  17
HETATM   17  N   UNL     1     -12.201  10.861  68.757  1.00  0.00    -0.793 NA 
HETATM   18  H   UNL     1     -13.098  10.447  68.500  1.00  0.00     0.000 HD 
BRANCH  17  19
HETATM   19  C   UNL     1     -11.942  11.418  70.093  1.00  0.00    -0.377 C  
HETATM   20  C   UNL     1     -12.353  12.880  70.134  1.00  0.00    -0.179 C  
HETATM   21  O   UNL     1     -12.718  13.163  71.492  1.00  0.00    -0.338 OA 
HETATM   22  N   UNL     1     -13.118  11.915  72.031  1.00  0.00    -0.424 NA 
HETATM   23  C   UNL     1     -12.849  10.881  71.166  1.00  0.00    -0.409 C  
HETATM   24  O   UNL     1     -13.233   9.730  71.307  1.00  0.00    -0.372 OA 
ENDBRANCH  17  19
ENDBRANCH  16  17
ENDBRANCH  13  16
ENDBRANCH   9  10
ENDBRANCH   7   9
ENDBRANCH   6   7
TORSDOF 6
ENDMDL
MODEL       31
REMARK 921   NORMALIZED FREE ENERGY PREDICTED BY IDOCK:   -6.13 KCAL/MOL
REMARK 922        TOTAL FREE ENERGY PREDICTED BY IDOCK:   -8.82 KCAL/MOL
REMARK 923 INTER-LIGAND FREE ENERGY PREDICTED BY IDOCK:   -8.12 KCAL/MOL
REMARK 924 INTRA-LIGAND FREE ENERGY PREDICTED BY IDOCK:   -0.70 KCAL/MOL
REMARK 927      BINDING AFFINITY PREDICTED BY RF-SCORE:    0.00 PKD
ROOT
HETATM    1  O   UNL     1     -11.880  14.379  66.390  1.00  0.00    -0.384 OA 
HETATM    2  C   UNL     1     -11.986  13.670  65.399  1.00  0.00    -0.378 C  
HETATM    3  N   UNL     1     -13.160  13.173  64.914  1.00  0.00    -0.707 NA 
HETATM    4  O   UNL     1     -12.992  12.323  63.805  1.00  0.00    -0.766 OA 
HETATM    5  C   UNL     1     -11.581  12.257  63.561  1.00  0.00    -0.486 C  
HETATM    6  C   UNL     1     -10.873  13.237  64.490  1.00  0.00    -0.394 C  
ENDROOT
BRANCH   6   7
HETATM    7  N   UNL     1      -9.792  12.543  65.217  1.00  0.00    -0.432 NA 
HETATM    8  H   UNL     1      -9.183  13.011  65.888  1.00  0.00     0.000 HD 
BRANCH   7   9
HETATM    9  C   UNL     1      -9.685  11.291  64.926  1.00  0.00    -0.256 C  
BRANCH   9  10
HETATM   10  C   UNL     1     -10.051  10.247  65.900  1.00  0.00    -0.319 A  
HETATM   11  C   UNL     1     -10.697  10.647  67.073  1.00  0.00    -0.317 A  
HETATM   12  C   UNL     1     -10.880   9.725  68.104  1.00  0.00    -0.264 A  
HETATM   13  C   UNL     1     -10.433   8.409  67.954  1.00  0.00    -0.255 A  
HETATM   14  C   UNL     1      -9.849   7.992  66.754  1.00  0.00    -0.327 A  
HETATM   15  C   UNL     1      -9.653   8.917  65.724  1.00  0.00    -0.245 A  
BRANCH  13  16
HETATM   16  C   UNL     1     -10.493   7.474  69.095  1.00  0.00    -0.215 C  
BRANCH  16  17
HETATM   17  N   UNL     1     -11.614   6.951  69.465  1.00  0.00    -0.594 NA 
HETATM   18  H   UNL     1     -12.360   6.732  68.805  1.00  0.00     0.000 HD 
BRANCH  17  19
HETATM   19  C   UNL     1     -11.735   6.694  70.908  1.00  0.00    -0.375 C  
HETATM   20  C   UNL     1     -10.420   6.164  71.453  1.00  0.00    -0.225 C  
HETATM   21  O   UNL     1     -10.360   6.562  72.830  1.00  0.00    -0.192 OA 
HETATM   22  N   UNL     1     -11.173   7.719  72.913  1.00  0.00    -0.396 NA 
HETATM   23  C   UNL     1     -11.859   7.940  71.742  1.00  0.00    -0.293 C  
HETATM   24  O   UNL     1     -12.502   8.946  71.484  1.00  0.00    -0.302 OA 
ENDBRANCH  17  19
ENDBRANCH  16  17
ENDBRANCH  13  16
ENDBRANCH   9  10
ENDBRANCH   7   9
ENDBRANCH   6   7
TORSDOF 6
ENDMDL
MODEL       32
REMARK 921   NORMALIZED FREE ENERGY PREDICTED BY IDOCK:   -6.12 KCAL/MOL
REMARK 922        TOTAL FREE ENERGY PREDICTED BY IDOCK:   -8.81 KCAL/MOL
REMARK 923 INTER-LIGAND FREE ENERGY PREDICTED BY IDOCK:   -8.25 KCAL/MOL
REMARK 924 INTRA-LIGAND FREE ENERGY PREDICTED BY IDOCK:   -0.56 KCAL/MOL
REMARK 927      BINDING AFFINITY PREDICTED BY RF-SCORE:    0.00 PKD
ROOT
HETATM    1  O   UNL     1     -11.838  16.589  73.027  1.00  0.00    -0.507 OA 
HETATM    2  C   UNL     1     -12.483  15.631  72.622  1.00  0.00    -0.428 C  
HETATM    3  N   UNL     1     -13.227  14.801  73.407  1.00  0.00    -0.551 NA 
HETATM    4  O   UNL     1     -13.808  13.733  72.697  1.00  0.00    -0.691 OA 
HETATM    5  C   UNL     1     -13.388  13.883  71.334  1.00  0.00    -0.293 C  
HETATM    6  C   UNL     1     -12.628  15.197  71.193  1.00  0.00    -0.367 C  
ENDROOT
BRANCH   6   7
HETATM    7  N   UNL     1     -11.325  14.952  70.544  1.00  0.00    -0.371 NA 
HETATM    8  H   UNL     1     -10.665  14.248  70.872  1.00  0.00     0.000 HD 
BRANCH   7   9
HETATM    9  C   UNL     1     -11.097  15.710  69.525  1.00  0.00    -0.298 C  
BRANCH   9  10
HETATM   10  C   UNL     1     -11.262  15.209  68.149  1.00  0.00    -0.326 A  
HETATM   11  C   UNL     1     -11.857  13.957  67.978  1.00  0.00    -0.411 A  
HETATM   12  C   UNL     1     -11.851  13.360  66.716  1.00  0.00    -0.452 A  
HETATM   13  C   UNL     1     -11.266  14.023  65.632  1.00  0.00    -0.310 A  
HETATM   14  C   UNL     1     -10.734  15.305  65.789  1.00  0.00    -0.357 A  
HETATM   15  C   UNL     1     -10.726  15.899  67.055  1.00  0.00    -0.292 A  
BRANCH  13  16
HETATM   16  C   UNL     1     -11.128  13.333  64.334  1.00  0.00    -0.384 C  
BRANCH  16  17
HETATM   17  N   UNL     1     -10.016  12.769  63.999  1.00  0.00    -0.650 NA 
HETATM   18  H   UNL     1      -9.126  13.267  64.003  1.00  0.00     0.000 HD 
BRANCH  17  19
HETATM   19  C   UNL     1     -10.128  11.355  63.609  1.00  0.00    -0.377 C  
HETATM   20  C   UNL     1      -9.182  11.057  62.458  1.00  0.00    -0.299 C  
HETATM   21  O   UNL     1      -8.830   9.671  62.568  1.00  0.00    -0.212 OA 
HETATM   22  N   UNL     1      -8.988   9.361  63.942  1.00  0.00    -0.186 NA 
HETATM   23  C   UNL     1      -9.578  10.395  64.629  1.00  0.00    -0.300 C  
HETATM   24  O   UNL     1      -9.686  10.459  65.844  1.00  0.00    -0.192 OA 
ENDBRANCH  17  19
ENDBRANCH  16  17
ENDBRANCH  13  16
ENDBRANCH   9  10
ENDBRANCH   7   9
ENDBRANCH   6   7
TORSDOF 6
ENDMDL
MODEL       33
REMARK 921   NORMALIZED FREE ENERGY PREDICTED BY IDOCK:   -6.10 KCAL/MOL
REMARK 922        TOTAL FREE ENERGY PREDICTED BY IDOCK:   -8.78 KCAL/MOL
REMARK 923 INTER-LIGAND FREE ENERGY PREDICTED BY IDOCK:   -8.12 KCAL/MOL
REMARK 924 INTRA-LIGAND FREE ENERGY PREDICTED BY IDOCK:   -0.67 KCAL/MOL
REMARK 927      BINDING AFFINITY PREDICTED BY RF-SCORE:    0.00 PKD
ROOT
HETATM    1  O   UNL     1     -13.271  14.129  65.206  1.00  0.00    -0.760 OA 
HETATM    2  C   UNL     1     -12.472  13.424  64.606  1.00  0.00    -0.331 C  
HETATM    3  N   UNL     1     -12.788  12.282  63.931  1.00  0.00    -0.756 NA 
HETATM    4  O   UNL     1     -11.668  11.622  63.392  1.00  0.00    -0.402 OA 
HETATM    5  C   UNL     1     -10.525  12.405  63.764  1.00  0.00    -0.443 C  
HETATM    6  C   UNL     1     -11.002  13.683  64.444  1.00  0.00    -0.366 C  
ENDROOT
BRANCH   6   7
HETATM    7  N   UNL     1     -10.314  13.845  65.740  1.00  0.00    -0.306 NA 
HETATM    8  H   UNL     1     -10.197  14.749  66.198  1.00  0.00     0.000 HD 
BRANCH   7   9
HETATM    9  C   UNL     1      -9.872  12.741  66.240  1.00  0.00    -0.267 C  
BRANCH   9  10
HETATM   10  C   UNL     1     -10.621  12.024  67.288  1.00  0.00    -0.252 A  
HETATM   11  C   UNL     1     -11.126  12.771  68.355  1.00  0.00    -0.293 A  
HETATM   12  C   UNL     1     -11.663  12.111  69.461  1.00  0.00    -0.402 A  
HETATM   13  C   UNL     1     -11.706  10.713  69.489  1.00  0.00    -0.356 A  
HETATM   14  C   UNL     1     -11.265   9.969  68.392  1.00  0.00    -0.187 A  
HETATM   15  C   UNL     1     -10.714  10.627  67.288  1.00  0.00    -0.338 A  
BRANCH  13  16
HETATM   16  C   UNL     1     -12.137  10.013  70.716  1.00  0.00    -0.327 C  
BRANCH  16  17
HETATM   17  N   UNL     1     -11.271   9.589  71.575  1.00  0.00    -0.383 NA 
HETATM   18  H   UNL     1     -10.363  10.035  71.703  1.00  0.00     0.000 HD 
BRANCH  17  19
HETATM   19  C   UNL     1     -11.692   8.415  72.354  1.00  0.00    -0.382 C  
HETATM   20  C   UNL     1     -12.321   7.381  71.437  1.00  0.00    -0.361 C  
HETATM   21  O   UNL     1     -12.089   6.102  72.045  1.00  0.00    -0.318 OA 
HETATM   22  N   UNL     1     -10.926   6.277  72.835  1.00  0.00    -0.253 NA 
HETATM   23  C   UNL     1     -10.549   7.598  72.893  1.00  0.00    -0.354 C  
HETATM   24  O   UNL     1      -9.501   8.009  73.368  1.00  0.00    -0.279 OA 
ENDBRANCH  17  19
ENDBRANCH  16  17
ENDBRANCH  13  16
ENDBRANCH   9  10
ENDBRANCH   7   9
ENDBRANCH   6   7
TORSDOF 6
ENDMDL
MODEL       34
REMARK 921   NORMALIZED FREE ENERGY PREDICTED BY IDOCK:   -6.10 KCAL/MOL
REMARK 922        TOTAL FREE ENERGY PREDICTED BY IDOCK:   -8.78 KCAL/MOL
REMARK 923 INTER-LIGAND FREE ENERGY PREDICTED BY IDOCK:   -8.20 KCAL/MOL
REMARK 924 INTRA-LIGAND FREE ENERGY PREDICTED BY IDOCK:   -0.59 KCAL/MOL
REMARK 927      BINDING AFFINITY PREDICTED BY RF-SCORE:    0.00 PKD
ROOT
HETATM    1  O   UNL     1     -11.593   6.196  69.685  1.00  0.00    -0.407 OA 
HETATM    2  C   UNL     1     -11.398   6.591  70.826  1.00  0.00    -0.342 C  
HETATM    3  N   UNL     1     -11.176   5.787  71.905  1.00  0.00    -0.254 NA 
HETATM    4  O   UNL     1     -11.057   6.496  73.115  1.00  0.00    -0.243 OA 
HETATM    5  C   UNL     1     -11.231   7.881  72.787  1.00  0.00    -0.405 C  
HETATM    6  C   UNL     1     -11.317   8.022  71.272  1.00  0.00    -0.264 C  
ENDROOT
BRANCH   6   7
HETATM    7  N   UNL     1     -12.524   8.792  70.911  1.00  0.00    -0.492 NA 
HETATM    8  H   UNL     1     -13.178   8.494  70.186  1.00  0.00     0.000 HD 
BRANCH   7   9
HETATM    9  C   UNL     1     -12.678   9.876  71.593  1.00  0.00    -0.429 C  
BRANCH   9  10
HETATM   10  C   UNL     1     -12.584  11.201  70.954  1.00  0.00    -0.483 A  
HETATM   11  C   UNL     1     -12.008  11.272  69.683  1.00  0.00    -0.423 A  
HETATM   12  C   UNL     1     -11.718  12.520  69.130  1.00  0.00    -0.375 A  
HETATM   13  C   UNL     1     -12.018  13.687  69.841  1.00  0.00    -0.415 A  
HETATM   14  C   UNL     1     -12.657  13.616  71.081  1.00  0.00    -0.452 A  
HETATM   15  C   UNL     1     -12.936  12.367  71.644  1.00  0.00    -0.409 A  
BRANCH  13  16
HETATM   16  C   UNL     1     -11.580  14.998  69.323  1.00  0.00    -0.315 C  
BRANCH  16  17
HETATM   17  N   UNL     1     -10.660  15.081  68.421  1.00  0.00    -0.234 NA 
HETATM   18  H   UNL     1      -9.752  14.627  68.521  1.00  0.00     0.000 HD 
BRANCH  17  19
HETATM   19  C   UNL     1     -11.019  15.878  67.238  1.00  0.00    -0.234 C  
HETATM   20  C   UNL     1      -9.838  16.733  66.811  1.00  0.00    -0.276 C  
HETATM   21  O   UNL     1      -9.967  16.930  65.396  1.00  0.00    -0.568 OA 
HETATM   22  N   UNL     1     -10.713  15.816  64.938  1.00  0.00    -0.529 NA 
HETATM   23  C   UNL     1     -11.194  15.065  65.984  1.00  0.00    -0.310 C  
HETATM   24  O   UNL     1     -11.729  13.971  65.876  1.00  0.00    -0.341 OA 
ENDBRANCH  17  19
ENDBRANCH  16  17
ENDBRANCH  13  16
ENDBRANCH   9  10
ENDBRANCH   7   9
ENDBRANCH   6   7
TORSDOF 6
ENDMDL
MODEL       35
REMARK 921   NORMALIZED FREE ENERGY PREDICTED BY IDOCK:   -6.07 KCAL/MOL
REMARK 922        TOTAL FREE ENERGY PREDICTED BY IDOCK:   -8.74 KCAL/MOL
REMARK 923 INTER-LIGAND FREE ENERGY PREDICTED BY IDOCK:   -8.19 KCAL/MOL
REMARK 924 INTRA-LIGAND FREE ENERGY PREDICTED BY IDOCK:   -0.55 KCAL/MOL
REMARK 927      BINDING AFFINITY PREDICTED BY RF-SCORE:    0.00 PKD
ROOT
HETATM    1  O   UNL     1      -9.695   9.233  71.819  1.00  0.00    -0.269 OA 
HETATM    2  C   UNL     1     -10.346   8.203  71.717  1.00  0.00    -0.230 C  
HETATM    3  N   UNL     1      -9.837   6.987  71.368  1.00  0.00    -0.177 NA 
HETATM    4  O   UNL     1     -10.817   5.983  71.252  1.00  0.00    -0.251 OA 
HETATM    5  C   UNL     1     -12.072   6.614  71.541  1.00  0.00    -0.355 C  
HETATM    6  C   UNL     1     -11.813   8.046  71.995  1.00  0.00    -0.326 C  
ENDROOT
BRANCH   6   7
HETATM    7  N   UNL     1     -12.638   8.978  71.202  1.00  0.00    -0.458 NA 
HETATM    8  H   UNL     1     -12.956   8.771  70.256  1.00  0.00     0.000 HD 
BRANCH   7   9
HETATM    9  C   UNL     1     -12.921  10.077  71.815  1.00  0.00    -0.458 C  
BRANCH   9  10
HETATM   10  C   UNL     1     -12.769  11.383  71.149  1.00  0.00    -0.479 A  
HETATM   11  C   UNL     1     -12.127  11.411  69.908  1.00  0.00    -0.404 A  
HETATM   12  C   UNL     1     -11.785  12.639  69.340  1.00  0.00    -0.387 A  
HETATM   13  C   UNL     1     -12.098  13.829  70.005  1.00  0.00    -0.416 A  
HETATM   14  C   UNL     1     -12.801  13.802  71.212  1.00  0.00    -0.434 A  
HETATM   15  C   UNL     1     -13.133  12.573  71.790  1.00  0.00    -0.450 A  
BRANCH  13  16
HETATM   16  C   UNL     1     -11.608  15.119  69.478  1.00  0.00    -0.319 C  
BRANCH  16  17
HETATM   17  N   UNL     1     -11.951  15.527  68.302  1.00  0.00    -0.463 NA 
HETATM   18  H   UNL     1     -12.917  15.742  68.057  1.00  0.00     0.000 HD 
BRANCH  17  19
HETATM   19  C   UNL     1     -10.844  15.660  67.343  1.00  0.00    -0.315 C  
HETATM   20  C   UNL     1     -11.244  15.062  66.004  1.00  0.00    -0.310 C  
HETATM   21  O   UNL     1     -10.500  15.771  65.003  1.00  0.00    -0.462 OA 
HETATM   22  N   UNL     1     -10.223  17.035  65.579  1.00  0.00    -0.617 NA 
HETATM   23  C   UNL     1     -10.580  17.075  66.906  1.00  0.00    -0.208 C  
HETATM   24  O   UNL     1     -10.600  18.082  67.598  1.00  0.00    -0.400 OA 
ENDBRANCH  17  19
ENDBRANCH  16  17
ENDBRANCH  13  16
ENDBRANCH   9  10
ENDBRANCH   7   9
ENDBRANCH   6   7
TORSDOF 6
ENDMDL
MODEL       36
REMARK 921   NORMALIZED FREE ENERGY PREDICTED BY IDOCK:   -6.04 KCAL/MOL
REMARK 922        TOTAL FREE ENERGY PREDICTED BY IDOCK:   -8.70 KCAL/MOL
REMARK 923 INTER-LIGAND FREE ENERGY PREDICTED BY IDOCK:   -8.44 KCAL/MOL
REMARK 924 INTRA-LIGAND FREE ENERGY PREDICTED BY IDOCK:   -0.26 KCAL/MOL
REMARK 927      BINDING AFFINITY PREDICTED BY RF-SCORE:    0.00 PKD
ROOT
HETATM    1  O   UNL     1     -11.947  16.317  63.823  1.00  0.00    -0.973 OA 
HETATM    2  C   UNL     1     -11.116  16.149  64.706  1.00  0.00    -0.333 C  
HETATM    3  N   UNL     1     -10.417  17.145  65.322  1.00  0.00    -0.662 NA 
HETATM    4  O   UNL     1      -9.470  16.672  66.250  1.00  0.00    -0.265 OA 
HETATM    5  C   UNL     1      -9.560  15.241  66.219  1.00  0.00    -0.303 C  
HETATM    6  C   UNL     1     -10.727  14.838  65.325  1.00  0.00    -0.390 C  
ENDROOT
BRANCH   6   7
HETATM    7  N   UNL     1     -10.271  13.857  64.321  1.00  0.00    -0.703 NA 
HETATM    8  H   UNL     1      -9.461  14.011  63.721  1.00  0.00     0.000 HD 
BRANCH   7   9
HETATM    9  C   UNL     1     -10.989  12.786  64.271  1.00  0.00    -0.379 C  
BRANCH   9  10
HETATM   10  C   UNL     1     -10.970  11.802  65.368  1.00  0.00    -0.352 A  
HETATM   11  C   UNL     1     -11.644  12.127  66.548  1.00  0.00    -0.425 A  
HETATM   12  C   UNL     1     -11.484  11.319  67.674  1.00  0.00    -0.341 A  
HETATM   13  C   UNL     1     -10.668  10.185  67.612  1.00  0.00    -0.339 A  
HETATM   14  C   UNL     1     -10.050   9.822  66.412  1.00  0.00    -0.313 A  
HETATM   15  C   UNL     1     -10.197  10.638  65.286  1.00  0.00    -0.351 A  
BRANCH  13  16
HETATM   16  C   UNL     1     -10.381   9.414  68.838  1.00  0.00    -0.213 C  
BRANCH  16  17
HETATM   17  N   UNL     1      -9.949  10.001  69.904  1.00  0.00    -0.286 NA 
HETATM   18  H   UNL     1      -9.138  10.620  69.897  1.00  0.00     0.000 HD 
BRANCH  17  19
HETATM   19  C   UNL     1     -10.711   9.710  71.128  1.00  0.00    -0.294 C  
HETATM   20  C   UNL     1     -11.899   8.822  70.800  1.00  0.00    -0.178 C  
HETATM   21  O   UNL     1     -12.173   8.056  71.982  1.00  0.00    -0.303 OA 
HETATM   22  N   UNL     1     -10.937   7.992  72.672  1.00  0.00    -0.362 NA 
HETATM   23  C   UNL     1      -9.993   8.808  72.094  1.00  0.00    -0.289 C  
HETATM   24  O   UNL     1      -8.807   8.825  72.386  1.00  0.00    -0.391 OA 
ENDBRANCH  17  19
ENDBRANCH  16  17
ENDBRANCH  13  16
ENDBRANCH   9  10
ENDBRANCH   7   9
ENDBRANCH   6   7
TORSDOF 6
ENDMDL
MODEL       37
REMARK 921   NORMALIZED FREE ENERGY PREDICTED BY IDOCK:   -6.04 KCAL/MOL
REMARK 922        TOTAL FREE ENERGY PREDICTED BY IDOCK:   -8.70 KCAL/MOL
REMARK 923 INTER-LIGAND FREE ENERGY PREDICTED BY IDOCK:   -8.17 KCAL/MOL
REMARK 924 INTRA-LIGAND FREE ENERGY PREDICTED BY IDOCK:   -0.53 KCAL/MOL
REMARK 927      BINDING AFFINITY PREDICTED BY RF-SCORE:    0.00 PKD
ROOT
HETATM    1  O   UNL     1     -10.553   6.351  74.083  1.00  0.00    -0.283 OA 
HETATM    2  C   UNL     1     -10.796   6.261  72.887  1.00  0.00    -0.256 C  
HETATM    3  N   UNL     1     -10.184   5.398  72.027  1.00  0.00    -0.197 NA 
HETATM    4  O   UNL     1     -10.598   5.552  70.691  1.00  0.00    -0.262 OA 
HETATM    5  C   UNL     1     -11.553   6.622  70.689  1.00  0.00    -0.382 C  
HETATM    6  C   UNL     1     -11.834   7.036  72.129  1.00  0.00    -0.275 C  
ENDROOT
BRANCH   6   7
HETATM    7  N   UNL     1     -11.661   8.495  72.270  1.00  0.00    -0.373 NA 
HETATM    8  H   UNL     1     -12.308   9.084  72.796  1.00  0.00     0.000 HD 
BRANCH   7   9
HETATM    9  C   UNL     1     -10.618   8.960  71.669  1.00  0.00    -0.352 C  
BRANCH   9  10
HETATM   10  C   UNL     1     -10.735   9.993  70.625  1.00  0.00    -0.325 A  
HETATM   11  C   UNL     1     -11.903  10.759  70.594  1.00  0.00    -0.460 A  
HETATM   12  C   UNL     1     -12.142  11.604  69.509  1.00  0.00    -0.336 A  
HETATM   13  C   UNL     1     -11.208  11.691  68.472  1.00  0.00    -0.312 A  
HETATM   14  C   UNL     1     -10.008  10.977  68.537  1.00  0.00    -0.198 A  
HETATM   15  C   UNL     1      -9.773  10.120  69.616  1.00  0.00    -0.250 A  
BRANCH  13  16
HETATM   16  C   UNL     1     -11.525  12.469  67.257  1.00  0.00    -0.353 C  
BRANCH  16  17
HETATM   17  N   UNL     1     -11.730  11.879  66.128  1.00  0.00    -0.496 NA 
HETATM   18  H   UNL     1     -11.314  10.976  65.897  1.00  0.00     0.000 HD 
BRANCH  17  19
HETATM   19  C   UNL     1     -12.608  12.604  65.197  1.00  0.00    -0.386 C  
HETATM   20  C   UNL     1     -12.621  14.084  65.543  1.00  0.00    -0.516 C  
HETATM   21  O   UNL     1     -12.883  14.786  64.319  1.00  0.00    -0.622 OA 
HETATM   22  N   UNL     1     -12.422  13.922  63.295  1.00  0.00    -0.731 NA 
HETATM   23  C   UNL     1     -12.074  12.689  63.793  1.00  0.00    -0.522 C  
HETATM   24  O   UNL     1     -11.500  11.813  63.163  1.00  0.00    -0.290 OA 
ENDBRANCH  17  19
ENDBRANCH  16  17
ENDBRANCH  13  16
ENDBRANCH   9  10
ENDBRANCH   7   9
ENDBRANCH   6   7
TORSDOF 6
ENDMDL
MODEL       38
REMARK 921   NORMALIZED FREE ENERGY PREDICTED BY IDOCK:   -6.04 KCAL/MOL
REMARK 922        TOTAL FREE ENERGY PREDICTED BY IDOCK:   -8.69 KCAL/MOL
REMARK 923 INTER-LIGAND FREE ENERGY PREDICTED BY IDOCK:   -8.04 KCAL/MOL
REMARK 924 INTRA-LIGAND FREE ENERGY PREDICTED BY IDOCK:   -0.65 KCAL/MOL
REMARK 927      BINDING AFFINITY PREDICTED BY RF-SCORE:    0.00 PKD
ROOT
HETATM    1  O   UNL     1     -10.148   7.252  73.909  1.00  0.00    -0.324 OA 
HETATM    2  C   UNL     1     -10.807   6.975  72.916  1.00  0.00    -0.301 C  
HETATM    3  N   UNL     1     -10.710   5.811  72.212  1.00  0.00    -0.224 NA 
HETATM    4  O   UNL     1     -11.530   5.779  71.068  1.00  0.00    -0.167 OA 
HETATM    5  C   UNL     1     -12.206   7.043  71.026  1.00  0.00    -0.374 C  
HETATM    6  C   UNL     1     -11.881   7.821  72.296  1.00  0.00    -0.329 C  
ENDROOT
BRANCH   6   7
HETATM    7  N   UNL     1     -11.399   9.171  71.944  1.00  0.00    -0.375 NA 
HETATM    8  H   UNL     1     -10.409   9.401  71.849  1.00  0.00     0.000 HD 
BRANCH   7   9
HETATM    9  C   UNL     1     -12.341  10.034  71.767  1.00  0.00    -0.345 C  
BRANCH   9  10
HETATM   10  C   UNL     1     -12.276  11.023  70.676  1.00  0.00    -0.481 A  
HETATM   11  C   UNL     1     -11.929  10.567  69.402  1.00  0.00    -0.230 A  
HETATM   12  C   UNL     1     -11.661  11.492  68.392  1.00  0.00    -0.375 A  
HETATM   13  C   UNL     1     -11.755  12.862  68.654  1.00  0.00    -0.359 A  
HETATM   14  C   UNL     1     -12.169  13.316  69.909  1.00  0.00    -0.313 A  
HETATM   15  C   UNL     1     -12.425  12.392  70.927  1.00  0.00    -0.367 A  
BRANCH  13  16
HETATM   16  C   UNL     1     -11.330  13.840  67.632  1.00  0.00    -0.304 C  
BRANCH  16  17
HETATM   17  N   UNL     1     -12.164  14.282  66.751  1.00  0.00    -0.529 NA 
HETATM   18  H   UNL     1     -13.084  14.645  67.002  1.00  0.00     0.000 HD 
BRANCH  17  19
HETATM   19  C   UNL     1     -11.691  14.223  65.360  1.00  0.00    -0.354 C  
HETATM   20  C   UNL     1     -10.204  13.910  65.331  1.00  0.00    -0.337 C  
HETATM   21  O   UNL     1      -9.955  13.226  64.095  1.00  0.00    -0.294 OA 
HETATM   22  N   UNL     1     -11.191  12.620  63.757  1.00  0.00    -0.433 NA 
HETATM   23  C   UNL     1     -12.202  13.036  64.590  1.00  0.00    -0.421 C  
HETATM   24  O   UNL     1     -13.325  12.555  64.625  1.00  0.00    -0.804 OA 
ENDBRANCH  17  19
ENDBRANCH  16  17
ENDBRANCH  13  16
ENDBRANCH   9  10
ENDBRANCH   7   9
ENDBRANCH   6   7
TORSDOF 6
ENDMDL
MODEL       39
REMARK 921   NORMALIZED FREE ENERGY PREDICTED BY IDOCK:   -6.02 KCAL/MOL
REMARK 922        TOTAL FREE ENERGY PREDICTED BY IDOCK:   -8.67 KCAL/MOL
REMARK 923 INTER-LIGAND FREE ENERGY PREDICTED BY IDOCK:   -8.06 KCAL/MOL
REMARK 924 INTRA-LIGAND FREE ENERGY PREDICTED BY IDOCK:   -0.62 KCAL/MOL
REMARK 927      BINDING AFFINITY PREDICTED BY RF-SCORE:    0.00 PKD
ROOT
HETATM    1  O   UNL     1     -12.578  13.689  64.171  1.00  0.00    -0.655 OA 
HETATM    2  C   UNL     1     -11.979  14.715  64.464  1.00  0.00    -0.460 C  
HETATM    3  N   UNL     1     -12.138  15.918  63.842  1.00  0.00    -0.750 NA 
HETATM    4  O   UNL     1     -11.272  16.917  64.326  1.00  0.00    -1.204 OA 
HETATM    5  C   UNL     1     -10.474  16.295  65.344  1.00  0.00    -0.343 C  
HETATM    6  C   UNL     1     -10.990  14.881  65.581  1.00  0.00    -0.344 C  
ENDROOT
BRANCH   6   7
HETATM    7  N   UNL     1      -9.873  13.920  65.490  1.00  0.00    -0.515 NA 
HETATM    8  H   UNL     1      -9.408  13.690  64.612  1.00  0.00     0.000 HD 
BRANCH   7   9
HETATM    9  C   UNL     1      -9.537  13.398  66.621  1.00  0.00    -0.270 C  
BRANCH   9  10
HETATM   10  C   UNL     1      -9.619  11.944  66.845  1.00  0.00    -0.208 A  
HETATM   11  C   UNL     1     -10.878  11.343  66.770  1.00  0.00    -0.336 A  
HETATM   12  C   UNL     1     -11.029  10.014  67.170  1.00  0.00    -0.177 A  
HETATM   13  C   UNL     1      -9.923   9.291  67.627  1.00  0.00    -0.245 A  
HETATM   14  C   UNL     1      -8.652   9.872  67.636  1.00  0.00    -0.122 A  
HETATM   15  C   UNL     1      -8.500  11.207  67.248  1.00  0.00    -0.137 A  
BRANCH  13  16
HETATM   16  C   UNL     1     -10.107   7.937  68.187  1.00  0.00    -0.191 C  
BRANCH  16  17
HETATM   17  N   UNL     1     -11.075   7.684  69.003  1.00  0.00    -0.424 NA 
HETATM   18  H   UNL     1     -11.977   7.326  68.688  1.00  0.00     0.000 HD 
BRANCH  17  19
HETATM   19  C   UNL     1     -10.782   7.949  70.419  1.00  0.00    -0.233 C  
HETATM   20  C   UNL     1     -11.770   8.962  70.973  1.00  0.00    -0.289 C  
HETATM   21  O   UNL     1     -11.893   8.686  72.375  1.00  0.00    -0.372 OA 
HETATM   22  N   UNL     1     -11.566   7.314  72.509  1.00  0.00    -0.271 NA 
HETATM   23  C   UNL     1     -11.083   6.793  71.333  1.00  0.00    -0.254 C  
HETATM   24  O   UNL     1     -10.877   5.607  71.122  1.00  0.00    -0.257 OA 
ENDBRANCH  17  19
ENDBRANCH  16  17
ENDBRANCH  13  16
ENDBRANCH   9  10
ENDBRANCH   7   9
ENDBRANCH   6   7
TORSDOF 6
ENDMDL
MODEL       40
REMARK 921   NORMALIZED FREE ENERGY PREDICTED BY IDOCK:   -5.96 KCAL/MOL
REMARK 922        TOTAL FREE ENERGY PREDICTED BY IDOCK:   -8.60 KCAL/MOL
REMARK 923 INTER-LIGAND FREE ENERGY PREDICTED BY IDOCK:   -7.94 KCAL/MOL
REMARK 924 INTRA-LIGAND FREE ENERGY PREDICTED BY IDOCK:   -0.66 KCAL/MOL
REMARK 927      BINDING AFFINITY PREDICTED BY RF-SCORE:    0.00 PKD
ROOT
HETATM    1  O   UNL     1     -12.278  14.319  66.468  1.00  0.00    -0.441 OA 
HETATM    2  C   UNL     1     -11.357  14.662  67.196  1.00  0.00    -0.356 C  
HETATM    3  N   UNL     1     -10.063  14.250  67.069  1.00  0.00    -0.257 NA 
HETATM    4  O   UNL     1      -9.219  14.737  68.084  1.00  0.00    -0.185 OA 
HETATM    5  C   UNL     1     -10.047  15.524  68.950  1.00  0.00    -0.214 C  
HETATM    6  C   UNL     1     -11.440  15.631  68.340  1.00  0.00    -0.369 C  
ENDROOT
BRANCH   6   7
HETATM    7  N   UNL     1     -12.453  15.237  69.338  1.00  0.00    -0.601 NA 
HETATM    8  H   UNL     1     -13.441  15.476  69.251  1.00  0.00     0.000 HD 
BRANCH   7   9
HETATM    9  C   UNL     1     -11.978  14.565  70.331  1.00  0.00    -0.318 C  
BRANCH   9  10
HETATM   10  C   UNL     1     -12.309  13.141  70.517  1.00  0.00    -0.380 A  
HETATM   11  C   UNL     1     -13.079  12.791  71.630  1.00  0.00    -0.428 A  
HETATM   12  C   UNL     1     -13.245  11.444  71.953  1.00  0.00    -0.485 A  
HETATM   13  C   UNL     1     -12.658  10.456  71.157  1.00  0.00    -0.512 A  
HETATM   14  C   UNL     1     -11.947  10.804  70.006  1.00  0.00    -0.427 A  
HETATM   15  C   UNL     1     -11.767  12.153  69.687  1.00  0.00    -0.396 A  
BRANCH  13  16
HETATM   16  C   UNL     1     -12.710   9.042  71.579  1.00  0.00    -0.339 C  
BRANCH  16  17
HETATM   17  N   UNL     1     -12.547   8.089  70.723  1.00  0.00    -0.496 NA 
HETATM   18  H   UNL     1     -13.218   7.900  69.979  1.00  0.00     0.000 HD 
BRANCH  17  19
HETATM   19  C   UNL     1     -11.321   7.295  70.902  1.00  0.00    -0.280 C  
HETATM   20  C   UNL     1     -11.473   6.366  72.094  1.00  0.00    -0.301 C  
HETATM   21  O   UNL     1     -10.640   5.228  71.833  1.00  0.00    -0.220 OA 
HETATM   22  N   UNL     1     -10.541   5.163  70.421  1.00  0.00    -0.214 NA 
HETATM   23  C   UNL     1     -11.094   6.271  69.824  1.00  0.00    -0.406 C  
HETATM   24  O   UNL     1     -11.287   6.399  68.624  1.00  0.00    -0.313 OA 
ENDBRANCH  17  19
ENDBRANCH  16  17
ENDBRANCH  13  16
ENDBRANCH   9  10
ENDBRANCH   7   9
ENDBRANCH   6   7
TORSDOF 6
ENDMDL
MODEL       41
REMARK 921   NORMALIZED FREE ENERGY PREDICTED BY IDOCK:   -5.96 KCAL/MOL
REMARK 922        TOTAL FREE ENERGY PREDICTED BY IDOCK:   -8.60 KCAL/MOL
REMARK 923 INTER-LIGAND FREE ENERGY PREDICTED BY IDOCK:   -8.34 KCAL/MOL
REMARK 924 INTRA-LIGAND FREE ENERGY PREDICTED BY IDOCK:   -0.26 KCAL/MOL
REMARK 927      BINDING AFFINITY PREDICTED BY RF-SCORE:    0.00 PKD
ROOT
HETATM    1  O   UNL     1     -12.777  13.768  63.881  1.00  0.00    -0.673 OA 
HETATM    2  C   UNL     1     -12.096  14.700  64.286  1.00  0.00    -0.415 C  
HETATM    3  N   UNL     1     -12.231  15.998  63.889  1.00  0.00    -0.803 NA 
HETATM    4  O   UNL     1     -11.270  16.858  64.453  1.00  0.00    -1.159 OA 
HETATM    5  C   UNL     1     -10.433  16.036  65.279  1.00  0.00    -0.358 C  
HETATM    6  C   UNL     1     -11.013  14.627  65.323  1.00  0.00    -0.367 C  
ENDROOT
BRANCH   6   7
HETATM    7  N   UNL     1      -9.967  13.646  64.975  1.00  0.00    -0.592 NA 
HETATM    8  H   UNL     1      -9.078  13.908  64.550  1.00  0.00     0.000 HD 
BRANCH   7   9
HETATM    9  C   UNL     1     -10.278  12.426  65.257  1.00  0.00    -0.282 C  
BRANCH   9  10
HETATM   10  C   UNL     1     -10.306  11.948  66.651  1.00  0.00    -0.242 A  
HETATM   11  C   UNL     1      -9.088  11.630  67.256  1.00  0.00    -0.167 A  
HETATM   12  C   UNL     1      -9.083  10.988  68.495  1.00  0.00    -0.173 A  
HETATM   13  C   UNL     1     -10.292  10.682  69.129  1.00  0.00    -0.242 A  
HETATM   14  C   UNL     1     -11.508  11.063  68.556  1.00  0.00    -0.379 A  
HETATM   15  C   UNL     1     -11.516  11.694  67.308  1.00  0.00    -0.350 A  
BRANCH  13  16
HETATM   16  C   UNL     1     -10.293   9.875  70.366  1.00  0.00    -0.260 C  
BRANCH  16  17
HETATM   17  N   UNL     1     -10.396   8.589  70.317  1.00  0.00    -0.200 NA 
HETATM   18  H   UNL     1      -9.923   8.028  69.609  1.00  0.00     0.000 HD 
BRANCH  17  19
HETATM   19  C   UNL     1     -11.246   7.993  71.359  1.00  0.00    -0.252 C  
HETATM   20  C   UNL     1     -11.761   6.640  70.897  1.00  0.00    -0.375 C  
HETATM   21  O   UNL     1     -11.970   5.858  72.082  1.00  0.00    -0.274 OA 
HETATM   22  N   UNL     1     -11.083   6.404  73.042  1.00  0.00    -0.233 NA 
HETATM   23  C   UNL     1     -10.494   7.560  72.587  1.00  0.00    -0.271 C  
HETATM   24  O   UNL     1      -9.576   8.145  73.142  1.00  0.00    -0.271 OA 
ENDBRANCH  17  19
ENDBRANCH  16  17
ENDBRANCH  13  16
ENDBRANCH   9  10
ENDBRANCH   7   9
ENDBRANCH   6   7
TORSDOF 6
ENDMDL
MODEL       42
REMARK 921   NORMALIZED FREE ENERGY PREDICTED BY IDOCK:   -5.94 KCAL/MOL
REMARK 922        TOTAL FREE ENERGY PREDICTED BY IDOCK:   -8.57 KCAL/MOL
REMARK 923 INTER-LIGAND FREE ENERGY PREDICTED BY IDOCK:   -7.99 KCAL/MOL
REMARK 924 INTRA-LIGAND FREE ENERGY PREDICTED BY IDOCK:   -0.58 KCAL/MOL
REMARK 927      BINDING AFFINITY PREDICTED BY RF-SCORE:    0.00 PKD
ROOT
HETATM    1  O   UNL     1     -11.912  11.479  63.179  1.00  0.00    -0.226 OA 
HETATM    2  C   UNL     1     -12.254  12.494  63.772  1.00  0.00    -0.525 C  
HETATM    3  N   UNL     1     -12.332  13.736  63.215  1.00  0.00    -0.727 NA 
HETATM    4  O   UNL     1     -12.680  14.741  64.137  1.00  0.00    -0.758 OA 
HETATM    5  C   UNL     1     -12.826  14.087  65.405  1.00  0.00    -0.410 C  
HETATM    6  C   UNL     1     -12.698  12.582  65.203  1.00  0.00    -0.127 C  
ENDROOT
BRANCH   6   7
HETATM    7  N   UNL     1     -11.694  12.036  66.137  1.00  0.00    -0.524 NA 
HETATM    8  H   UNL     1     -10.999  11.341  65.864  1.00  0.00     0.000 HD 
BRANCH   7   9
HETATM    9  C   UNL     1     -11.775  12.517  67.332  1.00  0.00    -0.366 C  
BRANCH   9  10
HETATM   10  C   UNL     1     -10.808  13.519  67.818  1.00  0.00    -0.267 A  
HETATM   11  C   UNL     1     -11.199  14.338  68.880  1.00  0.00    -0.289 A  
HETATM   12  C   UNL     1     -10.399  15.425  69.238  1.00  0.00    -0.253 A  
HETATM   13  C   UNL     1      -9.210  15.677  68.546  1.00  0.00    -0.197 A  
HETATM   14  C   UNL     1      -8.786  14.816  67.530  1.00  0.00    -0.197 A  
HETATM   15  C   UNL     1      -9.592  13.735  67.160  1.00  0.00    -0.244 A  
BRANCH  13  16
HETATM   16  C   UNL     1      -8.441  16.906  68.825  1.00  0.00    -0.244 C  
BRANCH  16  17
HETATM   17  N   UNL     1      -8.325  17.832  67.932  1.00  0.00    -0.236 NA 
HETATM   18  H   UNL     1      -7.464  17.982  67.407  1.00  0.00     0.000 HD 
BRANCH  17  19
HETATM   19  C   UNL     1      -9.528  18.654  67.729  1.00  0.00    -0.300 C  
HETATM   20  C   UNL     1      -9.153  20.126  67.714  1.00  0.00    -0.298 C  
HETATM   21  O   UNL     1     -10.125  20.785  66.890  1.00  0.00    -0.301 OA 
HETATM   22  N   UNL     1     -10.594  19.784  66.005  1.00  0.00    -0.500 NA 
HETATM   23  C   UNL     1     -10.119  18.541  66.351  1.00  0.00    -0.405 C  
HETATM   24  O   UNL     1     -10.236  17.531  65.672  1.00  0.00    -0.595 OA 
ENDBRANCH  17  19
ENDBRANCH  16  17
ENDBRANCH  13  16
ENDBRANCH   9  10
ENDBRANCH   7   9
ENDBRANCH   6   7
TORSDOF 6
ENDMDL
MODEL       43
REMARK 921   NORMALIZED FREE ENERGY PREDICTED BY IDOCK:   -5.91 KCAL/MOL
REMARK 922        TOTAL FREE ENERGY PREDICTED BY IDOCK:   -8.52 KCAL/MOL
REMARK 923 INTER-LIGAND FREE ENERGY PREDICTED BY IDOCK:   -7.76 KCAL/MOL
REMARK 924 INTRA-LIGAND FREE ENERGY PREDICTED BY IDOCK:   -0.77 KCAL/MOL
REMARK 927      BINDING AFFINITY PREDICTED BY RF-SCORE:    0.00 PKD
ROOT
HETATM    1  O   UNL     1     -11.101  16.428  70.845  1.00  0.00    -0.267 OA 
HETATM    2  C   UNL     1     -11.926  15.832  71.524  1.00  0.00    -0.440 C  
HETATM    3  N   UNL     1     -12.373  16.237  72.747  1.00  0.00    -0.487 NA 
HETATM    4  O   UNL     1     -13.265  15.328  73.345  1.00  0.00    -0.481 OA 
HETATM    5  C   UNL     1     -13.395  14.233  72.429  1.00  0.00    -0.474 C  
HETATM    6  C   UNL     1     -12.647  14.571  71.145  1.00  0.00    -0.335 C  
ENDROOT
BRANCH   6   7
HETATM    7  N   UNL     1     -11.720  13.475  70.803  1.00  0.00    -0.481 NA 
HETATM    8  H   UNL     1     -10.731  13.485  71.052  1.00  0.00     0.000 HD 
BRANCH   7   9
HETATM    9  C   UNL     1     -12.273  12.502  70.162  1.00  0.00    -0.234 C  
BRANCH   9  10
HETATM   10  C   UNL     1     -12.120  11.106  70.610  1.00  0.00    -0.477 A  
HETATM   11  C   UNL     1     -13.086  10.592  71.479  1.00  0.00    -0.532 A  
HETATM   12  C   UNL     1     -12.874   9.351  72.083  1.00  0.00    -0.480 A  
HETATM   13  C   UNL     1     -11.711   8.627  71.805  1.00  0.00    -0.400 A  
HETATM   14  C   UNL     1     -10.779   9.111  70.883  1.00  0.00    -0.343 A  
HETATM   15  C   UNL     1     -10.982  10.359  70.287  1.00  0.00    -0.353 A  
BRANCH  13  16
HETATM   16  C   UNL     1     -11.417   7.388  72.552  1.00  0.00    -0.301 C  
BRANCH  16  17
HETATM   17  N   UNL     1     -10.879   7.434  73.725  1.00  0.00    -0.542 NA 
HETATM   18  H   UNL     1     -11.308   7.930  74.506  1.00  0.00     0.000 HD 
BRANCH  17  19
HETATM   19  C   UNL     1      -9.600   6.718  73.852  1.00  0.00    -0.230 C  
HETATM   20  C   UNL     1      -9.581   5.521  72.916  1.00  0.00    -0.147 C  
HETATM   21  O   UNL     1      -8.206   5.292  72.575  1.00  0.00    -0.112 OA 
HETATM   22  N   UNL     1      -7.577   6.553  72.726  1.00  0.00    -0.097 NA 
HETATM   23  C   UNL     1      -8.420   7.473  73.303  1.00  0.00    -0.137 C  
HETATM   24  O   UNL     1      -8.192   8.669  73.402  1.00  0.00    -0.408 OA 
ENDBRANCH  17  19
ENDBRANCH  16  17
ENDBRANCH  13  16
ENDBRANCH   9  10
ENDBRANCH   7   9
ENDBRANCH   6   7
TORSDOF 6
ENDMDL
MODEL       44
REMARK 921   NORMALIZED FREE ENERGY PREDICTED BY IDOCK:   -5.83 KCAL/MOL
REMARK 922        TOTAL FREE ENERGY PREDICTED BY IDOCK:   -8.42 KCAL/MOL
REMARK 923 INTER-LIGAND FREE ENERGY PREDICTED BY IDOCK:   -7.97 KCAL/MOL
REMARK 924 INTRA-LIGAND FREE ENERGY PREDICTED BY IDOCK:   -0.45 KCAL/MOL
REMARK 927      BINDING AFFINITY PREDICTED BY RF-SCORE:    0.00 PKD
ROOT
HETATM    1  O   UNL     1     -13.282  13.820  65.212  1.00  0.00    -0.755 OA 
HETATM    2  C   UNL     1     -12.195  13.286  65.041  1.00  0.00    -0.432 C  
HETATM    3  N   UNL     1     -11.633  13.025  63.827  1.00  0.00    -0.448 NA 
HETATM    4  O   UNL     1     -10.409  12.334  63.914  1.00  0.00    -0.369 OA 
HETATM    5  C   UNL     1     -10.169  12.120  65.311  1.00  0.00    -0.274 C  
HETATM    6  C   UNL     1     -11.240  12.850  66.114  1.00  0.00    -0.292 C  
ENDROOT
BRANCH   6   7
HETATM    7  N   UNL     1     -11.862  11.920  67.077  1.00  0.00    -0.613 NA 
HETATM    8  H   UNL     1     -12.356  11.073  66.793  1.00  0.00     0.000 HD 
BRANCH   7   9
HETATM    9  C   UNL     1     -11.726  12.273  68.310  1.00  0.00    -0.336 C  
BRANCH   9  10
HETATM   10  C   UNL     1     -11.719  11.275  69.394  1.00  0.00    -0.409 A  
HETATM   11  C   UNL     1     -11.026  10.082  69.177  1.00  0.00    -0.256 A  
HETATM   12  C   UNL     1     -11.159   9.035  70.090  1.00  0.00    -0.228 A  
HETATM   13  C   UNL     1     -11.969   9.190  71.219  1.00  0.00    -0.394 A  
HETATM   14  C   UNL     1     -12.606  10.408  71.472  1.00  0.00    -0.544 A  
HETATM   15  C   UNL     1     -12.485  11.454  70.552  1.00  0.00    -0.381 A  
BRANCH  13  16
HETATM   16  C   UNL     1     -12.227   8.038  72.106  1.00  0.00    -0.331 C  
BRANCH  16  17
HETATM   17  N   UNL     1     -11.509   7.838  73.160  1.00  0.00    -0.605 NA 
HETATM   18  H   UNL     1     -11.758   8.218  74.073  1.00  0.00     0.000 HD 
BRANCH  17  19
HETATM   19  C   UNL     1     -10.303   7.023  72.946  1.00  0.00    -0.239 C  
HETATM   20  C   UNL     1      -9.193   7.486  73.874  1.00  0.00    -0.262 C  
HETATM   21  O   UNL     1      -8.365   6.341  74.123  1.00  0.00    -0.114 OA 
HETATM   22  N   UNL     1      -9.218   5.225  73.935  1.00  0.00    -0.125 NA 
HETATM   23  C   UNL     1     -10.436   5.601  73.418  1.00  0.00    -0.242 C  
HETATM   24  O   UNL     1     -11.408   4.869  73.308  1.00  0.00    -0.324 OA 
ENDBRANCH  17  19
ENDBRANCH  16  17
ENDBRANCH  13  16
ENDBRANCH   9  10
ENDBRANCH   7   9
ENDBRANCH   6   7
TORSDOF 6
ENDMDL
MODEL       45
REMARK 921   NORMALIZED FREE ENERGY PREDICTED BY IDOCK:   -5.82 KCAL/MOL
REMARK 922        TOTAL FREE ENERGY PREDICTED BY IDOCK:   -8.40 KCAL/MOL
REMARK 923 INTER-LIGAND FREE ENERGY PREDICTED BY IDOCK:   -7.85 KCAL/MOL
REMARK 924 INTRA-LIGAND FREE ENERGY PREDICTED BY IDOCK:   -0.55 KCAL/MOL
REMARK 927      BINDING AFFINITY PREDICTED BY RF-SCORE:    0.00 PKD
ROOT
HETATM    1  O   UNL     1      -9.673   8.864  71.988  1.00  0.00    -0.316 OA 
HETATM    2  C   UNL     1     -10.673   8.196  71.762  1.00  0.00    -0.251 C  
HETATM    3  N   UNL     1     -10.715   7.097  70.955  1.00  0.00    -0.229 NA 
HETATM    4  O   UNL     1     -12.007   6.559  70.809  1.00  0.00    -0.378 OA 
HETATM    5  C   UNL     1     -12.878   7.395  71.583  1.00  0.00    -0.367 C  
HETATM    6  C   UNL     1     -12.037   8.408  72.351  1.00  0.00    -0.378 C  
ENDROOT
BRANCH   6   7
HETATM    7  N   UNL     1     -12.550   9.770  72.106  1.00  0.00    -0.331 NA 
HETATM    8  H   UNL     1     -12.683  10.457  72.848  1.00  0.00     0.000 HD 
BRANCH   7   9
HETATM    9  C   UNL     1     -12.814  10.015  70.867  1.00  0.00    -0.324 C  
BRANCH   9  10
HETATM   10  C   UNL     1     -12.355  11.256  70.218  1.00  0.00    -0.389 A  
HETATM   11  C   UNL     1     -12.526  12.456  70.912  1.00  0.00    -0.367 A  
HETATM   12  C   UNL     1     -12.292  13.666  70.258  1.00  0.00    -0.392 A  
HETATM   13  C   UNL     1     -11.873  13.671  68.924  1.00  0.00    -0.402 A  
HETATM   14  C   UNL     1     -11.636  12.469  68.252  1.00  0.00    -0.376 A  
HETATM   15  C   UNL     1     -11.883  11.255  68.901  1.00  0.00    -0.413 A  
BRANCH  13  16
HETATM   16  C   UNL     1     -11.767  14.947  68.189  1.00  0.00    -0.318 C  
BRANCH  16  17
HETATM   17  N   UNL     1     -10.640  15.333  67.690  1.00  0.00    -0.264 NA 
HETATM   18  H   UNL     1      -9.889  14.680  67.465  1.00  0.00     0.000 HD 
BRANCH  17  19
HETATM   19  C   UNL     1     -10.520  16.782  67.470  1.00  0.00    -0.319 C  
HETATM   20  C   UNL     1      -9.235  17.296  68.096  1.00  0.00    -0.267 C  
HETATM   21  O   UNL     1      -8.839  18.443  67.330  1.00  0.00    -0.254 OA 
HETATM   22  N   UNL     1      -9.408  18.242  66.049  1.00  0.00    -0.512 NA 
HETATM   23  C   UNL     1     -10.261  17.163  66.038  1.00  0.00    -0.321 C  
HETATM   24  O   UNL     1     -10.759  16.672  65.036  1.00  0.00    -0.677 OA 
ENDBRANCH  17  19
ENDBRANCH  16  17
ENDBRANCH  13  16
ENDBRANCH   9  10
ENDBRANCH   7   9
ENDBRANCH   6   7
TORSDOF 6
ENDMDL
MODEL       46
REMARK 921   NORMALIZED FREE ENERGY PREDICTED BY IDOCK:   -5.82 KCAL/MOL
REMARK 922        TOTAL FREE ENERGY PREDICTED BY IDOCK:   -8.40 KCAL/MOL
REMARK 923 INTER-LIGAND FREE ENERGY PREDICTED BY IDOCK:   -8.30 KCAL/MOL
REMARK 924 INTRA-LIGAND FREE ENERGY PREDICTED BY IDOCK:   -0.10 KCAL/MOL
REMARK 927      BINDING AFFINITY PREDICTED BY RF-SCORE:    0.00 PKD
ROOT
HETATM    1  O   UNL     1     -12.679  13.703  63.872  1.00  0.00    -0.675 OA 
HETATM    2  C   UNL     1     -12.041  14.671  64.264  1.00  0.00    -0.415 C  
HETATM    3  N   UNL     1     -12.227  15.953  63.840  1.00  0.00    -0.750 NA 
HETATM    4  O   UNL     1     -11.308  16.864  64.395  1.00  0.00    -1.133 OA 
HETATM    5  C   UNL     1     -10.445  16.095  65.243  1.00  0.00    -0.331 C  
HETATM    6  C   UNL     1     -10.966  14.664  65.311  1.00  0.00    -0.367 C  
ENDROOT
BRANCH   6   7
HETATM    7  N   UNL     1      -9.876  13.721  64.992  1.00  0.00    -0.604 NA 
HETATM    8  H   UNL     1      -8.915  14.019  64.822  1.00  0.00     0.000 HD 
BRANCH   7   9
HETATM    9  C   UNL     1     -10.248  12.487  64.946  1.00  0.00    -0.278 C  
BRANCH   9  10
HETATM   10  C   UNL     1     -10.067  11.591  66.103  1.00  0.00    -0.266 A  
HETATM   11  C   UNL     1     -11.197  10.945  66.609  1.00  0.00    -0.060 A  
HETATM   12  C   UNL     1     -11.108  10.252  67.817  1.00  0.00    -0.335 A  
HETATM   13  C   UNL     1      -9.890  10.195  68.502  1.00  0.00    -0.165 A  
HETATM   14  C   UNL     1      -8.744  10.783  67.961  1.00  0.00    -0.132 A  
HETATM   15  C   UNL     1      -8.834  11.490  66.757  1.00  0.00    -0.183 A  
BRANCH  13  16
HETATM   16  C   UNL     1      -9.829   9.589  69.848  1.00  0.00    -0.226 C  
BRANCH  16  17
HETATM   17  N   UNL     1     -10.502  10.088  70.830  1.00  0.00    -0.374 NA 
HETATM   18  H   UNL     1     -10.162  10.873  71.385  1.00  0.00     0.000 HD 
BRANCH  17  19
HETATM   19  C   UNL     1     -11.796   9.439  71.090  1.00  0.00    -0.338 C  
HETATM   20  C   UNL     1     -11.679   8.508  72.285  1.00  0.00    -0.373 C  
HETATM   21  O   UNL     1     -12.981   8.450  72.886  1.00  0.00    -0.143 OA 
HETATM   22  N   UNL     1     -13.604   9.671  72.527  1.00  0.00    -0.338 NA 
HETATM   23  C   UNL     1     -12.854  10.372  71.613  1.00  0.00    -0.474 C  
HETATM   24  O   UNL     1     -13.074  11.520  71.257  1.00  0.00    -0.336 OA 
ENDBRANCH  17  19
ENDBRANCH  16  17
ENDBRANCH  13  16
ENDBRANCH   9  10
ENDBRANCH   7   9
ENDBRANCH   6   7
TORSDOF 6
ENDMDL
MODEL       47
REMARK 921   NORMALIZED FREE ENERGY PREDICTED BY IDOCK:   -5.81 KCAL/MOL
REMARK 922        TOTAL FREE ENERGY PREDICTED BY IDOCK:   -8.39 KCAL/MOL
REMARK 923 INTER-LIGAND FREE ENERGY PREDICTED BY IDOCK:   -7.90 KCAL/MOL
REMARK 924 INTRA-LIGAND FREE ENERGY PREDICTED BY IDOCK:   -0.49 KCAL/MOL
REMARK 927      BINDING AFFINITY PREDICTED BY RF-SCORE:    0.00 PKD
ROOT
HETATM    1  O   UNL     1      -8.880   8.823  72.744  1.00  0.00    -0.382 OA 
HETATM    2  C   UNL     1      -9.713   7.939  72.892  1.00  0.00    -0.273 C  
HETATM    3  N   UNL     1      -9.475   6.729  73.473  1.00  0.00    -0.151 NA 
HETATM    4  O   UNL     1     -10.588   5.868  73.448  1.00  0.00    -0.229 OA 
HETATM    5  C   UNL     1     -11.634   6.585  72.778  1.00  0.00    -0.075 C  
HETATM    6  C   UNL     1     -11.164   8.011  72.513  1.00  0.00    -0.388 C  
ENDROOT
BRANCH   6   7
HETATM    7  N   UNL     1     -11.357   8.343  71.088  1.00  0.00    -0.261 NA 
HETATM    8  H   UNL     1     -11.182   7.679  70.334  1.00  0.00     0.000 HD 
BRANCH   7   9
HETATM    9  C   UNL     1     -11.767   9.548  70.882  1.00  0.00    -0.317 C  
BRANCH   9  10
HETATM   10  C   UNL     1     -11.260  10.345  69.750  1.00  0.00    -0.353 A  
HETATM   11  C   UNL     1     -11.752  11.643  69.594  1.00  0.00    -0.418 A  
HETATM   12  C   UNL     1     -11.454  12.355  68.432  1.00  0.00    -0.356 A  
HETATM   13  C   UNL     1     -10.656  11.774  67.441  1.00  0.00    -0.258 A  
HETATM   14  C   UNL     1     -10.108  10.503  67.628  1.00  0.00    -0.211 A  
HETATM   15  C   UNL     1     -10.416   9.782  68.786  1.00  0.00    -0.240 A  
BRANCH  13  16
HETATM   16  C   UNL     1     -10.462  12.466  66.151  1.00  0.00    -0.248 C  
BRANCH  16  17
HETATM   17  N   UNL     1     -10.238  13.737  66.108  1.00  0.00    -0.294 NA 
HETATM   18  H   UNL     1      -9.808  14.244  66.882  1.00  0.00     0.000 HD 
BRANCH  17  19
HETATM   19  C   UNL     1     -10.648  14.400  64.861  1.00  0.00    -0.434 C  
HETATM   20  C   UNL     1     -12.098  14.071  64.551  1.00  0.00    -0.459 C  
HETATM   21  O   UNL     1     -12.618  15.181  63.806  1.00  0.00    -0.752 OA 
HETATM   22  N   UNL     1     -11.823  16.288  64.196  1.00  0.00    -0.844 NA 
HETATM   23  C   UNL     1     -10.757  15.896  64.971  1.00  0.00    -0.404 C  
HETATM   24  O   UNL     1     -10.009  16.654  65.570  1.00  0.00    -0.552 OA 
ENDBRANCH  17  19
ENDBRANCH  16  17
ENDBRANCH  13  16
ENDBRANCH   9  10
ENDBRANCH   7   9
ENDBRANCH   6   7
TORSDOF 6
ENDMDL
MODEL       48
REMARK 921   NORMALIZED FREE ENERGY PREDICTED BY IDOCK:   -5.80 KCAL/MOL
REMARK 922        TOTAL FREE ENERGY PREDICTED BY IDOCK:   -8.38 KCAL/MOL
REMARK 923 INTER-LIGAND FREE ENERGY PREDICTED BY IDOCK:   -7.91 KCAL/MOL
REMARK 924 INTRA-LIGAND FREE ENERGY PREDICTED BY IDOCK:   -0.47 KCAL/MOL
REMARK 927      BINDING AFFINITY PREDICTED BY RF-SCORE:    0.00 PKD
ROOT
HETATM    1  O   UNL     1     -10.194   5.955  69.788  1.00  0.00    -0.183 OA 
HETATM    2  C   UNL     1     -10.386   5.561  70.930  1.00  0.00    -0.242 C  
HETATM    3  N   UNL     1     -10.272   4.266  71.341  1.00  0.00    -0.110 NA 
HETATM    4  O   UNL     1     -10.622   4.075  72.691  1.00  0.00    -0.172 OA 
HETATM    5  C   UNL     1     -11.009   5.363  73.190  1.00  0.00    -0.302 C  
HETATM    6  C   UNL     1     -10.739   6.411  72.116  1.00  0.00    -0.227 C  
ENDROOT
BRANCH   6   7
HETATM    7  N   UNL     1     -11.954   7.217  71.890  1.00  0.00    -0.296 NA 
HETATM    8  H   UNL     1     -12.804   6.837  71.472  1.00  0.00     0.000 HD 
BRANCH   7   9
HETATM    9  C   UNL     1     -11.845   8.446  72.267  1.00  0.00    -0.389 C  
BRANCH   9  10
HETATM   10  C   UNL     1     -11.623   9.528  71.290  1.00  0.00    -0.445 A  
HETATM   11  C   UNL     1     -12.446  10.654  71.367  1.00  0.00    -0.496 A  
HETATM   12  C   UNL     1     -12.405  11.605  70.346  1.00  0.00    -0.373 A  
HETATM   13  C   UNL     1     -11.534  11.434  69.265  1.00  0.00    -0.370 A  
HETATM   14  C   UNL     1     -10.662  10.343  69.224  1.00  0.00    -0.270 A  
HETATM   15  C   UNL     1     -10.710   9.382  70.239  1.00  0.00    -0.299 A  
BRANCH  13  16
HETATM   16  C   UNL     1     -11.594  12.359  68.116  1.00  0.00    -0.341 C  
BRANCH  16  17
HETATM   17  N   UNL     1     -11.983  11.949  66.955  1.00  0.00    -0.601 NA 
HETATM   18  H   UNL     1     -12.607  11.151  66.837  1.00  0.00     0.000 HD 
BRANCH  17  19
HETATM   19  C   UNL     1     -11.460  12.719  65.816  1.00  0.00    -0.348 C  
HETATM   20  C   UNL     1     -10.930  11.773  64.751  1.00  0.00    -0.303 C  
HETATM   21  O   UNL     1     -11.073  12.452  63.496  1.00  0.00    -0.435 OA 
HETATM   22  N   UNL     1     -12.138  13.366  63.693  1.00  0.00    -0.604 NA 
HETATM   23  C   UNL     1     -12.522  13.418  65.012  1.00  0.00    -0.428 C  
HETATM   24  O   UNL     1     -13.512  13.996  65.433  1.00  0.00    -0.679 OA 
ENDBRANCH  17  19
ENDBRANCH  16  17
ENDBRANCH  13  16
ENDBRANCH   9  10
ENDBRANCH   7   9
ENDBRANCH   6   7
TORSDOF 6
ENDMDL
MODEL       49
REMARK 921   NORMALIZED FREE ENERGY PREDICTED BY IDOCK:   -5.75 KCAL/MOL
REMARK 922        TOTAL FREE ENERGY PREDICTED BY IDOCK:   -8.31 KCAL/MOL
REMARK 923 INTER-LIGAND FREE ENERGY PREDICTED BY IDOCK:   -7.78 KCAL/MOL
REMARK 924 INTRA-LIGAND FREE ENERGY PREDICTED BY IDOCK:   -0.53 KCAL/MOL
REMARK 927      BINDING AFFINITY PREDICTED BY RF-SCORE:    0.00 PKD
ROOT
HETATM    1  O   UNL     1     -13.023   6.926  71.610  1.00  0.00    -0.370 OA 
HETATM    2  C   UNL     1     -12.053   6.422  72.159  1.00  0.00    -0.268 C  
HETATM    3  N   UNL     1     -12.089   5.306  72.943  1.00  0.00    -0.058 NA 
HETATM    4  O   UNL     1     -10.844   4.983  73.513  1.00  0.00    -0.257 OA 
HETATM    5  C   UNL     1      -9.926   5.990  73.067  1.00  0.00    -0.175 C  
HETATM    6  C   UNL     1     -10.630   6.887  72.056  1.00  0.00    -0.212 C  
ENDROOT
BRANCH   6   7
HETATM    7  N   UNL     1     -10.471   8.301  72.448  1.00  0.00    -0.314 NA 
HETATM    8  H   UNL     1     -10.886   8.694  73.293  1.00  0.00     0.000 HD 
BRANCH   7   9
HETATM    9  C   UNL     1      -9.759   8.996  71.626  1.00  0.00    -0.276 C  
BRANCH   9  10
HETATM   10  C   UNL     1     -10.380   9.725  70.506  1.00  0.00    -0.348 A  
HETATM   11  C   UNL     1      -9.625   9.898  69.343  1.00  0.00    -0.229 A  
HETATM   12  C   UNL     1     -10.094  10.748  68.341  1.00  0.00    -0.183 A  
HETATM   13  C   UNL     1     -11.318  11.406  68.497  1.00  0.00    -0.333 A  
HETATM   14  C   UNL     1     -12.104  11.179  69.629  1.00  0.00    -0.406 A  
HETATM   15  C   UNL     1     -11.631  10.338  70.641  1.00  0.00    -0.435 A  
BRANCH  13  16
HETATM   16  C   UNL     1     -11.744  12.416  67.508  1.00  0.00    -0.357 C  
BRANCH  16  17
HETATM   17  N   UNL     1     -11.362  12.340  66.277  1.00  0.00    -0.327 NA 
HETATM   18  H   UNL     1     -10.462  11.943  66.006  1.00  0.00     0.000 HD 
BRANCH  17  19
HETATM   19  C   UNL     1     -12.320  12.868  65.294  1.00  0.00    -0.490 C  
HETATM   20  C   UNL     1     -12.251  14.385  65.265  1.00  0.00    -0.377 C  
HETATM   21  O   UNL     1     -12.631  14.785  63.941  1.00  0.00    -0.834 OA 
HETATM   22  N   UNL     1     -12.316  13.676  63.118  1.00  0.00    -0.677 NA 
HETATM   23  C   UNL     1     -11.948  12.581  63.864  1.00  0.00    -0.480 C  
HETATM   24  O   UNL     1     -11.476  11.549  63.412  1.00  0.00    -0.372 OA 
ENDBRANCH  17  19
ENDBRANCH  16  17
ENDBRANCH  13  16
ENDBRANCH   9  10
ENDBRANCH   7   9
ENDBRANCH   6   7
TORSDOF 6
ENDMDL
MODEL       50
REMARK 921   NORMALIZED FREE ENERGY PREDICTED BY IDOCK:   -5.70 KCAL/MOL
REMARK 922        TOTAL FREE ENERGY PREDICTED BY IDOCK:   -8.24 KCAL/MOL
REMARK 923 INTER-LIGAND FREE ENERGY PREDICTED BY IDOCK:   -7.63 KCAL/MOL
REMARK 924 INTRA-LIGAND FREE ENERGY PREDICTED BY IDOCK:   -0.60 KCAL/MOL
REMARK 927      BINDING AFFINITY PREDICTED BY RF-SCORE:    0.00 PKD
ROOT
HETATM    1  O   UNL     1     -11.562   6.230  69.795  1.00  0.00    -0.436 OA 
HETATM    2  C   UNL     1     -10.645   5.805  69.107  1.00  0.00    -0.294 C  
HETATM    3  N   UNL     1      -9.453   5.349  69.587  1.00  0.00    -0.137 NA 
HETATM    4  O   UNL     1      -8.543   4.987  68.576  1.00  0.00    -0.094 OA 
HETATM    5  C   UNL     1      -9.206   5.246  67.331  1.00  0.00    -0.113 C  
HETATM    6  C   UNL     1     -10.648   5.653  67.613  1.00  0.00    -0.204 C  
ENDROOT
BRANCH   6   7
HETATM    7  N   UNL     1     -10.954   6.919  66.920  1.00  0.00    -0.578 NA 
HETATM    8  H   UNL     1     -11.869   7.126  66.519  1.00  0.00     0.000 HD 
BRANCH   7   9
HETATM    9  C   UNL     1      -9.961   7.741  66.867  1.00  0.00    -0.261 C  
BRANCH   9  10
HETATM   10  C   UNL     1     -10.177   9.199  66.842  1.00  0.00    -0.336 A  
HETATM   11  C   UNL     1      -9.772   9.898  65.702  1.00  0.00    -0.346 A  
HETATM   12  C   UNL     1      -9.773  11.293  65.717  1.00  0.00    -0.263 A  
HETATM   13  C   UNL     1     -10.191  11.981  66.860  1.00  0.00    -0.230 A  
HETATM   14  C   UNL     1     -10.661  11.282  67.975  1.00  0.00    -0.230 A  
HETATM   15  C   UNL     1     -10.649   9.883  67.968  1.00  0.00    -0.288 A  
BRANCH  13  16
HETATM   16  C   UNL     1     -10.053  13.449  66.930  1.00  0.00    -0.255 C  
BRANCH  16  17
HETATM   17  N   UNL     1     -11.035  14.223  66.606  1.00  0.00    -0.305 NA 
HETATM   18  H   UNL     1     -11.884  14.294  67.168  1.00  0.00     0.000 HD 
BRANCH  17  19
HETATM   19  C   UNL     1     -10.840  14.993  65.369  1.00  0.00    -0.364 C  
HETATM   20  C   UNL     1     -12.096  14.932  64.516  1.00  0.00    -0.407 C  
HETATM   21  O   UNL     1     -12.126  16.143  63.747  1.00  0.00    -0.946 OA 
HETATM   22  N   UNL     1     -11.385  17.079  64.510  1.00  0.00    -0.986 NA 
HETATM   23  C   UNL     1     -10.762  16.480  65.580  1.00  0.00    -0.256 C  
HETATM   24  O   UNL     1     -10.195  17.074  66.485  1.00  0.00    -0.302 OA 
ENDBRANCH  17  19
ENDBRANCH  16  17
ENDBRANCH  13  16
ENDBRANCH   9  10
ENDBRANCH   7   9
ENDBRANCH   6   7
TORSDOF 6
ENDMDL
MODEL       51
REMARK 921   NORMALIZED FREE ENERGY PREDICTED BY IDOCK:   -5.68 KCAL/MOL
REMARK 922        TOTAL FREE ENERGY PREDICTED BY IDOCK:   -8.22 KCAL/MOL
REMARK 923 INTER-LIGAND FREE ENERGY PREDICTED BY IDOCK:   -7.79 KCAL/MOL
REMARK 924 INTRA-LIGAND FREE ENERGY PREDICTED BY IDOCK:   -0.43 KCAL/MOL
REMARK 927      BINDING AFFINITY PREDICTED BY RF-SCORE:    0.00 PKD
ROOT
HETATM    1  O   UNL     1     -10.250  19.494  68.512  1.00  0.00    -0.425 OA 
HETATM    2  C   UNL     1      -9.321  19.698  67.743  1.00  0.00    -0.337 C  
HETATM    3  N   UNL     1      -9.439  19.832  66.391  1.00  0.00    -0.383 NA 
HETATM    4  O   UNL     1      -8.204  19.986  65.734  1.00  0.00    -0.297 OA 
HETATM    5  C   UNL     1      -7.198  19.933  66.755  1.00  0.00    -0.233 C  
HETATM    6  C   UNL     1      -7.880  19.888  68.118  1.00  0.00    -0.272 C  
ENDROOT
BRANCH   6   7
HETATM    7  N   UNL     1      -7.350  18.756  68.904  1.00  0.00    -0.307 NA 
HETATM    8  H   UNL     1      -7.278  18.771  69.921  1.00  0.00     0.000 HD 
BRANCH   7   9
HETATM    9  C   UNL     1      -6.984  17.747  68.188  1.00  0.00    -0.212 C  
BRANCH   9  10
HETATM   10  C   UNL     1      -7.890  16.608  67.955  1.00  0.00    -0.173 A  
HETATM   11  C   UNL     1      -8.108  16.208  66.634  1.00  0.00    -0.323 A  
HETATM   12  C   UNL     1      -9.105  15.272  66.357  1.00  0.00    -0.347 A  
HETATM   13  C   UNL     1      -9.866  14.731  67.397  1.00  0.00    -0.222 A  
HETATM   14  C   UNL     1      -9.601  15.079  68.724  1.00  0.00    -0.220 A  
HETATM   15  C   UNL     1      -8.611  16.027  69.004  1.00  0.00    -0.244 A  
BRANCH  13  16
HETATM   16  C   UNL     1     -11.015  13.855  67.093  1.00  0.00    -0.291 C  
BRANCH  16  17
HETATM   17  N   UNL     1     -12.196  14.348  66.919  1.00  0.00    -0.545 NA 
HETATM   18  H   UNL     1     -12.635  14.972  67.596  1.00  0.00     0.000 HD 
BRANCH  17  19
HETATM   19  C   UNL     1     -12.862  13.943  65.671  1.00  0.00    -0.424 C  
HETATM   20  C   UNL     1     -12.406  14.832  64.527  1.00  0.00    -0.366 C  
HETATM   21  O   UNL     1     -12.509  14.045  63.332  1.00  0.00    -0.826 OA 
HETATM   22  N   UNL     1     -12.389  12.702  63.767  1.00  0.00    -0.624 NA 
HETATM   23  C   UNL     1     -12.406  12.612  65.139  1.00  0.00    -0.484 C  
HETATM   24  O   UNL     1     -12.161  11.600  65.780  1.00  0.00    -0.232 OA 
ENDBRANCH  17  19
ENDBRANCH  16  17
ENDBRANCH  13  16
ENDBRANCH   9  10
ENDBRANCH   7   9
ENDBRANCH   6   7
TORSDOF 6
ENDMDL
MODEL       52
REMARK 921   NORMALIZED FREE ENERGY PREDICTED BY IDOCK:   -5.66 KCAL/MOL
REMARK 922        TOTAL FREE ENERGY PREDICTED BY IDOCK:   -8.19 KCAL/MOL
REMARK 923 INTER-LIGAND FREE ENERGY PREDICTED BY IDOCK:   -7.59 KCAL/MOL
REMARK 924 INTRA-LIGAND FREE ENERGY PREDICTED BY IDOCK:   -0.60 KCAL/MOL
REMARK 927      BINDING AFFINITY PREDICTED BY RF-SCORE:    0.00 PKD
ROOT
HETATM    1  O   UNL     1     -11.380   6.197  71.083  1.00  0.00    -0.299 OA 
HETATM    2  C   UNL     1     -12.051   7.131  71.501  1.00  0.00    -0.342 C  
HETATM    3  N   UNL     1     -13.412   7.200  71.453  1.00  0.00    -0.353 NA 
HETATM    4  O   UNL     1     -13.928   8.418  71.934  1.00  0.00    -0.383 OA 
HETATM    5  C   UNL     1     -12.794   9.209  72.315  1.00  0.00    -0.401 C  
HETATM    6  C   UNL     1     -11.534   8.362  72.187  1.00  0.00    -0.372 C  
ENDROOT
BRANCH   6   7
HETATM    7  N   UNL     1     -10.531   9.079  71.375  1.00  0.00    -0.297 NA 
HETATM    8  H   UNL     1      -9.527   8.935  71.479  1.00  0.00     0.000 HD 
BRANCH   7   9
HETATM    9  C   UNL     1     -11.039   9.903  70.523  1.00  0.00    -0.332 C  
BRANCH   9  10
HETATM   10  C   UNL     1     -10.484  10.035  69.164  1.00  0.00    -0.238 A  
HETATM   11  C   UNL     1      -9.756  11.190  68.868  1.00  0.00    -0.163 A  
HETATM   12  C   UNL     1      -9.386  11.448  67.547  1.00  0.00    -0.166 A  
HETATM   13  C   UNL     1      -9.731  10.547  66.535  1.00  0.00    -0.237 A  
HETATM   14  C   UNL     1     -10.398   9.358  66.842  1.00  0.00    -0.308 A  
HETATM   15  C   UNL     1     -10.782   9.104  68.163  1.00  0.00    -0.186 A  
BRANCH  13  16
HETATM   16  C   UNL     1      -9.470  10.889  65.122  1.00  0.00    -0.227 C  
BRANCH  16  17
HETATM   17  N   UNL     1     -10.441  11.172  64.319  1.00  0.00    -0.344 NA 
HETATM   18  H   UNL     1     -10.623  10.637  63.470  1.00  0.00     0.000 HD 
BRANCH  17  19
HETATM   19  C   UNL     1     -11.264  12.323  64.720  1.00  0.00    -0.318 C  
HETATM   20  C   UNL     1     -10.437  13.597  64.662  1.00  0.00    -0.423 C  
HETATM   21  O   UNL     1     -11.355  14.666  64.391  1.00  0.00    -0.323 OA 
HETATM   22  N   UNL     1     -12.442  14.055  63.718  1.00  0.00    -0.796 NA 
HETATM   23  C   UNL     1     -12.334  12.684  63.726  1.00  0.00    -0.478 C  
HETATM   24  O   UNL     1     -13.042  11.921  63.086  1.00  0.00    -0.605 OA 
ENDBRANCH  17  19
ENDBRANCH  16  17
ENDBRANCH  13  16
ENDBRANCH   9  10
ENDBRANCH   7   9
ENDBRANCH   6   7
TORSDOF 6
ENDMDL
MODEL       53
REMARK 921   NORMALIZED FREE ENERGY PREDICTED BY IDOCK:   -5.63 KCAL/MOL
REMARK 922        TOTAL FREE ENERGY PREDICTED BY IDOCK:   -8.15 KCAL/MOL
REMARK 923 INTER-LIGAND FREE ENERGY PREDICTED BY IDOCK:   -8.24 KCAL/MOL
REMARK 924 INTRA-LIGAND FREE ENERGY PREDICTED BY IDOCK:    0.09 KCAL/MOL
REMARK 927      BINDING AFFINITY PREDICTED BY RF-SCORE:    0.00 PKD
ROOT
HETATM    1  O   UNL     1      -6.989  19.893  64.873  1.00  0.00    -0.342 OA 
HETATM    2  C   UNL     1      -6.820  19.802  66.081  1.00  0.00    -0.240 C  
HETATM    3  N   UNL     1      -6.001  18.897  66.691  1.00  0.00    -0.161 NA 
HETATM    4  O   UNL     1      -6.048  18.958  68.096  1.00  0.00    -0.204 OA 
HETATM    5  C   UNL     1      -6.993  19.987  68.420  1.00  0.00    -0.294 C  
HETATM    6  C   UNL     1      -7.430  20.680  67.134  1.00  0.00    -0.330 C  
ENDROOT
BRANCH   6   7
HETATM    7  N   UNL     1      -8.904  20.706  67.059  1.00  0.00    -0.569 NA 
HETATM    8  H   UNL     1      -9.416  21.262  66.374  1.00  0.00     0.000 HD 
BRANCH   7   9
HETATM    9  C   UNL     1      -9.487  19.962  67.937  1.00  0.00    -0.359 C  
BRANCH   9  10
HETATM   10  C   UNL     1     -10.058  18.653  67.572  1.00  0.00    -0.397 A  
HETATM   11  C   UNL     1     -10.349  17.758  68.605  1.00  0.00    -0.351 A  
HETATM   12  C   UNL     1     -10.700  16.444  68.295  1.00  0.00    -0.337 A  
HETATM   13  C   UNL     1     -10.773  16.035  66.959  1.00  0.00    -0.277 A  
HETATM   14  C   UNL     1     -10.549  16.949  65.926  1.00  0.00    -0.239 A  
HETATM   15  C   UNL     1     -10.184  18.263  66.234  1.00  0.00    -0.414 A  
BRANCH  13  16
HETATM   16  C   UNL     1     -10.998  14.613  66.635  1.00  0.00    -0.323 C  
BRANCH  16  17
HETATM   17  N   UNL     1     -10.241  13.998  65.788  1.00  0.00    -0.316 NA 
HETATM   18  H   UNL     1      -9.270  13.763  65.992  1.00  0.00     0.000 HD 
BRANCH  17  19
HETATM   19  C   UNL     1     -10.883  13.662  64.508  1.00  0.00    -0.406 C  
HETATM   20  C   UNL     1     -10.426  12.290  64.044  1.00  0.00    -0.399 C  
HETATM   21  O   UNL     1     -11.496  11.749  63.255  1.00  0.00    -0.359 OA 
HETATM   22  N   UNL     1     -12.665  12.391  63.733  1.00  0.00    -0.758 NA 
HETATM   23  C   UNL     1     -12.361  13.401  64.616  1.00  0.00    -0.382 C  
HETATM   24  O   UNL     1     -13.175  14.008  65.296  1.00  0.00    -0.782 OA 
ENDBRANCH  17  19
ENDBRANCH  16  17
ENDBRANCH  13  16
ENDBRANCH   9  10
ENDBRANCH   7   9
ENDBRANCH   6   7
TORSDOF 6
ENDMDL
MODEL       54
REMARK 921   NORMALIZED FREE ENERGY PREDICTED BY IDOCK:   -5.62 KCAL/MOL
REMARK 922        TOTAL FREE ENERGY PREDICTED BY IDOCK:   -8.13 KCAL/MOL
REMARK 923 INTER-LIGAND FREE ENERGY PREDICTED BY IDOCK:   -7.69 KCAL/MOL
REMARK 924 INTRA-LIGAND FREE ENERGY PREDICTED BY IDOCK:   -0.44 KCAL/MOL
REMARK 927      BINDING AFFINITY PREDICTED BY RF-SCORE:    0.00 PKD
ROOT
HETATM    1  O   UNL     1     -12.351  15.272  64.131  1.00  0.00    -0.630 OA 
HETATM    2  C   UNL     1     -12.042  14.092  64.030  1.00  0.00    -0.348 C  
HETATM    3  N   UNL     1     -12.724  13.165  63.299  1.00  0.00    -0.598 NA 
HETATM    4  O   UNL     1     -12.198  11.864  63.415  1.00  0.00    -0.531 OA 
HETATM    5  C   UNL     1     -11.084  11.962  64.313  1.00  0.00    -0.356 C  
HETATM    6  C   UNL     1     -10.842  13.430  64.642  1.00  0.00    -0.392 C  
ENDROOT
BRANCH   6   7
HETATM    7  N   UNL     1     -10.786  13.611  66.106  1.00  0.00    -0.284 NA 
HETATM    8  H   UNL     1      -9.983  14.017  66.586  1.00  0.00     0.000 HD 
BRANCH   7   9
HETATM    9  C   UNL     1     -11.844  13.208  66.724  1.00  0.00    -0.385 C  
BRANCH   9  10
HETATM   10  C   UNL     1     -11.763  12.208  67.804  1.00  0.00    -0.390 A  
HETATM   11  C   UNL     1     -12.027  12.634  69.108  1.00  0.00    -0.293 A  
HETATM   12  C   UNL     1     -11.768  11.775  70.177  1.00  0.00    -0.354 A  
HETATM   13  C   UNL     1     -11.263  10.493  69.937  1.00  0.00    -0.374 A  
HETATM   14  C   UNL     1     -11.065  10.043  68.629  1.00  0.00    -0.223 A  
HETATM   15  C   UNL     1     -11.311  10.907  67.557  1.00  0.00    -0.309 A  
BRANCH  13  16
HETATM   16  C   UNL     1     -10.851   9.639  71.069  1.00  0.00    -0.342 C  
BRANCH  16  17
HETATM   17  N   UNL     1      -9.791   8.906  70.995  1.00  0.00    -0.228 NA 
HETATM   18  H   UNL     1      -8.927   9.234  70.561  1.00  0.00     0.000 HD 
BRANCH  17  19
HETATM   19  C   UNL     1      -9.919   7.564  71.581  1.00  0.00    -0.175 C  
HETATM   20  C   UNL     1     -10.426   7.668  73.010  1.00  0.00    -0.356 C  
HETATM   21  O   UNL     1     -11.144   6.455  73.277  1.00  0.00    -0.223 OA 
HETATM   22  N   UNL     1     -11.582   6.001  72.009  1.00  0.00    -0.298 NA 
HETATM   23  C   UNL     1     -11.032   6.742  70.989  1.00  0.00    -0.255 C  
HETATM   24  O   UNL     1     -11.359   6.672  69.814  1.00  0.00    -0.342 OA 
ENDBRANCH  17  19
ENDBRANCH  16  17
ENDBRANCH  13  16
ENDBRANCH   9  10
ENDBRANCH   7   9
ENDBRANCH   6   7
TORSDOF 6
ENDMDL
MODEL       55
REMARK 921   NORMALIZED FREE ENERGY PREDICTED BY IDOCK:   -5.62 KCAL/MOL
REMARK 922        TOTAL FREE ENERGY PREDICTED BY IDOCK:   -8.12 KCAL/MOL
REMARK 923 INTER-LIGAND FREE ENERGY PREDICTED BY IDOCK:   -7.45 KCAL/MOL
REMARK 924 INTRA-LIGAND FREE ENERGY PREDICTED BY IDOCK:   -0.68 KCAL/MOL
REMARK 927      BINDING AFFINITY PREDICTED BY RF-SCORE:    0.00 PKD
ROOT
HETATM    1  O   UNL     1     -10.008   9.213  71.249  1.00  0.00    -0.280 OA 
HETATM    2  C   UNL     1     -10.825   8.303  71.227  1.00  0.00    -0.237 C  
HETATM    3  N   UNL     1     -10.574   7.036  70.787  1.00  0.00    -0.216 NA 
HETATM    4  O   UNL     1     -11.709   6.205  70.799  1.00  0.00    -0.282 OA 
HETATM    5  C   UNL     1     -12.792   7.013  71.279  1.00  0.00    -0.323 C  
HETATM    6  C   UNL     1     -12.243   8.367  71.714  1.00  0.00    -0.330 C  
ENDROOT
BRANCH   6   7
HETATM    7  N   UNL     1     -13.012   9.448  71.065  1.00  0.00    -0.524 NA 
HETATM    8  H   UNL     1     -13.315   9.408  70.092  1.00  0.00     0.000 HD 
BRANCH   7   9
HETATM    9  C   UNL     1     -13.264  10.449  71.839  1.00  0.00    -0.429 C  
BRANCH   9  10
HETATM   10  C   UNL     1     -12.862  11.818  71.472  1.00  0.00    -0.450 A  
HETATM   11  C   UNL     1     -13.339  12.870  72.259  1.00  0.00    -0.597 A  
HETATM   12  C   UNL     1     -13.150  14.186  71.833  1.00  0.00    -0.456 A  
HETATM   13  C   UNL     1     -12.475  14.444  70.636  1.00  0.00    -0.419 A  
HETATM   14  C   UNL     1     -11.939  13.394  69.885  1.00  0.00    -0.408 A  
HETATM   15  C   UNL     1     -12.138  12.075  70.302  1.00  0.00    -0.395 A  
BRANCH  13  16
HETATM   16  C   UNL     1     -12.404  15.822  70.111  1.00  0.00    -0.279 C  
BRANCH  16  17
HETATM   17  N   UNL     1     -11.288  16.471  70.103  1.00  0.00    -0.437 NA 
HETATM   18  H   UNL     1     -10.796  16.725  70.959  1.00  0.00     0.000 HD 
BRANCH  17  19
HETATM   19  C   UNL     1     -10.778  16.815  68.767  1.00  0.00    -0.341 C  
HETATM   20  C   UNL     1     -10.489  18.305  68.690  1.00  0.00    -0.160 C  
HETATM   21  O   UNL     1      -9.438  18.467  67.727  1.00  0.00    -0.272 OA 
HETATM   22  N   UNL     1      -8.742  17.233  67.733  1.00  0.00    -0.223 NA 
HETATM   23  C   UNL     1      -9.399  16.286  68.484  1.00  0.00    -0.213 C  
HETATM   24  O   UNL     1      -8.945  15.193  68.789  1.00  0.00    -0.178 OA 
ENDBRANCH  17  19
ENDBRANCH  16  17
ENDBRANCH  13  16
ENDBRANCH   9  10
ENDBRANCH   7   9
ENDBRANCH   6   7
TORSDOF 6
ENDMDL
MODEL       56
REMARK 921   NORMALIZED FREE ENERGY PREDICTED BY IDOCK:   -5.59 KCAL/MOL
REMARK 922        TOTAL FREE ENERGY PREDICTED BY IDOCK:   -8.09 KCAL/MOL
REMARK 923 INTER-LIGAND FREE ENERGY PREDICTED BY IDOCK:   -7.63 KCAL/MOL
REMARK 924 INTRA-LIGAND FREE ENERGY PREDICTED BY IDOCK:   -0.46 KCAL/MOL
REMARK 927      BINDING AFFINITY PREDICTED BY RF-SCORE:    0.00 PKD
ROOT
HETATM    1  O   UNL     1      -7.400   6.886  66.417  1.00  0.00    -0.070 OA 
HETATM    2  C   UNL     1      -8.550   6.620  66.740  1.00  0.00    -0.118 C  
HETATM    3  N   UNL     1      -9.321   5.655  66.163  1.00  0.00    -0.158 NA 
HETATM    4  O   UNL     1     -10.632   5.607  66.675  1.00  0.00    -0.272 OA 
HETATM    5  C   UNL     1     -10.715   6.644  67.662  1.00  0.00    -0.302 C  
HETATM    6  C   UNL     1      -9.331   7.255  67.854  1.00  0.00    -0.129 C  
ENDROOT
BRANCH   6   7
HETATM    7  N   UNL     1      -9.411   8.722  67.719  1.00  0.00    -0.140 NA 
HETATM    8  H   UNL     1      -8.629   9.343  67.925  1.00  0.00     0.000 HD 
BRANCH   7   9
HETATM    9  C   UNL     1     -10.560   9.149  67.316  1.00  0.00    -0.233 C  
BRANCH   9  10
HETATM   10  C   UNL     1     -11.105  10.435  67.788  1.00  0.00    -0.365 A  
HETATM   11  C   UNL     1     -11.071  11.520  66.908  1.00  0.00    -0.366 A  
HETATM   12  C   UNL     1     -11.389  12.795  67.378  1.00  0.00    -0.363 A  
HETATM   13  C   UNL     1     -11.753  12.977  68.715  1.00  0.00    -0.363 A  
HETATM   14  C   UNL     1     -11.854  11.882  69.577  1.00  0.00    -0.395 A  
HETATM   15  C   UNL     1     -11.523  10.605  69.113  1.00  0.00    -0.349 A  
BRANCH  13  16
HETATM   16  C   UNL     1     -11.946  14.340  69.248  1.00  0.00    -0.335 C  
BRANCH  16  17
HETATM   17  N   UNL     1     -12.797  14.569  70.192  1.00  0.00    -0.538 NA 
HETATM   18  H   UNL     1     -13.799  14.651  70.018  1.00  0.00     0.000 HD 
BRANCH  17  19
HETATM   19  C   UNL     1     -12.215  14.700  71.536  1.00  0.00    -0.352 C  
HETATM   20  C   UNL     1     -11.961  16.165  71.850  1.00  0.00    -0.507 C  
HETATM   21  O   UNL     1     -12.057  16.299  73.276  1.00  0.00    -0.489 OA 
HETATM   22  N   UNL     1     -12.903  15.239  73.687  1.00  0.00    -0.534 NA 
HETATM   23  C   UNL     1     -13.172  14.377  72.651  1.00  0.00    -0.497 C  
HETATM   24  O   UNL     1     -13.996  13.474  72.685  1.00  0.00    -0.752 OA 
ENDBRANCH  17  19
ENDBRANCH  16  17
ENDBRANCH  13  16
ENDBRANCH   9  10
ENDBRANCH   7   9
ENDBRANCH   6   7
TORSDOF 6
ENDMDL
MODEL       57
REMARK 921   NORMALIZED FREE ENERGY PREDICTED BY IDOCK:   -5.59 KCAL/MOL
REMARK 922        TOTAL FREE ENERGY PREDICTED BY IDOCK:   -8.09 KCAL/MOL
REMARK 923 INTER-LIGAND FREE ENERGY PREDICTED BY IDOCK:   -7.58 KCAL/MOL
REMARK 924 INTRA-LIGAND FREE ENERGY PREDICTED BY IDOCK:   -0.51 KCAL/MOL
REMARK 927      BINDING AFFINITY PREDICTED BY RF-SCORE:    0.00 PKD
ROOT
HETATM    1  O   UNL     1      -9.722   5.557  70.412  1.00  0.00    -0.166 OA 
HETATM    2  C   UNL     1     -10.110   5.025  71.442  1.00  0.00    -0.199 C  
HETATM    3  N   UNL     1     -10.033   3.690  71.712  1.00  0.00    -0.167 NA 
HETATM    4  O   UNL     1     -10.622   3.332  72.939  1.00  0.00    -0.160 OA 
HETATM    5  C   UNL     1     -11.137   4.545  73.505  1.00  0.00    -0.314 C  
HETATM    6  C   UNL     1     -10.705   5.719  72.633  1.00  0.00    -0.240 C  
ENDROOT
BRANCH   6   7
HETATM    7  N   UNL     1     -11.883   6.535  72.278  1.00  0.00    -0.426 NA 
HETATM    8  H   UNL     1     -12.708   6.150  71.817  1.00  0.00     0.000 HD 
BRANCH   7   9
HETATM    9  C   UNL     1     -11.774   7.779  72.602  1.00  0.00    -0.309 C  
BRANCH   9  10
HETATM   10  C   UNL     1     -11.989   8.848  71.609  1.00  0.00    -0.415 A  
HETATM   11  C   UNL     1     -11.214   8.822  70.447  1.00  0.00    -0.247 A  
HETATM   12  C   UNL     1     -11.241   9.917  69.581  1.00  0.00    -0.251 A  
HETATM   13  C   UNL     1     -12.049  11.020  69.871  1.00  0.00    -0.435 A  
HETATM   14  C   UNL     1     -12.876  11.015  70.998  1.00  0.00    -0.442 A  
HETATM   15  C   UNL     1     -12.841   9.926  71.875  1.00  0.00    -0.524 A  
BRANCH  13  16
HETATM   16  C   UNL     1     -11.967  12.235  69.036  1.00  0.00    -0.248 C  
BRANCH  16  17
HETATM   17  N   UNL     1     -11.798  12.151  67.759  1.00  0.00    -0.514 NA 
HETATM   18  H   UNL     1     -11.677  11.258  67.280  1.00  0.00     0.000 HD 
BRANCH  17  19
HETATM   19  C   UNL     1     -11.790  13.437  67.046  1.00  0.00    -0.394 C  
HETATM   20  C   UNL     1     -10.360  13.900  66.826  1.00  0.00    -0.272 C  
HETATM   21  O   UNL     1     -10.369  14.699  65.635  1.00  0.00    -0.309 OA 
HETATM   22  N   UNL     1     -11.478  14.230  64.887  1.00  0.00    -0.359 NA 
HETATM   23  C   UNL     1     -12.238  13.344  65.613  1.00  0.00    -0.463 C  
HETATM   24  O   UNL     1     -13.152  12.670  65.163  1.00  0.00    -0.726 OA 
ENDBRANCH  17  19
ENDBRANCH  16  17
ENDBRANCH  13  16
ENDBRANCH   9  10
ENDBRANCH   7   9
ENDBRANCH   6   7
TORSDOF 6
ENDMDL
MODEL       58
REMARK 921   NORMALIZED FREE ENERGY PREDICTED BY IDOCK:   -5.57 KCAL/MOL
REMARK 922        TOTAL FREE ENERGY PREDICTED BY IDOCK:   -8.06 KCAL/MOL
REMARK 923 INTER-LIGAND FREE ENERGY PREDICTED BY IDOCK:   -7.68 KCAL/MOL
REMARK 924 INTRA-LIGAND FREE ENERGY PREDICTED BY IDOCK:   -0.38 KCAL/MOL
REMARK 927      BINDING AFFINITY PREDICTED BY RF-SCORE:    0.00 PKD
ROOT
HETATM    1  O   UNL     1      -8.127   6.851  73.874  1.00  0.00    -0.114 OA 
HETATM    2  C   UNL     1      -9.121   6.152  73.736  1.00  0.00    -0.128 C  
HETATM    3  N   UNL     1      -9.143   4.793  73.848  1.00  0.00    -0.112 NA 
HETATM    4  O   UNL     1     -10.401   4.229  73.568  1.00  0.00    -0.150 OA 
HETATM    5  C   UNL     1     -11.265   5.324  73.232  1.00  0.00    -0.296 C  
HETATM    6  C   UNL     1     -10.517   6.632  73.464  1.00  0.00    -0.313 C  
ENDROOT
BRANCH   6   7
HETATM    7  N   UNL     1     -10.596   7.473  72.253  1.00  0.00    -0.223 NA 
HETATM    8  H   UNL     1     -10.014   7.318  71.430  1.00  0.00     0.000 HD 
BRANCH   7   9
HETATM    9  C   UNL     1     -11.467   8.421  72.330  1.00  0.00    -0.380 C  
BRANCH   9  10
HETATM   10  C   UNL     1     -11.673   9.361  71.214  1.00  0.00    -0.432 A  
HETATM   11  C   UNL     1     -10.877   9.207  70.077  1.00  0.00    -0.256 A  
HETATM   12  C   UNL     1     -10.898  10.190  69.086  1.00  0.00    -0.260 A  
HETATM   13  C   UNL     1     -11.723  11.310  69.229  1.00  0.00    -0.403 A  
HETATM   14  C   UNL     1     -12.570  11.429  70.334  1.00  0.00    -0.267 A  
HETATM   15  C   UNL     1     -12.541  10.453  71.334  1.00  0.00    -0.539 A  
BRANCH  13  16
HETATM   16  C   UNL     1     -11.637  12.418  68.257  1.00  0.00    -0.333 C  
BRANCH  16  17
HETATM   17  N   UNL     1     -11.927  12.231  67.012  1.00  0.00    -0.590 NA 
HETATM   18  H   UNL     1     -11.851  11.319  66.563  1.00  0.00     0.000 HD 
BRANCH  17  19
HETATM   19  C   UNL     1     -12.375  13.432  66.291  1.00  0.00    -0.349 C  
HETATM   20  C   UNL     1     -11.202  14.371  66.068  1.00  0.00    -0.333 C  
HETATM   21  O   UNL     1     -11.491  15.108  64.872  1.00  0.00    -0.385 OA 
HETATM   22  N   UNL     1     -12.359  14.271  64.127  1.00  0.00    -0.674 NA 
HETATM   23  C   UNL     1     -12.756  13.177  64.858  1.00  0.00    -0.356 C  
HETATM   24  O   UNL     1     -13.370  12.219  64.412  1.00  0.00    -0.786 OA 
ENDBRANCH  17  19
ENDBRANCH  16  17
ENDBRANCH  13  16
ENDBRANCH   9  10
ENDBRANCH   7   9
ENDBRANCH   6   7
TORSDOF 6
ENDMDL
MODEL       59
REMARK 921   NORMALIZED FREE ENERGY PREDICTED BY IDOCK:   -5.55 KCAL/MOL
REMARK 922        TOTAL FREE ENERGY PREDICTED BY IDOCK:   -8.03 KCAL/MOL
REMARK 923 INTER-LIGAND FREE ENERGY PREDICTED BY IDOCK:   -7.46 KCAL/MOL
REMARK 924 INTRA-LIGAND FREE ENERGY PREDICTED BY IDOCK:   -0.57 KCAL/MOL
REMARK 927      BINDING AFFINITY PREDICTED BY RF-SCORE:    0.00 PKD
ROOT
HETATM    1  O   UNL     1      -9.913   4.294  70.069  1.00  0.00    -0.223 OA 
HETATM    2  C   UNL     1     -10.147   4.492  71.253  1.00  0.00    -0.155 C  
HETATM    3  N   UNL     1     -10.083   3.546  72.232  1.00  0.00    -0.164 NA 
HETATM    4  O   UNL     1     -10.475   4.022  73.497  1.00  0.00    -0.151 OA 
HETATM    5  C   UNL     1     -10.836   5.398  73.313  1.00  0.00    -0.298 C  
HETATM    6  C   UNL     1     -10.506   5.807  71.882  1.00  0.00    -0.221 C  
ENDROOT
BRANCH   6   7
HETATM    7  N   UNL     1     -11.690   6.426  71.254  1.00  0.00    -0.319 NA 
HETATM    8  H   UNL     1     -12.037   6.156  70.334  1.00  0.00     0.000 HD 
BRANCH   7   9
HETATM    9  C   UNL     1     -12.247   7.340  71.975  1.00  0.00    -0.277 C  
BRANCH   9  10
HETATM   10  C   UNL     1     -12.395   8.720  71.478  1.00  0.00    -0.380 A  
HETATM   11  C   UNL     1     -11.520   9.149  70.477  1.00  0.00    -0.271 A  
HETATM   12  C   UNL     1     -11.493  10.499  70.123  1.00  0.00    -0.405 A  
HETATM   13  C   UNL     1     -12.348  11.406  70.756  1.00  0.00    -0.483 A  
HETATM   14  C   UNL     1     -13.271  10.964  71.707  1.00  0.00    -0.513 A  
HETATM   15  C   UNL     1     -13.291   9.615  72.074  1.00  0.00    -0.547 A  
BRANCH  13  16
HETATM   16  C   UNL     1     -12.218  12.852  70.488  1.00  0.00    -0.314 C  
BRANCH  16  17
HETATM   17  N   UNL     1     -11.342  13.295  69.649  1.00  0.00    -0.465 NA 
HETATM   18  H   UNL     1     -10.339  13.194  69.801  1.00  0.00     0.000 HD 
BRANCH  17  19
HETATM   19  C   UNL     1     -11.898  13.954  68.458  1.00  0.00    -0.366 C  
HETATM   20  C   UNL     1     -10.991  15.094  68.025  1.00  0.00    -0.295 C  
HETATM   21  O   UNL     1     -11.164  15.236  66.608  1.00  0.00    -0.314 OA 
HETATM   22  N   UNL     1     -11.578  13.958  66.159  1.00  0.00    -0.345 NA 
HETATM   23  C   UNL     1     -11.842  13.114  67.212  1.00  0.00    -0.367 C  
HETATM   24  O   UNL     1     -12.060  11.915  67.113  1.00  0.00    -0.590 OA 
ENDBRANCH  17  19
ENDBRANCH  16  17
ENDBRANCH  13  16
ENDBRANCH   9  10
ENDBRANCH   7   9
ENDBRANCH   6   7
TORSDOF 6
ENDMDL
MODEL       60
REMARK 921   NORMALIZED FREE ENERGY PREDICTED BY IDOCK:   -5.53 KCAL/MOL
REMARK 922        TOTAL FREE ENERGY PREDICTED BY IDOCK:   -8.01 KCAL/MOL
REMARK 923 INTER-LIGAND FREE ENERGY PREDICTED BY IDOCK:   -7.31 KCAL/MOL
REMARK 924 INTRA-LIGAND FREE ENERGY PREDICTED BY IDOCK:   -0.70 KCAL/MOL
REMARK 927      BINDING AFFINITY PREDICTED BY RF-SCORE:    0.00 PKD
ROOT
HETATM    1  O   UNL     1     -11.526  16.661  71.341  1.00  0.00    -0.260 OA 
HETATM    2  C   UNL     1     -12.285  15.823  71.810  1.00  0.00    -0.452 C  
HETATM    3  N   UNL     1     -12.824  15.869  73.061  1.00  0.00    -0.472 NA 
HETATM    4  O   UNL     1     -13.604  14.740  73.376  1.00  0.00    -0.438 OA 
HETATM    5  C   UNL     1     -13.552  13.885  72.226  1.00  0.00    -0.544 C  
HETATM    6  C   UNL     1     -12.814  14.608  71.105  1.00  0.00    -0.343 C  
ENDROOT
BRANCH   6   7
HETATM    7  N   UNL     1     -11.736  13.748  70.581  1.00  0.00    -0.527 NA 
HETATM    8  H   UNL     1     -11.028  13.319  71.177  1.00  0.00     0.000 HD 
BRANCH   7   9
HETATM    9  C   UNL     1     -11.769  13.587  69.301  1.00  0.00    -0.330 C  
BRANCH   9  10
HETATM   10  C   UNL     1     -11.574  12.258  68.693  1.00  0.00    -0.372 A  
HETATM   11  C   UNL     1     -11.649  11.141  69.530  1.00  0.00    -0.392 A  
HETATM   12  C   UNL     1     -11.275   9.890  69.038  1.00  0.00    -0.131 A  
HETATM   13  C   UNL     1     -10.845   9.758  67.714  1.00  0.00    -0.306 A  
HETATM   14  C   UNL     1     -10.837  10.863  66.859  1.00  0.00    -0.307 A  
HETATM   15  C   UNL     1     -11.198  12.121  67.352  1.00  0.00    -0.362 A  
BRANCH  13  16
HETATM   16  C   UNL     1     -10.311   8.467  67.237  1.00  0.00    -0.302 C  
BRANCH  16  17
HETATM   17  N   UNL     1     -11.024   7.392  67.298  1.00  0.00    -0.562 NA 
HETATM   18  H   UNL     1     -11.919   7.301  66.817  1.00  0.00     0.000 HD 
BRANCH  17  19
HETATM   19  C   UNL     1     -10.450   6.310  68.111  1.00  0.00    -0.226 C  
HETATM   20  C   UNL     1      -8.986   6.598  68.400  1.00  0.00    -0.123 C  
HETATM   21  O   UNL     1      -8.685   5.963  69.651  1.00  0.00    -0.125 OA 
HETATM   22  N   UNL     1      -9.924   5.891  70.333  1.00  0.00    -0.184 NA 
HETATM   23  C   UNL     1     -10.970   6.264  69.522  1.00  0.00    -0.379 C  
HETATM   24  O   UNL     1     -12.119   6.447  69.897  1.00  0.00    -0.176 OA 
ENDBRANCH  17  19
ENDBRANCH  16  17
ENDBRANCH  13  16
ENDBRANCH   9  10
ENDBRANCH   7   9
ENDBRANCH   6   7
TORSDOF 6
ENDMDL
MODEL       61
REMARK 921   NORMALIZED FREE ENERGY PREDICTED BY IDOCK:   -5.51 KCAL/MOL
REMARK 922        TOTAL FREE ENERGY PREDICTED BY IDOCK:   -7.98 KCAL/MOL
REMARK 923 INTER-LIGAND FREE ENERGY PREDICTED BY IDOCK:   -7.73 KCAL/MOL
REMARK 924 INTRA-LIGAND FREE ENERGY PREDICTED BY IDOCK:   -0.26 KCAL/MOL
REMARK 927      BINDING AFFINITY PREDICTED BY RF-SCORE:    0.00 PKD
ROOT
HETATM    1  O   UNL     1     -11.572  11.392  63.298  1.00  0.00    -0.233 OA 
HETATM    2  C   UNL     1     -12.063  12.414  63.757  1.00  0.00    -0.529 C  
HETATM    3  N   UNL     1     -12.370  13.528  63.034  1.00  0.00    -0.567 NA 
HETATM    4  O   UNL     1     -12.854  14.590  63.821  1.00  0.00    -0.669 OA 
HETATM    5  C   UNL     1     -12.845  14.120  65.176  1.00  0.00    -0.294 C  
HETATM    6  C   UNL     1     -12.469  12.643  65.184  1.00  0.00    -0.463 C  
ENDROOT
BRANCH   6   7
HETATM    7  N   UNL     1     -11.357  12.417  66.129  1.00  0.00    -0.333 NA 
HETATM    8  H   UNL     1     -10.594  11.767  65.943  1.00  0.00     0.000 HD 
BRANCH   7   9
HETATM    9  C   UNL     1     -11.438  13.117  67.210  1.00  0.00    -0.331 C  
BRANCH   9  10
HETATM   10  C   UNL     1     -10.644  14.346  67.386  1.00  0.00    -0.270 A  
HETATM   11  C   UNL     1     -11.196  15.374  68.154  1.00  0.00    -0.326 A  
HETATM   12  C   UNL     1     -10.572  16.622  68.180  1.00  0.00    -0.336 A  
HETATM   13  C   UNL     1      -9.395  16.831  67.453  1.00  0.00    -0.233 A  
HETATM   14  C   UNL     1      -8.806  15.783  66.741  1.00  0.00    -0.299 A  
HETATM   15  C   UNL     1      -9.437  14.535  66.703  1.00  0.00    -0.301 A  
BRANCH  13  16
HETATM   16  C   UNL     1      -8.816  18.186  67.362  1.00  0.00    -0.256 C  
BRANCH  16  17
HETATM   17  N   UNL     1      -9.154  18.988  66.408  1.00  0.00    -0.333 NA 
HETATM   18  H   UNL     1     -10.019  18.876  65.879  1.00  0.00     0.000 HD 
BRANCH  17  19
HETATM   19  C   UNL     1      -8.201  20.076  66.142  1.00  0.00    -0.272 C  
HETATM   20  C   UNL     1      -7.758  20.709  67.449  1.00  0.00    -0.311 C  
HETATM   21  O   UNL     1      -6.437  21.223  67.226  1.00  0.00    -0.389 OA 
HETATM   22  N   UNL     1      -5.907  20.430  66.179  1.00  0.00    -0.177 NA 
HETATM   23  C   UNL     1      -6.864  19.606  65.635  1.00  0.00    -0.289 C  
HETATM   24  O   UNL     1      -6.646  18.711  64.833  1.00  0.00    -0.514 OA 
ENDBRANCH  17  19
ENDBRANCH  16  17
ENDBRANCH  13  16
ENDBRANCH   9  10
ENDBRANCH   7   9
ENDBRANCH   6   7
TORSDOF 6
ENDMDL
MODEL       62
REMARK 921   NORMALIZED FREE ENERGY PREDICTED BY IDOCK:   -5.49 KCAL/MOL
REMARK 922        TOTAL FREE ENERGY PREDICTED BY IDOCK:   -7.95 KCAL/MOL
REMARK 923 INTER-LIGAND FREE ENERGY PREDICTED BY IDOCK:   -7.38 KCAL/MOL
REMARK 924 INTRA-LIGAND FREE ENERGY PREDICTED BY IDOCK:   -0.57 KCAL/MOL
REMARK 927      BINDING AFFINITY PREDICTED BY RF-SCORE:    0.00 PKD
ROOT
HETATM    1  O   UNL     1      -9.949   9.751  65.988  1.00  0.00    -0.256 OA 
HETATM    2  C   UNL     1     -10.119   9.151  67.040  1.00  0.00    -0.249 C  
HETATM    3  N   UNL     1      -9.890   7.820  67.228  1.00  0.00    -0.172 NA 
HETATM    4  O   UNL     1     -10.239   7.368  68.515  1.00  0.00    -0.174 OA 
HETATM    5  C   UNL     1     -10.750   8.511  69.215  1.00  0.00    -0.133 C  
HETATM    6  C   UNL     1     -10.564   9.748  68.344  1.00  0.00    -0.226 C  
ENDROOT
BRANCH   6   7
HETATM    7  N   UNL     1     -11.846  10.470  68.222  1.00  0.00    -0.785 NA 
HETATM    8  H   UNL     1     -12.523  10.280  67.484  1.00  0.00     0.000 HD 
BRANCH   7   9
HETATM    9  C   UNL     1     -12.033  11.362  69.135  1.00  0.00    -0.328 C  
BRANCH   9  10
HETATM   10  C   UNL     1     -11.888  12.799  68.839  1.00  0.00    -0.351 A  
HETATM   11  C   UNL     1     -11.575  13.166  67.528  1.00  0.00    -0.398 A  
HETATM   12  C   UNL     1     -11.234  14.490  67.249  1.00  0.00    -0.341 A  
HETATM   13  C   UNL     1     -11.222  15.440  68.274  1.00  0.00    -0.325 A  
HETATM   14  C   UNL     1     -11.603  15.087  69.572  1.00  0.00    -0.337 A  
HETATM   15  C   UNL     1     -11.932  13.759  69.857  1.00  0.00    -0.412 A  
BRANCH  13  16
HETATM   16  C   UNL     1     -10.721  16.804  68.010  1.00  0.00    -0.355 C  
BRANCH  16  17
HETATM   17  N   UNL     1      -9.496  17.002  67.656  1.00  0.00    -0.234 NA 
HETATM   18  H   UNL     1      -8.748  16.345  67.879  1.00  0.00     0.000 HD 
BRANCH  17  19
HETATM   19  C   UNL     1      -9.257  18.245  66.906  1.00  0.00    -0.282 C  
HETATM   20  C   UNL     1     -10.493  18.610  66.101  1.00  0.00    -0.430 C  
HETATM   21  O   UNL     1     -10.485  20.038  65.967  1.00  0.00    -0.457 OA 
HETATM   22  N   UNL     1      -9.748  20.507  67.082  1.00  0.00    -0.456 NA 
HETATM   23  C   UNL     1      -9.161  19.472  67.772  1.00  0.00    -0.324 C  
HETATM   24  O   UNL     1      -8.606  19.575  68.856  1.00  0.00    -0.359 OA 
ENDBRANCH  17  19
ENDBRANCH  16  17
ENDBRANCH  13  16
ENDBRANCH   9  10
ENDBRANCH   7   9
ENDBRANCH   6   7
TORSDOF 6
ENDMDL
MODEL       63
REMARK 921   NORMALIZED FREE ENERGY PREDICTED BY IDOCK:   -5.48 KCAL/MOL
REMARK 922        TOTAL FREE ENERGY PREDICTED BY IDOCK:   -7.95 KCAL/MOL
REMARK 923 INTER-LIGAND FREE ENERGY PREDICTED BY IDOCK:   -7.49 KCAL/MOL
REMARK 924 INTRA-LIGAND FREE ENERGY PREDICTED BY IDOCK:   -0.45 KCAL/MOL
REMARK 927      BINDING AFFINITY PREDICTED BY RF-SCORE:    0.00 PKD
ROOT
HETATM    1  O   UNL     1     -11.685   7.399  70.724  1.00  0.00    -0.294 OA 
HETATM    2  C   UNL     1     -12.246   8.369  71.214  1.00  0.00    -0.277 C  
HETATM    3  N   UNL     1     -13.270   8.310  72.113  1.00  0.00    -0.301 NA 
HETATM    4  O   UNL     1     -13.784   9.573  72.459  1.00  0.00    -0.424 OA 
HETATM    5  C   UNL     1     -13.032  10.532  71.704  1.00  0.00    -0.476 C  
HETATM    6  C   UNL     1     -11.906   9.811  70.971  1.00  0.00    -0.356 C  
ENDROOT
BRANCH   6   7
HETATM    7  N   UNL     1     -11.939  10.163  69.538  1.00  0.00    -0.490 NA 
HETATM    8  H   UNL     1     -12.771  10.057  68.958  1.00  0.00     0.000 HD 
BRANCH   7   9
HETATM    9  C   UNL     1     -10.819  10.615  69.084  1.00  0.00    -0.237 C  
BRANCH   9  10
HETATM   10  C   UNL     1     -10.682  12.017  68.650  1.00  0.00    -0.266 A  
HETATM   11  C   UNL     1     -11.589  12.949  69.159  1.00  0.00    -0.375 A  
HETATM   12  C   UNL     1     -11.622  14.238  68.625  1.00  0.00    -0.352 A  
HETATM   13  C   UNL     1     -10.740  14.593  67.600  1.00  0.00    -0.271 A  
HETATM   14  C   UNL     1      -9.786  13.682  67.139  1.00  0.00    -0.245 A  
HETATM   15  C   UNL     1      -9.760  12.385  67.663  1.00  0.00    -0.195 A  
BRANCH  13  16
HETATM   16  C   UNL     1     -10.871  15.905  66.935  1.00  0.00    -0.240 C  
BRANCH  16  17
HETATM   17  N   UNL     1     -10.471  16.985  67.517  1.00  0.00    -0.333 NA 
HETATM   18  H   UNL     1     -10.288  17.032  68.520  1.00  0.00     0.000 HD 
BRANCH  17  19
HETATM   19  C   UNL     1     -10.298  18.144  66.629  1.00  0.00    -0.376 C  
HETATM   20  C   UNL     1     -10.572  19.429  67.392  1.00  0.00    -0.488 C  
HETATM   21  O   UNL     1      -9.785  20.451  66.765  1.00  0.00    -0.417 OA 
HETATM   22  N   UNL     1      -8.700  19.763  66.166  1.00  0.00    -0.364 NA 
HETATM   23  C   UNL     1      -8.871  18.400  66.228  1.00  0.00    -0.188 C  
HETATM   24  O   UNL     1      -8.022  17.572  65.934  1.00  0.00    -0.527 OA 
ENDBRANCH  17  19
ENDBRANCH  16  17
ENDBRANCH  13  16
ENDBRANCH   9  10
ENDBRANCH   7   9
ENDBRANCH   6   7
TORSDOF 6
ENDMDL
MODEL       64
REMARK 921   NORMALIZED FREE ENERGY PREDICTED BY IDOCK:   -5.44 KCAL/MOL
REMARK 922        TOTAL FREE ENERGY PREDICTED BY IDOCK:   -7.89 KCAL/MOL
REMARK 923 INTER-LIGAND FREE ENERGY PREDICTED BY IDOCK:   -7.13 KCAL/MOL
REMARK 924 INTRA-LIGAND FREE ENERGY PREDICTED BY IDOCK:   -0.76 KCAL/MOL
REMARK 927      BINDING AFFINITY PREDICTED BY RF-SCORE:    0.00 PKD
ROOT
HETATM    1  O   UNL     1     -10.431  20.133  68.483  1.00  0.00    -0.385 OA 
HETATM    2  C   UNL     1      -9.571  19.985  67.625  1.00  0.00    -0.389 C  
HETATM    3  N   UNL     1      -9.779  20.087  66.282  1.00  0.00    -0.430 NA 
HETATM    4  O   UNL     1      -8.635  19.796  65.514  1.00  0.00    -0.275 OA 
HETATM    5  C   UNL     1      -7.600  19.465  66.450  1.00  0.00    -0.271 C  
HETATM    6  C   UNL     1      -8.114  19.710  67.864  1.00  0.00    -0.304 C  
ENDROOT
BRANCH   6   7
HETATM    7  N   UNL     1      -7.897  18.506  68.689  1.00  0.00    -0.319 NA 
HETATM    8  H   UNL     1      -7.888  18.524  69.708  1.00  0.00     0.000 HD 
BRANCH   7   9
HETATM    9  C   UNL     1      -7.720  17.427  68.004  1.00  0.00    -0.202 C  
BRANCH   9  10
HETATM   10  C   UNL     1      -8.672  16.305  68.086  1.00  0.00    -0.182 A  
HETATM   11  C   UNL     1     -10.011  16.562  67.778  1.00  0.00    -0.253 A  
HETATM   12  C   UNL     1     -10.974  15.585  68.035  1.00  0.00    -0.311 A  
HETATM   13  C   UNL     1     -10.594  14.355  68.582  1.00  0.00    -0.253 A  
HETATM   14  C   UNL     1      -9.248  14.073  68.825  1.00  0.00    -0.050 A  
HETATM   15  C   UNL     1      -8.282  15.055  68.581  1.00  0.00    -0.156 A  
BRANCH  13  16
HETATM   16  C   UNL     1     -11.625  13.380  68.990  1.00  0.00    -0.312 C  
BRANCH  16  17
HETATM   17  N   UNL     1     -12.738  13.773  69.513  1.00  0.00    -0.175 NA 
HETATM   18  H   UNL     1     -13.614  13.788  68.991  1.00  0.00     0.000 HD 
BRANCH  17  19
HETATM   19  C   UNL     1     -12.650  14.196  70.919  1.00  0.00    -0.363 C  
HETATM   20  C   UNL     1     -13.494  15.439  71.141  1.00  0.00    -0.493 C  
HETATM   21  O   UNL     1     -13.913  15.408  72.513  1.00  0.00    -0.519 OA 
HETATM   22  N   UNL     1     -13.900  14.037  72.869  1.00  0.00    -0.584 NA 
HETATM   23  C   UNL     1     -13.333  13.264  71.882  1.00  0.00    -0.451 C  
HETATM   24  O   UNL     1     -13.339  12.043  71.857  1.00  0.00    -0.456 OA 
ENDBRANCH  17  19
ENDBRANCH  16  17
ENDBRANCH  13  16
ENDBRANCH   9  10
ENDBRANCH   7   9
ENDBRANCH   6   7
TORSDOF 6
ENDMDL
MODEL       65
REMARK 921   NORMALIZED FREE ENERGY PREDICTED BY IDOCK:   -5.44 KCAL/MOL
REMARK 922        TOTAL FREE ENERGY PREDICTED BY IDOCK:   -7.88 KCAL/MOL
REMARK 923 INTER-LIGAND FREE ENERGY PREDICTED BY IDOCK:   -7.20 KCAL/MOL
REMARK 924 INTRA-LIGAND FREE ENERGY PREDICTED BY IDOCK:   -0.68 KCAL/MOL
REMARK 927      BINDING AFFINITY PREDICTED BY RF-SCORE:    0.00 PKD
ROOT
HETATM    1  O   UNL     1      -8.377   8.606  74.011  1.00  0.00    -0.325 OA 
HETATM    2  C   UNL     1      -8.600   7.547  73.441  1.00  0.00    -0.166 C  
HETATM    3  N   UNL     1      -7.816   7.002  72.468  1.00  0.00    -0.093 NA 
HETATM    4  O   UNL     1      -8.342   5.814  71.927  1.00  0.00    -0.118 OA 
HETATM    5  C   UNL     1      -9.584   5.580  72.604  1.00  0.00    -0.150 C  
HETATM    6  C   UNL     1      -9.742   6.612  73.716  1.00  0.00    -0.224 C  
ENDROOT
BRANCH   6   7
HETATM    7  N   UNL     1     -11.054   7.276  73.597  1.00  0.00    -0.554 NA 
HETATM    8  H   UNL     1     -11.558   7.660  74.397  1.00  0.00     0.000 HD 
BRANCH   7   9
HETATM    9  C   UNL     1     -11.508   7.328  72.390  1.00  0.00    -0.287 C  
BRANCH   9  10
HETATM   10  C   UNL     1     -11.852   8.615  71.758  1.00  0.00    -0.404 A  
HETATM   11  C   UNL     1     -10.975   9.125  70.799  1.00  0.00    -0.332 A  
HETATM   12  C   UNL     1     -11.157  10.426  70.325  1.00  0.00    -0.379 A  
HETATM   13  C   UNL     1     -12.220  11.201  70.800  1.00  0.00    -0.484 A  
HETATM   14  C   UNL     1     -13.137  10.665  71.708  1.00  0.00    -0.571 A  
HETATM   15  C   UNL     1     -12.949   9.367  72.194  1.00  0.00    -0.503 A  
BRANCH  13  16
HETATM   16  C   UNL     1     -12.327  12.621  70.412  1.00  0.00    -0.237 C  
BRANCH  16  17
HETATM   17  N   UNL     1     -11.344  13.226  69.832  1.00  0.00    -0.501 NA 
HETATM   18  H   UNL     1     -10.374  13.092  70.117  1.00  0.00     0.000 HD 
BRANCH  17  19
HETATM   19  C   UNL     1     -11.728  14.122  68.731  1.00  0.00    -0.345 C  
HETATM   20  C   UNL     1     -11.557  15.570  69.157  1.00  0.00    -0.362 C  
HETATM   21  O   UNL     1     -11.281  16.317  67.964  1.00  0.00    -0.334 OA 
HETATM   22  N   UNL     1     -10.702  15.380  67.072  1.00  0.00    -0.317 NA 
HETATM   23  C   UNL     1     -10.777  14.099  67.566  1.00  0.00    -0.269 C  
HETATM   24  O   UNL     1     -10.219  13.126  67.081  1.00  0.00    -0.241 OA 
ENDBRANCH  17  19
ENDBRANCH  16  17
ENDBRANCH  13  16
ENDBRANCH   9  10
ENDBRANCH   7   9
ENDBRANCH   6   7
TORSDOF 6
ENDMDL
MODEL       66
REMARK 921   NORMALIZED FREE ENERGY PREDICTED BY IDOCK:   -5.37 KCAL/MOL
REMARK 922        TOTAL FREE ENERGY PREDICTED BY IDOCK:   -7.79 KCAL/MOL
REMARK 923 INTER-LIGAND FREE ENERGY PREDICTED BY IDOCK:   -7.12 KCAL/MOL
REMARK 924 INTRA-LIGAND FREE ENERGY PREDICTED BY IDOCK:   -0.67 KCAL/MOL
REMARK 927      BINDING AFFINITY PREDICTED BY RF-SCORE:    0.00 PKD
ROOT
HETATM    1  O   UNL     1      -9.245   6.726  67.666  1.00  0.00    -0.120 OA 
HETATM    2  C   UNL     1      -9.892   6.527  68.685  1.00  0.00    -0.139 C  
HETATM    3  N   UNL     1     -11.230   6.269  68.724  1.00  0.00    -0.354 NA 
HETATM    4  O   UNL     1     -11.740   6.152  70.031  1.00  0.00    -0.336 OA 
HETATM    5  C   UNL     1     -10.630   6.367  70.914  1.00  0.00    -0.236 C  
HETATM    6  C   UNL     1      -9.354   6.477  70.086  1.00  0.00    -0.158 C  
ENDROOT
BRANCH   6   7
HETATM    7  N   UNL     1      -8.627   7.708  70.452  1.00  0.00    -0.137 NA 
HETATM    8  H   UNL     1      -7.628   7.834  70.286  1.00  0.00     0.000 HD 
BRANCH   7   9
HETATM    9  C   UNL     1      -9.367   8.610  71.002  1.00  0.00    -0.202 C  
BRANCH   9  10
HETATM   10  C   UNL     1      -9.947   9.710  70.210  1.00  0.00    -0.326 A  
HETATM   11  C   UNL     1     -11.235  10.141  70.539  1.00  0.00    -0.411 A  
HETATM   12  C   UNL     1     -11.895  11.034  69.694  1.00  0.00    -0.414 A  
HETATM   13  C   UNL     1     -11.262  11.503  68.539  1.00  0.00    -0.315 A  
HETATM   14  C   UNL     1      -9.949  11.125  68.248  1.00  0.00    -0.196 A  
HETATM   15  C   UNL     1      -9.290  10.219  69.085  1.00  0.00    -0.214 A  
BRANCH  13  16
HETATM   16  C   UNL     1     -12.011  12.330  67.571  1.00  0.00    -0.140 C  
BRANCH  16  17
HETATM   17  N   UNL     1     -11.469  12.705  66.461  1.00  0.00    -0.333 NA 
HETATM   18  H   UNL     1     -10.462  12.668  66.303  1.00  0.00     0.000 HD 
BRANCH  17  19
HETATM   19  C   UNL     1     -12.411  13.190  65.441  1.00  0.00    -0.481 C  
HETATM   20  C   UNL     1     -12.158  14.661  65.159  1.00  0.00    -0.308 C  
HETATM   21  O   UNL     1     -12.564  14.891  63.802  1.00  0.00    -0.791 OA 
HETATM   22  N   UNL     1     -12.436  13.633  63.163  1.00  0.00    -0.714 NA 
HETATM   23  C   UNL     1     -12.163  12.633  64.066  1.00  0.00    -0.463 C  
HETATM   24  O   UNL     1     -11.848  11.489  63.773  1.00  0.00    -0.336 OA 
ENDBRANCH  17  19
ENDBRANCH  16  17
ENDBRANCH  13  16
ENDBRANCH   9  10
ENDBRANCH   7   9
ENDBRANCH   6   7
TORSDOF 6
ENDMDL
MODEL       67
REMARK 921   NORMALIZED FREE ENERGY PREDICTED BY IDOCK:   -5.36 KCAL/MOL
REMARK 922        TOTAL FREE ENERGY PREDICTED BY IDOCK:   -7.78 KCAL/MOL
REMARK 923 INTER-LIGAND FREE ENERGY PREDICTED BY IDOCK:   -7.14 KCAL/MOL
REMARK 924 INTRA-LIGAND FREE ENERGY PREDICTED BY IDOCK:   -0.63 KCAL/MOL
REMARK 927      BINDING AFFINITY PREDICTED BY RF-SCORE:    0.00 PKD
ROOT
HETATM    1  O   UNL     1     -10.096  19.459  69.182  1.00  0.00    -0.408 OA 
HETATM    2  C   UNL     1      -9.645  19.589  68.052  1.00  0.00    -0.359 C  
HETATM    3  N   UNL     1     -10.332  20.095  66.989  1.00  0.00    -0.414 NA 
HETATM    4  O   UNL     1      -9.603  20.065  65.786  1.00  0.00    -0.336 OA 
HETATM    5  C   UNL     1      -8.335  19.474  66.101  1.00  0.00    -0.321 C  
HETATM    6  C   UNL     1      -8.247  19.269  67.609  1.00  0.00    -0.292 C  
ENDROOT
BRANCH   6   7
HETATM    7  N   UNL     1      -7.871  17.872  67.902  1.00  0.00    -0.225 NA 
HETATM    8  H   UNL     1      -7.373  17.596  68.748  1.00  0.00     0.000 HD 
BRANCH   7   9
HETATM    9  C   UNL     1      -8.228  17.032  66.990  1.00  0.00    -0.204 C  
BRANCH   9  10
HETATM   10  C   UNL     1      -9.168  15.936  67.287  1.00  0.00    -0.216 A  
HETATM   11  C   UNL     1      -9.888  16.002  68.483  1.00  0.00    -0.216 A  
HETATM   12  C   UNL     1     -10.633  14.896  68.897  1.00  0.00    -0.247 A  
HETATM   13  C   UNL     1     -10.667  13.741  68.109  1.00  0.00    -0.258 A  
HETATM   14  C   UNL     1     -10.003  13.702  66.881  1.00  0.00    -0.260 A  
HETATM   15  C   UNL     1      -9.244  14.803  66.470  1.00  0.00    -0.304 A  
BRANCH  13  16
HETATM   16  C   UNL     1     -11.332  12.524  68.615  1.00  0.00    -0.288 C  
BRANCH  16  17
HETATM   17  N   UNL     1     -11.497  12.336  69.881  1.00  0.00    -0.510 NA 
HETATM   18  H   UNL     1     -11.057  12.929  70.585  1.00  0.00     0.000 HD 
BRANCH  17  19
HETATM   19  C   UNL     1     -12.365  11.203  70.235  1.00  0.00    -0.315 C  
HETATM   20  C   UNL     1     -11.524   9.966  70.496  1.00  0.00    -0.318 C  
HETATM   21  O   UNL     1     -12.258   9.163  71.431  1.00  0.00    -0.304 OA 
HETATM   22  N   UNL     1     -13.075  10.080  72.138  1.00  0.00    -0.426 NA 
HETATM   23  C   UNL     1     -13.024  11.336  71.581  1.00  0.00    -0.432 C  
HETATM   24  O   UNL     1     -13.501  12.345  72.079  1.00  0.00    -0.489 OA 
ENDBRANCH  17  19
ENDBRANCH  16  17
ENDBRANCH  13  16
ENDBRANCH   9  10
ENDBRANCH   7   9
ENDBRANCH   6   7
TORSDOF 6
ENDMDL
MODEL       68
REMARK 921   NORMALIZED FREE ENERGY PREDICTED BY IDOCK:   -5.35 KCAL/MOL
REMARK 922        TOTAL FREE ENERGY PREDICTED BY IDOCK:   -7.77 KCAL/MOL
REMARK 923 INTER-LIGAND FREE ENERGY PREDICTED BY IDOCK:   -7.06 KCAL/MOL
REMARK 924 INTRA-LIGAND FREE ENERGY PREDICTED BY IDOCK:   -0.71 KCAL/MOL
REMARK 927      BINDING AFFINITY PREDICTED BY RF-SCORE:    0.00 PKD
ROOT
HETATM    1  O   UNL     1     -10.857  14.015  65.425  1.00  0.00    -0.302 OA 
HETATM    2  C   UNL     1     -11.046  14.674  66.438  1.00  0.00    -0.334 C  
HETATM    3  N   UNL     1     -10.414  15.844  66.741  1.00  0.00    -0.306 NA 
HETATM    4  O   UNL     1     -10.762  16.357  68.004  1.00  0.00    -0.311 OA 
HETATM    5  C   UNL     1     -11.694  15.426  68.571  1.00  0.00    -0.338 C  
HETATM    6  C   UNL     1     -12.032  14.367  67.528  1.00  0.00    -0.354 C  
ENDROOT
BRANCH   6   7
HETATM    7  N   UNL     1     -11.836  13.022  68.101  1.00  0.00    -0.348 NA 
HETATM    8  H   UNL     1     -11.663  12.194  67.531  1.00  0.00     0.000 HD 
BRANCH   7   9
HETATM    9  C   UNL     1     -11.903  12.986  69.389  1.00  0.00    -0.322 C  
BRANCH   9  10
HETATM   10  C   UNL     1     -11.883  11.706  70.120  1.00  0.00    -0.428 A  
HETATM   11  C   UNL     1     -11.013  10.711  69.668  1.00  0.00    -0.331 A  
HETATM   12  C   UNL     1     -11.106   9.425  70.201  1.00  0.00    -0.277 A  
HETATM   13  C   UNL     1     -12.054   9.144  71.190  1.00  0.00    -0.365 A  
HETATM   14  C   UNL     1     -12.877  10.156  71.691  1.00  0.00    -0.559 A  
HETATM   15  C   UNL     1     -12.795  11.443  71.149  1.00  0.00    -0.440 A  
BRANCH  13  16
HETATM   16  C   UNL     1     -12.252   7.754  71.649  1.00  0.00    -0.313 C  
BRANCH  16  17
HETATM   17  N   UNL     1     -11.934   7.401  72.849  1.00  0.00    -0.549 NA 
HETATM   18  H   UNL     1     -12.430   7.745  73.671  1.00  0.00     0.000 HD 
BRANCH  17  19
HETATM   19  C   UNL     1     -10.804   6.465  72.943  1.00  0.00    -0.256 C  
HETATM   20  C   UNL     1     -10.695   5.652  71.665  1.00  0.00    -0.251 C  
HETATM   21  O   UNL     1      -9.311   5.302  71.520  1.00  0.00    -0.144 OA 
HETATM   22  N   UNL     1      -8.603   6.312  72.219  1.00  0.00    -0.119 NA 
HETATM   23  C   UNL     1      -9.455   7.131  72.921  1.00  0.00    -0.151 C  
HETATM   24  O   UNL     1      -9.130   8.170  73.477  1.00  0.00    -0.260 OA 
ENDBRANCH  17  19
ENDBRANCH  16  17
ENDBRANCH  13  16
ENDBRANCH   9  10
ENDBRANCH   7   9
ENDBRANCH   6   7
TORSDOF 6
ENDMDL
MODEL       69
REMARK 921   NORMALIZED FREE ENERGY PREDICTED BY IDOCK:   -5.34 KCAL/MOL
REMARK 922        TOTAL FREE ENERGY PREDICTED BY IDOCK:   -7.76 KCAL/MOL
REMARK 923 INTER-LIGAND FREE ENERGY PREDICTED BY IDOCK:   -7.40 KCAL/MOL
REMARK 924 INTRA-LIGAND FREE ENERGY PREDICTED BY IDOCK:   -0.36 KCAL/MOL
REMARK 927      BINDING AFFINITY PREDICTED BY RF-SCORE:    0.00 PKD
ROOT
HETATM    1  O   UNL     1     -11.112   5.632  69.785  1.00  0.00    -0.328 OA 
HETATM    2  C   UNL     1     -10.076   5.870  70.391  1.00  0.00    -0.201 C  
HETATM    3  N   UNL     1      -9.865   5.609  71.713  1.00  0.00    -0.165 NA 
HETATM    4  O   UNL     1      -8.612   6.050  72.177  1.00  0.00    -0.128 OA 
HETATM    5  C   UNL     1      -7.962   6.661  71.054  1.00  0.00    -0.107 C  
HETATM    6  C   UNL     1      -8.818   6.447  69.811  1.00  0.00    -0.142 C  
ENDROOT
BRANCH   6   7
HETATM    7  N   UNL     1      -9.051   7.740  69.137  1.00  0.00    -0.145 NA 
HETATM    8  H   UNL     1      -8.655   7.972  68.226  1.00  0.00     0.000 HD 
BRANCH   7   9
HETATM    9  C   UNL     1      -9.802   8.550  69.804  1.00  0.00    -0.186 C  
BRANCH   9  10
HETATM   10  C   UNL     1     -10.543   9.632  69.132  1.00  0.00    -0.237 A  
HETATM   11  C   UNL     1     -10.335   9.812  67.762  1.00  0.00    -0.274 A  
HETATM   12  C   UNL     1     -10.857  10.942  67.131  1.00  0.00    -0.337 A  
HETATM   13  C   UNL     1     -11.595  11.875  67.865  1.00  0.00    -0.393 A  
HETATM   14  C   UNL     1     -11.861  11.660  69.220  1.00  0.00    -0.396 A  
HETATM   15  C   UNL     1     -11.328  10.536  69.858  1.00  0.00    -0.380 A  
BRANCH  13  16
HETATM   16  C   UNL     1     -12.021  13.140  67.234  1.00  0.00    -0.335 C  
BRANCH  16  17
HETATM   17  N   UNL     1     -11.279  13.724  66.353  1.00  0.00    -0.311 NA 
HETATM   18  H   UNL     1     -10.366  13.360  66.078  1.00  0.00     0.000 HD 
BRANCH  17  19
HETATM   19  C   UNL     1     -11.847  14.952  65.776  1.00  0.00    -0.118 C  
HETATM   20  C   UNL     1     -10.768  16.015  65.654  1.00  0.00    -0.329 C  
HETATM   21  O   UNL     1     -11.143  16.852  64.552  1.00  0.00    -1.054 OA 
HETATM   22  N   UNL     1     -11.943  16.028  63.722  1.00  0.00    -0.759 NA 
HETATM   23  C   UNL     1     -12.227  14.826  64.326  1.00  0.00    -0.379 C  
HETATM   24  O   UNL     1     -12.759  13.873  63.777  1.00  0.00    -0.693 OA 
ENDBRANCH  17  19
ENDBRANCH  16  17
ENDBRANCH  13  16
ENDBRANCH   9  10
ENDBRANCH   7   9
ENDBRANCH   6   7
TORSDOF 6
ENDMDL
MODEL       70
REMARK 921   NORMALIZED FREE ENERGY PREDICTED BY IDOCK:   -5.31 KCAL/MOL
REMARK 922        TOTAL FREE ENERGY PREDICTED BY IDOCK:   -7.72 KCAL/MOL
REMARK 923 INTER-LIGAND FREE ENERGY PREDICTED BY IDOCK:   -7.15 KCAL/MOL
REMARK 924 INTRA-LIGAND FREE ENERGY PREDICTED BY IDOCK:   -0.57 KCAL/MOL
REMARK 927      BINDING AFFINITY PREDICTED BY RF-SCORE:    0.00 PKD
ROOT
HETATM    1  O   UNL     1     -10.101  17.810  66.782  1.00  0.00    -0.317 OA 
HETATM    2  C   UNL     1     -10.523  17.001  65.967  1.00  0.00    -0.274 C  
HETATM    3  N   UNL     1     -11.128  17.322  64.788  1.00  0.00    -0.920 NA 
HETATM    4  O   UNL     1     -11.586  16.201  64.071  1.00  0.00    -0.790 OA 
HETATM    5  C   UNL     1     -11.256  15.055  64.867  1.00  0.00    -0.416 C  
HETATM    6  C   UNL     1     -10.426  15.506  66.063  1.00  0.00    -0.323 C  
ENDROOT
BRANCH   6   7
HETATM    7  N   UNL     1     -11.020  14.984  67.309  1.00  0.00    -0.318 NA 
HETATM    8  H   UNL     1     -10.736  15.301  68.236  1.00  0.00     0.000 HD 
BRANCH   7   9
HETATM    9  C   UNL     1     -11.931  14.090  67.120  1.00  0.00    -0.430 C  
BRANCH   9  10
HETATM   10  C   UNL     1     -11.771  12.717  67.632  1.00  0.00    -0.422 A  
HETATM   11  C   UNL     1     -12.073  12.483  68.976  1.00  0.00    -0.181 A  
HETATM   12  C   UNL     1     -11.747  11.253  69.548  1.00  0.00    -0.415 A  
HETATM   13  C   UNL     1     -11.137  10.260  68.773  1.00  0.00    -0.276 A  
HETATM   14  C   UNL     1     -10.899  10.470  67.413  1.00  0.00    -0.349 A  
HETATM   15  C   UNL     1     -11.212  11.707  66.840  1.00  0.00    -0.376 A  
BRANCH  13  16
HETATM   16  C   UNL     1     -10.660   9.017  69.411  1.00  0.00    -0.221 C  
BRANCH  16  17
HETATM   17  N   UNL     1      -9.435   8.632  69.276  1.00  0.00    -0.157 NA 
HETATM   18  H   UNL     1      -8.710   9.236  68.889  1.00  0.00     0.000 HD 
BRANCH  17  19
HETATM   19  C   UNL     1      -9.162   7.257  69.721  1.00  0.00    -0.140 C  
HETATM   20  C   UNL     1     -10.456   6.581  70.141  1.00  0.00    -0.214 C  
HETATM   21  O   UNL     1     -10.276   5.176  69.911  1.00  0.00    -0.255 OA 
HETATM   22  N   UNL     1      -9.301   5.095  68.887  1.00  0.00    -0.118 NA 
HETATM   23  C   UNL     1      -8.751   6.326  68.614  1.00  0.00    -0.120 C  
HETATM   24  O   UNL     1      -8.009   6.571  67.674  1.00  0.00    -0.111 OA 
ENDBRANCH  17  19
ENDBRANCH  16  17
ENDBRANCH  13  16
ENDBRANCH   9  10
ENDBRANCH   7   9
ENDBRANCH   6   7
TORSDOF 6
ENDMDL
MODEL       71
REMARK 921   NORMALIZED FREE ENERGY PREDICTED BY IDOCK:   -5.31 KCAL/MOL
REMARK 922        TOTAL FREE ENERGY PREDICTED BY IDOCK:   -7.72 KCAL/MOL
REMARK 923 INTER-LIGAND FREE ENERGY PREDICTED BY IDOCK:   -7.56 KCAL/MOL
REMARK 924 INTRA-LIGAND FREE ENERGY PREDICTED BY IDOCK:   -0.16 KCAL/MOL
REMARK 927      BINDING AFFINITY PREDICTED BY RF-SCORE:    0.00 PKD
ROOT
HETATM    1  O   UNL     1     -12.141   6.465  72.459  1.00  0.00    -0.175 OA 
HETATM    2  C   UNL     1     -11.097   6.041  71.982  1.00  0.00    -0.274 C  
HETATM    3  N   UNL     1     -10.311   5.081  72.547  1.00  0.00    -0.196 NA 
HETATM    4  O   UNL     1      -9.127   4.833  71.827  1.00  0.00    -0.131 OA 
HETATM    5  C   UNL     1      -9.148   5.723  70.703  1.00  0.00    -0.151 C  
HETATM    6  C   UNL     1     -10.490   6.446  70.670  1.00  0.00    -0.219 C  
ENDROOT
BRANCH   6   7
HETATM    7  N   UNL     1     -10.269   7.903  70.578  1.00  0.00    -0.197 NA 
HETATM    8  H   UNL     1      -9.885   8.456  71.345  1.00  0.00     0.000 HD 
BRANCH   7   9
HETATM    9  C   UNL     1     -10.605   8.413  69.442  1.00  0.00    -0.197 C  
BRANCH   9  10
HETATM   10  C   UNL     1     -11.159   9.776  69.351  1.00  0.00    -0.205 A  
HETATM   11  C   UNL     1     -10.934  10.494  68.174  1.00  0.00    -0.330 A  
HETATM   12  C   UNL     1     -11.264  11.849  68.123  1.00  0.00    -0.316 A  
HETATM   13  C   UNL     1     -11.831  12.473  69.239  1.00  0.00    -0.360 A  
HETATM   14  C   UNL     1     -12.120  11.738  70.391  1.00  0.00    -0.440 A  
HETATM   15  C   UNL     1     -11.778  10.384  70.450  1.00  0.00    -0.419 A  
BRANCH  13  16
HETATM   16  C   UNL     1     -12.044  13.934  69.236  1.00  0.00    -0.339 C  
BRANCH  16  17
HETATM   17  N   UNL     1     -12.840  14.489  70.089  1.00  0.00    -0.538 NA 
HETATM   18  H   UNL     1     -13.800  14.743  69.857  1.00  0.00     0.000 HD 
BRANCH  17  19
HETATM   19  C   UNL     1     -12.260  14.726  71.419  1.00  0.00    -0.342 C  
HETATM   20  C   UNL     1     -12.035  16.214  71.629  1.00  0.00    -0.462 C  
HETATM   21  O   UNL     1     -12.132  16.446  73.041  1.00  0.00    -0.523 OA 
HETATM   22  N   UNL     1     -12.955  15.401  73.528  1.00  0.00    -0.523 NA 
HETATM   23  C   UNL     1     -13.208  14.462  72.556  1.00  0.00    -0.469 C  
HETATM   24  O   UNL     1     -14.013  13.548  72.656  1.00  0.00    -0.752 OA 
ENDBRANCH  17  19
ENDBRANCH  16  17
ENDBRANCH  13  16
ENDBRANCH   9  10
ENDBRANCH   7   9
ENDBRANCH   6   7
TORSDOF 6
ENDMDL
MODEL       72
REMARK 921   NORMALIZED FREE ENERGY PREDICTED BY IDOCK:   -5.31 KCAL/MOL
REMARK 922        TOTAL FREE ENERGY PREDICTED BY IDOCK:   -7.71 KCAL/MOL
REMARK 923 INTER-LIGAND FREE ENERGY PREDICTED BY IDOCK:   -7.05 KCAL/MOL
REMARK 924 INTRA-LIGAND FREE ENERGY PREDICTED BY IDOCK:   -0.66 KCAL/MOL
REMARK 927      BINDING AFFINITY PREDICTED BY RF-SCORE:    0.00 PKD
ROOT
HETATM    1  O   UNL     1     -11.287  16.432  70.579  1.00  0.00    -0.363 OA 
HETATM    2  C   UNL     1     -11.093  15.928  69.481  1.00  0.00    -0.315 C  
HETATM    3  N   UNL     1     -11.221  16.576  68.288  1.00  0.00    -0.328 NA 
HETATM    4  O   UNL     1     -11.013  15.742  67.174  1.00  0.00    -0.314 OA 
HETATM    5  C   UNL     1     -10.738  14.435  67.697  1.00  0.00    -0.263 C  
HETATM    6  C   UNL     1     -10.636  14.523  69.216  1.00  0.00    -0.212 C  
ENDROOT
BRANCH   6   7
HETATM    7  N   UNL     1     -11.522  13.517  69.834  1.00  0.00    -0.478 NA 
HETATM    8  H   UNL     1     -11.969  13.652  70.741  1.00  0.00     0.000 HD 
BRANCH   7   9
HETATM    9  C   UNL     1     -11.680  12.451  69.124  1.00  0.00    -0.322 C  
BRANCH   9  10
HETATM   10  C   UNL     1     -11.809  11.125  69.754  1.00  0.00    -0.422 A  
HETATM   11  C   UNL     1     -12.689  10.998  70.831  1.00  0.00    -0.452 A  
HETATM   12  C   UNL     1     -12.692   9.821  71.580  1.00  0.00    -0.517 A  
HETATM   13  C   UNL     1     -11.830   8.774  71.241  1.00  0.00    -0.358 A  
HETATM   14  C   UNL     1     -10.999   8.875  70.122  1.00  0.00    -0.245 A  
HETATM   15  C   UNL     1     -10.984  10.059  69.378  1.00  0.00    -0.280 A  
BRANCH  13  16
HETATM   16  C   UNL     1     -11.727   7.590  72.117  1.00  0.00    -0.303 C  
BRANCH  16  17
HETATM   17  N   UNL     1     -11.296   7.698  73.329  1.00  0.00    -0.619 NA 
HETATM   18  H   UNL     1     -11.709   8.344  74.002  1.00  0.00     0.000 HD 
BRANCH  17  19
HETATM   19  C   UNL     1     -10.165   6.820  73.668  1.00  0.00    -0.326 C  
HETATM   20  C   UNL     1     -10.152   5.612  72.748  1.00  0.00    -0.180 C  
HETATM   21  O   UNL     1      -8.783   5.195  72.643  1.00  0.00    -0.122 OA 
HETATM   22  N   UNL     1      -8.023   6.363  72.900  1.00  0.00    -0.106 NA 
HETATM   23  C   UNL     1      -8.819   7.399  73.328  1.00  0.00    -0.157 C  
HETATM   24  O   UNL     1      -8.451   8.556  73.466  1.00  0.00    -0.365 OA 
ENDBRANCH  17  19
ENDBRANCH  16  17
ENDBRANCH  13  16
ENDBRANCH   9  10
ENDBRANCH   7   9
ENDBRANCH   6   7
TORSDOF 6
ENDMDL
MODEL       73
REMARK 921   NORMALIZED FREE ENERGY PREDICTED BY IDOCK:   -5.30 KCAL/MOL
REMARK 922        TOTAL FREE ENERGY PREDICTED BY IDOCK:   -7.69 KCAL/MOL
REMARK 923 INTER-LIGAND FREE ENERGY PREDICTED BY IDOCK:   -7.09 KCAL/MOL
REMARK 924 INTRA-LIGAND FREE ENERGY PREDICTED BY IDOCK:   -0.61 KCAL/MOL
REMARK 927      BINDING AFFINITY PREDICTED BY RF-SCORE:    0.00 PKD
ROOT
HETATM    1  O   UNL     1     -11.171   6.737  66.849  1.00  0.00    -0.375 OA 
HETATM    2  C   UNL     1     -10.549   7.442  67.631  1.00  0.00    -0.239 C  
HETATM    3  N   UNL     1     -10.557   7.303  68.987  1.00  0.00    -0.213 NA 
HETATM    4  O   UNL     1      -9.814   8.294  69.656  1.00  0.00    -0.179 OA 
HETATM    5  C   UNL     1      -9.290   9.156  68.637  1.00  0.00    -0.135 C  
HETATM    6  C   UNL     1      -9.620   8.566  67.271  1.00  0.00    -0.171 C  
ENDROOT
BRANCH   6   7
HETATM    7  N   UNL     1     -10.274   9.588  66.431  1.00  0.00    -0.256 NA 
HETATM    8  H   UNL     1     -10.304   9.535  65.413  1.00  0.00     0.000 HD 
BRANCH   7   9
HETATM    9  C   UNL     1     -10.805  10.555  67.100  1.00  0.00    -0.259 C  
BRANCH   9  10
HETATM   10  C   UNL     1     -10.959  11.897  66.511  1.00  0.00    -0.337 A  
HETATM   11  C   UNL     1     -10.149  12.228  65.422  1.00  0.00    -0.292 A  
HETATM   12  C   UNL     1     -10.119  13.546  64.964  1.00  0.00    -0.280 A  
HETATM   13  C   UNL     1     -10.908  14.520  65.584  1.00  0.00    -0.329 A  
HETATM   14  C   UNL     1     -11.770  14.174  66.628  1.00  0.00    -0.422 A  
HETATM   15  C   UNL     1     -11.792  12.857  67.098  1.00  0.00    -0.424 A  
BRANCH  13  16
HETATM   16  C   UNL     1     -10.768  15.938  65.197  1.00  0.00    -0.429 C  
BRANCH  16  17
HETATM   17  N   UNL     1      -9.761  16.638  65.600  1.00  0.00    -0.548 NA 
HETATM   18  H   UNL     1      -8.795  16.350  65.439  1.00  0.00     0.000 HD 
BRANCH  17  19
HETATM   19  C   UNL     1     -10.108  17.880  66.306  1.00  0.00    -0.351 C  
HETATM   20  C   UNL     1     -10.502  17.568  67.740  1.00  0.00    -0.381 C  
HETATM   21  O   UNL     1     -10.175  18.731  68.515  1.00  0.00    -0.377 OA 
HETATM   22  N   UNL     1      -9.132  19.367  67.798  1.00  0.00    -0.308 NA 
HETATM   23  C   UNL     1      -8.933  18.782  66.569  1.00  0.00    -0.319 C  
HETATM   24  O   UNL     1      -8.000  19.025  65.818  1.00  0.00    -0.465 OA 
ENDBRANCH  17  19
ENDBRANCH  16  17
ENDBRANCH  13  16
ENDBRANCH   9  10
ENDBRANCH   7   9
ENDBRANCH   6   7
TORSDOF 6
ENDMDL
MODEL       74
REMARK 921   NORMALIZED FREE ENERGY PREDICTED BY IDOCK:   -5.29 KCAL/MOL
REMARK 922        TOTAL FREE ENERGY PREDICTED BY IDOCK:   -7.68 KCAL/MOL
REMARK 923 INTER-LIGAND FREE ENERGY PREDICTED BY IDOCK:   -7.21 KCAL/MOL
REMARK 924 INTRA-LIGAND FREE ENERGY PREDICTED BY IDOCK:   -0.47 KCAL/MOL
REMARK 927      BINDING AFFINITY PREDICTED BY RF-SCORE:    0.00 PKD
ROOT
HETATM    1  O   UNL     1     -10.655   5.517  69.437  1.00  0.00    -0.284 OA 
HETATM    2  C   UNL     1     -10.029   5.481  68.387  1.00  0.00    -0.159 C  
HETATM    3  N   UNL     1      -8.747   5.037  68.254  1.00  0.00    -0.101 NA 
HETATM    4  O   UNL     1      -8.240   5.174  66.948  1.00  0.00    -0.108 OA 
HETATM    5  C   UNL     1      -9.287   5.773  66.173  1.00  0.00    -0.144 C  
HETATM    6  C   UNL     1     -10.544   5.869  67.031  1.00  0.00    -0.305 C  
ENDROOT
BRANCH   6   7
HETATM    7  N   UNL     1     -11.064   7.250  67.001  1.00  0.00    -0.576 NA 
HETATM    8  H   UNL     1     -12.056   7.469  66.914  1.00  0.00     0.000 HD 
BRANCH   7   9
HETATM    9  C   UNL     1     -10.150   8.156  67.095  1.00  0.00    -0.264 C  
BRANCH   9  10
HETATM   10  C   UNL     1     -10.481   9.588  66.989  1.00  0.00    -0.302 A  
HETATM   11  C   UNL     1     -11.121  10.191  68.075  1.00  0.00    -0.302 A  
HETATM   12  C   UNL     1     -11.629  11.484  67.940  1.00  0.00    -0.352 A  
HETATM   13  C   UNL     1     -11.482  12.172  66.731  1.00  0.00    -0.418 A  
HETATM   14  C   UNL     1     -10.780  11.595  65.670  1.00  0.00    -0.330 A  
HETATM   15  C   UNL     1     -10.282  10.294  65.797  1.00  0.00    -0.289 A  
BRANCH  13  16
HETATM   16  C   UNL     1     -12.144  13.477  66.540  1.00  0.00    -0.408 C  
BRANCH  16  17
HETATM   17  N   UNL     1     -11.641  14.366  65.750  1.00  0.00    -0.349 NA 
HETATM   18  H   UNL     1     -11.740  14.317  64.736  1.00  0.00     0.000 HD 
BRANCH  17  19
HETATM   19  C   UNL     1     -10.915  15.455  66.421  1.00  0.00    -0.277 C  
HETATM   20  C   UNL     1      -9.527  14.983  66.821  1.00  0.00    -0.246 C  
HETATM   21  O   UNL     1      -8.686  16.146  66.823  1.00  0.00    -0.195 OA 
HETATM   22  N   UNL     1      -9.299  17.043  65.913  1.00  0.00    -0.527 NA 
HETATM   23  C   UNL     1     -10.532  16.587  65.508  1.00  0.00    -0.301 C  
HETATM   24  O   UNL     1     -11.202  17.079  64.612  1.00  0.00    -0.968 OA 
ENDBRANCH  17  19
ENDBRANCH  16  17
ENDBRANCH  13  16
ENDBRANCH   9  10
ENDBRANCH   7   9
ENDBRANCH   6   7
TORSDOF 6
ENDMDL
MODEL       75
REMARK 921   NORMALIZED FREE ENERGY PREDICTED BY IDOCK:   -5.25 KCAL/MOL
REMARK 922        TOTAL FREE ENERGY PREDICTED BY IDOCK:   -7.63 KCAL/MOL
REMARK 923 INTER-LIGAND FREE ENERGY PREDICTED BY IDOCK:   -7.00 KCAL/MOL
REMARK 924 INTRA-LIGAND FREE ENERGY PREDICTED BY IDOCK:   -0.64 KCAL/MOL
REMARK 927      BINDING AFFINITY PREDICTED BY RF-SCORE:    0.00 PKD
ROOT
HETATM    1  O   UNL     1     -10.993   7.291  66.854  1.00  0.00    -0.343 OA 
HETATM    2  C   UNL     1     -10.845   7.642  68.016  1.00  0.00    -0.001 C  
HETATM    3  N   UNL     1     -10.946   6.822  69.100  1.00  0.00    -0.253 NA 
HETATM    4  O   UNL     1     -10.804   7.497  70.327  1.00  0.00    -0.238 OA 
HETATM    5  C   UNL     1     -10.607   8.880  70.003  1.00  0.00    -0.220 C  
HETATM    6  C   UNL     1     -10.481   9.019  68.490  1.00  0.00    -0.196 C  
ENDROOT
BRANCH   6   7
HETATM    7  N   UNL     1     -11.422  10.048  68.004  1.00  0.00    -0.610 NA 
HETATM    8  H   UNL     1     -12.398  10.092  68.298  1.00  0.00     0.000 HD 
BRANCH   7   9
HETATM    9  C   UNL     1     -10.899  10.885  67.174  1.00  0.00    -0.280 C  
BRANCH   9  10
HETATM   10  C   UNL     1     -10.820  12.323  67.487  1.00  0.00    -0.271 A  
HETATM   11  C   UNL     1      -9.555  12.916  67.512  1.00  0.00    -0.200 A  
HETATM   12  C   UNL     1      -9.416  14.217  67.998  1.00  0.00    -0.213 A  
HETATM   13  C   UNL     1     -10.540  14.922  68.439  1.00  0.00    -0.244 A  
HETATM   14  C   UNL     1     -11.813  14.354  68.349  1.00  0.00    -0.354 A  
HETATM   15  C   UNL     1     -11.953  13.046  67.876  1.00  0.00    -0.338 A  
BRANCH  13  16
HETATM   16  C   UNL     1     -10.376  16.239  69.087  1.00  0.00    -0.272 C  
BRANCH  16  17
HETATM   17  N   UNL     1      -9.772  17.206  68.481  1.00  0.00    -0.279 NA 
HETATM   18  H   UNL     1      -8.771  17.373  68.578  1.00  0.00     0.000 HD 
BRANCH  17  19
HETATM   19  C   UNL     1     -10.635  18.048  67.639  1.00  0.00    -0.399 C  
HETATM   20  C   UNL     1     -10.239  19.507  67.786  1.00  0.00    -0.429 C  
HETATM   21  O   UNL     1     -10.582  20.150  66.551  1.00  0.00    -0.398 OA 
HETATM   22  N   UNL     1     -10.553  19.118  65.581  1.00  0.00    -0.526 NA 
HETATM   23  C   UNL     1     -10.400  17.881  66.163  1.00  0.00    -0.352 C  
HETATM   24  O   UNL     1     -10.184  16.842  65.557  1.00  0.00    -0.580 OA 
ENDBRANCH  17  19
ENDBRANCH  16  17
ENDBRANCH  13  16
ENDBRANCH   9  10
ENDBRANCH   7   9
ENDBRANCH   6   7
TORSDOF 6
ENDMDL
MODEL       76
REMARK 921   NORMALIZED FREE ENERGY PREDICTED BY IDOCK:   -5.24 KCAL/MOL
REMARK 922        TOTAL FREE ENERGY PREDICTED BY IDOCK:   -7.61 KCAL/MOL
REMARK 923 INTER-LIGAND FREE ENERGY PREDICTED BY IDOCK:   -7.03 KCAL/MOL
REMARK 924 INTRA-LIGAND FREE ENERGY PREDICTED BY IDOCK:   -0.58 KCAL/MOL
REMARK 927      BINDING AFFINITY PREDICTED BY RF-SCORE:    0.00 PKD
ROOT
HETATM    1  O   UNL     1     -13.423   9.375  72.170  1.00  0.00    -0.416 OA 
HETATM    2  C   UNL     1     -12.238   9.166  71.951  1.00  0.00    -0.379 C  
HETATM    3  N   UNL     1     -11.405   8.457  72.765  1.00  0.00    -0.278 NA 
HETATM    4  O   UNL     1     -10.072   8.431  72.314  1.00  0.00    -0.263 OA 
HETATM    5  C   UNL     1     -10.043   9.204  71.106  1.00  0.00    -0.314 C  
HETATM    6  C   UNL     1     -11.468   9.596  70.736  1.00  0.00    -0.328 C  
ENDROOT
BRANCH   6   7
HETATM    7  N   UNL     1     -11.542  11.054  70.512  1.00  0.00    -0.422 NA 
HETATM    8  H   UNL     1     -11.235  11.739  71.202  1.00  0.00     0.000 HD 
BRANCH   7   9
HETATM    9  C   UNL     1     -12.029  11.383  69.363  1.00  0.00    -0.339 C  
BRANCH   9  10
HETATM   10  C   UNL     1     -11.876  12.749  68.832  1.00  0.00    -0.351 A  
HETATM   11  C   UNL     1     -11.806  12.904  67.445  1.00  0.00    -0.418 A  
HETATM   12  C   UNL     1     -11.462  14.147  66.911  1.00  0.00    -0.373 A  
HETATM   13  C   UNL     1     -11.206  15.227  67.761  1.00  0.00    -0.327 A  
HETATM   14  C   UNL     1     -11.343  15.089  69.144  1.00  0.00    -0.311 A  
HETATM   15  C   UNL     1     -11.675  13.841  69.683  1.00  0.00    -0.379 A  
BRANCH  13  16
HETATM   16  C   UNL     1     -10.700  16.499  67.205  1.00  0.00    -0.243 C  
BRANCH  16  17
HETATM   17  N   UNL     1      -9.583  16.541  66.559  1.00  0.00    -0.256 NA 
HETATM   18  H   UNL     1      -9.319  15.833  65.874  1.00  0.00     0.000 HD 
BRANCH  17  19
HETATM   19  C   UNL     1      -8.719  17.686  66.884  1.00  0.00    -0.246 C  
HETATM   20  C   UNL     1      -9.568  18.918  67.151  1.00  0.00    -0.306 C  
HETATM   21  O   UNL     1      -8.823  19.736  68.063  1.00  0.00    -0.312 OA 
HETATM   22  N   UNL     1      -7.982  18.835  68.761  1.00  0.00    -0.324 NA 
HETATM   23  C   UNL     1      -8.030  17.574  68.216  1.00  0.00    -0.259 C  
HETATM   24  O   UNL     1      -7.532  16.574  68.713  1.00  0.00    -0.190 OA 
ENDBRANCH  17  19
ENDBRANCH  16  17
ENDBRANCH  13  16
ENDBRANCH   9  10
ENDBRANCH   7   9
ENDBRANCH   6   7
TORSDOF 6
ENDMDL
MODEL       77
REMARK 921   NORMALIZED FREE ENERGY PREDICTED BY IDOCK:   -5.21 KCAL/MOL
REMARK 922        TOTAL FREE ENERGY PREDICTED BY IDOCK:   -7.58 KCAL/MOL
REMARK 923 INTER-LIGAND FREE ENERGY PREDICTED BY IDOCK:   -6.92 KCAL/MOL
REMARK 924 INTRA-LIGAND FREE ENERGY PREDICTED BY IDOCK:   -0.66 KCAL/MOL
REMARK 927      BINDING AFFINITY PREDICTED BY RF-SCORE:    0.00 PKD
ROOT
HETATM    1  O   UNL     1      -7.971   6.863  73.387  1.00  0.00    -0.097 OA 
HETATM    2  C   UNL     1      -8.750   5.978  73.062  1.00  0.00    -0.122 C  
HETATM    3  N   UNL     1      -8.525   5.058  72.081  1.00  0.00    -0.123 NA 
HETATM    4  O   UNL     1      -9.617   4.198  71.860  1.00  0.00    -0.136 OA 
HETATM    5  C   UNL     1     -10.643   4.610  72.773  1.00  0.00    -0.208 C  
HETATM    6  C   UNL     1     -10.081   5.688  73.693  1.00  0.00    -0.200 C  
ENDROOT
BRANCH   6   7
HETATM    7  N   UNL     1     -10.974   6.863  73.687  1.00  0.00    -0.528 NA 
HETATM    8  H   UNL     1     -11.146   7.435  74.514  1.00  0.00     0.000 HD 
BRANCH   7   9
HETATM    9  C   UNL     1     -11.518   7.102  72.542  1.00  0.00    -0.258 C  
BRANCH   9  10
HETATM   10  C   UNL     1     -11.575   8.469  71.994  1.00  0.00    -0.432 A  
HETATM   11  C   UNL     1     -12.695   9.247  72.298  1.00  0.00    -0.435 A  
HETATM   12  C   UNL     1     -12.884  10.464  71.641  1.00  0.00    -0.579 A  
HETATM   13  C   UNL     1     -11.949  10.903  70.699  1.00  0.00    -0.467 A  
HETATM   14  C   UNL     1     -10.794  10.157  70.446  1.00  0.00    -0.365 A  
HETATM   15  C   UNL     1     -10.609   8.931  71.093  1.00  0.00    -0.335 A  
BRANCH  13  16
HETATM   16  C   UNL     1     -12.221  12.114  69.899  1.00  0.00    -0.170 C  
BRANCH  16  17
HETATM   17  N   UNL     1     -11.557  13.203  70.099  1.00  0.00    -0.533 NA 
HETATM   18  H   UNL     1     -10.557  13.277  69.911  1.00  0.00     0.000 HD 
BRANCH  17  19
HETATM   19  C   UNL     1     -12.349  14.328  70.618  1.00  0.00    -0.361 C  
HETATM   20  C   UNL     1     -12.419  14.258  72.134  1.00  0.00    -0.219 C  
HETATM   21  O   UNL     1     -12.568  15.607  72.598  1.00  0.00    -0.362 OA 
HETATM   22  N   UNL     1     -11.994  16.410  71.582  1.00  0.00    -0.353 NA 
HETATM   23  C   UNL     1     -11.679  15.667  70.469  1.00  0.00    -0.366 C  
HETATM   24  O   UNL     1     -11.031  16.072  69.515  1.00  0.00    -0.276 OA 
ENDBRANCH  17  19
ENDBRANCH  16  17
ENDBRANCH  13  16
ENDBRANCH   9  10
ENDBRANCH   7   9
ENDBRANCH   6   7
TORSDOF 6
ENDMDL
MODEL       78
REMARK 921   NORMALIZED FREE ENERGY PREDICTED BY IDOCK:   -5.18 KCAL/MOL
REMARK 922        TOTAL FREE ENERGY PREDICTED BY IDOCK:   -7.53 KCAL/MOL
REMARK 923 INTER-LIGAND FREE ENERGY PREDICTED BY IDOCK:   -6.88 KCAL/MOL
REMARK 924 INTRA-LIGAND FREE ENERGY PREDICTED BY IDOCK:   -0.66 KCAL/MOL
REMARK 927      BINDING AFFINITY PREDICTED BY RF-SCORE:    0.00 PKD
ROOT
HETATM    1  O   UNL     1     -11.163  15.098  65.107  1.00  0.00    -0.366 OA 
HETATM    2  C   UNL     1     -11.534  14.044  64.609  1.00  0.00    -0.383 C  
HETATM    3  N   UNL     1     -12.831  13.717  64.344  1.00  0.00    -0.586 NA 
HETATM    4  O   UNL     1     -12.987  12.412  63.839  1.00  0.00    -0.754 OA 
HETATM    5  C   UNL     1     -11.672  11.844  63.786  1.00  0.00    -0.457 C  
HETATM    6  C   UNL     1     -10.654  12.920  64.146  1.00  0.00    -0.416 C  
ENDROOT
BRANCH   6   7
HETATM    7  N   UNL     1      -9.763  12.426  65.215  1.00  0.00    -0.444 NA 
HETATM    8  H   UNL     1      -9.251  13.047  65.842  1.00  0.00     0.000 HD 
BRANCH   7   9
HETATM    9  C   UNL     1      -9.691  11.140  65.285  1.00  0.00    -0.241 C  
BRANCH   9  10
HETATM   10  C   UNL     1     -10.188  10.410  66.465  1.00  0.00    -0.289 A  
HETATM   11  C   UNL     1     -10.941  11.122  67.402  1.00  0.00    -0.347 A  
HETATM   12  C   UNL     1     -11.257  10.526  68.624  1.00  0.00    -0.328 A  
HETATM   13  C   UNL     1     -10.835   9.220  68.895  1.00  0.00    -0.128 A  
HETATM   14  C   UNL     1     -10.142   8.485  67.930  1.00  0.00    -0.258 A  
HETATM   15  C   UNL     1      -9.812   9.085  66.711  1.00  0.00    -0.300 A  
BRANCH  13  16
HETATM   16  C   UNL     1     -11.042   8.643  70.239  1.00  0.00    -0.217 C  
BRANCH  16  17
HETATM   17  N   UNL     1     -10.590   9.237  71.292  1.00  0.00    -0.326 NA 
HETATM   18  H   UNL     1     -10.938  10.145  71.600  1.00  0.00     0.000 HD 
BRANCH  17  19
HETATM   19  C   UNL     1      -9.536   8.509  72.014  1.00  0.00    -0.294 C  
HETATM   20  C   UNL     1      -9.812   7.016  71.968  1.00  0.00    -0.159 C  
HETATM   21  O   UNL     1      -8.538   6.363  72.049  1.00  0.00    -0.126 OA 
HETATM   22  N   UNL     1      -7.611   7.303  71.536  1.00  0.00    -0.085 NA 
HETATM   23  C   UNL     1      -8.198   8.529  71.326  1.00  0.00    -0.142 C  
HETATM   24  O   UNL     1      -7.675   9.468  70.744  1.00  0.00    -0.230 OA 
ENDBRANCH  17  19
ENDBRANCH  16  17
ENDBRANCH  13  16
ENDBRANCH   9  10
ENDBRANCH   7   9
ENDBRANCH   6   7
TORSDOF 6
ENDMDL
MODEL       79
REMARK 921   NORMALIZED FREE ENERGY PREDICTED BY IDOCK:   -5.16 KCAL/MOL
REMARK 922        TOTAL FREE ENERGY PREDICTED BY IDOCK:   -7.51 KCAL/MOL
REMARK 923 INTER-LIGAND FREE ENERGY PREDICTED BY IDOCK:   -6.94 KCAL/MOL
REMARK 924 INTRA-LIGAND FREE ENERGY PREDICTED BY IDOCK:   -0.57 KCAL/MOL
REMARK 927      BINDING AFFINITY PREDICTED BY RF-SCORE:    0.00 PKD
ROOT
HETATM    1  O   UNL     1      -9.130   9.077  72.101  1.00  0.00    -0.372 OA 
HETATM    2  C   UNL     1      -9.283   9.108  70.887  1.00  0.00    -0.261 C  
HETATM    3  N   UNL     1      -8.296   8.907  69.968  1.00  0.00    -0.123 NA 
HETATM    4  O   UNL     1      -8.727   9.073  68.639  1.00  0.00    -0.131 OA 
HETATM    5  C   UNL     1     -10.116   9.425  68.710  1.00  0.00    -0.193 C  
HETATM    6  C   UNL     1     -10.578   9.325  70.159  1.00  0.00    -0.231 C  
ENDROOT
BRANCH   6   7
HETATM    7  N   UNL     1     -11.244  10.580  70.558  1.00  0.00    -0.402 NA 
HETATM    8  H   UNL     1     -11.120  11.008  71.476  1.00  0.00     0.000 HD 
BRANCH   7   9
HETATM    9  C   UNL     1     -11.997  11.088  69.641  1.00  0.00    -0.353 C  
BRANCH   9  10
HETATM   10  C   UNL     1     -11.943  12.525  69.318  1.00  0.00    -0.304 A  
HETATM   11  C   UNL     1     -11.792  12.886  67.977  1.00  0.00    -0.390 A  
HETATM   12  C   UNL     1     -11.536  14.218  67.649  1.00  0.00    -0.396 A  
HETATM   13  C   UNL     1     -11.449  15.182  68.659  1.00  0.00    -0.341 A  
HETATM   14  C   UNL     1     -11.669  14.832  69.993  1.00  0.00    -0.344 A  
HETATM   15  C   UNL     1     -11.912  13.496  70.326  1.00  0.00    -0.386 A  
BRANCH  13  16
HETATM   16  C   UNL     1     -11.034  16.560  68.328  1.00  0.00    -0.346 C  
BRANCH  16  17
HETATM   17  N   UNL     1      -9.787  16.892  68.315  1.00  0.00    -0.256 NA 
HETATM   18  H   UNL     1      -9.095  16.444  68.916  1.00  0.00     0.000 HD 
BRANCH  17  19
HETATM   19  C   UNL     1      -9.436  17.961  67.368  1.00  0.00    -0.258 C  
HETATM   20  C   UNL     1     -10.655  18.346  66.546  1.00  0.00    -0.311 C  
HETATM   21  O   UNL     1     -10.483  19.723  66.182  1.00  0.00    -0.471 OA 
HETATM   22  N   UNL     1      -9.647  20.266  67.188  1.00  0.00    -0.418 NA 
HETATM   23  C   UNL     1      -9.157  19.287  68.021  1.00  0.00    -0.318 C  
HETATM   24  O   UNL     1      -8.546  19.490  69.060  1.00  0.00    -0.340 OA 
ENDBRANCH  17  19
ENDBRANCH  16  17
ENDBRANCH  13  16
ENDBRANCH   9  10
ENDBRANCH   7   9
ENDBRANCH   6   7
TORSDOF 6
ENDMDL
MODEL       80
REMARK 921   NORMALIZED FREE ENERGY PREDICTED BY IDOCK:   -5.10 KCAL/MOL
REMARK 922        TOTAL FREE ENERGY PREDICTED BY IDOCK:   -7.42 KCAL/MOL
REMARK 923 INTER-LIGAND FREE ENERGY PREDICTED BY IDOCK:   -6.74 KCAL/MOL
REMARK 924 INTRA-LIGAND FREE ENERGY PREDICTED BY IDOCK:   -0.68 KCAL/MOL
REMARK 927      BINDING AFFINITY PREDICTED BY RF-SCORE:    0.00 PKD
ROOT
HETATM    1  O   UNL     1     -10.747  17.708  65.143  1.00  0.00    -0.658 OA 
HETATM    2  C   UNL     1     -10.616  18.522  66.047  1.00  0.00    -0.331 C  
HETATM    3  N   UNL     1     -10.284  19.834  65.876  1.00  0.00    -0.477 NA 
HETATM    4  O   UNL     1     -10.125  20.533  67.087  1.00  0.00    -0.425 OA 
HETATM    5  C   UNL     1     -10.364  19.581  68.133  1.00  0.00    -0.433 C  
HETATM    6  C   UNL     1     -10.833  18.271  67.511  1.00  0.00    -0.253 C  
ENDROOT
BRANCH   6   7
HETATM    7  N   UNL     1     -10.010  17.155  68.018  1.00  0.00    -0.282 NA 
HETATM    8  H   UNL     1      -8.992  17.148  67.967  1.00  0.00     0.000 HD 
BRANCH   7   9
HETATM    9  C   UNL     1     -10.695  16.190  68.531  1.00  0.00    -0.300 C  
BRANCH   9  10
HETATM   10  C   UNL     1     -10.624  14.825  67.979  1.00  0.00    -0.244 A  
HETATM   11  C   UNL     1     -11.741  14.339  67.296  1.00  0.00    -0.422 A  
HETATM   12  C   UNL     1     -11.792  12.992  66.935  1.00  0.00    -0.442 A  
HETATM   13  C   UNL     1     -10.723  12.144  67.244  1.00  0.00    -0.264 A  
HETATM   14  C   UNL     1      -9.577  12.646  67.865  1.00  0.00    -0.211 A  
HETATM   15  C   UNL     1      -9.529  13.993  68.240  1.00  0.00    -0.216 A  
BRANCH  13  16
HETATM   16  C   UNL     1     -10.837  10.693  66.995  1.00  0.00    -0.238 C  
BRANCH  16  17
HETATM   17  N   UNL     1     -11.344   9.906  67.884  1.00  0.00    -0.538 NA 
HETATM   18  H   UNL     1     -12.282  10.040  68.263  1.00  0.00     0.000 HD 
BRANCH  17  19
HETATM   19  C   UNL     1     -10.470   8.804  68.312  1.00  0.00    -0.187 C  
HETATM   20  C   UNL     1      -9.265   8.710  67.391  1.00  0.00    -0.136 C  
HETATM   21  O   UNL     1      -8.196   8.158  68.172  1.00  0.00    -0.126 OA 
HETATM   22  N   UNL     1      -8.505   8.503  69.511  1.00  0.00    -0.125 NA 
HETATM   23  C   UNL     1      -9.760   9.056  69.614  1.00  0.00    -0.172 C  
HETATM   24  O   UNL     1     -10.214   9.586  70.617  1.00  0.00    -0.265 OA 
ENDBRANCH  17  19
ENDBRANCH  16  17
ENDBRANCH  13  16
ENDBRANCH   9  10
ENDBRANCH   7   9
ENDBRANCH   6   7
TORSDOF 6
ENDMDL
MODEL       81
REMARK 921   NORMALIZED FREE ENERGY PREDICTED BY IDOCK:   -5.10 KCAL/MOL
REMARK 922        TOTAL FREE ENERGY PREDICTED BY IDOCK:   -7.42 KCAL/MOL
REMARK 923 INTER-LIGAND FREE ENERGY PREDICTED BY IDOCK:   -6.89 KCAL/MOL
REMARK 924 INTRA-LIGAND FREE ENERGY PREDICTED BY IDOCK:   -0.53 KCAL/MOL
REMARK 927      BINDING AFFINITY PREDICTED BY RF-SCORE:    0.00 PKD
ROOT
HETATM    1  O   UNL     1      -6.711   6.356  67.498  1.00  0.00    -0.064 OA 
HETATM    2  C   UNL     1      -7.827   5.879  67.648  1.00  0.00    -0.098 C  
HETATM    3  N   UNL     1      -8.380   4.916  66.857  1.00  0.00    -0.107 NA 
HETATM    4  O   UNL     1      -9.707   4.600  67.204  1.00  0.00    -0.166 OA 
HETATM    5  C   UNL     1     -10.042   5.446  68.312  1.00  0.00    -0.167 C  
HETATM    6  C   UNL     1      -8.797   6.212  68.744  1.00  0.00    -0.121 C  
ENDROOT
BRANCH   6   7
HETATM    7  N   UNL     1      -9.098   7.656  68.810  1.00  0.00    -0.140 NA 
HETATM    8  H   UNL     1      -8.499   8.327  69.291  1.00  0.00     0.000 HD 
BRANCH   7   9
HETATM    9  C   UNL     1     -10.185   7.992  68.203  1.00  0.00    -0.207 C  
BRANCH   9  10
HETATM   10  C   UNL     1     -10.477   9.401  67.884  1.00  0.00    -0.296 A  
HETATM   11  C   UNL     1     -11.165  10.157  68.837  1.00  0.00    -0.220 A  
HETATM   12  C   UNL     1     -11.635  11.426  68.497  1.00  0.00    -0.384 A  
HETATM   13  C   UNL     1     -11.403  11.939  67.217  1.00  0.00    -0.393 A  
HETATM   14  C   UNL     1     -10.655  11.212  66.288  1.00  0.00    -0.309 A  
HETATM   15  C   UNL     1     -10.195   9.934  66.621  1.00  0.00    -0.293 A  
BRANCH  13  16
HETATM   16  C   UNL     1     -12.024  13.216  66.810  1.00  0.00    -0.373 C  
BRANCH  16  17
HETATM   17  N   UNL     1     -11.345  14.314  66.818  1.00  0.00    -0.335 NA 
HETATM   18  H   UNL     1     -11.027  14.756  67.680  1.00  0.00     0.000 HD 
BRANCH  17  19
HETATM   19  C   UNL     1     -11.066  14.882  65.490  1.00  0.00    -0.352 C  
HETATM   20  C   UNL     1     -12.346  14.949  64.674  1.00  0.00    -0.278 C  
HETATM   21  O   UNL     1     -12.190  16.045  63.761  1.00  0.00    -0.895 OA 
HETATM   22  N   UNL     1     -11.264  16.915  64.388  1.00  0.00    -1.120 NA 
HETATM   23  C   UNL     1     -10.716  16.345  65.512  1.00  0.00    -0.287 C  
HETATM   24  O   UNL     1     -10.016  16.929  66.326  1.00  0.00    -0.282 OA 
ENDBRANCH  17  19
ENDBRANCH  16  17
ENDBRANCH  13  16
ENDBRANCH   9  10
ENDBRANCH   7   9
ENDBRANCH   6   7
TORSDOF 6
ENDMDL
MODEL       82
REMARK 921   NORMALIZED FREE ENERGY PREDICTED BY IDOCK:   -5.06 KCAL/MOL
REMARK 922        TOTAL FREE ENERGY PREDICTED BY IDOCK:   -7.37 KCAL/MOL
REMARK 923 INTER-LIGAND FREE ENERGY PREDICTED BY IDOCK:   -6.93 KCAL/MOL
REMARK 924 INTRA-LIGAND FREE ENERGY PREDICTED BY IDOCK:   -0.44 KCAL/MOL
REMARK 927      BINDING AFFINITY PREDICTED BY RF-SCORE:    0.00 PKD
ROOT
HETATM    1  O   UNL     1     -10.004   3.072  71.486  1.00  0.00    -0.155 OA 
HETATM    2  C   UNL     1     -10.190   3.825  72.432  1.00  0.00    -0.149 C  
HETATM    3  N   UNL     1     -10.577   3.433  73.680  1.00  0.00    -0.175 NA 
HETATM    4  O   UNL     1     -10.792   4.508  74.563  1.00  0.00    -0.324 OA 
HETATM    5  C   UNL     1     -10.531   5.701  73.811  1.00  0.00    -0.270 C  
HETATM    6  C   UNL     1      -9.991   5.313  72.439  1.00  0.00    -0.176 C  
ENDROOT
BRANCH   6   7
HETATM    7  N   UNL     1     -10.773   5.989  71.385  1.00  0.00    -0.249 NA 
HETATM    8  H   UNL     1     -10.541   5.926  70.394  1.00  0.00     0.000 HD 
BRANCH   7   9
HETATM    9  C   UNL     1     -11.777   6.666  71.831  1.00  0.00    -0.313 C  
BRANCH   9  10
HETATM   10  C   UNL     1     -11.857   8.126  71.644  1.00  0.00    -0.334 A  
HETATM   11  C   UNL     1     -13.044   8.765  72.007  1.00  0.00    -0.436 A  
HETATM   12  C   UNL     1     -13.236  10.104  71.662  1.00  0.00    -0.518 A  
HETATM   13  C   UNL     1     -12.237  10.799  70.973  1.00  0.00    -0.485 A  
HETATM   14  C   UNL     1     -11.022  10.178  70.672  1.00  0.00    -0.357 A  
HETATM   15  C   UNL     1     -10.833   8.833  71.004  1.00  0.00    -0.321 A  
BRANCH  13  16
HETATM   16  C   UNL     1     -12.496  12.166  70.480  1.00  0.00    -0.198 C  
BRANCH  16  17
HETATM   17  N   UNL     1     -11.521  12.963  70.194  1.00  0.00    -0.519 NA 
HETATM   18  H   UNL     1     -10.547  12.728  70.385  1.00  0.00     0.000 HD 
BRANCH  17  19
HETATM   19  C   UNL     1     -11.919  14.235  69.572  1.00  0.00    -0.336 C  
HETATM   20  C   UNL     1     -10.913  15.319  69.919  1.00  0.00    -0.290 C  
HETATM   21  O   UNL     1     -10.935  16.258  68.835  1.00  0.00    -0.293 OA 
HETATM   22  N   UNL     1     -11.370  15.512  67.712  1.00  0.00    -0.317 NA 
HETATM   23  C   UNL     1     -11.784  14.251  68.074  1.00  0.00    -0.351 C  
HETATM   24  O   UNL     1     -12.056  13.351  67.293  1.00  0.00    -0.361 OA 
ENDBRANCH  17  19
ENDBRANCH  16  17
ENDBRANCH  13  16
ENDBRANCH   9  10
ENDBRANCH   7   9
ENDBRANCH   6   7
TORSDOF 6
ENDMDL
MODEL       83
REMARK 921   NORMALIZED FREE ENERGY PREDICTED BY IDOCK:   -5.05 KCAL/MOL
REMARK 922        TOTAL FREE ENERGY PREDICTED BY IDOCK:   -7.36 KCAL/MOL
REMARK 923 INTER-LIGAND FREE ENERGY PREDICTED BY IDOCK:   -6.82 KCAL/MOL
REMARK 924 INTRA-LIGAND FREE ENERGY PREDICTED BY IDOCK:   -0.54 KCAL/MOL
REMARK 927      BINDING AFFINITY PREDICTED BY RF-SCORE:    0.00 PKD
ROOT
HETATM    1  O   UNL     1     -10.529   6.737  71.860  1.00  0.00    -0.199 OA 
HETATM    2  C   UNL     1      -9.841   7.589  71.316  1.00  0.00    -0.179 C  
HETATM    3  N   UNL     1      -8.481   7.552  71.216  1.00  0.00    -0.115 NA 
HETATM    4  O   UNL     1      -7.934   8.697  70.607  1.00  0.00    -0.088 OA 
HETATM    5  C   UNL     1      -9.041   9.554  70.298  1.00  0.00    -0.253 C  
HETATM    6  C   UNL     1     -10.339   8.818  70.612  1.00  0.00    -0.209 C  
ENDROOT
BRANCH   6   7
HETATM    7  N   UNL     1     -11.191   9.656  71.478  1.00  0.00    -0.362 NA 
HETATM    8  H   UNL     1     -10.982   9.832  72.460  1.00  0.00     0.000 HD 
BRANCH   7   9
HETATM    9  C   UNL     1     -12.224  10.146  70.880  1.00  0.00    -0.356 C  
BRANCH   9  10
HETATM   10  C   UNL     1     -12.235  11.536  70.389  1.00  0.00    -0.442 A  
HETATM   11  C   UNL     1     -11.769  11.773  69.093  1.00  0.00    -0.388 A  
HETATM   12  C   UNL     1     -11.575  13.086  68.664  1.00  0.00    -0.354 A  
HETATM   13  C   UNL     1     -11.860  14.152  69.522  1.00  0.00    -0.373 A  
HETATM   14  C   UNL     1     -12.391  13.916  70.793  1.00  0.00    -0.449 A  
HETATM   15  C   UNL     1     -12.574  12.601  71.231  1.00  0.00    -0.339 A  
BRANCH  13  16
HETATM   16  C   UNL     1     -11.517  15.532  69.123  1.00  0.00    -0.348 C  
BRANCH  16  17
HETATM   17  N   UNL     1     -11.474  15.870  67.878  1.00  0.00    -0.252 NA 
HETATM   18  H   UNL     1     -12.057  15.426  67.169  1.00  0.00     0.000 HD 
BRANCH  17  19
HETATM   19  C   UNL     1     -10.520  16.943  67.557  1.00  0.00    -0.328 C  
HETATM   20  C   UNL     1      -9.276  16.807  68.419  1.00  0.00    -0.229 C  
HETATM   21  O   UNL     1      -8.194  17.369  67.664  1.00  0.00    -0.201 OA 
HETATM   22  N   UNL     1      -8.586  17.240  66.309  1.00  0.00    -0.416 NA 
HETATM   23  C   UNL     1      -9.889  16.814  66.198  1.00  0.00    -0.309 C  
HETATM   24  O   UNL     1     -10.428  16.467  65.158  1.00  0.00    -0.637 OA 
ENDBRANCH  17  19
ENDBRANCH  16  17
ENDBRANCH  13  16
ENDBRANCH   9  10
ENDBRANCH   7   9
ENDBRANCH   6   7
TORSDOF 6
ENDMDL
MODEL       84
REMARK 921   NORMALIZED FREE ENERGY PREDICTED BY IDOCK:   -5.02 KCAL/MOL
REMARK 922        TOTAL FREE ENERGY PREDICTED BY IDOCK:   -7.32 KCAL/MOL
REMARK 923 INTER-LIGAND FREE ENERGY PREDICTED BY IDOCK:   -6.58 KCAL/MOL
REMARK 924 INTRA-LIGAND FREE ENERGY PREDICTED BY IDOCK:   -0.75 KCAL/MOL
REMARK 927      BINDING AFFINITY PREDICTED BY RF-SCORE:    0.00 PKD
ROOT
HETATM    1  O   UNL     1      -9.840  11.934  65.381  1.00  0.00    -0.238 OA 
HETATM    2  C   UNL     1     -10.320  12.757  66.148  1.00  0.00    -0.269 C  
HETATM    3  N   UNL     1      -9.728  13.933  66.505  1.00  0.00    -0.286 NA 
HETATM    4  O   UNL     1     -10.462  14.660  67.461  1.00  0.00    -0.244 OA 
HETATM    5  C   UNL     1     -11.625  13.875  67.755  1.00  0.00    -0.347 C  
HETATM    6  C   UNL     1     -11.662  12.675  66.816  1.00  0.00    -0.392 C  
ENDROOT
BRANCH   6   7
HETATM    7  N   UNL     1     -11.825  11.434  67.598  1.00  0.00    -0.636 NA 
HETATM    8  H   UNL     1     -11.921  10.514  67.168  1.00  0.00     0.000 HD 
BRANCH   7   9
HETATM    9  C   UNL     1     -11.836  11.618  68.875  1.00  0.00    -0.329 C  
BRANCH   9  10
HETATM   10  C   UNL     1     -11.598  10.502  69.809  1.00  0.00    -0.368 A  
HETATM   11  C   UNL     1     -12.641  10.132  70.661  1.00  0.00    -0.353 A  
HETATM   12  C   UNL     1     -12.396   9.223  71.691  1.00  0.00    -0.450 A  
HETATM   13  C   UNL     1     -11.118   8.678  71.854  1.00  0.00    -0.416 A  
HETATM   14  C   UNL     1     -10.093   8.996  70.959  1.00  0.00    -0.352 A  
HETATM   15  C   UNL     1     -10.333   9.917  69.935  1.00  0.00    -0.298 A  
BRANCH  13  16
HETATM   16  C   UNL     1     -10.821   7.833  73.028  1.00  0.00    -0.389 C  
BRANCH  16  17
HETATM   17  N   UNL     1      -9.644   7.334  73.204  1.00  0.00    -0.174 NA 
HETATM   18  H   UNL     1      -8.819   7.915  73.355  1.00  0.00     0.000 HD 
BRANCH  17  19
HETATM   19  C   UNL     1      -9.578   5.865  73.170  1.00  0.00    -0.146 C  
HETATM   20  C   UNL     1     -10.934   5.277  73.524  1.00  0.00    -0.296 C  
HETATM   21  O   UNL     1     -11.016   4.010  72.856  1.00  0.00    -0.145 OA 
HETATM   22  N   UNL     1     -10.151   4.128  71.740  1.00  0.00    -0.171 NA 
HETATM   23  C   UNL     1      -9.420   5.292  71.788  1.00  0.00    -0.148 C  
HETATM   24  O   UNL     1      -8.721   5.720  70.882  1.00  0.00    -0.131 OA 
ENDBRANCH  17  19
ENDBRANCH  16  17
ENDBRANCH  13  16
ENDBRANCH   9  10
ENDBRANCH   7   9
ENDBRANCH   6   7
TORSDOF 6
ENDMDL
MODEL       85
REMARK 921   NORMALIZED FREE ENERGY PREDICTED BY IDOCK:   -5.00 KCAL/MOL
REMARK 922        TOTAL FREE ENERGY PREDICTED BY IDOCK:   -7.29 KCAL/MOL
REMARK 923 INTER-LIGAND FREE ENERGY PREDICTED BY IDOCK:   -6.63 KCAL/MOL
REMARK 924 INTRA-LIGAND FREE ENERGY PREDICTED BY IDOCK:   -0.67 KCAL/MOL
REMARK 927      BINDING AFFINITY PREDICTED BY RF-SCORE:    0.00 PKD
ROOT
HETATM    1  O   UNL     1     -10.574  17.584  65.299  1.00  0.00    -0.664 OA 
HETATM    2  C   UNL     1     -10.473  18.480  66.127  1.00  0.00    -0.413 C  
HETATM    3  N   UNL     1     -10.132  19.770  65.847  1.00  0.00    -0.441 NA 
HETATM    4  O   UNL     1     -10.015  20.579  66.993  1.00  0.00    -0.453 OA 
HETATM    5  C   UNL     1     -10.294  19.728  68.113  1.00  0.00    -0.431 C  
HETATM    6  C   UNL     1     -10.743  18.365  67.599  1.00  0.00    -0.357 C  
ENDROOT
BRANCH   6   7
HETATM    7  N   UNL     1      -9.942  17.302  68.237  1.00  0.00    -0.295 NA 
HETATM    8  H   UNL     1      -8.941  17.390  68.412  1.00  0.00     0.000 HD 
BRANCH   7   9
HETATM    9  C   UNL     1     -10.621  16.252  68.552  1.00  0.00    -0.294 C  
BRANCH   9  10
HETATM   10  C   UNL     1     -10.628  15.059  67.687  1.00  0.00    -0.267 A  
HETATM   11  C   UNL     1     -11.865  14.487  67.376  1.00  0.00    -0.416 A  
HETATM   12  C   UNL     1     -11.906  13.250  66.731  1.00  0.00    -0.448 A  
HETATM   13  C   UNL     1     -10.716  12.600  66.388  1.00  0.00    -0.278 A  
HETATM   14  C   UNL     1      -9.482  13.205  66.637  1.00  0.00    -0.260 A  
HETATM   15  C   UNL     1      -9.437  14.438  67.295  1.00  0.00    -0.215 A  
BRANCH  13  16
HETATM   16  C   UNL     1     -10.757  11.230  65.840  1.00  0.00    -0.232 C  
BRANCH  16  17
HETATM   17  N   UNL     1     -10.353  10.224  66.542  1.00  0.00    -0.228 NA 
HETATM   18  H   UNL     1     -10.542  10.142  67.541  1.00  0.00     0.000 HD 
BRANCH  17  19
HETATM   19  C   UNL     1      -9.601   9.205  65.795  1.00  0.00    -0.253 C  
HETATM   20  C   UNL     1      -9.252   9.728  64.411  1.00  0.00    -0.245 C  
HETATM   21  O   UNL     1      -8.041   9.067  64.019  1.00  0.00    -0.141 OA 
HETATM   22  N   UNL     1      -7.399   8.726  65.235  1.00  0.00    -0.084 NA 
HETATM   23  C   UNL     1      -8.212   8.964  66.319  1.00  0.00    -0.111 C  
HETATM   24  O   UNL     1      -7.857   8.911  67.487  1.00  0.00    -0.100 OA 
ENDBRANCH  17  19
ENDBRANCH  16  17
ENDBRANCH  13  16
ENDBRANCH   9  10
ENDBRANCH   7   9
ENDBRANCH   6   7
TORSDOF 6
ENDMDL
MODEL       86
REMARK 921   NORMALIZED FREE ENERGY PREDICTED BY IDOCK:   -4.98 KCAL/MOL
REMARK 922        TOTAL FREE ENERGY PREDICTED BY IDOCK:   -7.26 KCAL/MOL
REMARK 923 INTER-LIGAND FREE ENERGY PREDICTED BY IDOCK:   -7.06 KCAL/MOL
REMARK 924 INTRA-LIGAND FREE ENERGY PREDICTED BY IDOCK:   -0.21 KCAL/MOL
REMARK 927      BINDING AFFINITY PREDICTED BY RF-SCORE:    0.00 PKD
ROOT
HETATM    1  O   UNL     1     -11.922  11.670  67.074  1.00  0.00    -0.593 OA 
HETATM    2  C   UNL     1     -11.703  12.801  67.486  1.00  0.00    -0.364 C  
HETATM    3  N   UNL     1     -11.115  13.796  66.764  1.00  0.00    -0.304 NA 
HETATM    4  O   UNL     1     -10.914  14.978  67.501  1.00  0.00    -0.289 OA 
HETATM    5  C   UNL     1     -11.406  14.715  68.822  1.00  0.00    -0.281 C  
HETATM    6  C   UNL     1     -12.070  13.343  68.837  1.00  0.00    -0.252 C  
ENDROOT
BRANCH   6   7
HETATM    7  N   UNL     1     -11.515  12.532  69.938  1.00  0.00    -0.515 NA 
HETATM    8  H   UNL     1     -10.514  12.397  70.079  1.00  0.00     0.000 HD 
BRANCH   7   9
HETATM    9  C   UNL     1     -12.410  12.008  70.705  1.00  0.00    -0.308 C  
BRANCH   9  10
HETATM   10  C   UNL     1     -12.294  10.615  71.173  1.00  0.00    -0.505 A  
HETATM   11  C   UNL     1     -11.081   9.954  70.960  1.00  0.00    -0.401 A  
HETATM   12  C   UNL     1     -10.995   8.583  71.204  1.00  0.00    -0.306 A  
HETATM   13  C   UNL     1     -12.112   7.884  71.672  1.00  0.00    -0.333 A  
HETATM   14  C   UNL     1     -13.304   8.558  71.950  1.00  0.00    -0.401 A  
HETATM   15  C   UNL     1     -13.398   9.929  71.694  1.00  0.00    -0.481 A  
BRANCH  13  16
HETATM   16  C   UNL     1     -12.065   6.412  71.789  1.00  0.00    -0.296 C  
BRANCH  16  17
HETATM   17  N   UNL     1     -11.675   5.847  72.882  1.00  0.00    -0.520 NA 
HETATM   18  H   UNL     1     -12.320   5.602  73.633  1.00  0.00     0.000 HD 
BRANCH  17  19
HETATM   19  C   UNL     1     -10.231   5.583  72.964  1.00  0.00    -0.188 C  
HETATM   20  C   UNL     1      -9.891   4.975  74.315  1.00  0.00    -0.180 C  
HETATM   21  O   UNL     1      -8.728   4.158  74.113  1.00  0.00    -0.096 OA 
HETATM   22  N   UNL     1      -8.772   3.790  72.745  1.00  0.00    -0.094 NA 
HETATM   23  C   UNL     1      -9.761   4.467  72.072  1.00  0.00    -0.166 C  
HETATM   24  O   UNL     1     -10.122   4.227  70.929  1.00  0.00    -0.185 OA 
ENDBRANCH  17  19
ENDBRANCH  16  17
ENDBRANCH  13  16
ENDBRANCH   9  10
ENDBRANCH   7   9
ENDBRANCH   6   7
TORSDOF 6
ENDMDL
MODEL       87
REMARK 921   NORMALIZED FREE ENERGY PREDICTED BY IDOCK:   -4.93 KCAL/MOL
REMARK 922        TOTAL FREE ENERGY PREDICTED BY IDOCK:   -7.20 KCAL/MOL
REMARK 923 INTER-LIGAND FREE ENERGY PREDICTED BY IDOCK:   -7.27 KCAL/MOL
REMARK 924 INTRA-LIGAND FREE ENERGY PREDICTED BY IDOCK:    0.07 KCAL/MOL
REMARK 927      BINDING AFFINITY PREDICTED BY RF-SCORE:    0.00 PKD
ROOT
HETATM    1  O   UNL     1     -10.433  14.843  64.508  1.00  0.00    -0.230 OA 
HETATM    2  C   UNL     1     -11.141  13.943  64.077  1.00  0.00     0.057 C  
HETATM    3  N   UNL     1     -12.462  14.068  63.764  1.00  0.00    -0.796 NA 
HETATM    4  O   UNL     1     -13.059  12.859  63.360  1.00  0.00    -0.337 OA 
HETATM    5  C   UNL     1     -12.030  11.862  63.432  1.00  0.00    -0.425 C  
HETATM    6  C   UNL     1     -10.706  12.541  63.762  1.00  0.00    -0.445 C  
ENDROOT
BRANCH   6   7
HETATM    7  N   UNL     1     -10.077  11.874  64.919  1.00  0.00    -0.260 NA 
HETATM    8  H   UNL     1      -9.120  11.523  64.906  1.00  0.00     0.000 HD 
BRANCH   7   9
HETATM    9  C   UNL     1     -10.848  11.775  65.948  1.00  0.00    -0.291 C  
BRANCH   9  10
HETATM   10  C   UNL     1     -11.005  12.893  66.896  1.00  0.00    -0.294 A  
HETATM   11  C   UNL     1      -9.850  13.422  67.477  1.00  0.00    -0.227 A  
HETATM   12  C   UNL     1      -9.967  14.339  68.522  1.00  0.00    -0.235 A  
HETATM   13  C   UNL     1     -11.231  14.734  68.969  1.00  0.00    -0.286 A  
HETATM   14  C   UNL     1     -12.385  14.257  68.342  1.00  0.00    -0.027 A  
HETATM   15  C   UNL     1     -12.272  13.328  67.303  1.00  0.00    -0.258 A  
BRANCH  13  16
HETATM   16  C   UNL     1     -11.357  15.588  70.167  1.00  0.00    -0.326 C  
BRANCH  16  17
HETATM   17  N   UNL     1     -10.846  15.224  71.296  1.00  0.00    -0.494 NA 
HETATM   18  H   UNL     1      -9.846  15.069  71.420  1.00  0.00     0.000 HD 
BRANCH  17  19
HETATM   19  C   UNL     1     -11.814  15.051  72.390  1.00  0.00    -0.336 C  
HETATM   20  C   UNL     1     -12.627  16.322  72.570  1.00  0.00    -0.280 C  
HETATM   21  O   UNL     1     -13.899  15.921  73.097  1.00  0.00    -0.548 OA 
HETATM   22  N   UNL     1     -14.072  14.584  72.661  1.00  0.00    -0.517 NA 
HETATM   23  C   UNL     1     -12.930  14.093  72.073  1.00  0.00    -0.360 C  
HETATM   24  O   UNL     1     -12.850  13.033  71.470  1.00  0.00    -0.355 OA 
ENDBRANCH  17  19
ENDBRANCH  16  17
ENDBRANCH  13  16
ENDBRANCH   9  10
ENDBRANCH   7   9
ENDBRANCH   6   7
TORSDOF 6
ENDMDL
MODEL       88
REMARK 921   NORMALIZED FREE ENERGY PREDICTED BY IDOCK:   -4.92 KCAL/MOL
REMARK 922        TOTAL FREE ENERGY PREDICTED BY IDOCK:   -7.19 KCAL/MOL
REMARK 923 INTER-LIGAND FREE ENERGY PREDICTED BY IDOCK:   -6.62 KCAL/MOL
REMARK 924 INTRA-LIGAND FREE ENERGY PREDICTED BY IDOCK:   -0.57 KCAL/MOL
REMARK 927      BINDING AFFINITY PREDICTED BY RF-SCORE:    0.00 PKD
ROOT
HETATM    1  O   UNL     1     -10.784   5.138  67.872  1.00  0.00    -0.034 OA 
HETATM    2  C   UNL     1     -10.322   5.641  68.887  1.00  0.00    -0.225 C  
HETATM    3  N   UNL     1     -10.248   5.025  70.102  1.00  0.00    -0.265 NA 
HETATM    4  O   UNL     1      -9.741   5.854  71.119  1.00  0.00    -0.170 OA 
HETATM    5  C   UNL     1      -9.475   7.123  70.506  1.00  0.00    -0.162 C  
HETATM    6  C   UNL     1      -9.703   7.003  69.004  1.00  0.00    -0.145 C  
ENDROOT
BRANCH   6   7
HETATM    7  N   UNL     1     -10.613   8.074  68.551  1.00  0.00    -0.368 NA 
HETATM    8  H   UNL     1     -11.075   8.063  67.642  1.00  0.00     0.000 HD 
BRANCH   7   9
HETATM    9  C   UNL     1     -10.770   9.025  69.408  1.00  0.00    -0.191 C  
BRANCH   9  10
HETATM   10  C   UNL     1     -11.241  10.358  68.992  1.00  0.00    -0.289 A  
HETATM   11  C   UNL     1     -11.213  10.663  67.629  1.00  0.00    -0.361 A  
HETATM   12  C   UNL     1     -11.457  11.973  67.214  1.00  0.00    -0.403 A  
HETATM   13  C   UNL     1     -11.742  12.965  68.157  1.00  0.00    -0.395 A  
HETATM   14  C   UNL     1     -11.838  12.645  69.514  1.00  0.00    -0.376 A  
HETATM   15  C   UNL     1     -11.581  11.336  69.934  1.00  0.00    -0.413 A  
BRANCH  13  16
HETATM   16  C   UNL     1     -11.855  14.375  67.734  1.00  0.00    -0.368 C  
BRANCH  16  17
HETATM   17  N   UNL     1     -11.210  15.306  68.354  1.00  0.00    -0.293 NA 
HETATM   18  H   UNL     1     -11.425  15.576  69.313  1.00  0.00     0.000 HD 
BRANCH  17  19
HETATM   19  C   UNL     1     -10.141  15.948  67.573  1.00  0.00    -0.247 C  
HETATM   20  C   UNL     1     -10.431  15.813  66.088  1.00  0.00    -0.317 C  
HETATM   21  O   UNL     1      -9.819  16.942  65.449  1.00  0.00    -0.537 OA 
HETATM   22  N   UNL     1      -9.763  17.944  66.449  1.00  0.00    -0.362 NA 
HETATM   23  C   UNL     1     -10.123  17.448  67.680  1.00  0.00    -0.327 C  
HETATM   24  O   UNL     1     -10.316  18.124  68.680  1.00  0.00    -0.369 OA 
ENDBRANCH  17  19
ENDBRANCH  16  17
ENDBRANCH  13  16
ENDBRANCH   9  10
ENDBRANCH   7   9
ENDBRANCH   6   7
TORSDOF 6
ENDMDL
MODEL       89
REMARK 921   NORMALIZED FREE ENERGY PREDICTED BY IDOCK:   -4.91 KCAL/MOL
REMARK 922        TOTAL FREE ENERGY PREDICTED BY IDOCK:   -7.17 KCAL/MOL
REMARK 923 INTER-LIGAND FREE ENERGY PREDICTED BY IDOCK:   -6.58 KCAL/MOL
REMARK 924 INTRA-LIGAND FREE ENERGY PREDICTED BY IDOCK:   -0.59 KCAL/MOL
REMARK 927      BINDING AFFINITY PREDICTED BY RF-SCORE:    0.00 PKD
ROOT
HETATM    1  O   UNL     1      -8.835  12.478  67.037  1.00  0.00    -0.200 OA 
HETATM    2  C   UNL     1      -9.792  13.241  67.014  1.00  0.00    -0.242 C  
HETATM    3  N   UNL     1      -9.735  14.576  67.282  1.00  0.00    -0.228 NA 
HETATM    4  O   UNL     1     -10.994  15.206  67.258  1.00  0.00    -0.313 OA 
HETATM    5  C   UNL     1     -11.949  14.179  66.959  1.00  0.00    -0.439 C  
HETATM    6  C   UNL     1     -11.203  12.887  66.645  1.00  0.00    -0.304 C  
ENDROOT
BRANCH   6   7
HETATM    7  N   UNL     1     -11.741  11.788  67.471  1.00  0.00    -0.573 NA 
HETATM    8  H   UNL     1     -11.853  10.835  67.125  1.00  0.00     0.000 HD 
BRANCH   7   9
HETATM    9  C   UNL     1     -12.057  12.141  68.671  1.00  0.00    -0.092 C  
BRANCH   9  10
HETATM   10  C   UNL     1     -11.882  11.221  69.809  1.00  0.00    -0.437 A  
HETATM   11  C   UNL     1     -10.894  10.238  69.707  1.00  0.00    -0.332 A  
HETATM   12  C   UNL     1     -10.829   9.228  70.667  1.00  0.00    -0.339 A  
HETATM   13  C   UNL     1     -11.738   9.213  71.730  1.00  0.00    -0.456 A  
HETATM   14  C   UNL     1     -12.681  10.235  71.870  1.00  0.00    -0.478 A  
HETATM   15  C   UNL     1     -12.757  11.241  70.902  1.00  0.00    -0.412 A  
BRANCH  13  16
HETATM   16  C   UNL     1     -11.765   8.068  72.662  1.00  0.00    -0.358 C  
BRANCH  16  17
HETATM   17  N   UNL     1     -12.161   6.904  72.270  1.00  0.00    -0.505 NA 
HETATM   18  H   UNL     1     -13.131   6.711  72.020  1.00  0.00     0.000 HD 
BRANCH  17  19
HETATM   19  C   UNL     1     -11.111   5.876  72.211  1.00  0.00    -0.280 C  
HETATM   20  C   UNL     1      -9.795   6.450  72.708  1.00  0.00    -0.169 C  
HETATM   21  O   UNL     1      -9.052   5.350  73.254  1.00  0.00    -0.127 OA 
HETATM   22  N   UNL     1     -10.031   4.404  73.644  1.00  0.00    -0.129 NA 
HETATM   23  C   UNL     1     -11.285   4.766  73.211  1.00  0.00    -0.340 C  
HETATM   24  O   UNL     1     -12.327   4.220  73.541  1.00  0.00     0.177 OA 
ENDBRANCH  17  19
ENDBRANCH  16  17
ENDBRANCH  13  16
ENDBRANCH   9  10
ENDBRANCH   7   9
ENDBRANCH   6   7
TORSDOF 6
ENDMDL
MODEL       90
REMARK 921   NORMALIZED FREE ENERGY PREDICTED BY IDOCK:   -4.90 KCAL/MOL
REMARK 922        TOTAL FREE ENERGY PREDICTED BY IDOCK:   -7.16 KCAL/MOL
REMARK 923 INTER-LIGAND FREE ENERGY PREDICTED BY IDOCK:   -6.58 KCAL/MOL
REMARK 924 INTRA-LIGAND FREE ENERGY PREDICTED BY IDOCK:   -0.58 KCAL/MOL
REMARK 927      BINDING AFFINITY PREDICTED BY RF-SCORE:    0.00 PKD
ROOT
HETATM    1  O   UNL     1      -9.704   4.417  68.009  1.00  0.00    -0.160 OA 
HETATM    2  C   UNL     1      -9.165   5.047  67.109  1.00  0.00    -0.120 C  
HETATM    3  N   UNL     1      -7.837   4.993  66.802  1.00  0.00    -0.099 NA 
HETATM    4  O   UNL     1      -7.466   5.875  65.771  1.00  0.00    -0.078 OA 
HETATM    5  C   UNL     1      -8.661   6.568  65.387  1.00  0.00    -0.068 C  
HETATM    6  C   UNL     1      -9.844   5.965  66.135  1.00  0.00    -0.012 C  
ENDROOT
BRANCH   6   7
HETATM    7  N   UNL     1     -10.606   7.035  66.809  1.00  0.00    -0.491 NA 
HETATM    8  H   UNL     1     -11.587   6.938  67.071  1.00  0.00     0.000 HD 
BRANCH   7   9
HETATM    9  C   UNL     1      -9.920   8.103  67.037  1.00  0.00    -0.259 C  
BRANCH   9  10
HETATM   10  C   UNL     1     -10.566   9.338  67.515  1.00  0.00    -0.329 A  
HETATM   11  C   UNL     1     -10.621  10.426  66.639  1.00  0.00    -0.245 A  
HETATM   12  C   UNL     1     -11.040  11.669  67.114  1.00  0.00    -0.354 A  
HETATM   13  C   UNL     1     -11.415  11.816  68.453  1.00  0.00    -0.354 A  
HETATM   14  C   UNL     1     -11.426  10.713  69.311  1.00  0.00    -0.351 A  
HETATM   15  C   UNL     1     -10.994   9.469  68.841  1.00  0.00    -0.116 A  
BRANCH  13  16
HETATM   16  C   UNL     1     -11.717  13.157  68.992  1.00  0.00    -0.321 C  
BRANCH  16  17
HETATM   17  N   UNL     1     -11.574  13.414  70.249  1.00  0.00    -0.526 NA 
HETATM   18  H   UNL     1     -10.712  13.209  70.755  1.00  0.00     0.000 HD 
BRANCH  17  19
HETATM   19  C   UNL     1     -12.744  14.024  70.897  1.00  0.00    -0.350 C  
HETATM   20  C   UNL     1     -13.370  13.040  71.870  1.00  0.00    -0.446 C  
HETATM   21  O   UNL     1     -13.999  13.823  72.895  1.00  0.00    -0.635 OA 
HETATM   22  N   UNL     1     -13.286  15.047  72.909  1.00  0.00    -0.471 NA 
HETATM   23  C   UNL     1     -12.404  15.130  71.858  1.00  0.00    -0.352 C  
HETATM   24  O   UNL     1     -11.556  15.999  71.720  1.00  0.00    -0.444 OA 
ENDBRANCH  17  19
ENDBRANCH  16  17
ENDBRANCH  13  16
ENDBRANCH   9  10
ENDBRANCH   7   9
ENDBRANCH   6   7
TORSDOF 6
ENDMDL
MODEL       91
REMARK 921   NORMALIZED FREE ENERGY PREDICTED BY IDOCK:   -4.89 KCAL/MOL
REMARK 922        TOTAL FREE ENERGY PREDICTED BY IDOCK:   -7.15 KCAL/MOL
REMARK 923 INTER-LIGAND FREE ENERGY PREDICTED BY IDOCK:   -6.43 KCAL/MOL
REMARK 924 INTRA-LIGAND FREE ENERGY PREDICTED BY IDOCK:   -0.72 KCAL/MOL
REMARK 927      BINDING AFFINITY PREDICTED BY RF-SCORE:    0.00 PKD
ROOT
HETATM    1  O   UNL     1     -10.752   7.873  67.095  1.00  0.00    -0.326 OA 
HETATM    2  C   UNL     1      -9.730   8.481  66.808  1.00  0.00    -0.236 C  
HETATM    3  N   UNL     1      -8.563   8.425  67.511  1.00  0.00    -0.128 NA 
HETATM    4  O   UNL     1      -7.565   9.281  67.007  1.00  0.00    -0.090 OA 
HETATM    5  C   UNL     1      -8.148   9.958  65.886  1.00  0.00    -0.121 C  
HETATM    6  C   UNL     1      -9.528   9.369  65.615  1.00  0.00    -0.262 C  
ENDROOT
BRANCH   6   7
HETATM    7  N   UNL     1     -10.528  10.453  65.546  1.00  0.00    -0.183 NA 
HETATM    8  H   UNL     1     -11.168  10.570  64.760  1.00  0.00     0.000 HD 
BRANCH   7   9
HETATM    9  C   UNL     1     -10.521  11.239  66.569  1.00  0.00    -0.253 C  
BRANCH   9  10
HETATM   10  C   UNL     1     -10.638  12.700  66.412  1.00  0.00    -0.272 A  
HETATM   11  C   UNL     1     -10.590  13.221  65.116  1.00  0.00    -0.342 A  
HETATM   12  C   UNL     1     -10.495  14.601  64.935  1.00  0.00    -0.415 A  
HETATM   13  C   UNL     1     -10.465  15.452  66.045  1.00  0.00    -0.333 A  
HETATM   14  C   UNL     1     -10.582  14.935  67.337  1.00  0.00    -0.263 A  
HETATM   15  C   UNL     1     -10.663  13.551  67.522  1.00  0.00    -0.266 A  
BRANCH  13  16
HETATM   16  C   UNL     1     -10.217  16.896  65.860  1.00  0.00    -0.314 C  
BRANCH  16  17
HETATM   17  N   UNL     1      -9.014  17.364  65.834  1.00  0.00    -0.528 NA 
HETATM   18  H   UNL     1      -8.259  16.906  65.324  1.00  0.00     0.000 HD 
BRANCH  17  19
HETATM   19  C   UNL     1      -8.813  18.606  66.595  1.00  0.00    -0.302 C  
HETATM   20  C   UNL     1     -10.051  19.481  66.497  1.00  0.00    -0.439 C  
HETATM   21  O   UNL     1     -10.094  20.264  67.699  1.00  0.00    -0.404 OA 
HETATM   22  N   UNL     1      -9.389  19.498  68.660  1.00  0.00    -0.374 NA 
HETATM   23  C   UNL     1      -8.773  18.410  68.086  1.00  0.00    -0.302 C  
HETATM   24  O   UNL     1      -8.237  17.501  68.702  1.00  0.00    -0.274 OA 
ENDBRANCH  17  19
ENDBRANCH  16  17
ENDBRANCH  13  16
ENDBRANCH   9  10
ENDBRANCH   7   9
ENDBRANCH   6   7
TORSDOF 6
ENDMDL
MODEL       92
REMARK 921   NORMALIZED FREE ENERGY PREDICTED BY IDOCK:   -4.86 KCAL/MOL
REMARK 922        TOTAL FREE ENERGY PREDICTED BY IDOCK:   -7.11 KCAL/MOL
REMARK 923 INTER-LIGAND FREE ENERGY PREDICTED BY IDOCK:   -6.91 KCAL/MOL
REMARK 924 INTRA-LIGAND FREE ENERGY PREDICTED BY IDOCK:   -0.20 KCAL/MOL
REMARK 927      BINDING AFFINITY PREDICTED BY RF-SCORE:    0.00 PKD
ROOT
HETATM    1  O   UNL     1     -12.387  10.797  68.882  1.00  0.00    -0.433 OA 
HETATM    2  C   UNL     1     -11.269  10.864  68.389  1.00  0.00    -0.285 C  
HETATM    3  N   UNL     1     -10.100  10.763  69.083  1.00  0.00    -0.217 NA 
HETATM    4  O   UNL     1      -8.957  10.950  68.283  1.00  0.00    -0.138 OA 
HETATM    5  C   UNL     1      -9.435  11.207  66.956  1.00  0.00    -0.177 C  
HETATM    6  C   UNL     1     -10.948  11.022  66.931  1.00  0.00    -0.249 C  
ENDROOT
BRANCH   6   7
HETATM    7  N   UNL     1     -11.587  12.214  66.341  1.00  0.00    -0.477 NA 
HETATM    8  H   UNL     1     -11.598  12.400  65.338  1.00  0.00     0.000 HD 
BRANCH   7   9
HETATM    9  C   UNL     1     -12.129  13.001  67.207  1.00  0.00    -0.245 C  
BRANCH   9  10
HETATM   10  C   UNL     1     -11.417  14.190  67.710  1.00  0.00    -0.352 A  
HETATM   11  C   UNL     1     -11.642  14.572  69.035  1.00  0.00    -0.330 A  
HETATM   12  C   UNL     1     -11.150  15.797  69.489  1.00  0.00    -0.306 A  
HETATM   13  C   UNL     1     -10.425  16.623  68.624  1.00  0.00    -0.323 A  
HETATM   14  C   UNL     1     -10.142  16.209  67.320  1.00  0.00    -0.265 A  
HETATM   15  C   UNL     1     -10.645  14.989  66.859  1.00  0.00    -0.297 A  
BRANCH  13  16
HETATM   16  C   UNL     1     -10.031  17.979  69.057  1.00  0.00    -0.284 C  
BRANCH  16  17
HETATM   17  N   UNL     1     -10.642  19.022  68.605  1.00  0.00    -0.368 NA 
HETATM   18  H   UNL     1     -11.629  19.204  68.791  1.00  0.00     0.000 HD 
BRANCH  17  19
HETATM   19  C   UNL     1      -9.811  19.930  67.799  1.00  0.00    -0.402 C  
HETATM   20  C   UNL     1      -8.342  19.584  67.978  1.00  0.00    -0.320 C  
HETATM   21  O   UNL     1      -7.682  19.972  66.765  1.00  0.00    -0.282 OA 
HETATM   22  N   UNL     1      -8.687  19.922  65.768  1.00  0.00    -0.301 NA 
HETATM   23  C   UNL     1      -9.931  19.714  66.316  1.00  0.00    -0.466 C  
HETATM   24  O   UNL     1     -10.946  19.471  65.680  1.00  0.00    -0.394 OA 
ENDBRANCH  17  19
ENDBRANCH  16  17
ENDBRANCH  13  16
ENDBRANCH   9  10
ENDBRANCH   7   9
ENDBRANCH   6   7
TORSDOF 6
ENDMDL
MODEL       93
REMARK 921   NORMALIZED FREE ENERGY PREDICTED BY IDOCK:   -4.86 KCAL/MOL
REMARK 922        TOTAL FREE ENERGY PREDICTED BY IDOCK:   -7.11 KCAL/MOL
REMARK 923 INTER-LIGAND FREE ENERGY PREDICTED BY IDOCK:   -6.41 KCAL/MOL
REMARK 924 INTRA-LIGAND FREE ENERGY PREDICTED BY IDOCK:   -0.70 KCAL/MOL
REMARK 927      BINDING AFFINITY PREDICTED BY RF-SCORE:    0.00 PKD
ROOT
HETATM    1  O   UNL     1      -8.472   3.545  68.583  1.00  0.00    -0.075 OA 
HETATM    2  C   UNL     1      -9.121   4.477  69.037  1.00  0.00    -0.122 C  
HETATM    3  N   UNL     1      -9.997   4.386  70.078  1.00  0.00    -0.221 NA 
HETATM    4  O   UNL     1     -10.668   5.594  70.351  1.00  0.00    -0.282 OA 
HETATM    5  C   UNL     1     -10.188   6.544  69.390  1.00  0.00    -0.183 C  
HETATM    6  C   UNL     1      -9.060   5.907  68.586  1.00  0.00    -0.115 C  
ENDROOT
BRANCH   6   7
HETATM    7  N   UNL     1      -9.332   6.053  67.143  1.00  0.00    -0.115 NA 
HETATM    8  H   UNL     1     -10.149   5.646  66.687  1.00  0.00     0.000 HD 
BRANCH   7   9
HETATM    9  C   UNL     1      -8.444   6.742  66.509  1.00  0.00    -0.124 C  
BRANCH   9  10
HETATM   10  C   UNL     1      -8.780   8.038  65.893  1.00  0.00    -0.184 A  
HETATM   11  C   UNL     1      -9.712   8.848  66.546  1.00  0.00    -0.322 A  
HETATM   12  C   UNL     1     -10.206   9.983  65.901  1.00  0.00    -0.275 A  
HETATM   13  C   UNL     1      -9.755  10.311  64.618  1.00  0.00    -0.398 A  
HETATM   14  C   UNL     1      -8.771   9.539  63.995  1.00  0.00    -0.239 A  
HETATM   15  C   UNL     1      -8.285   8.394  64.633  1.00  0.00    -0.157 A  
BRANCH  13  16
HETATM   16  C   UNL     1     -10.382  11.424  63.878  1.00  0.00    -0.379 C  
BRANCH  16  17
HETATM   17  N   UNL     1      -9.875  12.611  63.912  1.00  0.00    -0.675 NA 
HETATM   18  H   UNL     1      -8.932  12.813  63.578  1.00  0.00     0.000 HD 
BRANCH  17  19
HETATM   19  C   UNL     1     -10.756  13.649  64.466  1.00  0.00    -0.407 C  
HETATM   20  C   UNL     1     -12.197  13.369  64.076  1.00  0.00    -0.405 C  
HETATM   21  O   UNL     1     -13.017  13.929  65.112  1.00  0.00    -0.744 OA 
HETATM   22  N   UNL     1     -12.194  13.935  66.266  1.00  0.00    -0.455 NA 
HETATM   23  C   UNL     1     -10.896  13.597  65.963  1.00  0.00    -0.275 C  
HETATM   24  O   UNL     1     -10.020  13.370  66.784  1.00  0.00    -0.251 OA 
ENDBRANCH  17  19
ENDBRANCH  16  17
ENDBRANCH  13  16
ENDBRANCH   9  10
ENDBRANCH   7   9
ENDBRANCH   6   7
TORSDOF 6
ENDMDL
MODEL       94
REMARK 921   NORMALIZED FREE ENERGY PREDICTED BY IDOCK:   -4.85 KCAL/MOL
REMARK 922        TOTAL FREE ENERGY PREDICTED BY IDOCK:   -7.09 KCAL/MOL
REMARK 923 INTER-LIGAND FREE ENERGY PREDICTED BY IDOCK:   -6.49 KCAL/MOL
REMARK 924 INTRA-LIGAND FREE ENERGY PREDICTED BY IDOCK:   -0.60 KCAL/MOL
REMARK 927      BINDING AFFINITY PREDICTED BY RF-SCORE:    0.00 PKD
ROOT
HETATM    1  O   UNL     1     -10.628  16.439  65.304  1.00  0.00    -0.548 OA 
HETATM    2  C   UNL     1     -11.184  15.536  64.694  1.00  0.00    -0.371 C  
HETATM    3  N   UNL     1     -12.255  15.695  63.865  1.00  0.00    -0.574 NA 
HETATM    4  O   UNL     1     -12.747  14.482  63.347  1.00  0.00    -0.627 OA 
HETATM    5  C   UNL     1     -11.924  13.447  63.904  1.00  0.00    -0.465 C  
HETATM    6  C   UNL     1     -10.785  14.089  64.688  1.00  0.00    -0.399 C  
ENDROOT
BRANCH   6   7
HETATM    7  N   UNL     1     -10.730  13.515  66.047  1.00  0.00    -0.277 NA 
HETATM    8  H   UNL     1     -10.185  13.929  66.803  1.00  0.00     0.000 HD 
BRANCH   7   9
HETATM    9  C   UNL     1     -11.433  12.443  66.192  1.00  0.00    -0.379 C  
BRANCH   9  10
HETATM   10  C   UNL     1     -10.850  11.220  66.771  1.00  0.00    -0.334 A  
HETATM   11  C   UNL     1     -10.362  10.251  65.890  1.00  0.00    -0.241 A  
HETATM   12  C   UNL     1      -9.989   9.000  66.385  1.00  0.00    -0.370 A  
HETATM   13  C   UNL     1     -10.089   8.731  67.753  1.00  0.00    -0.261 A  
HETATM   14  C   UNL     1     -10.511   9.723  68.642  1.00  0.00    -0.233 A  
HETATM   15  C   UNL     1     -10.899  10.972  68.147  1.00  0.00    -0.274 A  
BRANCH  13  16
HETATM   16  C   UNL     1      -9.834   7.366  68.257  1.00  0.00    -0.160 C  
BRANCH  16  17
HETATM   17  N   UNL     1      -8.640   6.986  68.565  1.00  0.00    -0.124 NA 
HETATM   18  H   UNL     1      -7.833   7.177  67.970  1.00  0.00     0.000 HD 
BRANCH  17  19
HETATM   19  C   UNL     1      -8.528   6.257  69.837  1.00  0.00    -0.130 C  
HETATM   20  C   UNL     1      -9.355   6.950  70.907  1.00  0.00    -0.157 C  
HETATM   21  O   UNL     1      -9.756   5.932  71.835  1.00  0.00    -0.152 OA 
HETATM   22  N   UNL     1      -9.753   4.730  71.085  1.00  0.00    -0.170 NA 
HETATM   23  C   UNL     1      -9.209   4.916  69.836  1.00  0.00    -0.124 C  
HETATM   24  O   UNL     1      -9.228   4.093  68.932  1.00  0.00    -0.122 OA 
ENDBRANCH  17  19
ENDBRANCH  16  17
ENDBRANCH  13  16
ENDBRANCH   9  10
ENDBRANCH   7   9
ENDBRANCH   6   7
TORSDOF 6
ENDMDL
MODEL       95
REMARK 921   NORMALIZED FREE ENERGY PREDICTED BY IDOCK:   -4.85 KCAL/MOL
REMARK 922        TOTAL FREE ENERGY PREDICTED BY IDOCK:   -7.09 KCAL/MOL
REMARK 923 INTER-LIGAND FREE ENERGY PREDICTED BY IDOCK:   -6.34 KCAL/MOL
REMARK 924 INTRA-LIGAND FREE ENERGY PREDICTED BY IDOCK:   -0.74 KCAL/MOL
REMARK 927      BINDING AFFINITY PREDICTED BY RF-SCORE:    0.00 PKD
ROOT
HETATM    1  O   UNL     1      -7.441   6.739  64.356  1.00  0.00    -0.084 OA 
HETATM    2  C   UNL     1      -8.164   5.756  64.445  1.00  0.00    -0.114 C  
HETATM    3  N   UNL     1      -8.265   4.771  63.508  1.00  0.00    -0.101 NA 
HETATM    4  O   UNL     1      -9.226   3.793  63.826  1.00  0.00    -0.113 OA 
HETATM    5  C   UNL     1      -9.804   4.192  65.077  1.00  0.00    -0.201 C  
HETATM    6  C   UNL     1      -9.045   5.402  65.608  1.00  0.00    -0.140 C  
ENDROOT
BRANCH   6   7
HETATM    7  N   UNL     1      -9.997   6.481  65.940  1.00  0.00    -0.264 NA 
HETATM    8  H   UNL     1     -10.840   6.665  65.396  1.00  0.00     0.000 HD 
BRANCH   7   9
HETATM    9  C   UNL     1      -9.666   7.170  66.979  1.00  0.00    -0.170 C  
BRANCH   9  10
HETATM   10  C   UNL     1      -9.716   8.643  66.965  1.00  0.00    -0.262 A  
HETATM   11  C   UNL     1      -9.843   9.302  68.191  1.00  0.00    -0.185 A  
HETATM   12  C   UNL     1     -10.095  10.674  68.209  1.00  0.00    -0.176 A  
HETATM   13  C   UNL     1     -10.202  11.382  67.008  1.00  0.00    -0.246 A  
HETATM   14  C   UNL     1     -10.006  10.736  65.785  1.00  0.00    -0.306 A  
HETATM   15  C   UNL     1      -9.767   9.358  65.763  1.00  0.00    -0.354 A  
BRANCH  13  16
HETATM   16  C   UNL     1     -10.613  12.801  67.022  1.00  0.00    -0.240 C  
BRANCH  16  17
HETATM   17  N   UNL     1     -11.854  13.130  67.158  1.00  0.00    -0.372 NA 
HETATM   18  H   UNL     1     -12.442  12.752  67.901  1.00  0.00     0.000 HD 
BRANCH  17  19
HETATM   19  C   UNL     1     -12.357  14.088  66.162  1.00  0.00    -0.458 C  
HETATM   20  C   UNL     1     -11.248  15.045  65.758  1.00  0.00    -0.318 C  
HETATM   21  O   UNL     1     -11.536  15.458  64.414  1.00  0.00    -0.355 OA 
HETATM   22  N   UNL     1     -12.302  14.402  63.863  1.00  0.00    -0.762 NA 
HETATM   23  C   UNL     1     -12.651  13.478  64.819  1.00  0.00    -0.301 C  
HETATM   24  O   UNL     1     -13.170  12.395  64.593  1.00  0.00    -0.822 OA 
ENDBRANCH  17  19
ENDBRANCH  16  17
ENDBRANCH  13  16
ENDBRANCH   9  10
ENDBRANCH   7   9
ENDBRANCH   6   7
TORSDOF 6
ENDMDL
MODEL       96
REMARK 921   NORMALIZED FREE ENERGY PREDICTED BY IDOCK:   -4.85 KCAL/MOL
REMARK 922        TOTAL FREE ENERGY PREDICTED BY IDOCK:   -7.09 KCAL/MOL
REMARK 923 INTER-LIGAND FREE ENERGY PREDICTED BY IDOCK:   -6.40 KCAL/MOL
REMARK 924 INTRA-LIGAND FREE ENERGY PREDICTED BY IDOCK:   -0.68 KCAL/MOL
REMARK 927      BINDING AFFINITY PREDICTED BY RF-SCORE:    0.00 PKD
ROOT
HETATM    1  O   UNL     1     -12.141  15.618  73.983  1.00  0.00    -0.508 OA 
HETATM    2  C   UNL     1     -12.861  15.099  73.141  1.00  0.00    -0.497 C  
HETATM    3  N   UNL     1     -13.467  13.884  73.270  1.00  0.00    -0.274 NA 
HETATM    4  O   UNL     1     -14.179  13.489  72.122  1.00  0.00    -0.463 OA 
HETATM    5  C   UNL     1     -14.005  14.540  71.162  1.00  0.00    -0.180 C  
HETATM    6  C   UNL     1     -13.263  15.696  71.823  1.00  0.00    -0.465 C  
ENDROOT
BRANCH   6   7
HETATM    7  N   UNL     1     -12.099  16.078  71.000  1.00  0.00    -0.538 NA 
HETATM    8  H   UNL     1     -11.250  16.484  71.393  1.00  0.00     0.000 HD 
BRANCH   7   9
HETATM    9  C   UNL     1     -12.252  15.852  69.739  1.00  0.00    -0.136 C  
BRANCH   9  10
HETATM   10  C   UNL     1     -11.223  15.138  68.961  1.00  0.00    -0.282 A  
HETATM   11  C   UNL     1     -11.633  14.056  68.178  1.00  0.00    -0.369 A  
HETATM   12  C   UNL     1     -10.671  13.234  67.588  1.00  0.00    -0.250 A  
HETATM   13  C   UNL     1      -9.312  13.505  67.770  1.00  0.00    -0.213 A  
HETATM   14  C   UNL     1      -8.904  14.628  68.495  1.00  0.00    -0.182 A  
HETATM   15  C   UNL     1      -9.865  15.445  69.099  1.00  0.00    -0.247 A  
BRANCH  13  16
HETATM   16  C   UNL     1      -8.297  12.556  67.270  1.00  0.00    -0.185 C  
BRANCH  16  17
HETATM   17  N   UNL     1      -8.381  12.062  66.080  1.00  0.00    -0.382 NA 
HETATM   18  H   UNL     1      -8.371  12.646  65.243  1.00  0.00     0.000 HD 
BRANCH  17  19
HETATM   19  C   UNL     1      -8.491  10.597  66.020  1.00  0.00    -0.165 C  
HETATM   20  C   UNL     1      -8.340  10.008  67.413  1.00  0.00    -0.118 C  
HETATM   21  O   UNL     1      -9.085   8.782  67.420  1.00  0.00    -0.131 OA 
HETATM   22  N   UNL     1     -10.077   8.951  66.422  1.00  0.00    -0.291 NA 
HETATM   23  C   UNL     1      -9.873  10.101  65.696  1.00  0.00    -0.280 C  
HETATM   24  O   UNL     1     -10.661  10.570  64.888  1.00  0.00    -0.247 OA 
ENDBRANCH  17  19
ENDBRANCH  16  17
ENDBRANCH  13  16
ENDBRANCH   9  10
ENDBRANCH   7   9
ENDBRANCH   6   7
TORSDOF 6
ENDMDL
MODEL       97
REMARK 921   NORMALIZED FREE ENERGY PREDICTED BY IDOCK:   -4.85 KCAL/MOL
REMARK 922        TOTAL FREE ENERGY PREDICTED BY IDOCK:   -7.08 KCAL/MOL
REMARK 923 INTER-LIGAND FREE ENERGY PREDICTED BY IDOCK:   -6.47 KCAL/MOL
REMARK 924 INTRA-LIGAND FREE ENERGY PREDICTED BY IDOCK:   -0.61 KCAL/MOL
REMARK 927      BINDING AFFINITY PREDICTED BY RF-SCORE:    0.00 PKD
ROOT
HETATM    1  O   UNL     1      -8.217   7.003  69.611  1.00  0.00    -0.127 OA 
HETATM    2  C   UNL     1      -9.379   7.151  69.962  1.00  0.00    -0.154 C  
HETATM    3  N   UNL     1     -10.344   6.189  69.899  1.00  0.00    -0.196 NA 
HETATM    4  O   UNL     1     -11.615   6.644  70.296  1.00  0.00    -0.370 OA 
HETATM    5  C   UNL     1     -11.456   8.029  70.632  1.00  0.00    -0.232 C  
HETATM    6  C   UNL     1      -9.976   8.387  70.569  1.00  0.00    -0.185 C  
ENDROOT
BRANCH   6   7
HETATM    7  N   UNL     1      -9.786   9.579  69.719  1.00  0.00    -0.201 NA 
HETATM    8  H   UNL     1      -9.094  10.301  69.920  1.00  0.00     0.000 HD 
BRANCH   7   9
HETATM    9  C   UNL     1     -10.575   9.626  68.700  1.00  0.00    -0.217 C  
BRANCH   9  10
HETATM   10  C   UNL     1     -11.003  10.913  68.124  1.00  0.00    -0.302 A  
HETATM   11  C   UNL     1     -10.780  11.123  66.760  1.00  0.00    -0.326 A  
HETATM   12  C   UNL     1     -10.984  12.394  66.220  1.00  0.00    -0.323 A  
HETATM   13  C   UNL     1     -11.424  13.440  67.037  1.00  0.00    -0.372 A  
HETATM   14  C   UNL     1     -11.713  13.212  68.385  1.00  0.00    -0.386 A  
HETATM   15  C   UNL     1     -11.496  11.943  68.933  1.00  0.00    -0.358 A  
BRANCH  13  16
HETATM   16  C   UNL     1     -11.499  14.813  66.501  1.00  0.00    -0.327 C  
BRANCH  16  17
HETATM   17  N   UNL     1     -10.460  15.580  66.497  1.00  0.00    -0.294 NA 
HETATM   18  H   UNL     1      -9.624  15.368  65.951  1.00  0.00     0.000 HD 
BRANCH  17  19
HETATM   19  C   UNL     1     -10.571  16.783  67.336  1.00  0.00    -0.291 C  
HETATM   20  C   UNL     1      -9.416  16.836  68.321  1.00  0.00    -0.240 C  
HETATM   21  O   UNL     1      -9.182  18.223  68.602  1.00  0.00    -0.313 OA 
HETATM   22  N   UNL     1      -9.655  18.913  67.458  1.00  0.00    -0.300 NA 
HETATM   23  C   UNL     1     -10.318  18.069  66.597  1.00  0.00    -0.371 C  
HETATM   24  O   UNL     1     -10.685  18.363  65.470  1.00  0.00    -0.588 OA 
ENDBRANCH  17  19
ENDBRANCH  16  17
ENDBRANCH  13  16
ENDBRANCH   9  10
ENDBRANCH   7   9
ENDBRANCH   6   7
TORSDOF 6
ENDMDL
MODEL       98
REMARK 921   NORMALIZED FREE ENERGY PREDICTED BY IDOCK:   -4.81 KCAL/MOL
REMARK 922        TOTAL FREE ENERGY PREDICTED BY IDOCK:   -7.04 KCAL/MOL
REMARK 923 INTER-LIGAND FREE ENERGY PREDICTED BY IDOCK:   -6.61 KCAL/MOL
REMARK 924 INTRA-LIGAND FREE ENERGY PREDICTED BY IDOCK:   -0.43 KCAL/MOL
REMARK 927      BINDING AFFINITY PREDICTED BY RF-SCORE:    0.00 PKD
ROOT
HETATM    1  O   UNL     1      -6.874   5.368  66.307  1.00  0.00    -0.056 OA 
HETATM    2  C   UNL     1      -8.018   4.981  66.113  1.00  0.00    -0.107 C  
HETATM    3  N   UNL     1      -8.356   3.801  65.519  1.00  0.00    -0.104 NA 
HETATM    4  O   UNL     1      -9.743   3.636  65.351  1.00  0.00    -0.172 OA 
HETATM    5  C   UNL     1     -10.354   4.824  65.874  1.00  0.00    -0.270 C  
HETATM    6  C   UNL     1      -9.278   5.688  66.521  1.00  0.00    -0.144 C  
ENDROOT
BRANCH   6   7
HETATM    7  N   UNL     1      -9.351   7.061  65.984  1.00  0.00    -0.379 NA 
HETATM    8  H   UNL     1      -8.772   7.387  65.210  1.00  0.00     0.000 HD 
BRANCH   7   9
HETATM    9  C   UNL     1     -10.214   7.812  66.582  1.00  0.00    -0.218 C  
BRANCH   9  10
HETATM   10  C   UNL     1     -10.130   9.282  66.505  1.00  0.00    -0.343 A  
HETATM   11  C   UNL     1      -9.285   9.837  65.541  1.00  0.00    -0.270 A  
HETATM   12  C   UNL     1      -9.022  11.207  65.565  1.00  0.00    -0.178 A  
HETATM   13  C   UNL     1      -9.616  12.016  66.539  1.00  0.00    -0.234 A  
HETATM   14  C   UNL     1     -10.515  11.471  67.460  1.00  0.00    -0.229 A  
HETATM   15  C   UNL     1     -10.769  10.096  67.446  1.00  0.00    -0.336 A  
BRANCH  13  16
HETATM   16  C   UNL     1      -9.227  13.435  66.657  1.00  0.00    -0.214 C  
BRANCH  16  17
HETATM   17  N   UNL     1     -10.120  14.367  66.691  1.00  0.00    -0.267 NA 
HETATM   18  H   UNL     1     -10.871  14.380  67.381  1.00  0.00     0.000 HD 
BRANCH  17  19
HETATM   19  C   UNL     1      -9.975  15.407  65.662  1.00  0.00    -0.362 C  
HETATM   20  C   UNL     1     -11.093  15.286  64.641  1.00  0.00    -0.332 C  
HETATM   21  O   UNL     1     -11.312  16.603  64.117  1.00  0.00    -1.141 OA 
HETATM   22  N   UNL     1     -10.878  17.481  65.141  1.00  0.00    -0.636 NA 
HETATM   23  C   UNL     1     -10.250  16.800  66.158  1.00  0.00    -0.351 C  
HETATM   24  O   UNL     1      -9.923  17.285  67.230  1.00  0.00    -0.267 OA 
ENDBRANCH  17  19
ENDBRANCH  16  17
ENDBRANCH  13  16
ENDBRANCH   9  10
ENDBRANCH   7   9
ENDBRANCH   6   7
TORSDOF 6
ENDMDL
MODEL       99
REMARK 921   NORMALIZED FREE ENERGY PREDICTED BY IDOCK:   -4.81 KCAL/MOL
REMARK 922        TOTAL FREE ENERGY PREDICTED BY IDOCK:   -7.03 KCAL/MOL
REMARK 923 INTER-LIGAND FREE ENERGY PREDICTED BY IDOCK:   -6.48 KCAL/MOL
REMARK 924 INTRA-LIGAND FREE ENERGY PREDICTED BY IDOCK:   -0.56 KCAL/MOL
REMARK 927      BINDING AFFINITY PREDICTED BY RF-SCORE:    0.00 PKD
ROOT
HETATM    1  O   UNL     1     -12.557  14.108  63.377  1.00  0.00    -0.818 OA 
HETATM    2  C   UNL     1     -12.192  14.557  64.455  1.00  0.00    -0.458 C  
HETATM    3  N   UNL     1     -11.349  15.616  64.617  1.00  0.00    -0.406 NA 
HETATM    4  O   UNL     1     -11.033  15.879  65.963  1.00  0.00    -0.261 OA 
HETATM    5  C   UNL     1     -11.726  14.891  66.737  1.00  0.00    -0.233 C  
HETATM    6  C   UNL     1     -12.623  14.077  65.810  1.00  0.00    -0.479 C  
ENDROOT
BRANCH   6   7
HETATM    7  N   UNL     1     -12.365  12.637  66.005  1.00  0.00    -0.569 NA 
HETATM    8  H   UNL     1     -13.090  11.975  66.280  1.00  0.00     0.000 HD 
BRANCH   7   9
HETATM    9  C   UNL     1     -11.140  12.292  65.796  1.00  0.00    -0.323 C  
BRANCH   9  10
HETATM   10  C   UNL     1     -10.587  11.052  66.370  1.00  0.00    -0.308 A  
HETATM   11  C   UNL     1      -9.844  10.219  65.530  1.00  0.00    -0.347 A  
HETATM   12  C   UNL     1      -9.475   8.949  65.975  1.00  0.00    -0.320 A  
HETATM   13  C   UNL     1      -9.836   8.524  67.258  1.00  0.00    -0.259 A  
HETATM   14  C   UNL     1     -10.520   9.384  68.122  1.00  0.00    -0.267 A  
HETATM   15  C   UNL     1     -10.902  10.652  67.674  1.00  0.00    -0.346 A  
BRANCH  13  16
HETATM   16  C   UNL     1      -9.576   7.132  67.674  1.00  0.00    -0.130 C  
BRANCH  16  17
HETATM   17  N   UNL     1      -9.953   6.139  66.939  1.00  0.00    -0.156 NA 
HETATM   18  H   UNL     1     -10.896   6.067  66.558  1.00  0.00     0.000 HD 
BRANCH  17  19
HETATM   19  C   UNL     1      -8.921   5.120  66.693  1.00  0.00    -0.115 C  
HETATM   20  C   UNL     1      -9.526   3.731  66.807  1.00  0.00    -0.194 C  
HETATM   21  O   UNL     1      -8.753   2.878  65.952  1.00  0.00    -0.117 OA 
HETATM   22  N   UNL     1      -8.212   3.740  64.967  1.00  0.00    -0.097 NA 
HETATM   23  C   UNL     1      -8.448   5.061  65.267  1.00  0.00    -0.141 C  
HETATM   24  O   UNL     1      -8.234   6.001  64.516  1.00  0.00    -0.133 OA 
ENDBRANCH  17  19
ENDBRANCH  16  17
ENDBRANCH  13  16
ENDBRANCH   9  10
ENDBRANCH   7   9
ENDBRANCH   6   7
TORSDOF 6
ENDMDL
MODEL      100
REMARK 921   NORMALIZED FREE ENERGY PREDICTED BY IDOCK:   -4.77 KCAL/MOL
REMARK 922        TOTAL FREE ENERGY PREDICTED BY IDOCK:   -6.98 KCAL/MOL
REMARK 923 INTER-LIGAND FREE ENERGY PREDICTED BY IDOCK:   -6.57 KCAL/MOL
REMARK 924 INTRA-LIGAND FREE ENERGY PREDICTED BY IDOCK:   -0.41 KCAL/MOL
REMARK 927      BINDING AFFINITY PREDICTED BY RF-SCORE:    0.00 PKD
ROOT
HETATM    1  O   UNL     1     -11.456  15.077  73.815  1.00  0.00    -0.015 OA 
HETATM    2  C   UNL     1     -12.382  15.038  73.018  1.00  0.00    -0.376 C  
HETATM    3  N   UNL     1     -13.374  14.102  73.015  1.00  0.00    -0.636 NA 
HETATM    4  O   UNL     1     -14.274  14.245  71.943  1.00  0.00    -0.464 OA 
HETATM    5  C   UNL     1     -13.812  15.367  71.179  1.00  0.00    -0.365 C  
HETATM    6  C   UNL     1     -12.650  16.022  71.916  1.00  0.00    -0.377 C  
ENDROOT
BRANCH   6   7
HETATM    7  N   UNL     1     -11.500  16.169  71.002  1.00  0.00    -0.467 NA 
HETATM    8  H   UNL     1     -10.556  16.379  71.326  1.00  0.00     0.000 HD 
BRANCH   7   9
HETATM    9  C   UNL     1     -11.796  16.008  69.757  1.00  0.00    -0.227 C  
BRANCH   9  10
HETATM   10  C   UNL     1     -11.264  14.870  68.986  1.00  0.00    -0.278 A  
HETATM   11  C   UNL     1     -12.070  13.737  68.856  1.00  0.00    -0.348 A  
HETATM   12  C   UNL     1     -11.532  12.570  68.311  1.00  0.00    -0.355 A  
HETATM   13  C   UNL     1     -10.200  12.547  67.885  1.00  0.00    -0.219 A  
HETATM   14  C   UNL     1      -9.415  13.701  67.951  1.00  0.00    -0.213 A  
HETATM   15  C   UNL     1      -9.948  14.867  68.509  1.00  0.00    -0.223 A  
BRANCH  13  16
HETATM   16  C   UNL     1      -9.588  11.277  67.446  1.00  0.00    -0.169 C  
BRANCH  16  17
HETATM   17  N   UNL     1      -9.949  10.715  66.341  1.00  0.00    -0.214 NA 
HETATM   18  H   UNL     1     -10.353   9.779  66.309  1.00  0.00     0.000 HD 
BRANCH  17  19
HETATM   19  C   UNL     1      -9.735  11.525  65.132  1.00  0.00    -0.237 C  
HETATM   20  C   UNL     1      -8.943  10.729  64.108  1.00  0.00    -0.154 C  
HETATM   21  O   UNL     1      -9.329  11.225  62.819  1.00  0.00    -0.345 OA 
HETATM   22  N   UNL     1     -10.633  11.748  63.003  1.00  0.00    -0.243 NA 
HETATM   23  C   UNL     1     -10.985  11.771  64.332  1.00  0.00    -0.339 C  
HETATM   24  O   UNL     1     -12.103  12.021  64.758  1.00  0.00    -0.312 OA 
ENDBRANCH  17  19
ENDBRANCH  16  17
ENDBRANCH  13  16
ENDBRANCH   9  10
ENDBRANCH   7   9
ENDBRANCH   6   7
TORSDOF 6
ENDMDL
MODEL      101
REMARK 921   NORMALIZED FREE ENERGY PREDICTED BY IDOCK:   -4.75 KCAL/MOL
REMARK 922        TOTAL FREE ENERGY PREDICTED BY IDOCK:   -6.96 KCAL/MOL
REMARK 923 INTER-LIGAND FREE ENERGY PREDICTED BY IDOCK:   -6.39 KCAL/MOL
REMARK 924 INTRA-LIGAND FREE ENERGY PREDICTED BY IDOCK:   -0.57 KCAL/MOL
REMARK 927      BINDING AFFINITY PREDICTED BY RF-SCORE:    0.00 PKD
ROOT
HETATM    1  O   UNL     1      -9.447  16.336  66.500  1.00  0.00    -0.232 OA 
HETATM    2  C   UNL     1     -10.405  15.600  66.689  1.00  0.00    -0.289 C  
HETATM    3  N   UNL     1     -11.275  15.700  67.733  1.00  0.00    -0.322 NA 
HETATM    4  O   UNL     1     -12.245  14.680  67.754  1.00  0.00    -0.254 OA 
HETATM    5  C   UNL     1     -11.965  13.839  66.627  1.00  0.00    -0.431 C  
HETATM    6  C   UNL     1     -10.850  14.473  65.802  1.00  0.00    -0.315 C  
ENDROOT
BRANCH   6   7
HETATM    7  N   UNL     1      -9.779  13.485  65.568  1.00  0.00    -0.507 NA 
HETATM    8  H   UNL     1      -9.398  13.286  64.642  1.00  0.00     0.000 HD 
BRANCH   7   9
HETATM    9  C   UNL     1      -9.368  12.895  66.639  1.00  0.00    -0.240 C  
BRANCH   9  10
HETATM   10  C   UNL     1      -9.447  11.430  66.782  1.00  0.00    -0.197 A  
HETATM   11  C   UNL     1      -9.533  10.665  65.616  1.00  0.00    -0.257 A  
HETATM   12  C   UNL     1      -9.811   9.301  65.710  1.00  0.00    -0.302 A  
HETATM   13  C   UNL     1      -9.984   8.707  66.964  1.00  0.00    -0.317 A  
HETATM   14  C   UNL     1      -9.829   9.458  68.132  1.00  0.00    -0.183 A  
HETATM   15  C   UNL     1      -9.564  10.829  68.040  1.00  0.00    -0.172 A  
BRANCH  13  16
HETATM   16  C   UNL     1     -10.421   7.299  67.060  1.00  0.00    -0.328 C  
BRANCH  16  17
HETATM   17  N   UNL     1     -11.373   6.954  67.861  1.00  0.00    -0.544 NA 
HETATM   18  H   UNL     1     -12.309   7.354  67.804  1.00  0.00     0.000 HD 
BRANCH  17  19
HETATM   19  C   UNL     1     -11.006   5.941  68.863  1.00  0.00    -0.267 C  
HETATM   20  C   UNL     1      -9.494   5.815  68.944  1.00  0.00    -0.124 C  
HETATM   21  O   UNL     1      -9.191   5.393  70.281  1.00  0.00    -0.141 OA 
HETATM   22  N   UNL     1     -10.278   5.852  71.065  1.00  0.00    -0.202 NA 
HETATM   23  C   UNL     1     -11.291   6.353  70.281  1.00  0.00    -0.403 C  
HETATM   24  O   UNL     1     -12.268   6.957  70.698  1.00  0.00    -0.365 OA 
ENDBRANCH  17  19
ENDBRANCH  16  17
ENDBRANCH  13  16
ENDBRANCH   9  10
ENDBRANCH   7   9
ENDBRANCH   6   7
TORSDOF 6
ENDMDL
MODEL      102
REMARK 921   NORMALIZED FREE ENERGY PREDICTED BY IDOCK:   -4.75 KCAL/MOL
REMARK 922        TOTAL FREE ENERGY PREDICTED BY IDOCK:   -6.95 KCAL/MOL
REMARK 923 INTER-LIGAND FREE ENERGY PREDICTED BY IDOCK:   -6.27 KCAL/MOL
REMARK 924 INTRA-LIGAND FREE ENERGY PREDICTED BY IDOCK:   -0.68 KCAL/MOL
REMARK 927      BINDING AFFINITY PREDICTED BY RF-SCORE:    0.00 PKD
ROOT
HETATM    1  O   UNL     1     -10.543  17.136  69.526  1.00  0.00    -0.296 OA 
HETATM    2  C   UNL     1     -10.049  17.765  68.601  1.00  0.00    -0.384 C  
HETATM    3  N   UNL     1     -10.733  18.606  67.773  1.00  0.00    -0.388 NA 
HETATM    4  O   UNL     1      -9.939  19.145  66.744  1.00  0.00    -0.317 OA 
HETATM    5  C   UNL     1      -8.628  18.590  66.917  1.00  0.00    -0.278 C  
HETATM    6  C   UNL     1      -8.600  17.783  68.209  1.00  0.00    -0.277 C  
ENDROOT
BRANCH   6   7
HETATM    7  N   UNL     1      -8.073  16.430  67.941  1.00  0.00    -0.156 NA 
HETATM    8  H   UNL     1      -7.246  16.054  68.405  1.00  0.00     0.000 HD 
BRANCH   7   9
HETATM    9  C   UNL     1      -8.753  15.767  67.068  1.00  0.00    -0.224 C  
BRANCH   9  10
HETATM   10  C   UNL     1      -9.095  14.350  67.283  1.00  0.00    -0.221 A  
HETATM   11  C   UNL     1     -10.316  13.891  66.783  1.00  0.00    -0.272 A  
HETATM   12  C   UNL     1     -10.767  12.618  67.135  1.00  0.00    -0.264 A  
HETATM   13  C   UNL     1      -9.991  11.807  67.969  1.00  0.00    -0.191 A  
HETATM   14  C   UNL     1      -8.738  12.239  68.411  1.00  0.00    -0.139 A  
HETATM   15  C   UNL     1      -8.290  13.519  68.071  1.00  0.00    -0.168 A  
BRANCH  13  16
HETATM   16  C   UNL     1     -10.531  10.523  68.460  1.00  0.00    -0.188 C  
BRANCH  16  17
HETATM   17  N   UNL     1     -11.696  10.463  69.013  1.00  0.00    -0.501 NA 
HETATM   18  H   UNL     1     -12.541  10.234  68.489  1.00  0.00     0.000 HD 
BRANCH  17  19
HETATM   19  C   UNL     1     -11.715  10.749  70.456  1.00  0.00    -0.351 C  
HETATM   20  C   UNL     1     -12.489  12.029  70.721  1.00  0.00    -0.279 C  
HETATM   21  O   UNL     1     -13.040  11.906  72.040  1.00  0.00    -0.457 OA 
HETATM   22  N   UNL     1     -13.156  10.512  72.261  1.00  0.00    -0.300 NA 
HETATM   23  C   UNL     1     -12.551   9.790  71.258  1.00  0.00    -0.365 C  
HETATM   24  O   UNL     1     -12.638   8.579  71.114  1.00  0.00    -0.259 OA 
ENDBRANCH  17  19
ENDBRANCH  16  17
ENDBRANCH  13  16
ENDBRANCH   9  10
ENDBRANCH   7   9
ENDBRANCH   6   7
TORSDOF 6
ENDMDL
MODEL      103
REMARK 921   NORMALIZED FREE ENERGY PREDICTED BY IDOCK:   -4.74 KCAL/MOL
REMARK 922        TOTAL FREE ENERGY PREDICTED BY IDOCK:   -6.95 KCAL/MOL
REMARK 923 INTER-LIGAND FREE ENERGY PREDICTED BY IDOCK:   -6.47 KCAL/MOL
REMARK 924 INTRA-LIGAND FREE ENERGY PREDICTED BY IDOCK:   -0.48 KCAL/MOL
REMARK 927      BINDING AFFINITY PREDICTED BY RF-SCORE:    0.00 PKD
ROOT
HETATM    1  O   UNL     1      -9.818   2.613  71.719  1.00  0.00    -0.152 OA 
HETATM    2  C   UNL     1     -10.139   3.461  72.539  1.00  0.00    -0.162 C  
HETATM    3  N   UNL     1     -11.024   3.269  73.558  1.00  0.00    -0.218 NA 
HETATM    4  O   UNL     1     -11.272   4.433  74.311  1.00  0.00    -0.207 OA 
HETATM    5  C   UNL     1     -10.484   5.471  73.713  1.00  0.00    -0.272 C  
HETATM    6  C   UNL     1      -9.604   4.861  72.628  1.00  0.00    -0.138 C  
ENDROOT
BRANCH   6   7
HETATM    7  N   UNL     1      -9.776   5.610  71.367  1.00  0.00    -0.159 NA 
HETATM    8  H   UNL     1      -9.076   5.618  70.626  1.00  0.00     0.000 HD 
BRANCH   7   9
HETATM    9  C   UNL     1     -10.892   6.253  71.288  1.00  0.00    -0.265 C  
BRANCH   9  10
HETATM   10  C   UNL     1     -10.921   7.701  71.017  1.00  0.00    -0.262 A  
HETATM   11  C   UNL     1     -11.715   8.503  71.840  1.00  0.00    -0.409 A  
HETATM   12  C   UNL     1     -11.929   9.839  71.497  1.00  0.00    -0.488 A  
HETATM   13  C   UNL     1     -11.337  10.369  70.346  1.00  0.00    -0.417 A  
HETATM   14  C   UNL     1     -10.487   9.586  69.562  1.00  0.00    -0.234 A  
HETATM   15  C   UNL     1     -10.282   8.243  69.895  1.00  0.00    -0.201 A  
BRANCH  13  16
HETATM   16  C   UNL     1     -11.679  11.736  69.904  1.00  0.00    -0.323 C  
BRANCH  16  17
HETATM   17  N   UNL     1     -12.712  12.347  70.379  1.00  0.00     0.018 NA 
HETATM   18  H   UNL     1     -13.666  12.082  70.132  1.00  0.00     0.000 HD 
BRANCH  17  19
HETATM   19  C   UNL     1     -12.413  13.452  71.301  1.00  0.00    -0.278 C  
HETATM   20  C   UNL     1     -12.202  14.738  70.520  1.00  0.00    -0.322 C  
HETATM   21  O   UNL     1     -12.582  15.812  71.391  1.00  0.00    -0.430 OA 
HETATM   22  N   UNL     1     -13.512  15.240  72.294  1.00  0.00    -0.407 NA 
HETATM   23  C   UNL     1     -13.582  13.874  72.150  1.00  0.00    -0.506 C  
HETATM   24  O   UNL     1     -14.410  13.153  72.685  1.00  0.00    -0.636 OA 
ENDBRANCH  17  19
ENDBRANCH  16  17
ENDBRANCH  13  16
ENDBRANCH   9  10
ENDBRANCH   7   9
ENDBRANCH   6   7
TORSDOF 6
ENDMDL
MODEL      104
REMARK 921   NORMALIZED FREE ENERGY PREDICTED BY IDOCK:   -4.74 KCAL/MOL
REMARK 922        TOTAL FREE ENERGY PREDICTED BY IDOCK:   -6.94 KCAL/MOL
REMARK 923 INTER-LIGAND FREE ENERGY PREDICTED BY IDOCK:   -6.30 KCAL/MOL
REMARK 924 INTRA-LIGAND FREE ENERGY PREDICTED BY IDOCK:   -0.64 KCAL/MOL
REMARK 927      BINDING AFFINITY PREDICTED BY RF-SCORE:    0.00 PKD
ROOT
HETATM    1  O   UNL     1      -7.442   4.624  67.665  1.00  0.00    -0.076 OA 
HETATM    2  C   UNL     1      -8.562   5.114  67.671  1.00  0.00    -0.104 C  
HETATM    3  N   UNL     1      -9.649   4.590  67.035  1.00  0.00    -0.176 NA 
HETATM    4  O   UNL     1     -10.800   5.393  67.141  1.00  0.00    -0.196 OA 
HETATM    5  C   UNL     1     -10.415   6.545  67.904  1.00  0.00    -0.222 C  
HETATM    6  C   UNL     1      -8.989   6.352  68.405  1.00  0.00    -0.120 C  
ENDROOT
BRANCH   6   7
HETATM    7  N   UNL     1      -8.171   7.527  68.047  1.00  0.00    -0.123 NA 
HETATM    8  H   UNL     1      -7.545   7.991  68.705  1.00  0.00     0.000 HD 
BRANCH   7   9
HETATM    9  C   UNL     1      -8.319   7.916  66.826  1.00  0.00    -0.120 C  
BRANCH   9  10
HETATM   10  C   UNL     1      -8.573   9.331  66.500  1.00  0.00    -0.139 A  
HETATM   11  C   UNL     1      -8.041  10.301  67.353  1.00  0.00    -0.110 A  
HETATM   12  C   UNL     1      -8.422  11.635  67.197  1.00  0.00    -0.162 A  
HETATM   13  C   UNL     1      -9.317  11.993  66.184  1.00  0.00    -0.217 A  
HETATM   14  C   UNL     1      -9.793  11.033  65.288  1.00  0.00    -0.309 A  
HETATM   15  C   UNL     1      -9.424   9.694  65.450  1.00  0.00    -0.343 A  
BRANCH  13  16
HETATM   16  C   UNL     1      -9.833  13.375  66.110  1.00  0.00    -0.281 C  
BRANCH  16  17
HETATM   17  N   UNL     1     -11.058  13.641  66.418  1.00  0.00    -0.301 NA 
HETATM   18  H   UNL     1     -11.623  13.024  67.002  1.00  0.00     0.000 HD 
BRANCH  17  19
HETATM   19  C   UNL     1     -11.579  14.900  65.865  1.00  0.00    -0.228 C  
HETATM   20  C   UNL     1     -10.443  15.889  65.665  1.00  0.00    -0.392 C  
HETATM   21  O   UNL     1     -10.831  16.742  64.579  1.00  0.00    -0.886 OA 
HETATM   22  N   UNL     1     -11.734  15.968  63.809  1.00  0.00    -0.691 NA 
HETATM   23  C   UNL     1     -12.057  14.791  64.443  1.00  0.00    -0.440 C  
HETATM   24  O   UNL     1     -12.684  13.871  63.938  1.00  0.00    -0.665 OA 
ENDBRANCH  17  19
ENDBRANCH  16  17
ENDBRANCH  13  16
ENDBRANCH   9  10
ENDBRANCH   7   9
ENDBRANCH   6   7
TORSDOF 6
ENDMDL
MODEL      105
REMARK 921   NORMALIZED FREE ENERGY PREDICTED BY IDOCK:   -4.72 KCAL/MOL
REMARK 922        TOTAL FREE ENERGY PREDICTED BY IDOCK:   -6.92 KCAL/MOL
REMARK 923 INTER-LIGAND FREE ENERGY PREDICTED BY IDOCK:   -6.99 KCAL/MOL
REMARK 924 INTRA-LIGAND FREE ENERGY PREDICTED BY IDOCK:    0.07 KCAL/MOL
REMARK 927      BINDING AFFINITY PREDICTED BY RF-SCORE:    0.00 PKD
ROOT
HETATM    1  O   UNL     1     -12.855  13.817  63.559  1.00  0.00    -0.576 OA 
HETATM    2  C   UNL     1     -12.100  14.651  64.038  1.00  0.00    -0.200 C  
HETATM    3  N   UNL     1     -12.201  15.998  63.851  1.00  0.00    -0.803 NA 
HETATM    4  O   UNL     1     -11.158  16.726  64.453  1.00  0.00    -1.072 OA 
HETATM    5  C   UNL     1     -10.301  15.759  65.073  1.00  0.00    -0.212 C  
HETATM    6  C   UNL     1     -10.944  14.382  64.957  1.00  0.00    -0.389 C  
ENDROOT
BRANCH   6   7
HETATM    7  N   UNL     1      -9.978  13.427  64.381  1.00  0.00    -0.676 NA 
HETATM    8  H   UNL     1      -9.019  13.681  64.142  1.00  0.00     0.000 HD 
BRANCH   7   9
HETATM    9  C   UNL     1     -10.455  12.241  64.205  1.00  0.00    -0.375 C  
BRANCH   9  10
HETATM   10  C   UNL     1     -10.296  11.194  65.230  1.00  0.00    -0.336 A  
HETATM   11  C   UNL     1     -10.622  11.518  66.549  1.00  0.00    -0.301 A  
HETATM   12  C   UNL     1     -10.299  10.629  67.575  1.00  0.00    -0.254 A  
HETATM   13  C   UNL     1      -9.668   9.417  67.277  1.00  0.00    -0.215 A  
HETATM   14  C   UNL     1      -9.404   9.063  65.951  1.00  0.00    -0.306 A  
HETATM   15  C   UNL     1      -9.715   9.958  64.922  1.00  0.00    -0.332 A  
BRANCH  13  16
HETATM   16  C   UNL     1      -9.194   8.544  68.369  1.00  0.00    -0.135 C  
BRANCH  16  17
HETATM   17  N   UNL     1      -7.998   8.057  68.357  1.00  0.00    -0.119 NA 
HETATM   18  H   UNL     1      -7.182   8.615  68.106  1.00  0.00     0.000 HD 
BRANCH  17  19
HETATM   19  C   UNL     1      -7.900   6.639  68.732  1.00  0.00    -0.111 C  
HETATM   20  C   UNL     1      -8.515   6.421  70.104  1.00  0.00    -0.135 C  
HETATM   21  O   UNL     1      -8.996   5.069  70.125  1.00  0.00    -0.106 OA 
HETATM   22  N   UNL     1      -9.247   4.748  68.768  1.00  0.00    -0.116 NA 
HETATM   23  C   UNL     1      -8.784   5.730  67.923  1.00  0.00    -0.103 C  
HETATM   24  O   UNL     1      -9.009   5.786  66.723  1.00  0.00    -0.115 OA 
ENDBRANCH  17  19
ENDBRANCH  16  17
ENDBRANCH  13  16
ENDBRANCH   9  10
ENDBRANCH   7   9
ENDBRANCH   6   7
TORSDOF 6
ENDMDL
MODEL      106
REMARK 921   NORMALIZED FREE ENERGY PREDICTED BY IDOCK:   -4.71 KCAL/MOL
REMARK 922        TOTAL FREE ENERGY PREDICTED BY IDOCK:   -6.90 KCAL/MOL
REMARK 923 INTER-LIGAND FREE ENERGY PREDICTED BY IDOCK:   -6.14 KCAL/MOL
REMARK 924 INTRA-LIGAND FREE ENERGY PREDICTED BY IDOCK:   -0.76 KCAL/MOL
REMARK 927      BINDING AFFINITY PREDICTED BY RF-SCORE:    0.00 PKD
ROOT
HETATM    1  O   UNL     1      -8.654   9.402  70.042  1.00  0.00    -0.163 OA 
HETATM    2  C   UNL     1      -8.927   9.223  68.864  1.00  0.00    -0.136 C  
HETATM    3  N   UNL     1      -8.015   9.136  67.854  1.00  0.00    -0.100 NA 
HETATM    4  O   UNL     1      -8.601   9.003  66.581  1.00  0.00    -0.123 OA 
HETATM    5  C   UNL     1     -10.020   9.020  66.790  1.00  0.00    -0.263 C  
HETATM    6  C   UNL     1     -10.299   9.019  68.288  1.00  0.00    -0.209 C  
ENDROOT
BRANCH   6   7
HETATM    7  N   UNL     1     -11.219  10.123  68.625  1.00  0.00    -0.434 NA 
HETATM    8  H   UNL     1     -11.694  10.196  69.525  1.00  0.00     0.000 HD 
BRANCH   7   9
HETATM    9  C   UNL     1     -11.370  10.986  67.678  1.00  0.00    -0.281 C  
BRANCH   9  10
HETATM   10  C   UNL     1     -10.918  12.380  67.836  1.00  0.00    -0.266 A  
HETATM   11  C   UNL     1     -11.876  13.343  68.163  1.00  0.00    -0.396 A  
HETATM   12  C   UNL     1     -11.531  14.694  68.125  1.00  0.00    -0.346 A  
HETATM   13  C   UNL     1     -10.231  15.075  67.777  1.00  0.00    -0.236 A  
HETATM   14  C   UNL     1      -9.256  14.109  67.518  1.00  0.00    -0.192 A  
HETATM   15  C   UNL     1      -9.602  12.755  67.542  1.00  0.00    -0.192 A  
BRANCH  13  16
HETATM   16  C   UNL     1      -9.906  16.504  67.594  1.00  0.00    -0.247 C  
BRANCH  16  17
HETATM   17  N   UNL     1     -10.723  17.425  67.982  1.00  0.00    -0.390 NA 
HETATM   18  H   UNL     1     -11.698  17.231  68.211  1.00  0.00     0.000 HD 
BRANCH  17  19
HETATM   19  C   UNL     1     -10.145  18.774  68.068  1.00  0.00    -0.369 C  
HETATM   20  C   UNL     1      -8.672  18.686  68.430  1.00  0.00    -0.333 C  
HETATM   21  O   UNL     1      -8.043  19.844  67.863  1.00  0.00    -0.293 OA 
HETATM   22  N   UNL     1      -8.864  20.208  66.767  1.00  0.00    -0.327 NA 
HETATM   23  C   UNL     1     -10.027  19.475  66.742  1.00  0.00    -0.395 C  
HETATM   24  O   UNL     1     -10.834  19.470  65.825  1.00  0.00    -0.453 OA 
ENDBRANCH  17  19
ENDBRANCH  16  17
ENDBRANCH  13  16
ENDBRANCH   9  10
ENDBRANCH   7   9
ENDBRANCH   6   7
TORSDOF 6
ENDMDL
MODEL      107
REMARK 921   NORMALIZED FREE ENERGY PREDICTED BY IDOCK:   -4.70 KCAL/MOL
REMARK 922        TOTAL FREE ENERGY PREDICTED BY IDOCK:   -6.89 KCAL/MOL
REMARK 923 INTER-LIGAND FREE ENERGY PREDICTED BY IDOCK:   -6.26 KCAL/MOL
REMARK 924 INTRA-LIGAND FREE ENERGY PREDICTED BY IDOCK:   -0.63 KCAL/MOL
REMARK 927      BINDING AFFINITY PREDICTED BY RF-SCORE:    0.00 PKD
ROOT
HETATM    1  O   UNL     1      -8.706  14.176  66.879  1.00  0.00    -0.215 OA 
HETATM    2  C   UNL     1      -9.219  15.108  66.274  1.00  0.00    -0.301 C  
HETATM    3  N   UNL     1      -8.746  16.386  66.259  1.00  0.00    -0.313 NA 
HETATM    4  O   UNL     1      -9.568  17.279  65.546  1.00  0.00    -0.464 OA 
HETATM    5  C   UNL     1     -10.678  16.506  65.069  1.00  0.00    -0.209 C  
HETATM    6  C   UNL     1     -10.434  15.037  65.395  1.00  0.00    -0.384 C  
ENDROOT
BRANCH   6   7
HETATM    7  N   UNL     1     -11.606  14.481  66.099  1.00  0.00    -0.368 NA 
HETATM    8  H   UNL     1     -12.069  14.960  66.871  1.00  0.00     0.000 HD 
BRANCH   7   9
HETATM    9  C   UNL     1     -11.991  13.335  65.650  1.00  0.00    -0.412 C  
BRANCH   9  10
HETATM   10  C   UNL     1     -11.243  12.103  65.958  1.00  0.00    -0.382 A  
HETATM   11  C   UNL     1     -10.647  11.420  64.896  1.00  0.00    -0.368 A  
HETATM   12  C   UNL     1     -10.104  10.152  65.113  1.00  0.00    -0.329 A  
HETATM   13  C   UNL     1     -10.146   9.583  66.390  1.00  0.00    -0.328 A  
HETATM   14  C   UNL     1     -10.680  10.296  67.466  1.00  0.00    -0.348 A  
HETATM   15  C   UNL     1     -11.237  11.560  67.248  1.00  0.00    -0.365 A  
BRANCH  13  16
HETATM   16  C   UNL     1      -9.706   8.187  66.589  1.00  0.00    -0.248 C  
BRANCH  16  17
HETATM   17  N   UNL     1     -10.521   7.203  66.403  1.00  0.00    -0.456 NA 
HETATM   18  H   UNL     1     -11.526   7.337  66.293  1.00  0.00     0.000 HD 
BRANCH  17  19
HETATM   19  C   UNL     1      -9.893   5.874  66.363  1.00  0.00    -0.121 C  
HETATM   20  C   UNL     1      -8.489   5.981  65.791  1.00  0.00    -0.146 C  
HETATM   21  O   UNL     1      -7.731   4.909  66.369  1.00  0.00    -0.090 OA 
HETATM   22  N   UNL     1      -8.375   4.626  67.599  1.00  0.00    -0.103 NA 
HETATM   23  C   UNL     1      -9.560   5.314  67.718  1.00  0.00    -0.133 C  
HETATM   24  O   UNL     1     -10.234   5.379  68.735  1.00  0.00    -0.178 OA 
ENDBRANCH  17  19
ENDBRANCH  16  17
ENDBRANCH  13  16
ENDBRANCH   9  10
ENDBRANCH   7   9
ENDBRANCH   6   7
TORSDOF 6
ENDMDL
MODEL      108
REMARK 921   NORMALIZED FREE ENERGY PREDICTED BY IDOCK:   -4.70 KCAL/MOL
REMARK 922        TOTAL FREE ENERGY PREDICTED BY IDOCK:   -6.89 KCAL/MOL
REMARK 923 INTER-LIGAND FREE ENERGY PREDICTED BY IDOCK:   -6.33 KCAL/MOL
REMARK 924 INTRA-LIGAND FREE ENERGY PREDICTED BY IDOCK:   -0.56 KCAL/MOL
REMARK 927      BINDING AFFINITY PREDICTED BY RF-SCORE:    0.00 PKD
ROOT
HETATM    1  O   UNL     1     -10.888   5.394  70.449  1.00  0.00    -0.251 OA 
HETATM    2  C   UNL     1     -10.669   6.399  71.112  1.00  0.00    -0.244 C  
HETATM    3  N   UNL     1     -10.788   6.483  72.468  1.00  0.00    -0.229 NA 
HETATM    4  O   UNL     1     -10.549   7.775  72.971  1.00  0.00    -0.336 OA 
HETATM    5  C   UNL     1     -10.264   8.601  71.834  1.00  0.00    -0.334 C  
HETATM    6  C   UNL     1     -10.187   7.722  70.591  1.00  0.00    -0.199 C  
ENDROOT
BRANCH   6   7
HETATM    7  N   UNL     1     -11.068   8.266  69.539  1.00  0.00    -0.442 NA 
HETATM    8  H   UNL     1     -12.068   8.417  69.674  1.00  0.00     0.000 HD 
BRANCH   7   9
HETATM    9  C   UNL     1     -10.460   8.534  68.434  1.00  0.00    -0.171 C  
BRANCH   9  10
HETATM   10  C   UNL     1     -10.638   9.833  67.760  1.00  0.00    -0.320 A  
HETATM   11  C   UNL     1     -10.884  10.953  68.557  1.00  0.00    -0.262 A  
HETATM   12  C   UNL     1     -11.256  12.156  67.955  1.00  0.00    -0.319 A  
HETATM   13  C   UNL     1     -11.363  12.237  66.563  1.00  0.00    -0.403 A  
HETATM   14  C   UNL     1     -11.049  11.136  65.763  1.00  0.00    -0.084 A  
HETATM   15  C   UNL     1     -10.690   9.926  66.364  1.00  0.00    -0.034 A  
BRANCH  13  16
HETATM   16  C   UNL     1     -11.897  13.463  65.935  1.00  0.00    -0.376 C  
BRANCH  16  17
HETATM   17  N   UNL     1     -11.104  14.395  65.523  1.00  0.00    -0.314 NA 
HETATM   18  H   UNL     1     -10.467  14.265  64.738  1.00  0.00     0.000 HD 
BRANCH  17  19
HETATM   19  C   UNL     1     -11.188  15.659  66.271  1.00  0.00    -0.033 C  
HETATM   20  C   UNL     1     -10.102  15.707  67.332  1.00  0.00    -0.251 C  
HETATM   21  O   UNL     1      -9.792  17.093  67.535  1.00  0.00    -0.255 OA 
HETATM   22  N   UNL     1     -10.138  17.728  66.317  1.00  0.00    -0.392 NA 
HETATM   23  C   UNL     1     -10.797  16.870  65.469  1.00  0.00    -0.096 C  
HETATM   24  O   UNL     1     -11.066  17.106  64.301  1.00  0.00    -0.989 OA 
ENDBRANCH  17  19
ENDBRANCH  16  17
ENDBRANCH  13  16
ENDBRANCH   9  10
ENDBRANCH   7   9
ENDBRANCH   6   7
TORSDOF 6
ENDMDL
MODEL      109
REMARK 921   NORMALIZED FREE ENERGY PREDICTED BY IDOCK:   -4.69 KCAL/MOL
REMARK 922        TOTAL FREE ENERGY PREDICTED BY IDOCK:   -6.88 KCAL/MOL
REMARK 923 INTER-LIGAND FREE ENERGY PREDICTED BY IDOCK:   -6.34 KCAL/MOL
REMARK 924 INTRA-LIGAND FREE ENERGY PREDICTED BY IDOCK:   -0.54 KCAL/MOL
REMARK 927      BINDING AFFINITY PREDICTED BY RF-SCORE:    0.00 PKD
ROOT
HETATM    1  O   UNL     1     -12.178  11.931  63.408  1.00  0.00    -0.531 OA 
HETATM    2  C   UNL     1     -11.930  12.906  64.103  1.00  0.00    -0.423 C  
HETATM    3  N   UNL     1     -12.461  14.150  63.926  1.00  0.00    -0.786 NA 
HETATM    4  O   UNL     1     -11.949  15.109  64.819  1.00  0.00    -0.340 OA 
HETATM    5  C   UNL     1     -10.992  14.424  65.638  1.00  0.00    -0.314 C  
HETATM    6  C   UNL     1     -11.037  12.936  65.310  1.00  0.00    -0.284 C  
ENDROOT
BRANCH   6   7
HETATM    7  N   UNL     1      -9.676  12.449  65.013  1.00  0.00    -0.459 NA 
HETATM    8  H   UNL     1      -8.892  13.072  64.817  1.00  0.00     0.000 HD 
BRANCH   7   9
HETATM    9  C   UNL     1      -9.565  11.163  65.024  1.00  0.00    -0.239 C  
BRANCH   9  10
HETATM   10  C   UNL     1      -9.554  10.408  66.290  1.00  0.00    -0.230 A  
HETATM   11  C   UNL     1      -8.615  10.773  67.258  1.00  0.00    -0.130 A  
HETATM   12  C   UNL     1      -8.436   9.962  68.380  1.00  0.00    -0.111 A  
HETATM   13  C   UNL     1      -9.205   8.805  68.536  1.00  0.00    -0.141 A  
HETATM   14  C   UNL     1     -10.192   8.479  67.603  1.00  0.00    -0.297 A  
HETATM   15  C   UNL     1     -10.364   9.281  66.471  1.00  0.00    -0.270 A  
BRANCH  13  16
HETATM   16  C   UNL     1      -8.916   7.872  69.644  1.00  0.00    -0.146 C  
BRANCH  16  17
HETATM   17  N   UNL     1      -9.725   6.905  69.923  1.00  0.00    -0.162 NA 
HETATM   18  H   UNL     1     -10.027   6.224  69.226  1.00  0.00     0.000 HD 
BRANCH  17  19
HETATM   19  C   UNL     1     -10.178   6.856  71.321  1.00  0.00    -0.198 C  
HETATM   20  C   UNL     1      -9.223   7.641  72.204  1.00  0.00    -0.141 C  
HETATM   21  O   UNL     1      -9.995   8.122  73.313  1.00  0.00    -0.266 OA 
HETATM   22  N   UNL     1     -11.324   8.199  72.829  1.00  0.00    -0.388 NA 
HETATM   23  C   UNL     1     -11.440   7.631  71.582  1.00  0.00    -0.260 C  
HETATM   24  O   UNL     1     -12.430   7.701  70.869  1.00  0.00    -0.221 OA 
ENDBRANCH  17  19
ENDBRANCH  16  17
ENDBRANCH  13  16
ENDBRANCH   9  10
ENDBRANCH   7   9
ENDBRANCH   6   7
TORSDOF 6
ENDMDL
MODEL      110
REMARK 921   NORMALIZED FREE ENERGY PREDICTED BY IDOCK:   -4.69 KCAL/MOL
REMARK 922        TOTAL FREE ENERGY PREDICTED BY IDOCK:   -6.87 KCAL/MOL
REMARK 923 INTER-LIGAND FREE ENERGY PREDICTED BY IDOCK:   -6.45 KCAL/MOL
REMARK 924 INTRA-LIGAND FREE ENERGY PREDICTED BY IDOCK:   -0.43 KCAL/MOL
REMARK 927      BINDING AFFINITY PREDICTED BY RF-SCORE:    0.00 PKD
ROOT
HETATM    1  O   UNL     1     -11.115  17.484  64.603  1.00  0.00    -0.978 OA 
HETATM    2  C   UNL     1     -10.450  17.417  65.627  1.00  0.00    -0.165 C  
HETATM    3  N   UNL     1      -9.450  18.280  65.969  1.00  0.00    -0.513 NA 
HETATM    4  O   UNL     1      -8.796  17.932  67.166  1.00  0.00    -0.239 OA 
HETATM    5  C   UNL     1      -9.423  16.729  67.629  1.00  0.00    -0.234 C  
HETATM    6  C   UNL     1     -10.616  16.417  66.733  1.00  0.00    -0.238 C  
ENDROOT
BRANCH   6   7
HETATM    7  N   UNL     1     -10.526  15.025  66.250  1.00  0.00    -0.294 NA 
HETATM    8  H   UNL     1      -9.699  14.650  65.786  1.00  0.00     0.000 HD 
BRANCH   7   9
HETATM    9  C   UNL     1     -11.588  14.325  66.468  1.00  0.00    -0.378 C  
BRANCH   9  10
HETATM   10  C   UNL     1     -11.501  12.921  66.906  1.00  0.00    -0.393 A  
HETATM   11  C   UNL     1     -11.950  12.611  68.192  1.00  0.00    -0.274 A  
HETATM   12  C   UNL     1     -11.702  11.342  68.718  1.00  0.00    -0.405 A  
HETATM   13  C   UNL     1     -11.024  10.387  67.953  1.00  0.00    -0.354 A  
HETATM   14  C   UNL     1     -10.637  10.676  66.641  1.00  0.00    -0.276 A  
HETATM   15  C   UNL     1     -10.872  11.951  66.117  1.00  0.00    -0.334 A  
BRANCH  13  16
HETATM   16  C   UNL     1     -10.633   9.099  68.558  1.00  0.00    -0.169 C  
BRANCH  16  17
HETATM   17  N   UNL     1      -9.613   9.019  69.345  1.00  0.00    -0.157 NA 
HETATM   18  H   UNL     1      -8.857   9.705  69.334  1.00  0.00     0.000 HD 
BRANCH  17  19
HETATM   19  C   UNL     1      -9.620   7.867  70.260  1.00  0.00    -0.171 C  
HETATM   20  C   UNL     1      -9.136   6.624  69.532  1.00  0.00    -0.144 C  
HETATM   21  O   UNL     1      -8.538   5.778  70.524  1.00  0.00    -0.133 OA 
HETATM   22  N   UNL     1      -8.117   6.658  71.551  1.00  0.00    -0.110 NA 
HETATM   23  C   UNL     1      -8.575   7.937  71.339  1.00  0.00    -0.123 C  
HETATM   24  O   UNL     1      -8.231   8.921  71.978  1.00  0.00    -0.362 OA 
ENDBRANCH  17  19
ENDBRANCH  16  17
ENDBRANCH  13  16
ENDBRANCH   9  10
ENDBRANCH   7   9
ENDBRANCH   6   7
TORSDOF 6
ENDMDL
MODEL      111
REMARK 921   NORMALIZED FREE ENERGY PREDICTED BY IDOCK:   -4.69 KCAL/MOL
REMARK 922        TOTAL FREE ENERGY PREDICTED BY IDOCK:   -6.87 KCAL/MOL
REMARK 923 INTER-LIGAND FREE ENERGY PREDICTED BY IDOCK:   -6.74 KCAL/MOL
REMARK 924 INTRA-LIGAND FREE ENERGY PREDICTED BY IDOCK:   -0.13 KCAL/MOL
REMARK 927      BINDING AFFINITY PREDICTED BY RF-SCORE:    0.00 PKD
ROOT
HETATM    1  O   UNL     1     -11.604   6.224  69.670  1.00  0.00    -0.430 OA 
HETATM    2  C   UNL     1     -11.370   6.643  70.795  1.00  0.00    -0.336 C  
HETATM    3  N   UNL     1     -11.269   5.870  71.914  1.00  0.00    -0.274 NA 
HETATM    4  O   UNL     1     -11.068   6.613  73.092  1.00  0.00    -0.247 OA 
HETATM    5  C   UNL     1     -11.051   7.991  72.697  1.00  0.00    -0.387 C  
HETATM    6  C   UNL     1     -11.102   8.070  71.175  1.00  0.00    -0.252 C  
ENDROOT
BRANCH   6   7
HETATM    7  N   UNL     1     -12.190   8.977  70.759  1.00  0.00    -0.483 NA 
HETATM    8  H   UNL     1     -12.983   8.671  70.196  1.00  0.00     0.000 HD 
BRANCH   7   9
HETATM    9  C   UNL     1     -12.047  10.191  71.171  1.00  0.00    -0.388 C  
BRANCH   9  10
HETATM   10  C   UNL     1     -12.145  11.330  70.241  1.00  0.00    -0.459 A  
HETATM   11  C   UNL     1     -11.886  11.091  68.889  1.00  0.00    -0.378 A  
HETATM   12  C   UNL     1     -11.771  12.170  68.011  1.00  0.00    -0.409 A  
HETATM   13  C   UNL     1     -11.931  13.476  68.484  1.00  0.00    -0.379 A  
HETATM   14  C   UNL     1     -12.258  13.710  69.822  1.00  0.00    -0.350 A  
HETATM   15  C   UNL     1     -12.360  12.632  70.706  1.00  0.00    -0.372 A  
BRANCH  13  16
HETATM   16  C   UNL     1     -11.665  14.622  67.590  1.00  0.00    -0.363 C  
BRANCH  16  17
HETATM   17  N   UNL     1     -10.501  15.178  67.555  1.00  0.00    -0.254 NA 
HETATM   18  H   UNL     1     -10.360  16.134  67.228  1.00  0.00     0.000 HD 
BRANCH  17  19
HETATM   19  C   UNL     1      -9.392  14.331  68.020  1.00  0.00    -0.200 C  
HETATM   20  C   UNL     1      -8.728  13.649  66.837  1.00  0.00    -0.146 C  
HETATM   21  O   UNL     1      -7.360  13.426  67.209  1.00  0.00    -0.139 OA 
HETATM   22  N   UNL     1      -7.077  14.422  68.177  1.00  0.00    -0.109 NA 
HETATM   23  C   UNL     1      -8.213  15.103  68.547  1.00  0.00    -0.148 C  
HETATM   24  O   UNL     1      -8.233  16.110  69.239  1.00  0.00    -0.239 OA 
ENDBRANCH  17  19
ENDBRANCH  16  17
ENDBRANCH  13  16
ENDBRANCH   9  10
ENDBRANCH   7   9
ENDBRANCH   6   7
TORSDOF 6
ENDMDL
MODEL      112
REMARK 921   NORMALIZED FREE ENERGY PREDICTED BY IDOCK:   -4.69 KCAL/MOL
REMARK 922        TOTAL FREE ENERGY PREDICTED BY IDOCK:   -6.87 KCAL/MOL
REMARK 923 INTER-LIGAND FREE ENERGY PREDICTED BY IDOCK:   -6.31 KCAL/MOL
REMARK 924 INTRA-LIGAND FREE ENERGY PREDICTED BY IDOCK:   -0.56 KCAL/MOL
REMARK 927      BINDING AFFINITY PREDICTED BY RF-SCORE:    0.00 PKD
ROOT
HETATM    1  O   UNL     1     -10.351  18.280  69.375  1.00  0.00    -0.130 OA 
HETATM    2  C   UNL     1      -9.791  18.963  68.529  1.00  0.00    -0.399 C  
HETATM    3  N   UNL     1     -10.291  20.115  67.996  1.00  0.00    -0.358 NA 
HETATM    4  O   UNL     1      -9.479  20.663  66.986  1.00  0.00    -0.389 OA 
HETATM    5  C   UNL     1      -8.361  19.776  66.846  1.00  0.00    -0.311 C  
HETATM    6  C   UNL     1      -8.436  18.711  67.935  1.00  0.00    -0.276 C  
ENDROOT
BRANCH   6   7
HETATM    7  N   UNL     1      -8.328  17.370  67.329  1.00  0.00    -0.203 NA 
HETATM    8  H   UNL     1      -7.733  16.634  67.709  1.00  0.00     0.000 HD 
BRANCH   7   9
HETATM    9  C   UNL     1      -9.055  17.212  66.275  1.00  0.00    -0.228 C  
BRANCH   9  10
HETATM   10  C   UNL     1      -9.950  16.049  66.131  1.00  0.00    -0.347 A  
HETATM   11  C   UNL     1     -10.727  15.686  67.234  1.00  0.00    -0.305 A  
HETATM   12  C   UNL     1     -11.432  14.482  67.209  1.00  0.00    -0.381 A  
HETATM   13  C   UNL     1     -11.371  13.658  66.081  1.00  0.00    -0.324 A  
HETATM   14  C   UNL     1     -10.650  14.056  64.952  1.00  0.00    -0.442 A  
HETATM   15  C   UNL     1      -9.931  15.255  64.979  1.00  0.00    -0.159 A  
BRANCH  13  16
HETATM   16  C   UNL     1     -11.995  12.320  66.109  1.00  0.00    -0.249 C  
BRANCH  16  17
HETATM   17  N   UNL     1     -11.888  11.561  67.148  1.00  0.00    -0.572 NA 
HETATM   18  H   UNL     1     -12.700  11.188  67.640  1.00  0.00     0.000 HD 
BRANCH  17  19
HETATM   19  C   UNL     1     -10.509  11.274  67.570  1.00  0.00    -0.201 C  
HETATM   20  C   UNL     1     -10.473  10.980  69.060  1.00  0.00    -0.216 C  
HETATM   21  O   UNL     1      -9.360  10.101  69.275  1.00  0.00    -0.192 OA 
HETATM   22  N   UNL     1      -9.178   9.431  68.040  1.00  0.00    -0.130 NA 
HETATM   23  C   UNL     1      -9.971   9.968  67.053  1.00  0.00    -0.205 C  
HETATM   24  O   UNL     1     -10.132   9.486  65.941  1.00  0.00    -0.294 OA 
ENDBRANCH  17  19
ENDBRANCH  16  17
ENDBRANCH  13  16
ENDBRANCH   9  10
ENDBRANCH   7   9
ENDBRANCH   6   7
TORSDOF 6
ENDMDL
MODEL      113
REMARK 921   NORMALIZED FREE ENERGY PREDICTED BY IDOCK:   -4.65 KCAL/MOL
REMARK 922        TOTAL FREE ENERGY PREDICTED BY IDOCK:   -6.83 KCAL/MOL
REMARK 923 INTER-LIGAND FREE ENERGY PREDICTED BY IDOCK:   -6.28 KCAL/MOL
REMARK 924 INTRA-LIGAND FREE ENERGY PREDICTED BY IDOCK:   -0.55 KCAL/MOL
REMARK 927      BINDING AFFINITY PREDICTED BY RF-SCORE:    0.00 PKD
ROOT
HETATM    1  O   UNL     1      -9.036   6.068  74.459  1.00  0.00    -0.126 OA 
HETATM    2  C   UNL     1      -8.438   6.933  73.834  1.00  0.00    -0.139 C  
HETATM    3  N   UNL     1      -7.398   7.671  74.318  1.00  0.00    -0.119 NA 
HETATM    4  O   UNL     1      -6.940   8.650  73.416  1.00  0.00    -0.295 OA 
HETATM    5  C   UNL     1      -7.769   8.541  72.251  1.00  0.00    -0.059 C  
HETATM    6  C   UNL     1      -8.684   7.331  72.407  1.00  0.00    -0.119 C  
ENDROOT
BRANCH   6   7
HETATM    7  N   UNL     1     -10.084   7.731  72.169  1.00  0.00    -0.198 NA 
HETATM    8  H   UNL     1     -10.704   8.056  72.912  1.00  0.00     0.000 HD 
BRANCH   7   9
HETATM    9  C   UNL     1     -10.455   7.634  70.937  1.00  0.00    -0.206 C  
BRANCH   9  10
HETATM   10  C   UNL     1     -10.918   8.812  70.183  1.00  0.00    -0.236 A  
HETATM   11  C   UNL     1     -10.618   8.873  68.820  1.00  0.00    -0.185 A  
HETATM   12  C   UNL     1     -10.860  10.054  68.117  1.00  0.00    -0.303 A  
HETATM   13  C   UNL     1     -11.413  11.159  68.773  1.00  0.00    -0.366 A  
HETATM   14  C   UNL     1     -11.776  11.074  70.119  1.00  0.00    -0.442 A  
HETATM   15  C   UNL     1     -11.523   9.897  70.830  1.00  0.00    -0.433 A  
BRANCH  13  16
HETATM   16  C   UNL     1     -11.532  12.451  68.068  1.00  0.00    -0.322 C  
BRANCH  16  17
HETATM   17  N   UNL     1     -12.152  12.535  66.939  1.00  0.00    -0.533 NA 
HETATM   18  H   UNL     1     -12.665  11.751  66.536  1.00  0.00     0.000 HD 
BRANCH  17  19
HETATM   19  C   UNL     1     -12.062  13.844  66.275  1.00  0.00    -0.451 C  
HETATM   20  C   UNL     1     -11.372  14.843  67.189  1.00  0.00    -0.343 C  
HETATM   21  O   UNL     1     -10.730  15.800  66.336  1.00  0.00    -0.309 OA 
HETATM   22  N   UNL     1     -10.494  15.109  65.122  1.00  0.00    -0.401 NA 
HETATM   23  C   UNL     1     -11.105  13.877  65.115  1.00  0.00    -0.334 C  
HETATM   24  O   UNL     1     -10.935  13.014  64.267  1.00  0.00    -0.358 OA 
ENDBRANCH  17  19
ENDBRANCH  16  17
ENDBRANCH  13  16
ENDBRANCH   9  10
ENDBRANCH   7   9
ENDBRANCH   6   7
TORSDOF 6
ENDMDL
MODEL      114
REMARK 921   NORMALIZED FREE ENERGY PREDICTED BY IDOCK:   -4.65 KCAL/MOL
REMARK 922        TOTAL FREE ENERGY PREDICTED BY IDOCK:   -6.82 KCAL/MOL
REMARK 923 INTER-LIGAND FREE ENERGY PREDICTED BY IDOCK:   -6.25 KCAL/MOL
REMARK 924 INTRA-LIGAND FREE ENERGY PREDICTED BY IDOCK:   -0.57 KCAL/MOL
REMARK 927      BINDING AFFINITY PREDICTED BY RF-SCORE:    0.00 PKD
ROOT
HETATM    1  O   UNL     1      -7.804   5.506  68.611  1.00  0.00    -0.089 OA 
HETATM    2  C   UNL     1      -8.847   5.504  67.971  1.00  0.00    -0.105 C  
HETATM    3  N   UNL     1      -9.075   4.765  66.848  1.00  0.00    -0.114 NA 
HETATM    4  O   UNL     1     -10.333   5.006  66.266  1.00  0.00    -0.246 OA 
HETATM    5  C   UNL     1     -10.967   6.001  67.081  1.00  0.00    -0.268 C  
HETATM    6  C   UNL     1     -10.096   6.267  68.304  1.00  0.00    -0.153 C  
ENDROOT
BRANCH   6   7
HETATM    7  N   UNL     1      -9.852   7.716  68.436  1.00  0.00    -0.162 NA 
HETATM    8  H   UNL     1      -9.164   8.218  67.874  1.00  0.00     0.000 HD 
BRANCH   7   9
HETATM    9  C   UNL     1     -10.585   8.292  69.328  1.00  0.00    -0.181 C  
BRANCH   9  10
HETATM   10  C   UNL     1     -11.069   9.672  69.143  1.00  0.00    -0.123 A  
HETATM   11  C   UNL     1     -10.908  10.256  67.885  1.00  0.00    -0.337 A  
HETATM   12  C   UNL     1     -11.166  11.618  67.722  1.00  0.00    -0.333 A  
HETATM   13  C   UNL     1     -11.597  12.383  68.811  1.00  0.00    -0.373 A  
HETATM   14  C   UNL     1     -11.824  11.784  70.052  1.00  0.00    -0.422 A  
HETATM   15  C   UNL     1     -11.554  10.422  70.221  1.00  0.00    -0.410 A  
BRANCH  13  16
HETATM   16  C   UNL     1     -11.728  13.848  68.677  1.00  0.00    -0.361 C  
BRANCH  16  17
HETATM   17  N   UNL     1     -12.475  14.365  67.759  1.00  0.00    -0.526 NA 
HETATM   18  H   UNL     1     -13.486  14.228  67.734  1.00  0.00     0.000 HD 
BRANCH  17  19
HETATM   19  C   UNL     1     -11.762  15.166  66.754  1.00  0.00    -0.065 C  
HETATM   20  C   UNL     1     -10.265  15.111  67.013  1.00  0.00    -0.262 C  
HETATM   21  O   UNL     1      -9.625  15.288  65.741  1.00  0.00    -0.334 OA 
HETATM   22  N   UNL     1     -10.571  14.837  64.788  1.00  0.00    -0.388 NA 
HETATM   23  C   UNL     1     -11.790  14.577  65.370  1.00  0.00    -0.344 C  
HETATM   24  O   UNL     1     -12.730  14.028  64.815  1.00  0.00    -0.651 OA 
ENDBRANCH  17  19
ENDBRANCH  16  17
ENDBRANCH  13  16
ENDBRANCH   9  10
ENDBRANCH   7   9
ENDBRANCH   6   7
TORSDOF 6
ENDMDL
MODEL      115
REMARK 921   NORMALIZED FREE ENERGY PREDICTED BY IDOCK:   -4.64 KCAL/MOL
REMARK 922        TOTAL FREE ENERGY PREDICTED BY IDOCK:   -6.81 KCAL/MOL
REMARK 923 INTER-LIGAND FREE ENERGY PREDICTED BY IDOCK:   -6.28 KCAL/MOL
REMARK 924 INTRA-LIGAND FREE ENERGY PREDICTED BY IDOCK:   -0.53 KCAL/MOL
REMARK 927      BINDING AFFINITY PREDICTED BY RF-SCORE:    0.00 PKD
ROOT
HETATM    1  O   UNL     1      -6.758   4.236  67.708  1.00  0.00    -0.048 OA 
HETATM    2  C   UNL     1      -7.768   4.277  68.396  1.00  0.00    -0.070 C  
HETATM    3  N   UNL     1      -8.252   3.242  69.140  1.00  0.00    -0.059 NA 
HETATM    4  O   UNL     1      -9.473   3.534  69.778  1.00  0.00    -0.166 OA 
HETATM    5  C   UNL     1      -9.811   4.875  69.399  1.00  0.00    -0.211 C  
HETATM    6  C   UNL     1      -8.656   5.471  68.604  1.00  0.00    -0.103 C  
ENDROOT
BRANCH   6   7
HETATM    7  N   UNL     1      -9.159   6.024  67.331  1.00  0.00    -0.108 NA 
HETATM    8  H   UNL     1      -9.796   5.517  66.717  1.00  0.00     0.000 HD 
BRANCH   7   9
HETATM    9  C   UNL     1      -8.721   7.208  67.066  1.00  0.00    -0.123 C  
BRANCH   9  10
HETATM   10  C   UNL     1      -9.630   8.368  67.027  1.00  0.00    -0.248 A  
HETATM   11  C   UNL     1      -9.655   9.138  65.862  1.00  0.00    -0.343 A  
HETATM   12  C   UNL     1     -10.345  10.352  65.856  1.00  0.00    -0.261 A  
HETATM   13  C   UNL     1     -11.018  10.780  67.005  1.00  0.00    -0.292 A  
HETATM   14  C   UNL     1     -11.050   9.976  68.147  1.00  0.00    -0.252 A  
HETATM   15  C   UNL     1     -10.348   8.766  68.161  1.00  0.00    -0.266 A  
BRANCH  13  16
HETATM   16  C   UNL     1     -11.622  12.126  67.046  1.00  0.00    -0.337 C  
BRANCH  16  17
HETATM   17  N   UNL     1     -12.231  12.611  66.016  1.00  0.00    -0.597 NA 
HETATM   18  H   UNL     1     -12.697  12.021  65.327  1.00  0.00     0.000 HD 
BRANCH  17  19
HETATM   19  C   UNL     1     -12.202  14.078  65.909  1.00  0.00    -0.456 C  
HETATM   20  C   UNL     1     -10.898  14.613  66.477  1.00  0.00    -0.315 C  
HETATM   21  O   UNL     1     -10.623  15.838  65.782  1.00  0.00    -0.324 OA 
HETATM   22  N   UNL     1     -11.282  15.707  64.535  1.00  0.00    -0.387 NA 
HETATM   23  C   UNL     1     -12.078  14.585  64.499  1.00  0.00    -0.484 C  
HETATM   24  O   UNL     1     -12.629  14.147  63.500  1.00  0.00    -0.834 OA 
ENDBRANCH  17  19
ENDBRANCH  16  17
ENDBRANCH  13  16
ENDBRANCH   9  10
ENDBRANCH   7   9
ENDBRANCH   6   7
TORSDOF 6
ENDMDL
MODEL      116
REMARK 921   NORMALIZED FREE ENERGY PREDICTED BY IDOCK:   -4.64 KCAL/MOL
REMARK 922        TOTAL FREE ENERGY PREDICTED BY IDOCK:   -6.81 KCAL/MOL
REMARK 923 INTER-LIGAND FREE ENERGY PREDICTED BY IDOCK:   -5.91 KCAL/MOL
REMARK 924 INTRA-LIGAND FREE ENERGY PREDICTED BY IDOCK:   -0.90 KCAL/MOL
REMARK 927      BINDING AFFINITY PREDICTED BY RF-SCORE:    0.00 PKD
ROOT
HETATM    1  O   UNL     1      -8.475  10.273  69.481  1.00  0.00    -0.165 OA 
HETATM    2  C   UNL     1      -8.997   9.368  68.844  1.00  0.00    -0.136 C  
HETATM    3  N   UNL     1      -8.321   8.401  68.161  1.00  0.00    -0.127 NA 
HETATM    4  O   UNL     1      -9.164   7.525  67.451  1.00  0.00    -0.130 OA 
HETATM    5  C   UNL     1     -10.503   7.978  67.689  1.00  0.00    -0.232 C  
HETATM    6  C   UNL     1     -10.469   9.104  68.716  1.00  0.00    -0.212 C  
ENDROOT
BRANCH   6   7
HETATM    7  N   UNL     1     -11.207  10.273  68.199  1.00  0.00    -0.453 NA 
HETATM    8  H   UNL     1     -11.770  10.882  68.792  1.00  0.00     0.000 HD 
BRANCH   7   9
HETATM    9  C   UNL     1     -11.076  10.456  66.928  1.00  0.00    -0.010 C  
BRANCH   9  10
HETATM   10  C   UNL     1     -10.716  11.775  66.379  1.00  0.00    -0.306 A  
HETATM   11  C   UNL     1      -9.580  12.407  66.892  1.00  0.00    -0.219 A  
HETATM   12  C   UNL     1      -9.318  13.734  66.548  1.00  0.00    -0.249 A  
HETATM   13  C   UNL     1     -10.181  14.415  65.684  1.00  0.00    -0.371 A  
HETATM   14  C   UNL     1     -11.277  13.762  65.117  1.00  0.00    -0.320 A  
HETATM   15  C   UNL     1     -11.550  12.436  65.470  1.00  0.00    -0.432 A  
BRANCH  13  16
HETATM   16  C   UNL     1      -9.987  15.858  65.436  1.00  0.00    -0.195 C  
BRANCH  16  17
HETATM   17  N   UNL     1      -8.901  16.453  65.800  1.00  0.00    -0.424 NA 
HETATM   18  H   UNL     1      -7.980  16.161  65.472  1.00  0.00     0.000 HD 
BRANCH  17  19
HETATM   19  C   UNL     1      -9.089  17.583  66.722  1.00  0.00    -0.262 C  
HETATM   20  C   UNL     1     -10.412  18.272  66.435  1.00  0.00    -0.366 C  
HETATM   21  O   UNL     1     -10.847  18.851  67.674  1.00  0.00    -0.428 OA 
HETATM   22  N   UNL     1     -10.240  18.060  68.681  1.00  0.00    -0.387 NA 
HETATM   23  C   UNL     1      -9.334  17.173  68.149  1.00  0.00    -0.264 C  
HETATM   24  O   UNL     1      -8.789  16.270  68.767  1.00  0.00    -0.219 OA 
ENDBRANCH  17  19
ENDBRANCH  16  17
ENDBRANCH  13  16
ENDBRANCH   9  10
ENDBRANCH   7   9
ENDBRANCH   6   7
TORSDOF 6
ENDMDL
MODEL      117
REMARK 921   NORMALIZED FREE ENERGY PREDICTED BY IDOCK:   -4.64 KCAL/MOL
REMARK 922        TOTAL FREE ENERGY PREDICTED BY IDOCK:   -6.80 KCAL/MOL
REMARK 923 INTER-LIGAND FREE ENERGY PREDICTED BY IDOCK:   -6.03 KCAL/MOL
REMARK 924 INTRA-LIGAND FREE ENERGY PREDICTED BY IDOCK:   -0.77 KCAL/MOL
REMARK 927      BINDING AFFINITY PREDICTED BY RF-SCORE:    0.00 PKD
ROOT
HETATM    1  O   UNL     1     -11.381  16.183  70.109  1.00  0.00    -0.343 OA 
HETATM    2  C   UNL     1     -10.604  16.347  69.178  1.00  0.00    -0.308 C  
HETATM    3  N   UNL     1     -10.865  17.084  68.061  1.00  0.00    -0.366 NA 
HETATM    4  O   UNL     1      -9.827  17.048  67.112  1.00  0.00    -0.255 OA 
HETATM    5  C   UNL     1      -8.810  16.199  67.663  1.00  0.00    -0.186 C  
HETATM    6  C   UNL     1      -9.201  15.821  69.087  1.00  0.00    -0.256 C  
ENDROOT
BRANCH   6   7
HETATM    7  N   UNL     1      -9.139  14.355  69.248  1.00  0.00    -0.392 NA 
HETATM    8  H   UNL     1      -8.740  13.902  70.070  1.00  0.00     0.000 HD 
BRANCH   7   9
HETATM    9  C   UNL     1      -9.636  13.698  68.255  1.00  0.00    -0.215 C  
BRANCH   9  10
HETATM   10  C   UNL     1      -9.781  12.232  68.306  1.00  0.00    -0.219 A  
HETATM   11  C   UNL     1     -11.075  11.705  68.306  1.00  0.00    -0.287 A  
HETATM   12  C   UNL     1     -11.262  10.344  68.555  1.00  0.00    -0.308 A  
HETATM   13  C   UNL     1     -10.158   9.517  68.785  1.00  0.00    -0.202 A  
HETATM   14  C   UNL     1      -8.861  10.031  68.715  1.00  0.00    -0.137 A  
HETATM   15  C   UNL     1      -8.671  11.397  68.480  1.00  0.00    -0.149 A  
BRANCH  13  16
HETATM   16  C   UNL     1     -10.361   8.112  69.191  1.00  0.00    -0.220 C  
BRANCH  16  17
HETATM   17  N   UNL     1     -11.509   7.707  69.622  1.00  0.00    -0.441 NA 
HETATM   18  H   UNL     1     -12.354   7.751  69.053  1.00  0.00     0.000 HD 
BRANCH  17  19
HETATM   19  C   UNL     1     -11.508   7.177  70.994  1.00  0.00    -0.297 C  
HETATM   20  C   UNL     1     -10.168   6.528  71.298  1.00  0.00    -0.198 C  
HETATM   21  O   UNL     1      -9.968   6.649  72.713  1.00  0.00    -0.168 OA 
HETATM   22  N   UNL     1     -10.728   7.782  73.095  1.00  0.00    -0.385 NA 
HETATM   23  C   UNL     1     -11.509   8.239  72.059  1.00  0.00    -0.334 C  
HETATM   24  O   UNL     1     -12.137   9.287  72.062  1.00  0.00    -0.366 OA 
ENDBRANCH  17  19
ENDBRANCH  16  17
ENDBRANCH  13  16
ENDBRANCH   9  10
ENDBRANCH   7   9
ENDBRANCH   6   7
TORSDOF 6
ENDMDL
MODEL      118
REMARK 921   NORMALIZED FREE ENERGY PREDICTED BY IDOCK:   -4.60 KCAL/MOL
REMARK 922        TOTAL FREE ENERGY PREDICTED BY IDOCK:   -6.76 KCAL/MOL
REMARK 923 INTER-LIGAND FREE ENERGY PREDICTED BY IDOCK:   -6.24 KCAL/MOL
REMARK 924 INTRA-LIGAND FREE ENERGY PREDICTED BY IDOCK:   -0.52 KCAL/MOL
REMARK 927      BINDING AFFINITY PREDICTED BY RF-SCORE:    0.00 PKD
ROOT
HETATM    1  O   UNL     1     -10.334   5.269  71.284  1.00  0.00    -0.216 OA 
HETATM    2  C   UNL     1     -10.948   6.292  71.553  1.00  0.00    -0.271 C  
HETATM    3  N   UNL     1     -12.260   6.343  71.919  1.00  0.00    -0.336 NA 
HETATM    4  O   UNL     1     -12.740   7.654  72.099  1.00  0.00    -0.258 OA 
HETATM    5  C   UNL     1     -11.638   8.526  71.810  1.00  0.00    -0.312 C  
HETATM    6  C   UNL     1     -10.388   7.684  71.582  1.00  0.00    -0.189 C  
ENDROOT
BRANCH   6   7
HETATM    7  N   UNL     1      -9.758   8.064  70.302  1.00  0.00    -0.175 NA 
HETATM    8  H   UNL     1      -8.748   8.121  70.175  1.00  0.00     0.000 HD 
BRANCH   7   9
HETATM    9  C   UNL     1     -10.600   8.318  69.359  1.00  0.00    -0.196 C  
BRANCH   9  10
HETATM   10  C   UNL     1     -10.469   9.524  68.522  1.00  0.00    -0.247 A  
HETATM   11  C   UNL     1     -10.643  10.766  69.138  1.00  0.00    -0.254 A  
HETATM   12  C   UNL     1     -10.727  11.916  68.351  1.00  0.00    -0.248 A  
HETATM   13  C   UNL     1     -10.620  11.822  66.960  1.00  0.00    -0.267 A  
HETATM   14  C   UNL     1     -10.377  10.588  66.351  1.00  0.00    -0.283 A  
HETATM   15  C   UNL     1     -10.306   9.432  67.135  1.00  0.00    -0.326 A  
BRANCH  13  16
HETATM   16  C   UNL     1     -10.854  13.013  66.120  1.00  0.00    -0.279 C  
BRANCH  16  17
HETATM   17  N   UNL     1     -11.458  14.051  66.595  1.00  0.00    -0.348 NA 
HETATM   18  H   UNL     1     -12.473  14.102  66.681  1.00  0.00     0.000 HD 
BRANCH  17  19
HETATM   19  C   UNL     1     -10.574  15.153  67.003  1.00  0.00    -0.300 C  
HETATM   20  C   UNL     1     -10.492  16.190  65.895  1.00  0.00    -0.352 C  
HETATM   21  O   UNL     1     -10.231  17.448  66.533  1.00  0.00    -0.311 OA 
HETATM   22  N   UNL     1     -10.751  17.309  67.844  1.00  0.00    -0.375 NA 
HETATM   23  C   UNL     1     -11.137  16.014  68.100  1.00  0.00    -0.344 C  
HETATM   24  O   UNL     1     -11.761  15.649  69.085  1.00  0.00    -0.353 OA 
ENDBRANCH  17  19
ENDBRANCH  16  17
ENDBRANCH  13  16
ENDBRANCH   9  10
ENDBRANCH   7   9
ENDBRANCH   6   7
TORSDOF 6
ENDMDL
MODEL      119
REMARK 921   NORMALIZED FREE ENERGY PREDICTED BY IDOCK:   -4.59 KCAL/MOL
REMARK 922        TOTAL FREE ENERGY PREDICTED BY IDOCK:   -6.74 KCAL/MOL
REMARK 923 INTER-LIGAND FREE ENERGY PREDICTED BY IDOCK:   -6.34 KCAL/MOL
REMARK 924 INTRA-LIGAND FREE ENERGY PREDICTED BY IDOCK:   -0.40 KCAL/MOL
REMARK 927      BINDING AFFINITY PREDICTED BY RF-SCORE:    0.00 PKD
ROOT
HETATM    1  O   UNL     1      -9.974  18.501  69.351  1.00  0.00    -0.176 OA 
HETATM    2  C   UNL     1     -10.157  18.759  68.169  1.00  0.00    -0.379 C  
HETATM    3  N   UNL     1     -10.569  19.965  67.686  1.00  0.00    -0.384 NA 
HETATM    4  O   UNL     1     -10.774  19.970  66.293  1.00  0.00    -0.410 OA 
HETATM    5  C   UNL     1     -10.480  18.641  65.842  1.00  0.00    -0.356 C  
HETATM    6  C   UNL     1      -9.930  17.832  67.010  1.00  0.00    -0.322 C  
ENDROOT
BRANCH   6   7
HETATM    7  N   UNL     1     -10.684  16.570  67.143  1.00  0.00    -0.270 NA 
HETATM    8  H   UNL     1     -11.482  16.463  67.770  1.00  0.00     0.000 HD 
BRANCH   7   9
HETATM    9  C   UNL     1     -10.245  15.616  66.394  1.00  0.00    -0.290 C  
BRANCH   9  10
HETATM   10  C   UNL     1     -10.374  14.205  66.801  1.00  0.00    -0.274 A  
HETATM   11  C   UNL     1     -11.447  13.474  66.285  1.00  0.00    -0.350 A  
HETATM   12  C   UNL     1     -11.721  12.204  66.797  1.00  0.00    -0.377 A  
HETATM   13  C   UNL     1     -10.914  11.667  67.805  1.00  0.00    -0.287 A  
HETATM   14  C   UNL     1      -9.800  12.370  68.271  1.00  0.00    -0.224 A  
HETATM   15  C   UNL     1      -9.532  13.648  67.770  1.00  0.00    -0.221 A  
BRANCH  13  16
HETATM   16  C   UNL     1     -11.289  10.391  68.447  1.00  0.00    -0.227 C  
BRANCH  16  17
HETATM   17  N   UNL     1     -10.405   9.671  69.053  1.00  0.00    -0.197 NA 
HETATM   18  H   UNL     1      -9.654   9.192  68.556  1.00  0.00     0.000 HD 
BRANCH  17  19
HETATM   19  C   UNL     1     -10.562   9.590  70.513  1.00  0.00    -0.297 C  
HETATM   20  C   UNL     1     -11.500   8.451  70.872  1.00  0.00    -0.267 C  
HETATM   21  O   UNL     1     -11.109   7.996  72.175  1.00  0.00    -0.266 OA 
HETATM   22  N   UNL     1      -9.740   8.340  72.288  1.00  0.00    -0.261 NA 
HETATM   23  C   UNL     1      -9.328   9.124  71.236  1.00  0.00    -0.215 C  
HETATM   24  O   UNL     1      -8.168   9.429  70.999  1.00  0.00    -0.294 OA 
ENDBRANCH  17  19
ENDBRANCH  16  17
ENDBRANCH  13  16
ENDBRANCH   9  10
ENDBRANCH   7   9
ENDBRANCH   6   7
TORSDOF 6
ENDMDL
MODEL      120
REMARK 921   NORMALIZED FREE ENERGY PREDICTED BY IDOCK:   -4.59 KCAL/MOL
REMARK 922        TOTAL FREE ENERGY PREDICTED BY IDOCK:   -6.74 KCAL/MOL
REMARK 923 INTER-LIGAND FREE ENERGY PREDICTED BY IDOCK:   -6.41 KCAL/MOL
REMARK 924 INTRA-LIGAND FREE ENERGY PREDICTED BY IDOCK:   -0.33 KCAL/MOL
REMARK 927      BINDING AFFINITY PREDICTED BY RF-SCORE:    0.00 PKD
ROOT
HETATM    1  O   UNL     1      -8.610   8.352  64.753  1.00  0.00    -0.147 OA 
HETATM    2  C   UNL     1      -8.309   9.204  63.929  1.00  0.00    -0.181 C  
HETATM    3  N   UNL     1      -7.035   9.578  63.619  1.00  0.00    -0.100 NA 
HETATM    4  O   UNL     1      -6.972  10.634  62.691  1.00  0.00    -0.125 OA 
HETATM    5  C   UNL     1      -8.330  10.979  62.385  1.00  0.00    -0.228 C  
HETATM    6  C   UNL     1      -9.259   9.977  63.061  1.00  0.00    -0.286 C  
ENDROOT
BRANCH   6   7
HETATM    7  N   UNL     1     -10.280  10.696  63.847  1.00  0.00    -0.447 NA 
HETATM    8  H   UNL     1     -11.228  10.861  63.508  1.00  0.00     0.000 HD 
BRANCH   7   9
HETATM    9  C   UNL     1      -9.866  11.098  65.001  1.00  0.00    -0.266 C  
BRANCH   9  10
HETATM   10  C   UNL     1     -10.165  12.457  65.489  1.00  0.00    -0.297 A  
HETATM   11  C   UNL     1     -10.388  13.456  64.538  1.00  0.00    -0.394 A  
HETATM   12  C   UNL     1     -10.475  14.787  64.950  1.00  0.00    -0.398 A  
HETATM   13  C   UNL     1     -10.355  15.109  66.305  1.00  0.00    -0.303 A  
HETATM   14  C   UNL     1     -10.202  14.103  67.262  1.00  0.00    -0.256 A  
HETATM   15  C   UNL     1     -10.101  12.770  66.851  1.00  0.00    -0.234 A  
BRANCH  13  16
HETATM   16  C   UNL     1     -10.300  16.524  66.725  1.00  0.00    -0.296 C  
BRANCH  16  17
HETATM   17  N   UNL     1     -10.782  16.897  67.863  1.00  0.00    -0.355 NA 
HETATM   18  H   UNL     1     -11.581  16.435  68.297  1.00  0.00     0.000 HD 
BRANCH  17  19
HETATM   19  C   UNL     1     -10.095  18.038  68.487  1.00  0.00    -0.393 C  
HETATM   20  C   UNL     1      -8.592  17.814  68.463  1.00  0.00    -0.291 C  
HETATM   21  O   UNL     1      -7.987  19.115  68.428  1.00  0.00    -0.313 OA 
HETATM   22  N   UNL     1      -8.961  19.956  67.837  1.00  0.00    -0.319 NA 
HETATM   23  C   UNL     1     -10.164  19.307  67.683  1.00  0.00    -0.407 C  
HETATM   24  O   UNL     1     -11.121  19.741  67.060  1.00  0.00    -0.371 OA 
ENDBRANCH  17  19
ENDBRANCH  16  17
ENDBRANCH  13  16
ENDBRANCH   9  10
ENDBRANCH   7   9
ENDBRANCH   6   7
TORSDOF 6
ENDMDL
MODEL      121
REMARK 921   NORMALIZED FREE ENERGY PREDICTED BY IDOCK:   -4.58 KCAL/MOL
REMARK 922        TOTAL FREE ENERGY PREDICTED BY IDOCK:   -6.73 KCAL/MOL
REMARK 923 INTER-LIGAND FREE ENERGY PREDICTED BY IDOCK:   -6.13 KCAL/MOL
REMARK 924 INTRA-LIGAND FREE ENERGY PREDICTED BY IDOCK:   -0.60 KCAL/MOL
REMARK 927      BINDING AFFINITY PREDICTED BY RF-SCORE:    0.00 PKD
ROOT
HETATM    1  O   UNL     1      -8.887   6.279  71.705  1.00  0.00    -0.137 OA 
HETATM    2  C   UNL     1      -9.488   6.103  70.655  1.00  0.00    -0.168 C  
HETATM    3  N   UNL     1     -10.098   4.940  70.288  1.00  0.00    -0.252 NA 
HETATM    4  O   UNL     1     -10.653   4.983  68.995  1.00  0.00    -0.102 OA 
HETATM    5  C   UNL     1     -10.363   6.289  68.478  1.00  0.00    -0.203 C  
HETATM    6  C   UNL     1      -9.721   7.125  69.580  1.00  0.00    -0.157 C  
ENDROOT
BRANCH   6   7
HETATM    7  N   UNL     1      -8.462   7.718  69.086  1.00  0.00    -0.137 NA 
HETATM    8  H   UNL     1      -7.607   7.749  69.642  1.00  0.00     0.000 HD 
BRANCH   7   9
HETATM    9  C   UNL     1      -8.541   8.194  67.890  1.00  0.00    -0.132 C  
BRANCH   9  10
HETATM   10  C   UNL     1      -8.945   9.590  67.649  1.00  0.00    -0.124 A  
HETATM   11  C   UNL     1      -9.329   9.943  66.352  1.00  0.00    -0.213 A  
HETATM   12  C   UNL     1      -9.524  11.288  66.037  1.00  0.00    -0.240 A  
HETATM   13  C   UNL     1      -9.351  12.270  67.018  1.00  0.00    -0.205 A  
HETATM   14  C   UNL     1      -9.036  11.910  68.331  1.00  0.00    -0.167 A  
HETATM   15  C   UNL     1      -8.826  10.564  68.647  1.00  0.00    -0.147 A  
BRANCH  13  16
HETATM   16  C   UNL     1      -9.414  13.699  66.652  1.00  0.00    -0.277 C  
BRANCH  16  17
HETATM   17  N   UNL     1      -9.733  14.062  65.455  1.00  0.00    -0.561 NA 
HETATM   18  H   UNL     1      -9.120  13.909  64.654  1.00  0.00     0.000 HD 
BRANCH  17  19
HETATM   19  C   UNL     1     -11.046  14.713  65.331  1.00  0.00    -0.348 C  
HETATM   20  C   UNL     1     -10.899  16.045  64.614  1.00  0.00    -0.179 C  
HETATM   21  O   UNL     1     -12.146  16.288  63.948  1.00  0.00    -0.986 OA 
HETATM   22  N   UNL     1     -12.703  15.004  63.732  1.00  0.00    -0.568 NA 
HETATM   23  C   UNL     1     -11.982  14.026  64.375  1.00  0.00    -0.454 C  
HETATM   24  O   UNL     1     -12.144  12.823  64.229  1.00  0.00    -0.374 OA 
ENDBRANCH  17  19
ENDBRANCH  16  17
ENDBRANCH  13  16
ENDBRANCH   9  10
ENDBRANCH   7   9
ENDBRANCH   6   7
TORSDOF 6
ENDMDL
MODEL      122
REMARK 921   NORMALIZED FREE ENERGY PREDICTED BY IDOCK:   -4.53 KCAL/MOL
REMARK 922        TOTAL FREE ENERGY PREDICTED BY IDOCK:   -6.66 KCAL/MOL
REMARK 923 INTER-LIGAND FREE ENERGY PREDICTED BY IDOCK:   -6.13 KCAL/MOL
REMARK 924 INTRA-LIGAND FREE ENERGY PREDICTED BY IDOCK:   -0.53 KCAL/MOL
REMARK 927      BINDING AFFINITY PREDICTED BY RF-SCORE:    0.00 PKD
ROOT
HETATM    1  O   UNL     1     -11.443  15.115  73.838  1.00  0.00     0.024 OA 
HETATM    2  C   UNL     1     -12.465  14.943  73.188  1.00  0.00    -0.412 C  
HETATM    3  N   UNL     1     -13.332  13.903  73.354  1.00  0.00    -0.163 NA 
HETATM    4  O   UNL     1     -14.389  13.903  72.424  1.00  0.00    -0.647 OA 
HETATM    5  C   UNL     1     -14.175  15.038  71.575  1.00  0.00    -0.540 C  
HETATM    6  C   UNL     1     -13.001  15.846  72.116  1.00  0.00    -0.398 C  
ENDROOT
BRANCH   6   7
HETATM    7  N   UNL     1     -12.021  16.085  71.039  1.00  0.00    -0.521 NA 
HETATM    8  H   UNL     1     -11.082  16.444  71.211  1.00  0.00     0.000 HD 
BRANCH   7   9
HETATM    9  C   UNL     1     -12.458  15.797  69.860  1.00  0.00    -0.085 C  
BRANCH   9  10
HETATM   10  C   UNL     1     -11.901  14.668  69.093  1.00  0.00    -0.347 A  
HETATM   11  C   UNL     1     -11.549  14.895  67.761  1.00  0.00    -0.358 A  
HETATM   12  C   UNL     1     -11.210  13.813  66.947  1.00  0.00    -0.326 A  
HETATM   13  C   UNL     1     -11.209  12.516  67.470  1.00  0.00    -0.342 A  
HETATM   14  C   UNL     1     -11.494  12.298  68.821  1.00  0.00    -0.360 A  
HETATM   15  C   UNL     1     -11.847  13.378  69.635  1.00  0.00    -0.394 A  
BRANCH  13  16
HETATM   16  C   UNL     1     -10.994  11.360  66.577  1.00  0.00    -0.272 C  
BRANCH  16  17
HETATM   17  N   UNL     1      -9.966  11.307  65.799  1.00  0.00    -0.227 NA 
HETATM   18  H   UNL     1      -9.931  11.794  64.903  1.00  0.00     0.000 HD 
BRANCH  17  19
HETATM   19  C   UNL     1      -8.848  10.492  66.299  1.00  0.00    -0.159 C  
HETATM   20  C   UNL     1      -8.158   9.792  65.141  1.00  0.00    -0.132 C  
HETATM   21  O   UNL     1      -6.791   9.603  65.535  1.00  0.00    -0.081 OA 
HETATM   22  N   UNL     1      -6.538  10.627  66.481  1.00  0.00    -0.099 NA 
HETATM   23  C   UNL     1      -7.690  11.297  66.820  1.00  0.00    -0.155 C  
HETATM   24  O   UNL     1      -7.736  12.320  67.487  1.00  0.00    -0.137 OA 
ENDBRANCH  17  19
ENDBRANCH  16  17
ENDBRANCH  13  16
ENDBRANCH   9  10
ENDBRANCH   7   9
ENDBRANCH   6   7
TORSDOF 6
ENDMDL
MODEL      123
REMARK 921   NORMALIZED FREE ENERGY PREDICTED BY IDOCK:   -4.50 KCAL/MOL
REMARK 922        TOTAL FREE ENERGY PREDICTED BY IDOCK:   -6.62 KCAL/MOL
REMARK 923 INTER-LIGAND FREE ENERGY PREDICTED BY IDOCK:   -5.98 KCAL/MOL
REMARK 924 INTRA-LIGAND FREE ENERGY PREDICTED BY IDOCK:   -0.64 KCAL/MOL
REMARK 927      BINDING AFFINITY PREDICTED BY RF-SCORE:    0.00 PKD
ROOT
HETATM    1  O   UNL     1      -8.072   7.242  68.475  1.00  0.00    -0.121 OA 
HETATM    2  C   UNL     1      -8.789   6.443  69.062  1.00  0.00    -0.129 C  
HETATM    3  N   UNL     1      -9.021   5.160  68.663  1.00  0.00    -0.103 NA 
HETATM    4  O   UNL     1      -9.946   4.479  69.477  1.00  0.00    -0.215 OA 
HETATM    5  C   UNL     1     -10.356   5.414  70.484  1.00  0.00    -0.274 C  
HETATM    6  C   UNL     1      -9.522   6.683  70.350  1.00  0.00    -0.166 C  
ENDROOT
BRANCH   6   7
HETATM    7  N   UNL     1     -10.410   7.859  70.281  1.00  0.00    -0.208 NA 
HETATM    8  H   UNL     1     -11.409   7.791  70.086  1.00  0.00     0.000 HD 
BRANCH   7   9
HETATM    9  C   UNL     1      -9.810   8.982  70.489  1.00  0.00    -0.216 C  
BRANCH   9  10
HETATM   10  C   UNL     1      -9.730  10.012  69.438  1.00  0.00    -0.240 A  
HETATM   11  C   UNL     1     -10.809  10.130  68.558  1.00  0.00    -0.278 A  
HETATM   12  C   UNL     1     -10.690  10.948  67.433  1.00  0.00    -0.305 A  
HETATM   13  C   UNL     1      -9.506  11.654  67.203  1.00  0.00    -0.183 A  
HETATM   14  C   UNL     1      -8.454  11.591  68.121  1.00  0.00    -0.154 A  
HETATM   15  C   UNL     1      -8.564  10.761  69.241  1.00  0.00    -0.047 A  
BRANCH  13  16
HETATM   16  C   UNL     1      -9.325  12.402  65.943  1.00  0.00    -0.062 C  
BRANCH  16  17
HETATM   17  N   UNL     1      -9.723  13.625  65.836  1.00  0.00    -0.457 NA 
HETATM   18  H   UNL     1      -9.344  14.377  66.412  1.00  0.00     0.000 HD 
BRANCH  17  19
HETATM   19  C   UNL     1     -10.763  13.855  64.822  1.00  0.00    -0.423 C  
HETATM   20  C   UNL     1     -10.771  12.715  63.818  1.00  0.00    -0.417 C  
HETATM   21  O   UNL     1     -12.113  12.618  63.321  1.00  0.00    -0.521 OA 
HETATM   22  N   UNL     1     -12.925  13.151  64.353  1.00  0.00    -0.594 NA 
HETATM   23  C   UNL     1     -12.167  13.725  65.346  1.00  0.00    -0.440 C  
HETATM   24  O   UNL     1     -12.598  14.114  66.422  1.00  0.00    -0.427 OA 
ENDBRANCH  17  19
ENDBRANCH  16  17
ENDBRANCH  13  16
ENDBRANCH   9  10
ENDBRANCH   7   9
ENDBRANCH   6   7
TORSDOF 6
ENDMDL
MODEL      124
REMARK 921   NORMALIZED FREE ENERGY PREDICTED BY IDOCK:   -4.49 KCAL/MOL
REMARK 922        TOTAL FREE ENERGY PREDICTED BY IDOCK:   -6.61 KCAL/MOL
REMARK 923 INTER-LIGAND FREE ENERGY PREDICTED BY IDOCK:   -6.55 KCAL/MOL
REMARK 924 INTRA-LIGAND FREE ENERGY PREDICTED BY IDOCK:   -0.05 KCAL/MOL
REMARK 927      BINDING AFFINITY PREDICTED BY RF-SCORE:    0.00 PKD
ROOT
HETATM    1  O   UNL     1      -7.295   7.409  70.884  1.00  0.00    -0.071 OA 
HETATM    2  C   UNL     1      -6.996   7.666  69.726  1.00  0.00    -0.051 C  
HETATM    3  N   UNL     1      -6.045   8.566  69.344  1.00  0.00    -0.037 NA 
HETATM    4  O   UNL     1      -5.954   8.724  67.949  1.00  0.00    -0.048 OA 
HETATM    5  C   UNL     1      -6.944   7.857  67.382  1.00  0.00    -0.075 C  
HETATM    6  C   UNL     1      -7.569   7.024  68.495  1.00  0.00    -0.115 C  
ENDROOT
BRANCH   6   7
HETATM    7  N   UNL     1      -9.040   7.135  68.436  1.00  0.00    -0.128 NA 
HETATM    8  H   UNL     1      -9.626   6.478  67.922  1.00  0.00     0.000 HD 
BRANCH   7   9
HETATM    9  C   UNL     1      -9.516   8.138  69.094  1.00  0.00    -0.155 C  
BRANCH   9  10
HETATM   10  C   UNL     1     -10.283   9.199  68.418  1.00  0.00    -0.230 A  
HETATM   11  C   UNL     1     -10.146   9.321  67.033  1.00  0.00    -0.313 A  
HETATM   12  C   UNL     1     -10.693  10.429  66.384  1.00  0.00    -0.134 A  
HETATM   13  C   UNL     1     -11.384  11.398  67.117  1.00  0.00    -0.327 A  
HETATM   14  C   UNL     1     -11.581  11.240  68.492  1.00  0.00    -0.384 A  
HETATM   15  C   UNL     1     -11.023  10.138  69.146  1.00  0.00    -0.270 A  
BRANCH  13  16
HETATM   16  C   UNL     1     -11.834  12.641  66.458  1.00  0.00    -0.396 C  
BRANCH  16  17
HETATM   17  N   UNL     1     -10.983  13.534  66.076  1.00  0.00    -0.276 NA 
HETATM   18  H   UNL     1      -9.990  13.332  65.965  1.00  0.00     0.000 HD 
BRANCH  17  19
HETATM   19  C   UNL     1     -11.553  14.864  65.814  1.00  0.00    -0.234 C  
HETATM   20  C   UNL     1     -10.451  15.911  65.823  1.00  0.00    -0.370 C  
HETATM   21  O   UNL     1     -10.884  16.965  64.952  1.00  0.00    -0.715 OA 
HETATM   22  N   UNL     1     -11.775  16.345  64.041  1.00  0.00    -1.045 NA 
HETATM   23  C   UNL     1     -12.051  15.049  64.407  1.00  0.00    -0.359 C  
HETATM   24  O   UNL     1     -12.657  14.239  63.721  1.00  0.00    -0.821 OA 
ENDBRANCH  17  19
ENDBRANCH  16  17
ENDBRANCH  13  16
ENDBRANCH   9  10
ENDBRANCH   7   9
ENDBRANCH   6   7
TORSDOF 6
ENDMDL
MODEL      125
REMARK 921   NORMALIZED FREE ENERGY PREDICTED BY IDOCK:   -4.49 KCAL/MOL
REMARK 922        TOTAL FREE ENERGY PREDICTED BY IDOCK:   -6.60 KCAL/MOL
REMARK 923 INTER-LIGAND FREE ENERGY PREDICTED BY IDOCK:   -5.99 KCAL/MOL
REMARK 924 INTRA-LIGAND FREE ENERGY PREDICTED BY IDOCK:   -0.61 KCAL/MOL
REMARK 927      BINDING AFFINITY PREDICTED BY RF-SCORE:    0.00 PKD
ROOT
HETATM    1  O   UNL     1     -10.111   2.657  71.910  1.00  0.00    -0.160 OA 
HETATM    2  C   UNL     1     -10.188   3.666  72.597  1.00  0.00    -0.167 C  
HETATM    3  N   UNL     1     -10.941   3.786  73.728  1.00  0.00    -0.234 NA 
HETATM    4  O   UNL     1     -10.910   5.078  74.285  1.00  0.00    -0.320 OA 
HETATM    5  C   UNL     1     -10.071   5.864  73.428  1.00  0.00    -0.198 C  
HETATM    6  C   UNL     1      -9.449   4.953  72.375  1.00  0.00    -0.140 C  
ENDROOT
BRANCH   6   7
HETATM    7  N   UNL     1      -9.685   5.512  71.030  1.00  0.00    -0.169 NA 
HETATM    8  H   UNL     1      -9.087   5.306  70.229  1.00  0.00     0.000 HD 
BRANCH   7   9
HETATM    9  C   UNL     1     -10.716   6.284  70.957  1.00  0.00    -0.259 C  
BRANCH   9  10
HETATM   10  C   UNL     1     -10.667   7.556  70.213  1.00  0.00    -0.247 A  
HETATM   11  C   UNL     1     -11.098   8.711  70.870  1.00  0.00    -0.310 A  
HETATM   12  C   UNL     1     -11.257   9.893  70.145  1.00  0.00    -0.347 A  
HETATM   13  C   UNL     1     -10.969   9.919  68.777  1.00  0.00    -0.217 A  
HETATM   14  C   UNL     1     -10.472   8.781  68.136  1.00  0.00    -0.243 A  
HETATM   15  C   UNL     1     -10.325   7.592  68.857  1.00  0.00    -0.220 A  
BRANCH  13  16
HETATM   16  C   UNL     1     -11.276  11.125  67.981  1.00  0.00    -0.296 C  
BRANCH  16  17
HETATM   17  N   UNL     1     -12.092  12.021  68.425  1.00  0.00    -0.397 NA 
HETATM   18  H   UNL     1     -13.092  11.849  68.527  1.00  0.00     0.000 HD 
BRANCH  17  19
HETATM   19  C   UNL     1     -11.473  13.309  68.772  1.00  0.00    -0.306 C  
HETATM   20  C   UNL     1     -11.905  14.377  67.781  1.00  0.00    -0.368 C  
HETATM   21  O   UNL     1     -11.867  15.626  68.485  1.00  0.00    -0.355 OA 
HETATM   22  N   UNL     1     -12.048  15.285  69.848  1.00  0.00    -0.335 NA 
HETATM   23  C   UNL     1     -12.009  13.923  70.037  1.00  0.00    -0.336 C  
HETATM   24  O   UNL     1     -12.293  13.350  71.078  1.00  0.00    -0.363 OA 
ENDBRANCH  17  19
ENDBRANCH  16  17
ENDBRANCH  13  16
ENDBRANCH   9  10
ENDBRANCH   7   9
ENDBRANCH   6   7
TORSDOF 6
ENDMDL
MODEL      126
REMARK 921   NORMALIZED FREE ENERGY PREDICTED BY IDOCK:   -4.47 KCAL/MOL
REMARK 922        TOTAL FREE ENERGY PREDICTED BY IDOCK:   -6.58 KCAL/MOL
REMARK 923 INTER-LIGAND FREE ENERGY PREDICTED BY IDOCK:   -5.85 KCAL/MOL
REMARK 924 INTRA-LIGAND FREE ENERGY PREDICTED BY IDOCK:   -0.73 KCAL/MOL
REMARK 927      BINDING AFFINITY PREDICTED BY RF-SCORE:    0.00 PKD
ROOT
HETATM    1  O   UNL     1     -11.942  13.705  66.592  1.00  0.00    -0.378 OA 
HETATM    2  C   UNL     1     -12.109  13.260  65.465  1.00  0.00    -0.435 C  
HETATM    3  N   UNL     1     -13.282  12.752  64.989  1.00  0.00    -0.671 NA 
HETATM    4  O   UNL     1     -13.181  12.238  63.683  1.00  0.00    -0.758 OA 
HETATM    5  C   UNL     1     -11.815  12.420  63.287  1.00  0.00    -0.402 C  
HETATM    6  C   UNL     1     -11.089  13.218  64.364  1.00  0.00    -0.384 C  
ENDROOT
BRANCH   6   7
HETATM    7  N   UNL     1      -9.858  12.510  64.765  1.00  0.00    -0.487 NA 
HETATM    8  H   UNL     1      -9.247  12.838  65.513  1.00  0.00     0.000 HD 
BRANCH   7   9
HETATM    9  C   UNL     1      -9.624  11.440  64.085  1.00  0.00    -0.191 C  
BRANCH   9  10
HETATM   10  C   UNL     1      -9.065  10.235  64.725  1.00  0.00    -0.256 A  
HETATM   11  C   UNL     1      -9.845   9.586  65.685  1.00  0.00    -0.343 A  
HETATM   12  C   UNL     1      -9.280   8.568  66.455  1.00  0.00    -0.251 A  
HETATM   13  C   UNL     1      -7.948   8.195  66.251  1.00  0.00    -0.101 A  
HETATM   14  C   UNL     1      -7.190   8.796  65.243  1.00  0.00    -0.084 A  
HETATM   15  C   UNL     1      -7.749   9.826  64.480  1.00  0.00    -0.137 A  
BRANCH  13  16
HETATM   16  C   UNL     1      -7.306   7.223  67.160  1.00  0.00    -0.094 C  
BRANCH  16  17
HETATM   17  N   UNL     1      -8.001   6.307  67.747  1.00  0.00    -0.112 NA 
HETATM   18  H   UNL     1      -8.448   5.546  67.236  1.00  0.00     0.000 HD 
BRANCH  17  19
HETATM   19  C   UNL     1      -8.101   6.443  69.208  1.00  0.00    -0.111 C  
HETATM   20  C   UNL     1      -7.200   7.568  69.688  1.00  0.00    -0.077 C  
HETATM   21  O   UNL     1      -7.798   8.087  70.884  1.00  0.00    -0.083 OA 
HETATM   22  N   UNL     1      -9.177   7.788  70.764  1.00  0.00    -0.156 NA 
HETATM   23  C   UNL     1      -9.426   6.975  69.683  1.00  0.00    -0.147 C  
HETATM   24  O   UNL     1     -10.536   6.695  69.255  1.00  0.00    -0.188 OA 
ENDBRANCH  17  19
ENDBRANCH  16  17
ENDBRANCH  13  16
ENDBRANCH   9  10
ENDBRANCH   7   9
ENDBRANCH   6   7
TORSDOF 6
ENDMDL
MODEL      127
REMARK 921   NORMALIZED FREE ENERGY PREDICTED BY IDOCK:   -4.47 KCAL/MOL
REMARK 922        TOTAL FREE ENERGY PREDICTED BY IDOCK:   -6.58 KCAL/MOL
REMARK 923 INTER-LIGAND FREE ENERGY PREDICTED BY IDOCK:   -5.97 KCAL/MOL
REMARK 924 INTRA-LIGAND FREE ENERGY PREDICTED BY IDOCK:   -0.61 KCAL/MOL
REMARK 927      BINDING AFFINITY PREDICTED BY RF-SCORE:    0.00 PKD
ROOT
HETATM    1  O   UNL     1      -9.189  15.030  66.391  1.00  0.00    -0.271 OA 
HETATM    2  C   UNL     1     -10.311  14.635  66.103  1.00  0.00    -0.300 C  
HETATM    3  N   UNL     1     -11.326  14.444  66.992  1.00  0.00    -0.332 NA 
HETATM    4  O   UNL     1     -12.490  13.912  66.407  1.00  0.00    -0.441 OA 
HETATM    5  C   UNL     1     -12.192  13.733  65.015  1.00  0.00    -0.424 C  
HETATM    6  C   UNL     1     -10.818  14.325  64.724  1.00  0.00    -0.405 C  
ENDROOT
BRANCH   6   7
HETATM    7  N   UNL     1      -9.982  13.327  64.029  1.00  0.00    -0.750 NA 
HETATM    8  H   UNL     1      -9.002  13.487  63.797  1.00  0.00     0.000 HD 
BRANCH   7   9
HETATM    9  C   UNL     1     -10.602  12.232  63.742  1.00  0.00    -0.451 C  
BRANCH   9  10
HETATM   10  C   UNL     1     -10.066  10.921  64.150  1.00  0.00    -0.416 A  
HETATM   11  C   UNL     1     -10.238  10.531  65.480  1.00  0.00    -0.325 A  
HETATM   12  C   UNL     1      -9.575   9.398  65.954  1.00  0.00    -0.338 A  
HETATM   13  C   UNL     1      -8.761   8.653  65.095  1.00  0.00    -0.179 A  
HETATM   14  C   UNL     1      -8.645   9.004  63.748  1.00  0.00    -0.147 A  
HETATM   15  C   UNL     1      -9.296  10.147  63.273  1.00  0.00    -0.332 A  
BRANCH  13  16
HETATM   16  C   UNL     1      -7.947   7.543  65.629  1.00  0.00    -0.117 C  
BRANCH  16  17
HETATM   17  N   UNL     1      -8.136   7.100  66.827  1.00  0.00    -0.111 NA 
HETATM   18  H   UNL     1      -7.858   7.625  67.656  1.00  0.00     0.000 HD 
BRANCH  17  19
HETATM   19  C   UNL     1      -8.781   5.780  66.908  1.00  0.00    -0.110 C  
HETATM   20  C   UNL     1      -7.862   4.717  66.330  1.00  0.00    -0.099 C  
HETATM   21  O   UNL     1      -8.182   3.492  67.004  1.00  0.00    -0.090 OA 
HETATM   22  N   UNL     1      -8.718   3.890  68.253  1.00  0.00    -0.096 NA 
HETATM   23  C   UNL     1      -8.914   5.250  68.309  1.00  0.00    -0.109 C  
HETATM   24  O   UNL     1      -9.211   5.876  69.316  1.00  0.00    -0.122 OA 
ENDBRANCH  17  19
ENDBRANCH  16  17
ENDBRANCH  13  16
ENDBRANCH   9  10
ENDBRANCH   7   9
ENDBRANCH   6   7
TORSDOF 6
ENDMDL
MODEL      128
REMARK 921   NORMALIZED FREE ENERGY PREDICTED BY IDOCK:   -4.46 KCAL/MOL
REMARK 922        TOTAL FREE ENERGY PREDICTED BY IDOCK:   -6.57 KCAL/MOL
REMARK 923 INTER-LIGAND FREE ENERGY PREDICTED BY IDOCK:   -5.95 KCAL/MOL
REMARK 924 INTRA-LIGAND FREE ENERGY PREDICTED BY IDOCK:   -0.62 KCAL/MOL
REMARK 927      BINDING AFFINITY PREDICTED BY RF-SCORE:    0.00 PKD
ROOT
HETATM    1  O   UNL     1      -8.384   6.294  66.924  1.00  0.00    -0.109 OA 
HETATM    2  C   UNL     1      -9.159   6.397  67.865  1.00  0.00    -0.112 C  
HETATM    3  N   UNL     1     -10.164   5.521  68.151  1.00  0.00    -0.177 NA 
HETATM    4  O   UNL     1     -10.955   5.915  69.246  1.00  0.00    -0.334 OA 
HETATM    5  C   UNL     1     -10.417   7.166  69.698  1.00  0.00    -0.229 C  
HETATM    6  C   UNL     1      -9.143   7.467  68.918  1.00  0.00    -0.140 C  
ENDROOT
BRANCH   6   7
HETATM    7  N   UNL     1      -9.220   8.824  68.342  1.00  0.00    -0.138 NA 
HETATM    8  H   UNL     1      -8.584   9.577  68.604  1.00  0.00     0.000 HD 
BRANCH   7   9
HETATM    9  C   UNL     1     -10.165   8.972  67.476  1.00  0.00    -0.241 C  
BRANCH   9  10
HETATM   10  C   UNL     1     -10.839  10.271  67.296  1.00  0.00    -0.312 A  
HETATM   11  C   UNL     1     -10.751  10.883  66.044  1.00  0.00    -0.208 A  
HETATM   12  C   UNL     1     -11.199  12.196  65.888  1.00  0.00    -0.384 A  
HETATM   13  C   UNL     1     -11.746  12.882  66.978  1.00  0.00    -0.447 A  
HETATM   14  C   UNL     1     -11.897  12.245  68.212  1.00  0.00    -0.367 A  
HETATM   15  C   UNL     1     -11.437  10.935  68.374  1.00  0.00    -0.374 A  
BRANCH  13  16
HETATM   16  C   UNL     1     -12.084  14.314  66.853  1.00  0.00    -0.409 C  
BRANCH  16  17
HETATM   17  N   UNL     1     -11.779  15.150  67.787  1.00  0.00    -0.370 NA 
HETATM   18  H   UNL     1     -12.347  15.264  68.627  1.00  0.00     0.000 HD 
BRANCH  17  19
HETATM   19  C   UNL     1     -10.553  15.927  67.552  1.00  0.00    -0.315 C  
HETATM   20  C   UNL     1     -10.702  17.322  68.134  1.00  0.00    -0.363 C  
HETATM   21  O   UNL     1      -9.382  17.761  68.484  1.00  0.00    -0.283 OA 
HETATM   22  N   UNL     1      -8.649  16.571  68.713  1.00  0.00    -0.253 NA 
HETATM   23  C   UNL     1      -9.369  15.457  68.352  1.00  0.00    -0.193 C  
HETATM   24  O   UNL     1      -9.043  14.303  68.589  1.00  0.00    -0.195 OA 
ENDBRANCH  17  19
ENDBRANCH  16  17
ENDBRANCH  13  16
ENDBRANCH   9  10
ENDBRANCH   7   9
ENDBRANCH   6   7
TORSDOF 6
ENDMDL
MODEL      129
REMARK 921   NORMALIZED FREE ENERGY PREDICTED BY IDOCK:   -4.46 KCAL/MOL
REMARK 922        TOTAL FREE ENERGY PREDICTED BY IDOCK:   -6.57 KCAL/MOL
REMARK 923 INTER-LIGAND FREE ENERGY PREDICTED BY IDOCK:   -5.95 KCAL/MOL
REMARK 924 INTRA-LIGAND FREE ENERGY PREDICTED BY IDOCK:   -0.62 KCAL/MOL
REMARK 927      BINDING AFFINITY PREDICTED BY RF-SCORE:    0.00 PKD
ROOT
HETATM    1  O   UNL     1     -10.208   3.884  71.876  1.00  0.00    -0.161 OA 
HETATM    2  C   UNL     1     -10.243   4.857  72.616  1.00  0.00    -0.188 C  
HETATM    3  N   UNL     1     -10.637   4.835  73.922  1.00  0.00    -0.260 NA 
HETATM    4  O   UNL     1     -10.654   6.107  74.523  1.00  0.00    -0.178 OA 
HETATM    5  C   UNL     1     -10.247   7.035  73.508  1.00  0.00    -0.333 C  
HETATM    6  C   UNL     1      -9.824   6.256  72.267  1.00  0.00    -0.161 C  
ENDROOT
BRANCH   6   7
HETATM    7  N   UNL     1     -10.536   6.778  71.084  1.00  0.00    -0.222 NA 
HETATM    8  H   UNL     1     -10.438   6.373  70.153  1.00  0.00     0.000 HD 
BRANCH   7   9
HETATM    9  C   UNL     1     -11.294   7.792  71.334  1.00  0.00    -0.251 C  
BRANCH   9  10
HETATM   10  C   UNL     1     -11.390   8.923  70.394  1.00  0.00    -0.229 A  
HETATM   11  C   UNL     1     -10.778   8.787  69.145  1.00  0.00    -0.150 A  
HETATM   12  C   UNL     1     -10.671   9.898  68.309  1.00  0.00    -0.276 A  
HETATM   13  C   UNL     1     -11.189  11.132  68.715  1.00  0.00    -0.314 A  
HETATM   14  C   UNL     1     -11.863  11.251  69.933  1.00  0.00    -0.436 A  
HETATM   15  C   UNL     1     -11.958  10.142  70.780  1.00  0.00    -0.442 A  
BRANCH  13  16
HETATM   16  C   UNL     1     -10.949  12.338  67.897  1.00  0.00    -0.224 C  
BRANCH  16  17
HETATM   17  N   UNL     1     -10.041  12.346  66.979  1.00  0.00    -0.213 NA 
HETATM   18  H   UNL     1      -9.211  11.755  67.025  1.00  0.00     0.000 HD 
BRANCH  17  19
HETATM   19  C   UNL     1     -10.293  13.270  65.863  1.00  0.00    -0.292 C  
HETATM   20  C   UNL     1     -11.788  13.477  65.688  1.00  0.00    -0.369 C  
HETATM   21  O   UNL     1     -11.955  14.787  65.128  1.00  0.00    -0.346 OA 
HETATM   22  N   UNL     1     -10.808  15.510  65.538  1.00  0.00    -0.354 NA 
HETATM   23  C   UNL     1      -9.883  14.690  66.141  1.00  0.00    -0.312 C  
HETATM   24  O   UNL     1      -8.882  15.074  66.728  1.00  0.00    -0.239 OA 
ENDBRANCH  17  19
ENDBRANCH  16  17
ENDBRANCH  13  16
ENDBRANCH   9  10
ENDBRANCH   7   9
ENDBRANCH   6   7
TORSDOF 6
ENDMDL
MODEL      130
REMARK 921   NORMALIZED FREE ENERGY PREDICTED BY IDOCK:   -4.45 KCAL/MOL
REMARK 922        TOTAL FREE ENERGY PREDICTED BY IDOCK:   -6.55 KCAL/MOL
REMARK 923 INTER-LIGAND FREE ENERGY PREDICTED BY IDOCK:   -6.01 KCAL/MOL
REMARK 924 INTRA-LIGAND FREE ENERGY PREDICTED BY IDOCK:   -0.53 KCAL/MOL
REMARK 927      BINDING AFFINITY PREDICTED BY RF-SCORE:    0.00 PKD
ROOT
HETATM    1  O   UNL     1     -11.808  16.093  71.239  1.00  0.00    -0.436 OA 
HETATM    2  C   UNL     1     -11.276  16.066  70.138  1.00  0.00    -0.373 C  
HETATM    3  N   UNL     1     -10.772  17.152  69.485  1.00  0.00    -0.167 NA 
HETATM    4  O   UNL     1     -10.282  16.855  68.200  1.00  0.00    -0.281 OA 
HETATM    5  C   UNL     1     -10.502  15.452  68.002  1.00  0.00    -0.257 C  
HETATM    6  C   UNL     1     -11.024  14.846  69.300  1.00  0.00    -0.270 C  
ENDROOT
BRANCH   6   7
HETATM    7  N   UNL     1     -12.259  14.083  69.032  1.00  0.00    -0.494 NA 
HETATM    8  H   UNL     1     -13.058  14.476  68.534  1.00  0.00     0.000 HD 
BRANCH   7   9
HETATM    9  C   UNL     1     -12.238  12.876  69.486  1.00  0.00    -0.119 C  
BRANCH   9  10
HETATM   10  C   UNL     1     -11.506  11.808  68.782  1.00  0.00    -0.350 A  
HETATM   11  C   UNL     1     -11.397  11.900  67.392  1.00  0.00    -0.389 A  
HETATM   12  C   UNL     1     -10.892  10.817  66.671  1.00  0.00    -0.228 A  
HETATM   13  C   UNL     1     -10.484   9.659  67.340  1.00  0.00    -0.319 A  
HETATM   14  C   UNL     1     -10.528   9.595  68.735  1.00  0.00    -0.238 A  
HETATM   15  C   UNL     1     -11.047  10.673  69.460  1.00  0.00    -0.328 A  
BRANCH  13  16
HETATM   16  C   UNL     1     -10.088   8.463  66.571  1.00  0.00    -0.247 C  
BRANCH  16  17
HETATM   17  N   UNL     1     -10.651   7.321  66.785  1.00  0.00    -0.501 NA 
HETATM   18  H   UNL     1     -11.664   7.204  66.795  1.00  0.00     0.000 HD 
BRANCH  17  19
HETATM   19  C   UNL     1      -9.724   6.203  67.013  1.00  0.00    -0.142 C  
HETATM   20  C   UNL     1      -9.585   5.940  68.503  1.00  0.00    -0.123 C  
HETATM   21  O   UNL     1      -9.276   4.546  68.644  1.00  0.00    -0.114 OA 
HETATM   22  N   UNL     1      -9.816   3.932  67.486  1.00  0.00    -0.104 NA 
HETATM   23  C   UNL     1     -10.261   4.866  66.580  1.00  0.00    -0.255 C  
HETATM   24  O   UNL     1     -10.911   4.616  65.576  1.00  0.00    -0.278 OA 
ENDBRANCH  17  19
ENDBRANCH  16  17
ENDBRANCH  13  16
ENDBRANCH   9  10
ENDBRANCH   7   9
ENDBRANCH   6   7
TORSDOF 6
ENDMDL
MODEL      131
REMARK 921   NORMALIZED FREE ENERGY PREDICTED BY IDOCK:   -4.45 KCAL/MOL
REMARK 922        TOTAL FREE ENERGY PREDICTED BY IDOCK:   -6.55 KCAL/MOL
REMARK 923 INTER-LIGAND FREE ENERGY PREDICTED BY IDOCK:   -6.04 KCAL/MOL
REMARK 924 INTRA-LIGAND FREE ENERGY PREDICTED BY IDOCK:   -0.51 KCAL/MOL
REMARK 927      BINDING AFFINITY PREDICTED BY RF-SCORE:    0.00 PKD
ROOT
HETATM    1  O   UNL     1     -11.952  14.564  67.723  1.00  0.00    -0.363 OA 
HETATM    2  C   UNL     1     -12.137  13.971  66.669  1.00  0.00    -0.456 C  
HETATM    3  N   UNL     1     -12.897  14.430  65.635  1.00  0.00    -0.399 NA 
HETATM    4  O   UNL     1     -13.004  13.516  64.570  1.00  0.00    -0.643 OA 
HETATM    5  C   UNL     1     -12.254  12.358  64.960  1.00  0.00    -0.399 C  
HETATM    6  C   UNL     1     -11.539  12.652  66.274  1.00  0.00    -0.386 C  
ENDROOT
BRANCH   6   7
HETATM    7  N   UNL     1     -11.834  11.586  67.252  1.00  0.00    -0.604 NA 
HETATM    8  H   UNL     1     -12.782  11.346  67.544  1.00  0.00     0.000 HD 
BRANCH   7   9
HETATM    9  C   UNL     1     -10.786  10.984  67.703  1.00  0.00    -0.256 C  
BRANCH   9  10
HETATM   10  C   UNL     1     -10.321   9.716  67.114  1.00  0.00    -0.319 A  
HETATM   11  C   UNL     1     -10.286   8.588  67.939  1.00  0.00    -0.281 A  
HETATM   12  C   UNL     1      -9.668   7.423  67.483  1.00  0.00    -0.186 A  
HETATM   13  C   UNL     1      -9.103   7.386  66.204  1.00  0.00    -0.167 A  
HETATM   14  C   UNL     1      -9.199   8.491  65.354  1.00  0.00    -0.043 A  
HETATM   15  C   UNL     1      -9.806   9.664  65.814  1.00  0.00    -0.373 A  
BRANCH  13  16
HETATM   16  C   UNL     1      -8.322   6.207  65.777  1.00  0.00    -0.143 C  
BRANCH  16  17
HETATM   17  N   UNL     1      -8.482   5.697  64.602  1.00  0.00    -0.244 NA 
HETATM   18  H   UNL     1      -8.720   6.263  63.787  1.00  0.00     0.000 HD 
BRANCH  17  19
HETATM   19  C   UNL     1      -8.295   4.240  64.525  1.00  0.00    -0.107 C  
HETATM   20  C   UNL     1      -7.545   3.748  65.751  1.00  0.00    -0.081 C  
HETATM   21  O   UNL     1      -7.965   2.394  65.969  1.00  0.00    -0.079 OA 
HETATM   22  N   UNL     1      -9.256   2.313  65.391  1.00  0.00    -0.103 NA 
HETATM   23  C   UNL     1      -9.566   3.452  64.686  1.00  0.00    -0.161 C  
HETATM   24  O   UNL     1     -10.667   3.714  64.225  1.00  0.00    -0.242 OA 
ENDBRANCH  17  19
ENDBRANCH  16  17
ENDBRANCH  13  16
ENDBRANCH   9  10
ENDBRANCH   7   9
ENDBRANCH   6   7
TORSDOF 6
ENDMDL
MODEL      132
REMARK 921   NORMALIZED FREE ENERGY PREDICTED BY IDOCK:   -4.44 KCAL/MOL
REMARK 922        TOTAL FREE ENERGY PREDICTED BY IDOCK:   -6.54 KCAL/MOL
REMARK 923 INTER-LIGAND FREE ENERGY PREDICTED BY IDOCK:   -5.83 KCAL/MOL
REMARK 924 INTRA-LIGAND FREE ENERGY PREDICTED BY IDOCK:   -0.71 KCAL/MOL
REMARK 927      BINDING AFFINITY PREDICTED BY RF-SCORE:    0.00 PKD
ROOT
HETATM    1  O   UNL     1      -7.323   3.245  67.182  1.00  0.00    -0.058 OA 
HETATM    2  C   UNL     1      -8.169   3.581  66.365  1.00  0.00    -0.100 C  
HETATM    3  N   UNL     1      -8.313   3.042  65.121  1.00  0.00    -0.094 NA 
HETATM    4  O   UNL     1      -9.318   3.662  64.355  1.00  0.00    -0.129 OA 
HETATM    5  C   UNL     1      -9.862   4.704  65.177  1.00  0.00    -0.089 C  
HETATM    6  C   UNL     1      -9.244   4.609  66.568  1.00  0.00    -0.132 C  
ENDROOT
BRANCH   6   7
HETATM    7  N   UNL     1      -8.698   5.923  66.961  1.00  0.00    -0.110 NA 
HETATM    8  H   UNL     1      -8.843   6.332  67.884  1.00  0.00     0.000 HD 
BRANCH   7   9
HETATM    9  C   UNL     1      -8.019   6.507  66.032  1.00  0.00    -0.112 C  
BRANCH   9  10
HETATM   10  C   UNL     1      -8.432   7.816  65.493  1.00  0.00    -0.146 A  
HETATM   11  C   UNL     1      -9.351   8.565  66.232  1.00  0.00    -0.287 A  
HETATM   12  C   UNL     1      -9.918   9.707  65.666  1.00  0.00    -0.321 A  
HETATM   13  C   UNL     1      -9.553  10.104  64.376  1.00  0.00    -0.366 A  
HETATM   14  C   UNL     1      -8.582   9.393  63.665  1.00  0.00    -0.220 A  
HETATM   15  C   UNL     1      -8.023   8.240  64.224  1.00  0.00    -0.148 A  
BRANCH  13  16
HETATM   16  C   UNL     1     -10.257  11.224  63.721  1.00  0.00    -0.377 C  
BRANCH  16  17
HETATM   17  N   UNL     1      -9.816  12.433  63.822  1.00  0.00    -0.635 NA 
HETATM   18  H   UNL     1      -8.859  12.689  63.578  1.00  0.00     0.000 HD 
BRANCH  17  19
HETATM   19  C   UNL     1     -10.795  13.414  64.314  1.00  0.00    -0.363 C  
HETATM   20  C   UNL     1     -12.202  12.966  63.960  1.00  0.00    -0.426 C  
HETATM   21  O   UNL     1     -13.069  13.511  64.965  1.00  0.00    -0.736 OA 
HETATM   22  N   UNL     1     -12.247  13.678  66.106  1.00  0.00    -0.438 NA 
HETATM   23  C   UNL     1     -10.923  13.451  65.813  1.00  0.00    -0.277 C  
HETATM   24  O   UNL     1     -10.025  13.370  66.638  1.00  0.00    -0.262 OA 
ENDBRANCH  17  19
ENDBRANCH  16  17
ENDBRANCH  13  16
ENDBRANCH   9  10
ENDBRANCH   7   9
ENDBRANCH   6   7
TORSDOF 6
ENDMDL
MODEL      133
REMARK 921   NORMALIZED FREE ENERGY PREDICTED BY IDOCK:   -4.44 KCAL/MOL
REMARK 922        TOTAL FREE ENERGY PREDICTED BY IDOCK:   -6.53 KCAL/MOL
REMARK 923 INTER-LIGAND FREE ENERGY PREDICTED BY IDOCK:   -6.05 KCAL/MOL
REMARK 924 INTRA-LIGAND FREE ENERGY PREDICTED BY IDOCK:   -0.49 KCAL/MOL
REMARK 927      BINDING AFFINITY PREDICTED BY RF-SCORE:    0.00 PKD
ROOT
HETATM    1  O   UNL     1     -10.929  15.427  69.355  1.00  0.00    -0.243 OA 
HETATM    2  C   UNL     1     -11.626  15.328  70.355  1.00  0.00    -0.308 C  
HETATM    3  N   UNL     1     -11.682  16.242  71.365  1.00  0.00    -0.434 NA 
HETATM    4  O   UNL     1     -12.508  15.847  72.433  1.00  0.00    -0.410 OA 
HETATM    5  C   UNL     1     -13.020  14.553  72.085  1.00  0.00    -0.346 C  
HETATM    6  C   UNL     1     -12.589  14.218  70.662  1.00  0.00    -0.355 C  
ENDROOT
BRANCH   6   7
HETATM    7  N   UNL     1     -11.944  12.890  70.636  1.00  0.00    -0.524 NA 
HETATM    8  H   UNL     1     -11.422  12.511  71.426  1.00  0.00     0.000 HD 
BRANCH   7   9
HETATM    9  C   UNL     1     -12.099  12.254  69.525  1.00  0.00    -0.198 C  
BRANCH   9  10
HETATM   10  C   UNL     1     -11.376  10.998  69.257  1.00  0.00    -0.350 A  
HETATM   11  C   UNL     1     -11.197  10.621  67.923  1.00  0.00    -0.376 A  
HETATM   12  C   UNL     1     -10.699   9.351  67.630  1.00  0.00    -0.295 A  
HETATM   13  C   UNL     1     -10.369   8.472  68.667  1.00  0.00    -0.224 A  
HETATM   14  C   UNL     1     -10.482   8.876  70.000  1.00  0.00    -0.227 A  
HETATM   15  C   UNL     1     -10.993  10.143  70.297  1.00  0.00    -0.380 A  
BRANCH  13  16
HETATM   16  C   UNL     1      -9.983   7.081  68.360  1.00  0.00    -0.154 C  
BRANCH  16  17
HETATM   17  N   UNL     1     -10.824   6.264  67.820  1.00  0.00    -0.310 NA 
HETATM   18  H   UNL     1     -11.826   6.306  68.007  1.00  0.00     0.000 HD 
BRANCH  17  19
HETATM   19  C   UNL     1     -10.231   5.266  66.916  1.00  0.00    -0.241 C  
HETATM   20  C   UNL     1      -9.130   5.907  66.088  1.00  0.00    -0.150 C  
HETATM   21  O   UNL     1      -8.197   4.863  65.774  1.00  0.00    -0.110 OA 
HETATM   22  N   UNL     1      -8.349   3.911  66.812  1.00  0.00    -0.100 NA 
HETATM   23  C   UNL     1      -9.422   4.210  67.618  1.00  0.00    -0.180 C  
HETATM   24  O   UNL     1      -9.685   3.652  68.673  1.00  0.00    -0.132 OA 
ENDBRANCH  17  19
ENDBRANCH  16  17
ENDBRANCH  13  16
ENDBRANCH   9  10
ENDBRANCH   7   9
ENDBRANCH   6   7
TORSDOF 6
ENDMDL
MODEL      134
REMARK 921   NORMALIZED FREE ENERGY PREDICTED BY IDOCK:   -4.42 KCAL/MOL
REMARK 922        TOTAL FREE ENERGY PREDICTED BY IDOCK:   -6.51 KCAL/MOL
REMARK 923 INTER-LIGAND FREE ENERGY PREDICTED BY IDOCK:   -5.76 KCAL/MOL
REMARK 924 INTRA-LIGAND FREE ENERGY PREDICTED BY IDOCK:   -0.75 KCAL/MOL
REMARK 927      BINDING AFFINITY PREDICTED BY RF-SCORE:    0.00 PKD
ROOT
HETATM    1  O   UNL     1     -10.670   4.265  65.199  1.00  0.00    -0.251 OA 
HETATM    2  C   UNL     1      -9.754   4.525  65.967  1.00  0.00    -0.210 C  
HETATM    3  N   UNL     1      -9.651   4.066  67.247  1.00  0.00    -0.198 NA 
HETATM    4  O   UNL     1      -8.536   4.578  67.937  1.00  0.00    -0.101 OA 
HETATM    5  C   UNL     1      -7.867   5.456  67.021  1.00  0.00    -0.101 C  
HETATM    6  C   UNL     1      -8.541   5.354  65.657  1.00  0.00    -0.146 C  
ENDROOT
BRANCH   6   7
HETATM    7  N   UNL     1      -8.891   6.703  65.172  1.00  0.00    -0.360 NA 
HETATM    8  H   UNL     1      -9.039   6.918  64.186  1.00  0.00     0.000 HD 
BRANCH   7   9
HETATM    9  C   UNL     1      -8.993   7.586  66.107  1.00  0.00    -0.153 C  
BRANCH   9  10
HETATM   10  C   UNL     1      -9.328   8.988  65.800  1.00  0.00    -0.302 A  
HETATM   11  C   UNL     1      -9.918   9.753  66.809  1.00  0.00    -0.278 A  
HETATM   12  C   UNL     1     -10.432  11.014  66.503  1.00  0.00    -0.309 A  
HETATM   13  C   UNL     1     -10.341  11.509  65.198  1.00  0.00    -0.329 A  
HETATM   14  C   UNL     1      -9.689  10.773  64.206  1.00  0.00    -0.357 A  
HETATM   15  C   UNL     1      -9.185   9.503  64.506  1.00  0.00    -0.223 A  
BRANCH  13  16
HETATM   16  C   UNL     1     -11.012  12.775  64.841  1.00  0.00    -0.294 C  
BRANCH  16  17
HETATM   17  N   UNL     1     -10.331  13.855  64.652  1.00  0.00    -0.587 NA 
HETATM   18  H   UNL     1      -9.772  14.011  63.813  1.00  0.00     0.000 HD 
BRANCH  17  19
HETATM   19  C   UNL     1     -10.421  14.846  65.736  1.00  0.00    -0.330 C  
HETATM   20  C   UNL     1     -11.762  14.724  66.439  1.00  0.00    -0.263 C  
HETATM   21  O   UNL     1     -11.555  15.162  67.790  1.00  0.00    -0.332 OA 
HETATM   22  N   UNL     1     -10.180  14.930  68.043  1.00  0.00    -0.227 NA 
HETATM   23  C   UNL     1      -9.511  14.563  66.899  1.00  0.00    -0.252 C  
HETATM   24  O   UNL     1      -8.361  14.152  66.861  1.00  0.00    -0.159 OA 
ENDBRANCH  17  19
ENDBRANCH  16  17
ENDBRANCH  13  16
ENDBRANCH   9  10
ENDBRANCH   7   9
ENDBRANCH   6   7
TORSDOF 6
ENDMDL
MODEL      135
REMARK 921   NORMALIZED FREE ENERGY PREDICTED BY IDOCK:   -4.42 KCAL/MOL
REMARK 922        TOTAL FREE ENERGY PREDICTED BY IDOCK:   -6.51 KCAL/MOL
REMARK 923 INTER-LIGAND FREE ENERGY PREDICTED BY IDOCK:   -5.80 KCAL/MOL
REMARK 924 INTRA-LIGAND FREE ENERGY PREDICTED BY IDOCK:   -0.71 KCAL/MOL
REMARK 927      BINDING AFFINITY PREDICTED BY RF-SCORE:    0.00 PKD
ROOT
HETATM    1  O   UNL     1      -9.612  11.475  66.218  1.00  0.00    -0.205 OA 
HETATM    2  C   UNL     1     -10.174  12.312  66.911  1.00  0.00    -0.213 C  
HETATM    3  N   UNL     1      -9.584  13.431  67.419  1.00  0.00    -0.217 NA 
HETATM    4  O   UNL     1     -10.436  14.186  68.246  1.00  0.00    -0.237 OA 
HETATM    5  C   UNL     1     -11.685  13.482  68.283  1.00  0.00    -0.359 C  
HETATM    6  C   UNL     1     -11.622  12.312  67.308  1.00  0.00    -0.357 C  
ENDROOT
BRANCH   6   7
HETATM    7  N   UNL     1     -12.016  11.067  67.996  1.00  0.00    -0.761 NA 
HETATM    8  H   UNL     1     -12.234  10.203  67.500  1.00  0.00     0.000 HD 
BRANCH   7   9
HETATM    9  C   UNL     1     -12.062  11.171  69.281  1.00  0.00    -0.308 C  
BRANCH   9  10
HETATM   10  C   UNL     1     -11.220  10.324  70.146  1.00  0.00    -0.387 A  
HETATM   11  C   UNL     1      -9.981   9.914  69.648  1.00  0.00    -0.255 A  
HETATM   12  C   UNL     1      -9.245   8.955  70.346  1.00  0.00    -0.222 A  
HETATM   13  C   UNL     1      -9.743   8.424  71.540  1.00  0.00    -0.276 A  
HETATM   14  C   UNL     1     -10.949   8.886  72.072  1.00  0.00    -0.412 A  
HETATM   15  C   UNL     1     -11.695   9.837  71.369  1.00  0.00    -0.475 A  
BRANCH  13  16
HETATM   16  C   UNL     1      -9.038   7.307  72.201  1.00  0.00    -0.132 C  
BRANCH  16  17
HETATM   17  N   UNL     1      -8.506   6.357  71.507  1.00  0.00    -0.129 NA 
HETATM   18  H   UNL     1      -7.500   6.186  71.493  1.00  0.00     0.000 HD 
BRANCH  17  19
HETATM   19  C   UNL     1      -9.456   5.539  70.738  1.00  0.00    -0.166 C  
HETATM   20  C   UNL     1      -8.988   5.416  69.298  1.00  0.00    -0.104 C  
HETATM   21  O   UNL     1      -9.493   4.165  68.810  1.00  0.00    -0.151 OA 
HETATM   22  N   UNL     1      -9.651   3.359  69.965  1.00  0.00    -0.168 NA 
HETATM   23  C   UNL     1      -9.456   4.084  71.117  1.00  0.00    -0.160 C  
HETATM   24  O   UNL     1      -9.375   3.608  72.240  1.00  0.00    -0.112 OA 
ENDBRANCH  17  19
ENDBRANCH  16  17
ENDBRANCH  13  16
ENDBRANCH   9  10
ENDBRANCH   7   9
ENDBRANCH   6   7
TORSDOF 6
ENDMDL
MODEL      136
REMARK 921   NORMALIZED FREE ENERGY PREDICTED BY IDOCK:   -4.41 KCAL/MOL
REMARK 922        TOTAL FREE ENERGY PREDICTED BY IDOCK:   -6.50 KCAL/MOL
REMARK 923 INTER-LIGAND FREE ENERGY PREDICTED BY IDOCK:   -6.15 KCAL/MOL
REMARK 924 INTRA-LIGAND FREE ENERGY PREDICTED BY IDOCK:   -0.35 KCAL/MOL
REMARK 927      BINDING AFFINITY PREDICTED BY RF-SCORE:    0.00 PKD
ROOT
HETATM    1  O   UNL     1      -7.196   4.011  66.180  1.00  0.00    -0.066 OA 
HETATM    2  C   UNL     1      -8.371   4.140  65.864  1.00  0.00    -0.109 C  
HETATM    3  N   UNL     1      -8.895   3.813  64.648  1.00  0.00    -0.117 NA 
HETATM    4  O   UNL     1     -10.260   4.132  64.524  1.00  0.00    -0.198 OA 
HETATM    5  C   UNL     1     -10.646   4.730  65.768  1.00  0.00    -0.218 C  
HETATM    6  C   UNL     1      -9.480   4.634  66.746  1.00  0.00    -0.162 C  
ENDROOT
BRANCH   6   7
HETATM    7  N   UNL     1      -9.195   5.966  67.315  1.00  0.00    -0.113 NA 
HETATM    8  H   UNL     1      -8.273   6.240  67.653  1.00  0.00     0.000 HD 
BRANCH   7   9
HETATM    9  C   UNL     1     -10.218   6.752  67.346  1.00  0.00    -0.197 C  
BRANCH   9  10
HETATM   10  C   UNL     1     -10.091   8.184  67.019  1.00  0.00    -0.350 A  
HETATM   11  C   UNL     1      -9.221   8.541  65.985  1.00  0.00    -0.262 A  
HETATM   12  C   UNL     1      -8.920   9.888  65.778  1.00  0.00    -0.189 A  
HETATM   13  C   UNL     1      -9.499  10.868  66.590  1.00  0.00    -0.204 A  
HETATM   14  C   UNL     1     -10.422  10.515  67.578  1.00  0.00    -0.284 A  
HETATM   15  C   UNL     1     -10.715   9.165  67.797  1.00  0.00    -0.243 A  
BRANCH  13  16
HETATM   16  C   UNL     1      -9.070  12.276  66.468  1.00  0.00    -0.188 C  
BRANCH  16  17
HETATM   17  N   UNL     1      -9.658  13.079  65.646  1.00  0.00    -0.474 NA 
HETATM   18  H   UNL     1      -9.186  13.883  65.233  1.00  0.00     0.000 HD 
BRANCH  17  19
HETATM   19  C   UNL     1     -11.060  12.747  65.348  1.00  0.00    -0.284 C  
HETATM   20  C   UNL     1     -11.905  14.010  65.360  1.00  0.00    -0.359 C  
HETATM   21  O   UNL     1     -12.999  13.776  64.461  1.00  0.00    -0.602 OA 
HETATM   22  N   UNL     1     -12.519  12.809  63.544  1.00  0.00    -0.731 NA 
HETATM   23  C   UNL     1     -11.296  12.311  63.928  1.00  0.00    -0.429 C  
HETATM   24  O   UNL     1     -10.586  11.589  63.244  1.00  0.00    -0.370 OA 
ENDBRANCH  17  19
ENDBRANCH  16  17
ENDBRANCH  13  16
ENDBRANCH   9  10
ENDBRANCH   7   9
ENDBRANCH   6   7
TORSDOF 6
ENDMDL
MODEL      137
REMARK 921   NORMALIZED FREE ENERGY PREDICTED BY IDOCK:   -4.40 KCAL/MOL
REMARK 922        TOTAL FREE ENERGY PREDICTED BY IDOCK:   -6.48 KCAL/MOL
REMARK 923 INTER-LIGAND FREE ENERGY PREDICTED BY IDOCK:   -6.16 KCAL/MOL
REMARK 924 INTRA-LIGAND FREE ENERGY PREDICTED BY IDOCK:   -0.32 KCAL/MOL
REMARK 927      BINDING AFFINITY PREDICTED BY RF-SCORE:    0.00 PKD
ROOT
HETATM    1  O   UNL     1      -8.830   5.796  72.153  1.00  0.00    -0.136 OA 
HETATM    2  C   UNL     1      -8.845   5.188  71.091  1.00  0.00    -0.134 C  
HETATM    3  N   UNL     1      -7.742   4.711  70.447  1.00  0.00    -0.053 NA 
HETATM    4  O   UNL     1      -8.033   4.116  69.205  1.00  0.00    -0.057 OA 
HETATM    5  C   UNL     1      -9.451   4.231  69.029  1.00  0.00    -0.172 C  
HETATM    6  C   UNL     1     -10.063   4.801  70.304  1.00  0.00    -0.234 C  
ENDROOT
BRANCH   6   7
HETATM    7  N   UNL     1     -10.911   5.964  69.973  1.00  0.00    -0.332 NA 
HETATM    8  H   UNL     1     -10.865   6.448  69.077  1.00  0.00     0.000 HD 
BRANCH   7   9
HETATM    9  C   UNL     1     -11.714   6.312  70.920  1.00  0.00    -0.222 C  
BRANCH   9  10
HETATM   10  C   UNL     1     -11.987   7.732  71.207  1.00  0.00    -0.324 A  
HETATM   11  C   UNL     1     -13.248   8.065  71.709  1.00  0.00    -0.367 A  
HETATM   12  C   UNL     1     -13.615   9.408  71.804  1.00  0.00    -0.461 A  
HETATM   13  C   UNL     1     -12.720  10.408  71.413  1.00  0.00    -0.551 A  
HETATM   14  C   UNL     1     -11.434  10.076  70.977  1.00  0.00    -0.463 A  
HETATM   15  C   UNL     1     -11.068   8.731  70.868  1.00  0.00    -0.320 A  
BRANCH  13  16
HETATM   16  C   UNL     1     -13.159  11.817  71.375  1.00  0.00    -0.223 C  
BRANCH  16  17
HETATM   17  N   UNL     1     -12.609  12.703  72.136  1.00  0.00     0.106 NA 
HETATM   18  H   UNL     1     -12.044  12.454  72.948  1.00  0.00     0.000 HD 
BRANCH  17  19
HETATM   19  C   UNL     1     -12.857  14.099  71.745  1.00  0.00    -0.347 C  
HETATM   20  C   UNL     1     -12.677  15.014  72.945  1.00  0.00    -0.425 C  
HETATM   21  O   UNL     1     -12.265  16.288  72.429  1.00  0.00    -0.490 OA 
HETATM   22  N   UNL     1     -11.639  15.997  71.192  1.00  0.00    -0.430 NA 
HETATM   23  C   UNL     1     -11.804  14.678  70.840  1.00  0.00    -0.313 C  
HETATM   24  O   UNL     1     -11.237  14.123  69.911  1.00  0.00    -0.210 OA 
ENDBRANCH  17  19
ENDBRANCH  16  17
ENDBRANCH  13  16
ENDBRANCH   9  10
ENDBRANCH   7   9
ENDBRANCH   6   7
TORSDOF 6
ENDMDL
MODEL      138
REMARK 921   NORMALIZED FREE ENERGY PREDICTED BY IDOCK:   -4.38 KCAL/MOL
REMARK 922        TOTAL FREE ENERGY PREDICTED BY IDOCK:   -6.45 KCAL/MOL
REMARK 923 INTER-LIGAND FREE ENERGY PREDICTED BY IDOCK:   -5.85 KCAL/MOL
REMARK 924 INTRA-LIGAND FREE ENERGY PREDICTED BY IDOCK:   -0.60 KCAL/MOL
REMARK 927      BINDING AFFINITY PREDICTED BY RF-SCORE:    0.00 PKD
ROOT
HETATM    1  O   UNL     1     -12.150   8.199  72.970  1.00  0.00    -0.242 OA 
HETATM    2  C   UNL     1     -11.358   7.278  72.826  1.00  0.00    -0.274 C  
HETATM    3  N   UNL     1     -10.201   7.122  73.530  1.00  0.00    -0.316 NA 
HETATM    4  O   UNL     1      -9.437   6.016  73.114  1.00  0.00    -0.143 OA 
HETATM    5  C   UNL     1     -10.163   5.412  72.035  1.00  0.00    -0.203 C  
HETATM    6  C   UNL     1     -11.509   6.113  71.891  1.00  0.00    -0.300 C  
ENDROOT
BRANCH   6   7
HETATM    7  N   UNL     1     -11.702   6.538  70.490  1.00  0.00    -0.395 NA 
HETATM    8  H   UNL     1     -12.620   6.600  70.050  1.00  0.00     0.000 HD 
BRANCH   7   9
HETATM    9  C   UNL     1     -10.606   6.823  69.873  1.00  0.00    -0.222 C  
BRANCH   9  10
HETATM   10  C   UNL     1     -10.356   8.176  69.346  1.00  0.00    -0.219 A  
HETATM   11  C   UNL     1     -10.398   9.244  70.246  1.00  0.00    -0.272 A  
HETATM   12  C   UNL     1     -10.367  10.552  69.761  1.00  0.00    -0.211 A  
HETATM   13  C   UNL     1     -10.277  10.786  68.385  1.00  0.00    -0.192 A  
HETATM   14  C   UNL     1     -10.165   9.718  67.491  1.00  0.00    -0.271 A  
HETATM   15  C   UNL     1     -10.210   8.406  67.973  1.00  0.00    -0.263 A  
BRANCH  13  16
HETATM   16  C   UNL     1     -10.392  12.162  67.861  1.00  0.00    -0.206 C  
BRANCH  16  17
HETATM   17  N   UNL     1     -10.229  13.181  68.637  1.00  0.00    -0.368 NA 
HETATM   18  H   UNL     1      -9.372  13.333  69.169  1.00  0.00     0.000 HD 
BRANCH  17  19
HETATM   19  C   UNL     1     -11.370  14.107  68.696  1.00  0.00    -0.277 C  
HETATM   20  C   UNL     1     -11.663  14.478  70.140  1.00  0.00    -0.297 C  
HETATM   21  O   UNL     1     -12.247  15.788  70.115  1.00  0.00    -0.374 OA 
HETATM   22  N   UNL     1     -11.756  16.384  68.927  1.00  0.00    -0.181 NA 
HETATM   23  C   UNL     1     -11.075  15.477  68.150  1.00  0.00    -0.325 C  
HETATM   24  O   UNL     1     -10.416  15.756  67.159  1.00  0.00    -0.296 OA 
ENDBRANCH  17  19
ENDBRANCH  16  17
ENDBRANCH  13  16
ENDBRANCH   9  10
ENDBRANCH   7   9
ENDBRANCH   6   7
TORSDOF 6
ENDMDL
MODEL      139
REMARK 921   NORMALIZED FREE ENERGY PREDICTED BY IDOCK:   -4.35 KCAL/MOL
REMARK 922        TOTAL FREE ENERGY PREDICTED BY IDOCK:   -6.42 KCAL/MOL
REMARK 923 INTER-LIGAND FREE ENERGY PREDICTED BY IDOCK:   -6.33 KCAL/MOL
REMARK 924 INTRA-LIGAND FREE ENERGY PREDICTED BY IDOCK:   -0.09 KCAL/MOL
REMARK 927      BINDING AFFINITY PREDICTED BY RF-SCORE:    0.00 PKD
ROOT
HETATM    1  O   UNL     1     -12.086  11.728  68.428  1.00  0.00    -0.490 OA 
HETATM    2  C   UNL     1     -11.154  11.717  67.635  1.00  0.00    -0.255 C  
HETATM    3  N   UNL     1      -9.855  11.455  67.957  1.00  0.00    -0.179 NA 
HETATM    4  O   UNL     1      -8.972  11.580  66.869  1.00  0.00    -0.167 OA 
HETATM    5  C   UNL     1      -9.774  11.971  65.746  1.00  0.00    -0.235 C  
HETATM    6  C   UNL     1     -11.243  11.939  66.153  1.00  0.00    -0.333 C  
ENDROOT
BRANCH   6   7
HETATM    7  N   UNL     1     -11.882  13.226  65.815  1.00  0.00    -0.366 NA 
HETATM    8  H   UNL     1     -12.206  13.457  64.876  1.00  0.00     0.000 HD 
BRANCH   7   9
HETATM    9  C   UNL     1     -11.995  14.034  66.815  1.00  0.00    -0.444 C  
BRANCH   9  10
HETATM   10  C   UNL     1     -10.985  15.077  67.072  1.00  0.00    -0.318 A  
HETATM   11  C   UNL     1     -10.801  15.494  68.393  1.00  0.00    -0.273 A  
HETATM   12  C   UNL     1     -10.007  16.612  68.654  1.00  0.00    -0.261 A  
HETATM   13  C   UNL     1      -9.390  17.294  67.601  1.00  0.00    -0.237 A  
HETATM   14  C   UNL     1      -9.518  16.834  66.288  1.00  0.00    -0.314 A  
HETATM   15  C   UNL     1     -10.325  15.723  66.021  1.00  0.00    -0.356 A  
BRANCH  13  16
HETATM   16  C   UNL     1      -8.672  18.558  67.861  1.00  0.00    -0.284 C  
BRANCH  16  17
HETATM   17  N   UNL     1      -8.697  19.522  67.003  1.00  0.00    -0.294 NA 
HETATM   18  H   UNL     1      -9.416  19.597  66.283  1.00  0.00     0.000 HD 
BRANCH  17  19
HETATM   19  C   UNL     1      -7.613  20.506  67.141  1.00  0.00    -0.326 C  
HETATM   20  C   UNL     1      -6.794  20.205  68.385  1.00  0.00    -0.287 C  
HETATM   21  O   UNL     1      -5.468  20.688  68.127  1.00  0.00    -0.224 OA 
HETATM   22  N   UNL     1      -5.336  20.660  66.716  1.00  0.00    -0.169 NA 
HETATM   23  C   UNL     1      -6.532  20.374  66.102  1.00  0.00    -0.218 C  
HETATM   24  O   UNL     1      -6.671  20.132  64.913  1.00  0.00    -0.298 OA 
ENDBRANCH  17  19
ENDBRANCH  16  17
ENDBRANCH  13  16
ENDBRANCH   9  10
ENDBRANCH   7   9
ENDBRANCH   6   7
TORSDOF 6
ENDMDL
MODEL      140
REMARK 921   NORMALIZED FREE ENERGY PREDICTED BY IDOCK:   -4.35 KCAL/MOL
REMARK 922        TOTAL FREE ENERGY PREDICTED BY IDOCK:   -6.41 KCAL/MOL
REMARK 923 INTER-LIGAND FREE ENERGY PREDICTED BY IDOCK:   -6.24 KCAL/MOL
REMARK 924 INTRA-LIGAND FREE ENERGY PREDICTED BY IDOCK:   -0.17 KCAL/MOL
REMARK 927      BINDING AFFINITY PREDICTED BY RF-SCORE:    0.00 PKD
ROOT
HETATM    1  O   UNL     1      -9.816  12.099  63.113  1.00  0.00    -0.398 OA 
HETATM    2  C   UNL     1     -10.922  12.183  63.629  1.00  0.00    -0.461 C  
HETATM    3  N   UNL     1     -12.083  11.737  63.069  1.00  0.00    -0.131 NA 
HETATM    4  O   UNL     1     -13.224  12.027  63.840  1.00  0.00    -0.705 OA 
HETATM    5  C   UNL     1     -12.756  12.735  64.996  1.00  0.00    -0.380 C  
HETATM    6  C   UNL     1     -11.231  12.745  64.986  1.00  0.00    -0.298 C  
ENDROOT
BRANCH   6   7
HETATM    7  N   UNL     1     -10.741  14.128  65.147  1.00  0.00    -0.363 NA 
HETATM    8  H   UNL     1     -11.091  14.910  64.594  1.00  0.00     0.000 HD 
BRANCH   7   9
HETATM    9  C   UNL     1      -9.829  14.258  66.051  1.00  0.00    -0.314 C  
BRANCH   9  10
HETATM   10  C   UNL     1      -9.580  13.197  67.043  1.00  0.00    -0.241 A  
HETATM   11  C   UNL     1      -8.386  12.478  66.942  1.00  0.00    -0.097 A  
HETATM   12  C   UNL     1      -8.201  11.340  67.729  1.00  0.00    -0.120 A  
HETATM   13  C   UNL     1      -9.200  10.938  68.621  1.00  0.00    -0.187 A  
HETATM   14  C   UNL     1     -10.363  11.696  68.772  1.00  0.00    -0.213 A  
HETATM   15  C   UNL     1     -10.557  12.828  67.974  1.00  0.00    -0.238 A  
BRANCH  13  16
HETATM   16  C   UNL     1      -9.069   9.657  69.345  1.00  0.00    -0.188 C  
BRANCH  16  17
HETATM   17  N   UNL     1      -9.642   9.481  70.489  1.00  0.00    -0.262 NA 
HETATM   18  H   UNL     1      -9.358   9.987  71.328  1.00  0.00     0.000 HD 
BRANCH  17  19
HETATM   19  C   UNL     1     -10.735   8.497  70.491  1.00  0.00    -0.221 C  
HETATM   20  C   UNL     1     -10.428   7.377  69.512  1.00  0.00    -0.232 C  
HETATM   21  O   UNL     1     -11.091   6.206  70.010  1.00  0.00    -0.332 OA 
HETATM   22  N   UNL     1     -11.204   6.416  71.407  1.00  0.00    -0.276 NA 
HETATM   23  C   UNL     1     -10.830   7.692  71.758  1.00  0.00    -0.229 C  
HETATM   24  O   UNL     1     -10.679   8.088  72.904  1.00  0.00    -0.355 OA 
ENDBRANCH  17  19
ENDBRANCH  16  17
ENDBRANCH  13  16
ENDBRANCH   9  10
ENDBRANCH   7   9
ENDBRANCH   6   7
TORSDOF 6
ENDMDL
MODEL      141
REMARK 921   NORMALIZED FREE ENERGY PREDICTED BY IDOCK:   -4.33 KCAL/MOL
REMARK 922        TOTAL FREE ENERGY PREDICTED BY IDOCK:   -6.39 KCAL/MOL
REMARK 923 INTER-LIGAND FREE ENERGY PREDICTED BY IDOCK:   -5.89 KCAL/MOL
REMARK 924 INTRA-LIGAND FREE ENERGY PREDICTED BY IDOCK:   -0.50 KCAL/MOL
REMARK 927      BINDING AFFINITY PREDICTED BY RF-SCORE:    0.00 PKD
ROOT
HETATM    1  O   UNL     1     -12.479   9.168  72.172  1.00  0.00    -0.368 OA 
HETATM    2  C   UNL     1     -11.997   8.060  72.361  1.00  0.00    -0.350 C  
HETATM    3  N   UNL     1     -11.071   7.762  73.316  1.00  0.00    -0.297 NA 
HETATM    4  O   UNL     1     -10.629   6.426  73.269  1.00  0.00    -0.236 OA 
HETATM    5  C   UNL     1     -11.325   5.813  72.176  1.00  0.00    -0.258 C  
HETATM    6  C   UNL     1     -12.349   6.799  71.627  1.00  0.00    -0.362 C  
ENDROOT
BRANCH   6   7
HETATM    7  N   UNL     1     -12.179   6.933  70.167  1.00  0.00    -0.623 NA 
HETATM    8  H   UNL     1     -12.962   7.047  69.523  1.00  0.00     0.000 HD 
BRANCH   7   9
HETATM    9  C   UNL     1     -10.949   6.893  69.777  1.00  0.00    -0.270 C  
BRANCH   9  10
HETATM   10  C   UNL     1     -10.363   7.990  68.986  1.00  0.00    -0.228 A  
HETATM   11  C   UNL     1      -9.972   9.147  69.666  1.00  0.00    -0.198 A  
HETATM   12  C   UNL     1      -9.602  10.278  68.937  1.00  0.00    -0.193 A  
HETATM   13  C   UNL     1      -9.608  10.243  67.539  1.00  0.00    -0.180 A  
HETATM   14  C   UNL     1      -9.931   9.065  66.862  1.00  0.00    -0.313 A  
HETATM   15  C   UNL     1     -10.316   7.934  67.589  1.00  0.00    -0.307 A  
BRANCH  13  16
HETATM   16  C   UNL     1      -9.359  11.478  66.770  1.00  0.00    -0.181 C  
BRANCH  16  17
HETATM   17  N   UNL     1      -9.599  12.638  67.283  1.00  0.00    -0.198 NA 
HETATM   18  H   UNL     1     -10.532  13.052  67.288  1.00  0.00     0.000 HD 
BRANCH  17  19
HETATM   19  C   UNL     1      -8.430  13.319  67.860  1.00  0.00    -0.177 C  
HETATM   20  C   UNL     1      -7.153  12.632  67.405  1.00  0.00    -0.138 C  
HETATM   21  O   UNL     1      -6.129  13.636  67.399  1.00  0.00    -0.337 OA 
HETATM   22  N   UNL     1      -6.818  14.861  67.216  1.00  0.00    -0.267 NA 
HETATM   23  C   UNL     1      -8.181  14.690  67.294  1.00  0.00    -0.212 C  
HETATM   24  O   UNL     1      -9.012  15.542  67.017  1.00  0.00    -0.200 OA 
ENDBRANCH  17  19
ENDBRANCH  16  17
ENDBRANCH  13  16
ENDBRANCH   9  10
ENDBRANCH   7   9
ENDBRANCH   6   7
TORSDOF 6
ENDMDL
MODEL      142
REMARK 921   NORMALIZED FREE ENERGY PREDICTED BY IDOCK:   -4.33 KCAL/MOL
REMARK 922        TOTAL FREE ENERGY PREDICTED BY IDOCK:   -6.39 KCAL/MOL
REMARK 923 INTER-LIGAND FREE ENERGY PREDICTED BY IDOCK:   -6.05 KCAL/MOL
REMARK 924 INTRA-LIGAND FREE ENERGY PREDICTED BY IDOCK:   -0.34 KCAL/MOL
REMARK 927      BINDING AFFINITY PREDICTED BY RF-SCORE:    0.00 PKD
ROOT
HETATM    1  O   UNL     1     -11.258  16.711  64.256  1.00  0.00    -1.098 OA 
HETATM    2  C   UNL     1     -11.541  15.523  64.181  1.00  0.00    -0.078 C  
HETATM    3  N   UNL     1     -12.775  15.030  63.875  1.00  0.00    -0.654 NA 
HETATM    4  O   UNL     1     -12.845  13.625  63.930  1.00  0.00    -0.557 OA 
HETATM    5  C   UNL     1     -11.541  13.174  64.319  1.00  0.00    -0.392 C  
HETATM    6  C   UNL     1     -10.596  14.370  64.361  1.00  0.00     0.051 C  
ENDROOT
BRANCH   6   7
HETATM    7  N   UNL     1      -9.901  14.411  65.663  1.00  0.00    -0.471 NA 
HETATM    8  H   UNL     1      -9.171  15.089  65.883  1.00  0.00     0.000 HD 
BRANCH   7   9
HETATM    9  C   UNL     1     -10.300  13.512  66.498  1.00  0.00    -0.282 C  
BRANCH   9  10
HETATM   10  C   UNL     1      -9.409  12.418  66.925  1.00  0.00    -0.213 A  
HETATM   11  C   UNL     1      -9.240  11.338  66.055  1.00  0.00    -0.224 A  
HETATM   12  C   UNL     1      -8.572  10.197  66.501  1.00  0.00    -0.132 A  
HETATM   13  C   UNL     1      -8.063  10.147  67.802  1.00  0.00    -0.109 A  
HETATM   14  C   UNL     1      -8.171  11.254  68.648  1.00  0.00    -0.146 A  
HETATM   15  C   UNL     1      -8.853  12.393  68.209  1.00  0.00    -0.174 A  
BRANCH  13  16
HETATM   16  C   UNL     1      -7.487   8.890  68.321  1.00  0.00    -0.087 C  
BRANCH  16  17
HETATM   17  N   UNL     1      -8.089   8.216  69.243  1.00  0.00    -0.115 NA 
HETATM   18  H   UNL     1      -7.598   7.830  70.049  1.00  0.00     0.000 HD 
BRANCH  17  19
HETATM   19  C   UNL     1      -9.536   8.045  69.044  1.00  0.00    -0.156 C  
HETATM   20  C   UNL     1      -9.870   6.570  68.897  1.00  0.00    -0.134 C  
HETATM   21  O   UNL     1     -11.213   6.407  69.372  1.00  0.00    -0.359 OA 
HETATM   22  N   UNL     1     -11.410   7.470  70.287  1.00  0.00    -0.242 NA 
HETATM   23  C   UNL     1     -10.362   8.360  70.261  1.00  0.00    -0.205 C  
HETATM   24  O   UNL     1     -10.198   9.274  71.055  1.00  0.00    -0.271 OA 
ENDBRANCH  17  19
ENDBRANCH  16  17
ENDBRANCH  13  16
ENDBRANCH   9  10
ENDBRANCH   7   9
ENDBRANCH   6   7
TORSDOF 6
ENDMDL
MODEL      143
REMARK 921   NORMALIZED FREE ENERGY PREDICTED BY IDOCK:   -4.32 KCAL/MOL
REMARK 922        TOTAL FREE ENERGY PREDICTED BY IDOCK:   -6.38 KCAL/MOL
REMARK 923 INTER-LIGAND FREE ENERGY PREDICTED BY IDOCK:   -5.57 KCAL/MOL
REMARK 924 INTRA-LIGAND FREE ENERGY PREDICTED BY IDOCK:   -0.81 KCAL/MOL
REMARK 927      BINDING AFFINITY PREDICTED BY RF-SCORE:    0.00 PKD
ROOT
HETATM    1  O   UNL     1     -12.146   8.861  72.394  1.00  0.00    -0.349 OA 
HETATM    2  C   UNL     1     -11.362   7.954  72.154  1.00  0.00    -0.313 C  
HETATM    3  N   UNL     1     -10.291   7.619  72.929  1.00  0.00    -0.291 NA 
HETATM    4  O   UNL     1      -9.508   6.584  72.385  1.00  0.00    -0.147 OA 
HETATM    5  C   UNL     1     -10.125   6.228  71.140  1.00  0.00    -0.183 C  
HETATM    6  C   UNL     1     -11.433   6.998  70.999  1.00  0.00    -0.303 C  
ENDROOT
BRANCH   6   7
HETATM    7  N   UNL     1     -11.466   7.691  69.697  1.00  0.00    -0.441 NA 
HETATM    8  H   UNL     1     -12.323   8.060  69.284  1.00  0.00     0.000 HD 
BRANCH   7   9
HETATM    9  C   UNL     1     -10.313   7.789  69.126  1.00  0.00    -0.215 C  
BRANCH   9  10
HETATM   10  C   UNL     1      -9.860   9.060  68.532  1.00  0.00    -0.184 A  
HETATM   11  C   UNL     1      -8.571   9.501  68.840  1.00  0.00    -0.128 A  
HETATM   12  C   UNL     1      -8.177  10.786  68.466  1.00  0.00    -0.136 A  
HETATM   13  C   UNL     1      -9.065  11.616  67.773  1.00  0.00    -0.175 A  
HETATM   14  C   UNL     1     -10.329  11.149  67.405  1.00  0.00    -0.231 A  
HETATM   15  C   UNL     1     -10.731   9.867  67.791  1.00  0.00    -0.332 A  
BRANCH  13  16
HETATM   16  C   UNL     1      -8.704  13.023  67.506  1.00  0.00    -0.197 C  
BRANCH  16  17
HETATM   17  N   UNL     1      -9.202  13.980  68.214  1.00  0.00    -0.196 NA 
HETATM   18  H   UNL     1      -9.227  13.953  69.233  1.00  0.00     0.000 HD 
BRANCH  17  19
HETATM   19  C   UNL     1      -9.733  15.114  67.442  1.00  0.00    -0.209 C  
HETATM   20  C   UNL     1      -9.054  15.180  66.084  1.00  0.00    -0.241 C  
HETATM   21  O   UNL     1      -9.996  15.784  65.186  1.00  0.00    -0.393 OA 
HETATM   22  N   UNL     1     -11.268  15.500  65.744  1.00  0.00    -0.203 NA 
HETATM   23  C   UNL     1     -11.157  14.935  66.992  1.00  0.00    -0.338 C  
HETATM   24  O   UNL     1     -12.081  14.448  67.627  1.00  0.00    -0.363 OA 
ENDBRANCH  17  19
ENDBRANCH  16  17
ENDBRANCH  13  16
ENDBRANCH   9  10
ENDBRANCH   7   9
ENDBRANCH   6   7
TORSDOF 6
ENDMDL
MODEL      144
REMARK 921   NORMALIZED FREE ENERGY PREDICTED BY IDOCK:   -4.29 KCAL/MOL
REMARK 922        TOTAL FREE ENERGY PREDICTED BY IDOCK:   -6.34 KCAL/MOL
REMARK 923 INTER-LIGAND FREE ENERGY PREDICTED BY IDOCK:   -5.90 KCAL/MOL
REMARK 924 INTRA-LIGAND FREE ENERGY PREDICTED BY IDOCK:   -0.44 KCAL/MOL
REMARK 927      BINDING AFFINITY PREDICTED BY RF-SCORE:    0.00 PKD
ROOT
HETATM    1  O   UNL     1     -10.824  18.460  64.840  1.00  0.00    -0.565 OA 
HETATM    2  C   UNL     1     -10.421  18.649  65.979  1.00  0.00    -0.414 C  
HETATM    3  N   UNL     1      -9.825  19.795  66.419  1.00  0.00    -0.416 NA 
HETATM    4  O   UNL     1      -9.388  19.721  67.754  1.00  0.00    -0.324 OA 
HETATM    5  C   UNL     1      -9.721  18.404  68.213  1.00  0.00    -0.344 C  
HETATM    6  C   UNL     1     -10.533  17.696  67.134  1.00  0.00    -0.319 C  
ENDROOT
BRANCH   6   7
HETATM    7  N   UNL     1      -9.929  16.382  66.838  1.00  0.00    -0.262 NA 
HETATM    8  H   UNL     1      -8.938  16.182  66.971  1.00  0.00     0.000 HD 
BRANCH   7   9
HETATM    9  C   UNL     1     -10.769  15.508  66.395  1.00  0.00    -0.303 C  
BRANCH   9  10
HETATM   10  C   UNL     1     -10.351  14.123  66.109  1.00  0.00    -0.304 A  
HETATM   11  C   UNL     1     -10.836  13.523  64.945  1.00  0.00    -0.371 A  
HETATM   12  C   UNL     1     -10.630  12.158  64.740  1.00  0.00    -0.335 A  
HETATM   13  C   UNL     1      -9.929  11.406  65.688  1.00  0.00    -0.282 A  
HETATM   14  C   UNL     1      -9.384  12.021  66.818  1.00  0.00    -0.206 A  
HETATM   15  C   UNL     1      -9.601  13.386  67.033  1.00  0.00    -0.244 A  
BRANCH  13  16
HETATM   16  C   UNL     1      -9.838   9.939  65.545  1.00  0.00    -0.311 C  
BRANCH  16  17
HETATM   17  N   UNL     1      -8.739   9.377  65.167  1.00  0.00    -0.169 NA 
HETATM   18  H   UNL     1      -8.273   9.619  64.292  1.00  0.00     0.000 HD 
BRANCH  17  19
HETATM   19  C   UNL     1      -8.208   8.364  66.091  1.00  0.00    -0.113 C  
HETATM   20  C   UNL     1      -9.183   8.143  67.235  1.00  0.00    -0.138 C  
HETATM   21  O   UNL     1      -8.994   6.791  67.676  1.00  0.00    -0.117 OA 
HETATM   22  N   UNL     1      -8.485   6.105  66.546  1.00  0.00    -0.116 NA 
HETATM   23  C   UNL     1      -8.182   6.972  65.523  1.00  0.00    -0.135 C  
HETATM   24  O   UNL     1      -7.880   6.638  64.386  1.00  0.00    -0.108 OA 
ENDBRANCH  17  19
ENDBRANCH  16  17
ENDBRANCH  13  16
ENDBRANCH   9  10
ENDBRANCH   7   9
ENDBRANCH   6   7
TORSDOF 6
ENDMDL
MODEL      145
REMARK 921   NORMALIZED FREE ENERGY PREDICTED BY IDOCK:   -4.29 KCAL/MOL
REMARK 922        TOTAL FREE ENERGY PREDICTED BY IDOCK:   -6.33 KCAL/MOL
REMARK 923 INTER-LIGAND FREE ENERGY PREDICTED BY IDOCK:   -6.11 KCAL/MOL
REMARK 924 INTRA-LIGAND FREE ENERGY PREDICTED BY IDOCK:   -0.22 KCAL/MOL
REMARK 927      BINDING AFFINITY PREDICTED BY RF-SCORE:    0.00 PKD
ROOT
HETATM    1  O   UNL     1     -11.327  13.703  65.561  1.00  0.00    -0.296 OA 
HETATM    2  C   UNL     1     -10.699  12.656  65.489  1.00  0.00    -0.274 C  
HETATM    3  N   UNL     1     -10.965  11.642  64.616  1.00  0.00    -0.310 NA 
HETATM    4  O   UNL     1     -10.138  10.518  64.795  1.00  0.00    -0.318 OA 
HETATM    5  C   UNL     1      -9.268  10.832  65.891  1.00  0.00    -0.190 C  
HETATM    6  C   UNL     1      -9.493  12.283  66.300  1.00  0.00    -0.231 C  
ENDROOT
BRANCH   6   7
HETATM    7  N   UNL     1      -9.747  12.358  67.752  1.00  0.00    -0.195 NA 
HETATM    8  H   UNL     1      -9.131  12.851  68.400  1.00  0.00     0.000 HD 
BRANCH   7   9
HETATM    9  C   UNL     1     -10.817  11.744  68.129  1.00  0.00    -0.217 C  
BRANCH   9  10
HETATM   10  C   UNL     1     -10.775  10.714  69.183  1.00  0.00    -0.264 A  
HETATM   11  C   UNL     1     -11.891  10.586  70.013  1.00  0.00    -0.388 A  
HETATM   12  C   UNL     1     -11.817   9.768  71.142  1.00  0.00    -0.466 A  
HETATM   13  C   UNL     1     -10.637   9.073  71.425  1.00  0.00    -0.393 A  
HETATM   14  C   UNL     1      -9.545   9.147  70.557  1.00  0.00    -0.293 A  
HETATM   15  C   UNL     1      -9.612   9.976  69.433  1.00  0.00    -0.237 A  
BRANCH  13  16
HETATM   16  C   UNL     1     -10.507   8.326  72.692  1.00  0.00    -0.303 C  
BRANCH  16  17
HETATM   17  N   UNL     1     -11.443   7.532  73.092  1.00  0.00    -0.614 NA 
HETATM   18  H   UNL     1     -12.325   7.873  73.476  1.00  0.00     0.000 HD 
BRANCH  17  19
HETATM   19  C   UNL     1     -11.145   6.099  72.953  1.00  0.00    -0.247 C  
HETATM   20  C   UNL     1     -10.903   5.758  71.492  1.00  0.00    -0.253 C  
HETATM   21  O   UNL     1     -10.010   4.635  71.478  1.00  0.00    -0.181 OA 
HETATM   22  N   UNL     1      -9.295   4.720  72.698  1.00  0.00    -0.129 NA 
HETATM   23  C   UNL     1      -9.812   5.694  73.520  1.00  0.00    -0.167 C  
HETATM   24  O   UNL     1      -9.295   6.086  74.555  1.00  0.00    -0.140 OA 
ENDBRANCH  17  19
ENDBRANCH  16  17
ENDBRANCH  13  16
ENDBRANCH   9  10
ENDBRANCH   7   9
ENDBRANCH   6   7
TORSDOF 6
ENDMDL
MODEL      146
REMARK 921   NORMALIZED FREE ENERGY PREDICTED BY IDOCK:   -4.25 KCAL/MOL
REMARK 922        TOTAL FREE ENERGY PREDICTED BY IDOCK:   -6.28 KCAL/MOL
REMARK 923 INTER-LIGAND FREE ENERGY PREDICTED BY IDOCK:   -5.68 KCAL/MOL
REMARK 924 INTRA-LIGAND FREE ENERGY PREDICTED BY IDOCK:   -0.61 KCAL/MOL
REMARK 927      BINDING AFFINITY PREDICTED BY RF-SCORE:    0.00 PKD
ROOT
HETATM    1  O   UNL     1      -9.232  14.704  66.686  1.00  0.00    -0.246 OA 
HETATM    2  C   UNL     1     -10.303  14.547  66.116  1.00  0.00    -0.297 C  
HETATM    3  N   UNL     1     -11.524  14.833  66.652  1.00  0.00    -0.354 NA 
HETATM    4  O   UNL     1     -12.598  14.488  65.811  1.00  0.00    -0.315 OA 
HETATM    5  C   UNL     1     -12.016  13.917  64.632  1.00  0.00    -0.419 C  
HETATM    6  C   UNL     1     -10.501  14.058  64.710  1.00  0.00    -0.421 C  
ENDROOT
BRANCH   6   7
HETATM    7  N   UNL     1      -9.865  12.747  64.477  1.00  0.00    -0.570 NA 
HETATM    8  H   UNL     1      -8.865  12.637  64.304  1.00  0.00     0.000 HD 
BRANCH   7   9
HETATM    9  C   UNL     1     -10.686  11.753  64.511  1.00  0.00    -0.315 C  
BRANCH   9  10
HETATM   10  C   UNL     1     -10.697  10.810  65.644  1.00  0.00    -0.142 A  
HETATM   11  C   UNL     1     -11.307  11.224  66.830  1.00  0.00    -0.231 A  
HETATM   12  C   UNL     1     -11.165  10.448  67.982  1.00  0.00    -0.340 A  
HETATM   13  C   UNL     1     -10.430   9.259  67.938  1.00  0.00    -0.290 A  
HETATM   14  C   UNL     1      -9.879   8.811  66.735  1.00  0.00    -0.316 A  
HETATM   15  C   UNL     1     -10.008   9.593  65.583  1.00  0.00    -0.321 A  
BRANCH  13  16
HETATM   16  C   UNL     1     -10.156   8.515  69.184  1.00  0.00    -0.203 C  
BRANCH  16  17
HETATM   17  N   UNL     1     -10.041   7.229  69.176  1.00  0.00    -0.178 NA 
HETATM   18  H   UNL     1     -10.777   6.615  68.827  1.00  0.00     0.000 HD 
BRANCH  17  19
HETATM   19  C   UNL     1      -8.770   6.715  69.707  1.00  0.00    -0.140 C  
HETATM   20  C   UNL     1      -8.004   7.833  70.394  1.00  0.00    -0.095 C  
HETATM   21  O   UNL     1      -7.202   7.215  71.410  1.00  0.00    -0.075 OA 
HETATM   22  N   UNL     1      -7.885   6.017  71.737  1.00  0.00    -0.101 NA 
HETATM   23  C   UNL     1      -8.929   5.779  70.874  1.00  0.00    -0.145 C  
HETATM   24  O   UNL     1      -9.776   4.910  71.020  1.00  0.00    -0.163 OA 
ENDBRANCH  17  19
ENDBRANCH  16  17
ENDBRANCH  13  16
ENDBRANCH   9  10
ENDBRANCH   7   9
ENDBRANCH   6   7
TORSDOF 6
ENDMDL
MODEL      147
REMARK 921   NORMALIZED FREE ENERGY PREDICTED BY IDOCK:   -4.25 KCAL/MOL
REMARK 922        TOTAL FREE ENERGY PREDICTED BY IDOCK:   -6.28 KCAL/MOL
REMARK 923 INTER-LIGAND FREE ENERGY PREDICTED BY IDOCK:   -5.62 KCAL/MOL
REMARK 924 INTRA-LIGAND FREE ENERGY PREDICTED BY IDOCK:   -0.66 KCAL/MOL
REMARK 927      BINDING AFFINITY PREDICTED BY RF-SCORE:    0.00 PKD
ROOT
HETATM    1  O   UNL     1     -10.587   7.401  67.104  1.00  0.00    -0.295 OA 
HETATM    2  C   UNL     1     -10.560   6.796  68.166  1.00  0.00    -0.230 C  
HETATM    3  N   UNL     1     -11.658   6.384  68.861  1.00  0.00    -0.077 NA 
HETATM    4  O   UNL     1     -11.346   5.775  70.091  1.00  0.00    -0.274 OA 
HETATM    5  C   UNL     1      -9.917   5.810  70.204  1.00  0.00    -0.198 C  
HETATM    6  C   UNL     1      -9.331   6.343  68.901  1.00  0.00    -0.130 C  
ENDROOT
BRANCH   6   7
HETATM    7  N   UNL     1      -8.405   7.456  69.188  1.00  0.00    -0.131 NA 
HETATM    8  H   UNL     1      -7.507   7.567  68.718  1.00  0.00     0.000 HD 
BRANCH   7   9
HETATM    9  C   UNL     1      -8.834   8.274  70.088  1.00  0.00    -0.141 C  
BRANCH   9  10
HETATM   10  C   UNL     1      -9.450   9.562  69.719  1.00  0.00    -0.228 A  
HETATM   11  C   UNL     1     -10.720   9.846  70.226  1.00  0.00    -0.367 A  
HETATM   12  C   UNL     1     -11.420  10.953  69.744  1.00  0.00    -0.390 A  
HETATM   13  C   UNL     1     -10.842  11.777  68.774  1.00  0.00    -0.268 A  
HETATM   14  C   UNL     1      -9.544  11.532  68.318  1.00  0.00    -0.189 A  
HETATM   15  C   UNL     1      -8.846  10.416  68.789  1.00  0.00    -0.157 A  
BRANCH  13  16
HETATM   16  C   UNL     1     -11.635  12.860  68.158  1.00  0.00    -0.336 C  
BRANCH  16  17
HETATM   17  N   UNL     1     -11.696  14.029  68.704  1.00  0.00    -0.332 NA 
HETATM   18  H   UNL     1     -12.405  14.274  69.395  1.00  0.00     0.000 HD 
BRANCH  17  19
HETATM   19  C   UNL     1     -10.668  14.980  68.254  1.00  0.00    -0.253 C  
HETATM   20  C   UNL     1     -10.886  15.327  66.791  1.00  0.00    -0.312 C  
HETATM   21  O   UNL     1     -10.366  16.650  66.604  1.00  0.00    -0.296 OA 
HETATM   22  N   UNL     1     -10.450  17.260  67.880  1.00  0.00    -0.367 NA 
HETATM   23  C   UNL     1     -10.805  16.354  68.851  1.00  0.00    -0.334 C  
HETATM   24  O   UNL     1     -11.102  16.638  70.002  1.00  0.00    -0.312 OA 
ENDBRANCH  17  19
ENDBRANCH  16  17
ENDBRANCH  13  16
ENDBRANCH   9  10
ENDBRANCH   7   9
ENDBRANCH   6   7
TORSDOF 6
ENDMDL
MODEL      148
REMARK 921   NORMALIZED FREE ENERGY PREDICTED BY IDOCK:   -4.23 KCAL/MOL
REMARK 922        TOTAL FREE ENERGY PREDICTED BY IDOCK:   -6.25 KCAL/MOL
REMARK 923 INTER-LIGAND FREE ENERGY PREDICTED BY IDOCK:   -5.48 KCAL/MOL
REMARK 924 INTRA-LIGAND FREE ENERGY PREDICTED BY IDOCK:   -0.77 KCAL/MOL
REMARK 927      BINDING AFFINITY PREDICTED BY RF-SCORE:    0.00 PKD
ROOT
HETATM    1  O   UNL     1     -11.788  10.943  67.947  1.00  0.00    -0.590 OA 
HETATM    2  C   UNL     1     -12.098  11.351  69.057  1.00  0.00    -0.249 C  
HETATM    3  N   UNL     1     -11.930  12.632  69.496  1.00  0.00    -0.297 NA 
HETATM    4  O   UNL     1     -12.302  12.815  70.841  1.00  0.00    -0.372 OA 
HETATM    5  C   UNL     1     -12.738  11.534  71.314  1.00  0.00    -0.364 C  
HETATM    6  C   UNL     1     -12.762  10.557  70.144  1.00  0.00    -0.127 C  
ENDROOT
BRANCH   6   7
HETATM    7  N   UNL     1     -12.003   9.340  70.495  1.00  0.00    -0.459 NA 
HETATM    8  H   UNL     1     -12.359   8.398  70.336  1.00  0.00     0.000 HD 
BRANCH   7   9
HETATM    9  C   UNL     1     -10.848   9.576  71.019  1.00  0.00    -0.353 C  
BRANCH   9  10
HETATM   10  C   UNL     1     -10.278   8.683  72.044  1.00  0.00    -0.407 A  
HETATM   11  C   UNL     1      -8.886   8.622  72.153  1.00  0.00    -0.245 A  
HETATM   12  C   UNL     1      -8.304   7.648  72.965  1.00  0.00    -0.178 A  
HETATM   13  C   UNL     1      -9.112   6.753  73.674  1.00  0.00    -0.169 A  
HETATM   14  C   UNL     1     -10.504   6.859  73.618  1.00  0.00    -0.400 A  
HETATM   15  C   UNL     1     -11.090   7.826  72.794  1.00  0.00    -0.457 A  
BRANCH  13  16
HETATM   16  C   UNL     1      -8.499   5.632  74.414  1.00  0.00    -0.108 C  
BRANCH  16  17
HETATM   17  N   UNL     1      -7.622   4.868  73.853  1.00  0.00    -0.093 NA 
HETATM   18  H   UNL     1      -6.651   5.153  73.723  1.00  0.00     0.000 HD 
BRANCH  17  19
HETATM   19  C   UNL     1      -8.127   3.558  73.417  1.00  0.00    -0.075 C  
HETATM   20  C   UNL     1      -9.168   3.049  74.399  1.00  0.00    -0.081 C  
HETATM   21  O   UNL     1     -10.058   2.208  73.652  1.00  0.00    -0.093 OA 
HETATM   22  N   UNL     1      -9.975   2.680  72.318  1.00  0.00    -0.159 NA 
HETATM   23  C   UNL     1      -8.974   3.612  72.174  1.00  0.00    -0.100 C  
HETATM   24  O   UNL     1      -8.788   4.294  71.177  1.00  0.00    -0.104 OA 
ENDBRANCH  17  19
ENDBRANCH  16  17
ENDBRANCH  13  16
ENDBRANCH   9  10
ENDBRANCH   7   9
ENDBRANCH   6   7
TORSDOF 6
ENDMDL
MODEL      149
REMARK 921   NORMALIZED FREE ENERGY PREDICTED BY IDOCK:   -4.18 KCAL/MOL
REMARK 922        TOTAL FREE ENERGY PREDICTED BY IDOCK:   -6.19 KCAL/MOL
REMARK 923 INTER-LIGAND FREE ENERGY PREDICTED BY IDOCK:   -5.55 KCAL/MOL
REMARK 924 INTRA-LIGAND FREE ENERGY PREDICTED BY IDOCK:   -0.63 KCAL/MOL
REMARK 927      BINDING AFFINITY PREDICTED BY RF-SCORE:    0.00 PKD
ROOT
HETATM    1  O   UNL     1      -9.830  11.962  63.290  1.00  0.00    -0.407 OA 
HETATM    2  C   UNL     1     -10.496  12.269  64.269  1.00  0.00    -0.346 C  
HETATM    3  N   UNL     1     -10.998  13.513  64.515  1.00  0.00    -0.380 NA 
HETATM    4  O   UNL     1     -11.664  13.613  65.751  1.00  0.00    -0.326 OA 
HETATM    5  C   UNL     1     -11.572  12.318  66.360  1.00  0.00    -0.383 C  
HETATM    6  C   UNL     1     -10.937  11.349  65.369  1.00  0.00    -0.184 C  
ENDROOT
BRANCH   6   7
HETATM    7  N   UNL     1      -9.803  10.654  66.009  1.00  0.00    -0.217 NA 
HETATM    8  H   UNL     1      -9.049  11.145  66.489  1.00  0.00     0.000 HD 
BRANCH   7   9
HETATM    9  C   UNL     1      -9.852   9.369  65.907  1.00  0.00    -0.291 C  
BRANCH   9  10
HETATM   10  C   UNL     1     -10.354   8.533  67.012  1.00  0.00    -0.379 A  
HETATM   11  C   UNL     1     -10.479   9.124  68.271  1.00  0.00    -0.254 A  
HETATM   12  C   UNL     1     -10.756   8.324  69.381  1.00  0.00    -0.160 A  
HETATM   13  C   UNL     1     -10.923   6.944  69.224  1.00  0.00    -0.260 A  
HETATM   14  C   UNL     1     -10.867   6.364  67.954  1.00  0.00    -0.404 A  
HETATM   15  C   UNL     1     -10.575   7.161  66.843  1.00  0.00    -0.371 A  
BRANCH  13  16
HETATM   16  C   UNL     1     -11.070   6.080  70.412  1.00  0.00    -0.329 C  
BRANCH  16  17
HETATM   17  N   UNL     1     -10.494   6.383  71.527  1.00  0.00    -0.214 NA 
HETATM   18  H   UNL     1     -10.966   6.912  72.261  1.00  0.00     0.000 HD 
BRANCH  17  19
HETATM   19  C   UNL     1      -9.109   5.908  71.661  1.00  0.00    -0.143 C  
HETATM   20  C   UNL     1      -8.190   7.075  71.984  1.00  0.00    -0.101 C  
HETATM   21  O   UNL     1      -7.092   6.534  72.733  1.00  0.00    -0.079 OA 
HETATM   22  N   UNL     1      -7.608   5.366  73.347  1.00  0.00    -0.095 NA 
HETATM   23  C   UNL     1      -8.867   5.065  72.883  1.00  0.00    -0.117 C  
HETATM   24  O   UNL     1      -9.603   4.211  73.354  1.00  0.00    -0.113 OA 
ENDBRANCH  17  19
ENDBRANCH  16  17
ENDBRANCH  13  16
ENDBRANCH   9  10
ENDBRANCH   7   9
ENDBRANCH   6   7
TORSDOF 6
ENDMDL
MODEL      150
REMARK 921   NORMALIZED FREE ENERGY PREDICTED BY IDOCK:   -4.16 KCAL/MOL
REMARK 922        TOTAL FREE ENERGY PREDICTED BY IDOCK:   -6.16 KCAL/MOL
REMARK 923 INTER-LIGAND FREE ENERGY PREDICTED BY IDOCK:   -5.52 KCAL/MOL
REMARK 924 INTRA-LIGAND FREE ENERGY PREDICTED BY IDOCK:   -0.64 KCAL/MOL
REMARK 927      BINDING AFFINITY PREDICTED BY RF-SCORE:    0.00 PKD
ROOT
HETATM    1  O   UNL     1     -12.079  14.227  70.667  1.00  0.00    -0.305 OA 
HETATM    2  C   UNL     1     -11.639  14.611  69.592  1.00  0.00    -0.307 C  
HETATM    3  N   UNL     1     -11.903  15.823  69.026  1.00  0.00    -0.392 NA 
HETATM    4  O   UNL     1     -11.331  15.981  67.750  1.00  0.00    -0.282 OA 
HETATM    5  C   UNL     1     -10.648  14.753  67.463  1.00  0.00    -0.259 C  
HETATM    6  C   UNL     1     -10.693  13.862  68.699  1.00  0.00    -0.260 C  
ENDROOT
BRANCH   6   7
HETATM    7  N   UNL     1     -11.205  12.527  68.333  1.00  0.00    -0.251 NA 
HETATM    8  H   UNL     1     -12.177  12.355  68.076  1.00  0.00     0.000 HD 
BRANCH   7   9
HETATM    9  C   UNL     1     -10.312  11.596  68.366  1.00  0.00    -0.204 C  
BRANCH   9  10
HETATM   10  C   UNL     1     -10.654  10.224  68.783  1.00  0.00    -0.231 A  
HETATM   11  C   UNL     1     -11.096  10.032  70.094  1.00  0.00    -0.371 A  
HETATM   12  C   UNL     1     -11.236   8.734  70.588  1.00  0.00    -0.294 A  
HETATM   13  C   UNL     1     -10.952   7.639  69.766  1.00  0.00    -0.178 A  
HETATM   14  C   UNL     1     -10.577   7.831  68.434  1.00  0.00    -0.157 A  
HETATM   15  C   UNL     1     -10.421   9.130  67.941  1.00  0.00    -0.293 A  
BRANCH  13  16
HETATM   16  C   UNL     1     -10.958   6.274  70.329  1.00  0.00    -0.337 C  
BRANCH  16  17
HETATM   17  N   UNL     1     -11.602   6.009  71.417  1.00  0.00    -0.218 NA 
HETATM   18  H   UNL     1     -12.581   6.260  71.549  1.00  0.00     0.000 HD 
BRANCH  17  19
HETATM   19  C   UNL     1     -10.817   5.319  72.452  1.00  0.00    -0.224 C  
HETATM   20  C   UNL     1      -9.567   4.712  71.837  1.00  0.00    -0.154 C  
HETATM   21  O   UNL     1      -8.579   4.673  72.876  1.00  0.00    -0.109 OA 
HETATM   22  N   UNL     1      -8.947   5.709  73.770  1.00  0.00    -0.124 NA 
HETATM   23  C   UNL     1     -10.172   6.243  73.448  1.00  0.00    -0.222 C  
HETATM   24  O   UNL     1     -10.653   7.248  73.949  1.00  0.00    -0.344 OA 
ENDBRANCH  17  19
ENDBRANCH  16  17
ENDBRANCH  13  16
ENDBRANCH   9  10
ENDBRANCH   7   9
ENDBRANCH   6   7
TORSDOF 6
ENDMDL
MODEL      151
REMARK 921   NORMALIZED FREE ENERGY PREDICTED BY IDOCK:   -4.15 KCAL/MOL
REMARK 922        TOTAL FREE ENERGY PREDICTED BY IDOCK:   -6.15 KCAL/MOL
REMARK 923 INTER-LIGAND FREE ENERGY PREDICTED BY IDOCK:   -5.73 KCAL/MOL
REMARK 924 INTRA-LIGAND FREE ENERGY PREDICTED BY IDOCK:   -0.42 KCAL/MOL
REMARK 927      BINDING AFFINITY PREDICTED BY RF-SCORE:    0.00 PKD
ROOT
HETATM    1  O   UNL     1     -14.399   6.984  71.718  1.00  0.00    -0.392 OA 
HETATM    2  C   UNL     1     -13.708   7.993  71.675  1.00  0.00    -0.356 C  
HETATM    3  N   UNL     1     -14.081   9.172  71.100  1.00  0.00    -0.103 NA 
HETATM    4  O   UNL     1     -13.069  10.150  71.123  1.00  0.00    -0.371 OA 
HETATM    5  C   UNL     1     -11.937   9.539  71.758  1.00  0.00    -0.371 C  
HETATM    6  C   UNL     1     -12.342   8.163  72.274  1.00  0.00    -0.323 C  
ENDROOT
BRANCH   6   7
HETATM    7  N   UNL     1     -11.386   7.148  71.790  1.00  0.00    -0.246 NA 
HETATM    8  H   UNL     1     -10.565   6.860  72.322  1.00  0.00     0.000 HD 
BRANCH   7   9
HETATM    9  C   UNL     1     -11.682   6.658  70.634  1.00  0.00    -0.394 C  
BRANCH   9  10
HETATM   10  C   UNL     1     -10.853   6.942  69.449  1.00  0.00    -0.283 A  
HETATM   11  C   UNL     1      -9.746   7.779  69.613  1.00  0.00    -0.172 A  
HETATM   12  C   UNL     1      -9.057   8.233  68.488  1.00  0.00    -0.136 A  
HETATM   13  C   UNL     1      -9.465   7.837  67.210  1.00  0.00    -0.187 A  
HETATM   14  C   UNL     1     -10.528   6.945  67.051  1.00  0.00    -0.374 A  
HETATM   15  C   UNL     1     -11.230   6.499  68.176  1.00  0.00    -0.250 A  
BRANCH  13  16
HETATM   16  C   UNL     1      -8.830   8.431  66.017  1.00  0.00    -0.167 C  
BRANCH  16  17
HETATM   17  N   UNL     1      -8.179   9.543  66.097  1.00  0.00    -0.114 NA 
HETATM   18  H   UNL     1      -7.413   9.683  66.756  1.00  0.00     0.000 HD 
BRANCH  17  19
HETATM   19  C   UNL     1      -8.622  10.592  65.167  1.00  0.00    -0.167 C  
HETATM   20  C   UNL     1      -9.163   9.963  63.894  1.00  0.00    -0.248 C  
HETATM   21  O   UNL     1     -10.138  10.876  63.370  1.00  0.00    -0.332 OA 
HETATM   22  N   UNL     1     -10.602  11.602  64.495  1.00  0.00    -0.298 NA 
HETATM   23  C   UNL     1      -9.856  11.326  65.617  1.00  0.00    -0.234 C  
HETATM   24  O   UNL     1     -10.134  11.687  66.751  1.00  0.00    -0.208 OA 
ENDBRANCH  17  19
ENDBRANCH  16  17
ENDBRANCH  13  16
ENDBRANCH   9  10
ENDBRANCH   7   9
ENDBRANCH   6   7
TORSDOF 6
ENDMDL
MODEL      152
REMARK 921   NORMALIZED FREE ENERGY PREDICTED BY IDOCK:   -4.13 KCAL/MOL
REMARK 922        TOTAL FREE ENERGY PREDICTED BY IDOCK:   -6.12 KCAL/MOL
REMARK 923 INTER-LIGAND FREE ENERGY PREDICTED BY IDOCK:   -5.54 KCAL/MOL
REMARK 924 INTRA-LIGAND FREE ENERGY PREDICTED BY IDOCK:   -0.58 KCAL/MOL
REMARK 927      BINDING AFFINITY PREDICTED BY RF-SCORE:    0.00 PKD
ROOT
HETATM    1  O   UNL     1      -9.489  18.179  65.977  1.00  0.00    -0.503 OA 
HETATM    2  C   UNL     1      -8.981  17.693  66.978  1.00  0.00    -0.250 C  
HETATM    3  N   UNL     1      -8.137  18.350  67.825  1.00  0.00    -0.250 NA 
HETATM    4  O   UNL     1      -7.636  17.535  68.857  1.00  0.00    -0.267 OA 
HETATM    5  C   UNL     1      -8.198  16.233  68.648  1.00  0.00    -0.214 C  
HETATM    6  C   UNL     1      -9.206  16.307  67.507  1.00  0.00    -0.205 C  
ENDROOT
BRANCH   6   7
HETATM    7  N   UNL     1      -8.903  15.266  66.505  1.00  0.00    -0.314 NA 
HETATM    8  H   UNL     1      -7.999  15.189  66.040  1.00  0.00     0.000 HD 
BRANCH   7   9
HETATM    9  C   UNL     1      -9.885  14.463  66.272  1.00  0.00    -0.304 C  
BRANCH   9  10
HETATM   10  C   UNL     1      -9.839  13.055  66.705  1.00  0.00    -0.252 A  
HETATM   11  C   UNL     1     -10.014  12.067  65.732  1.00  0.00    -0.266 A  
HETATM   12  C   UNL     1     -10.178  10.738  66.125  1.00  0.00    -0.308 A  
HETATM   13  C   UNL     1     -10.151  10.401  67.481  1.00  0.00    -0.231 A  
HETATM   14  C   UNL     1      -9.907  11.379  68.449  1.00  0.00    -0.205 A  
HETATM   15  C   UNL     1      -9.756  12.713  68.060  1.00  0.00    -0.215 A  
BRANCH  13  16
HETATM   16  C   UNL     1     -10.469   9.023  67.906  1.00  0.00    -0.234 C  
BRANCH  16  17
HETATM   17  N   UNL     1     -10.929   8.783  69.088  1.00  0.00    -0.432 NA 
HETATM   18  H   UNL     1     -11.303   9.517  69.689  1.00  0.00     0.000 HD 
BRANCH  17  19
HETATM   19  C   UNL     1     -10.871   7.374  69.504  1.00  0.00    -0.189 C  
HETATM   20  C   UNL     1     -10.817   6.474  68.282  1.00  0.00    -0.288 C  
HETATM   21  O   UNL     1     -10.115   5.287  68.680  1.00  0.00    -0.168 OA 
HETATM   22  N   UNL     1      -9.289   5.695  69.756  1.00  0.00    -0.140 NA 
HETATM   23  C   UNL     1      -9.572   6.980  70.152  1.00  0.00    -0.164 C  
HETATM   24  O   UNL     1      -8.909   7.633  70.945  1.00  0.00    -0.143 OA 
ENDBRANCH  17  19
ENDBRANCH  16  17
ENDBRANCH  13  16
ENDBRANCH   9  10
ENDBRANCH   7   9
ENDBRANCH   6   7
TORSDOF 6
ENDMDL
MODEL      153
REMARK 921   NORMALIZED FREE ENERGY PREDICTED BY IDOCK:   -4.12 KCAL/MOL
REMARK 922        TOTAL FREE ENERGY PREDICTED BY IDOCK:   -6.11 KCAL/MOL
REMARK 923 INTER-LIGAND FREE ENERGY PREDICTED BY IDOCK:   -6.57 KCAL/MOL
REMARK 924 INTRA-LIGAND FREE ENERGY PREDICTED BY IDOCK:    0.46 KCAL/MOL
REMARK 927      BINDING AFFINITY PREDICTED BY RF-SCORE:    0.00 PKD
ROOT
HETATM    1  O   UNL     1     -12.279  10.879  69.191  1.00  0.00    -0.421 OA 
HETATM    2  C   UNL     1     -11.335  10.725  68.427  1.00  0.00    -0.302 C  
HETATM    3  N   UNL     1     -10.126  10.199  68.774  1.00  0.00    -0.178 NA 
HETATM    4  O   UNL     1      -9.191  10.204  67.722  1.00  0.00    -0.137 OA 
HETATM    5  C   UNL     1      -9.856  10.799  66.599  1.00  0.00    -0.200 C  
HETATM    6  C   UNL     1     -11.318  11.035  66.959  1.00  0.00    -0.085 C  
ENDROOT
BRANCH   6   7
HETATM    7  N   UNL     1     -11.682  12.437  66.675  1.00  0.00    -0.489 NA 
HETATM    8  H   UNL     1     -12.236  12.714  65.865  1.00  0.00     0.000 HD 
BRANCH   7   9
HETATM    9  C   UNL     1     -11.237  13.279  67.544  1.00  0.00    -0.281 C  
BRANCH   9  10
HETATM   10  C   UNL     1     -10.174  14.241  67.200  1.00  0.00    -0.254 A  
HETATM   11  C   UNL     1      -9.326  14.669  68.224  1.00  0.00    -0.199 A  
HETATM   12  C   UNL     1      -8.441  15.722  67.988  1.00  0.00    -0.161 A  
HETATM   13  C   UNL     1      -8.398  16.330  66.729  1.00  0.00    -0.289 A  
HETATM   14  C   UNL     1      -9.197  15.856  65.686  1.00  0.00    -0.104 A  
HETATM   15  C   UNL     1     -10.094  14.810  65.924  1.00  0.00    -0.343 A  
BRANCH  13  16
HETATM   16  C   UNL     1      -7.571  17.536  66.521  1.00  0.00    -0.276 C  
BRANCH  16  17
HETATM   17  N   UNL     1      -7.974  18.489  65.748  1.00  0.00    -0.478 NA 
HETATM   18  H   UNL     1      -7.683  18.564  64.773  1.00  0.00     0.000 HD 
BRANCH  17  19
HETATM   19  C   UNL     1      -8.882  19.459  66.378  1.00  0.00    -0.359 C  
HETATM   20  C   UNL     1     -10.317  18.970  66.274  1.00  0.00    -0.459 C  
HETATM   21  O   UNL     1     -11.017  19.520  67.399  1.00  0.00    -0.477 OA 
HETATM   22  N   UNL     1     -10.020  19.734  68.383  1.00  0.00    -0.426 NA 
HETATM   23  C   UNL     1      -8.758  19.529  67.876  1.00  0.00    -0.320 C  
HETATM   24  O   UNL     1      -7.733  19.489  68.539  1.00  0.00    -0.334 OA 
ENDBRANCH  17  19
ENDBRANCH  16  17
ENDBRANCH  13  16
ENDBRANCH   9  10
ENDBRANCH   7   9
ENDBRANCH   6   7
TORSDOF 6
ENDMDL
MODEL      154
REMARK 921   NORMALIZED FREE ENERGY PREDICTED BY IDOCK:   -4.10 KCAL/MOL
REMARK 922        TOTAL FREE ENERGY PREDICTED BY IDOCK:   -6.08 KCAL/MOL
REMARK 923 INTER-LIGAND FREE ENERGY PREDICTED BY IDOCK:   -5.44 KCAL/MOL
REMARK 924 INTRA-LIGAND FREE ENERGY PREDICTED BY IDOCK:   -0.64 KCAL/MOL
REMARK 927      BINDING AFFINITY PREDICTED BY RF-SCORE:    0.00 PKD
ROOT
HETATM    1  O   UNL     1      -7.937   2.884  66.181  1.00  0.00    -0.080 OA 
HETATM    2  C   UNL     1      -7.362   3.651  66.940  1.00  0.00    -0.068 C  
HETATM    3  N   UNL     1      -6.295   3.325  67.723  1.00  0.00    -0.035 NA 
HETATM    4  O   UNL     1      -5.872   4.375  68.559  1.00  0.00    -0.023 OA 
HETATM    5  C   UNL     1      -6.755   5.474  68.299  1.00  0.00    -0.054 C  
HETATM    6  C   UNL     1      -7.672   5.107  67.137  1.00  0.00    -0.092 C  
ENDROOT
BRANCH   6   7
HETATM    7  N   UNL     1      -9.079   5.336  67.520  1.00  0.00    -0.108 NA 
HETATM    8  H   UNL     1      -9.471   5.024  68.409  1.00  0.00     0.000 HD 
BRANCH   7   9
HETATM    9  C   UNL     1      -9.768   5.966  66.630  1.00  0.00    -0.157 C  
BRANCH   9  10
HETATM   10  C   UNL     1      -9.895   7.434  66.661  1.00  0.00    -0.263 A  
HETATM   11  C   UNL     1      -9.138   8.172  65.747  1.00  0.00    -0.139 A  
HETATM   12  C   UNL     1      -9.074   9.561  65.873  1.00  0.00    -0.230 A  
HETATM   13  C   UNL     1      -9.776  10.204  66.897  1.00  0.00    -0.233 A  
HETATM   14  C   UNL     1     -10.588   9.471  67.767  1.00  0.00    -0.318 A  
HETATM   15  C   UNL     1     -10.643   8.079  67.652  1.00  0.00    -0.264 A  
BRANCH  13  16
HETATM   16  C   UNL     1      -9.593  11.652  67.121  1.00  0.00    -0.175 C  
BRANCH  16  17
HETATM   17  N   UNL     1     -10.019  12.514  66.260  1.00  0.00    -0.247 NA 
HETATM   18  H   UNL     1      -9.395  13.166  65.783  1.00  0.00     0.000 HD 
BRANCH  17  19
HETATM   19  C   UNL     1     -11.469  12.487  66.016  1.00  0.00    -0.377 C  
HETATM   20  C   UNL     1     -12.037  13.893  66.112  1.00  0.00    -0.448 C  
HETATM   21  O   UNL     1     -13.189  13.926  65.258  1.00  0.00    -0.774 OA 
HETATM   22  N   UNL     1     -12.954  12.922  64.286  1.00  0.00    -0.654 NA 
HETATM   23  C   UNL     1     -11.845  12.171  64.595  1.00  0.00    -0.328 C  
HETATM   24  O   UNL     1     -11.325  11.350  63.854  1.00  0.00    -0.370 OA 
ENDBRANCH  17  19
ENDBRANCH  16  17
ENDBRANCH  13  16
ENDBRANCH   9  10
ENDBRANCH   7   9
ENDBRANCH   6   7
TORSDOF 6
ENDMDL
MODEL      155
REMARK 921   NORMALIZED FREE ENERGY PREDICTED BY IDOCK:   -4.10 KCAL/MOL
REMARK 922        TOTAL FREE ENERGY PREDICTED BY IDOCK:   -6.08 KCAL/MOL
REMARK 923 INTER-LIGAND FREE ENERGY PREDICTED BY IDOCK:   -5.67 KCAL/MOL
REMARK 924 INTRA-LIGAND FREE ENERGY PREDICTED BY IDOCK:   -0.40 KCAL/MOL
REMARK 927      BINDING AFFINITY PREDICTED BY RF-SCORE:    0.00 PKD
ROOT
HETATM    1  O   UNL     1     -11.735  16.561  71.768  1.00  0.00    -0.435 OA 
HETATM    2  C   UNL     1     -12.317  15.510  71.999  1.00  0.00    -0.399 C  
HETATM    3  N   UNL     1     -12.797  15.133  73.219  1.00  0.00    -0.483 NA 
HETATM    4  O   UNL     1     -13.357  13.842  73.224  1.00  0.00    -0.495 OA 
HETATM    5  C   UNL     1     -13.214  13.338  71.890  1.00  0.00    -0.431 C  
HETATM    6  C   UNL     1     -12.664  14.446  70.999  1.00  0.00    -0.346 C  
ENDROOT
BRANCH   6   7
HETATM    7  N   UNL     1     -11.480  13.956  70.266  1.00  0.00    -0.503 NA 
HETATM    8  H   UNL     1     -10.574  13.807  70.710  1.00  0.00     0.000 HD 
BRANCH   7   9
HETATM    9  C   UNL     1     -11.695  13.732  69.014  1.00  0.00    -0.331 C  
BRANCH   9  10
HETATM   10  C   UNL     1     -10.993  12.651  68.299  1.00  0.00    -0.275 A  
HETATM   11  C   UNL     1      -9.653  12.856  67.962  1.00  0.00    -0.221 A  
HETATM   12  C   UNL     1      -9.012  11.950  67.116  1.00  0.00    -0.178 A  
HETATM   13  C   UNL     1      -9.706  10.839  66.626  1.00  0.00    -0.227 A  
HETATM   14  C   UNL     1     -11.025  10.598  67.019  1.00  0.00    -0.274 A  
HETATM   15  C   UNL     1     -11.674  11.511  67.856  1.00  0.00    -0.317 A  
BRANCH  13  16
HETATM   16  C   UNL     1      -9.077   9.962  65.618  1.00  0.00    -0.178 C  
BRANCH  16  17
HETATM   17  N   UNL     1      -8.762   8.743  65.904  1.00  0.00    -0.159 NA 
HETATM   18  H   UNL     1      -8.681   8.410  66.864  1.00  0.00     0.000 HD 
BRANCH  17  19
HETATM   19  C   UNL     1      -8.528   7.872  64.743  1.00  0.00     0.007 C  
HETATM   20  C   UNL     1      -7.505   8.507  63.816  1.00  0.00    -0.118 C  
HETATM   21  O   UNL     1      -6.840   7.428  63.142  1.00  0.00    -0.056 OA 
HETATM   22  N   UNL     1      -6.961   6.320  64.017  1.00  0.00    -0.038 NA 
HETATM   23  C   UNL     1      -7.798   6.598  65.072  1.00  0.00    -0.113 C  
HETATM   24  O   UNL     1      -7.954   5.885  66.051  1.00  0.00    -0.102 OA 
ENDBRANCH  17  19
ENDBRANCH  16  17
ENDBRANCH  13  16
ENDBRANCH   9  10
ENDBRANCH   7   9
ENDBRANCH   6   7
TORSDOF 6
ENDMDL
MODEL      156
REMARK 921   NORMALIZED FREE ENERGY PREDICTED BY IDOCK:   -4.09 KCAL/MOL
REMARK 922        TOTAL FREE ENERGY PREDICTED BY IDOCK:   -6.06 KCAL/MOL
REMARK 923 INTER-LIGAND FREE ENERGY PREDICTED BY IDOCK:   -5.92 KCAL/MOL
REMARK 924 INTRA-LIGAND FREE ENERGY PREDICTED BY IDOCK:   -0.14 KCAL/MOL
REMARK 927      BINDING AFFINITY PREDICTED BY RF-SCORE:    0.00 PKD
ROOT
HETATM    1  O   UNL     1     -11.220   4.979  73.238  1.00  0.00    -0.309 OA 
HETATM    2  C   UNL     1     -10.758   6.063  72.908  1.00  0.00    -0.247 C  
HETATM    3  N   UNL     1     -11.377   7.265  73.086  1.00  0.00    -0.213 NA 
HETATM    4  O   UNL     1     -10.659   8.349  72.547  1.00  0.00    -0.328 OA 
HETATM    5  C   UNL     1      -9.476   7.792  71.958  1.00  0.00    -0.163 C  
HETATM    6  C   UNL     1      -9.413   6.305  72.287  1.00  0.00    -0.149 C  
ENDROOT
BRANCH   6   7
HETATM    7  N   UNL     1      -9.218   5.527  71.048  1.00  0.00    -0.146 NA 
HETATM    8  H   UNL     1      -8.398   4.944  70.881  1.00  0.00     0.000 HD 
BRANCH   7   9
HETATM    9  C   UNL     1     -10.177   5.652  70.194  1.00  0.00    -0.250 C  
BRANCH   9  10
HETATM   10  C   UNL     1     -10.006   6.446  68.964  1.00  0.00    -0.171 A  
HETATM   11  C   UNL     1      -8.860   7.238  68.853  1.00  0.00    -0.127 A  
HETATM   12  C   UNL     1      -8.757   8.152  67.804  1.00  0.00    -0.130 A  
HETATM   13  C   UNL     1      -9.788   8.258  66.864  1.00  0.00    -0.316 A  
HETATM   14  C   UNL     1     -10.901   7.417  66.936  1.00  0.00    -0.223 A  
HETATM   15  C   UNL     1     -11.013   6.510  67.994  1.00  0.00    -0.368 A  
BRANCH  13  16
HETATM   16  C   UNL     1      -9.747   9.323  65.842  1.00  0.00    -0.285 C  
BRANCH  16  17
HETATM   17  N   UNL     1      -9.376  10.521  66.148  1.00  0.00    -0.170 NA 
HETATM   18  H   UNL     1      -8.634  10.710  66.822  1.00  0.00     0.000 HD 
BRANCH  17  19
HETATM   19  C   UNL     1     -10.102  11.594  65.452  1.00  0.00    -0.259 C  
HETATM   20  C   UNL     1     -10.597  11.096  64.104  1.00  0.00    -0.368 C  
HETATM   21  O   UNL     1     -11.780  11.849  63.801  1.00  0.00    -0.427 OA 
HETATM   22  N   UNL     1     -12.296  12.244  65.061  1.00  0.00    -0.504 NA 
HETATM   23  C   UNL     1     -11.423  11.945  66.080  1.00  0.00    -0.288 C  
HETATM   24  O   UNL     1     -11.680  12.030  67.272  1.00  0.00    -0.481 OA 
ENDBRANCH  17  19
ENDBRANCH  16  17
ENDBRANCH  13  16
ENDBRANCH   9  10
ENDBRANCH   7   9
ENDBRANCH   6   7
TORSDOF 6
ENDMDL
MODEL      157
REMARK 921   NORMALIZED FREE ENERGY PREDICTED BY IDOCK:   -4.08 KCAL/MOL
REMARK 922        TOTAL FREE ENERGY PREDICTED BY IDOCK:   -6.05 KCAL/MOL
REMARK 923 INTER-LIGAND FREE ENERGY PREDICTED BY IDOCK:   -5.34 KCAL/MOL
REMARK 924 INTRA-LIGAND FREE ENERGY PREDICTED BY IDOCK:   -0.71 KCAL/MOL
REMARK 927      BINDING AFFINITY PREDICTED BY RF-SCORE:    0.00 PKD
ROOT
HETATM    1  O   UNL     1     -10.264  14.871  64.876  1.00  0.00    -0.372 OA 
HETATM    2  C   UNL     1     -11.032  14.036  64.418  1.00  0.00    -0.265 C  
HETATM    3  N   UNL     1     -12.373  14.214  64.251  1.00  0.00    -0.660 NA 
HETATM    4  O   UNL     1     -13.035  13.068  63.775  1.00  0.00    -0.551 OA 
HETATM    5  C   UNL     1     -12.030  12.055  63.633  1.00  0.00    -0.515 C  
HETATM    6  C   UNL     1     -10.664  12.674  63.906  1.00  0.00    -0.431 C  
ENDROOT
BRANCH   6   7
HETATM    7  N   UNL     1      -9.944  11.870  64.914  1.00  0.00    -0.284 NA 
HETATM    8  H   UNL     1      -9.087  12.186  65.368  1.00  0.00     0.000 HD 
BRANCH   7   9
HETATM    9  C   UNL     1     -10.496  10.732  65.167  1.00  0.00    -0.229 C  
BRANCH   9  10
HETATM   10  C   UNL     1      -9.685   9.546  65.496  1.00  0.00    -0.344 A  
HETATM   11  C   UNL     1      -8.664   9.190  64.612  1.00  0.00    -0.199 A  
HETATM   12  C   UNL     1      -8.007   7.969  64.778  1.00  0.00    -0.143 A  
HETATM   13  C   UNL     1      -8.363   7.121  65.832  1.00  0.00    -0.141 A  
HETATM   14  C   UNL     1      -9.336   7.510  66.756  1.00  0.00    -0.209 A  
HETATM   15  C   UNL     1     -10.005   8.726  66.584  1.00  0.00    -0.355 A  
BRANCH  13  16
HETATM   16  C   UNL     1      -7.774   5.770  65.922  1.00  0.00    -0.092 C  
BRANCH  16  17
HETATM   17  N   UNL     1      -8.507   4.717  65.779  1.00  0.00    -0.117 NA 
HETATM   18  H   UNL     1      -9.173   4.614  65.013  1.00  0.00     0.000 HD 
BRANCH  17  19
HETATM   19  C   UNL     1      -8.311   3.678  66.801  1.00  0.00    -0.104 C  
HETATM   20  C   UNL     1      -6.879   3.713  67.308  1.00  0.00    -0.050 C  
HETATM   21  O   UNL     1      -6.913   3.227  68.658  1.00  0.00    -0.048 OA 
HETATM   22  N   UNL     1      -8.226   3.504  69.114  1.00  0.00    -0.060 NA 
HETATM   23  C   UNL     1      -9.032   3.948  68.093  1.00  0.00    -0.121 C  
HETATM   24  O   UNL     1     -10.156   4.407  68.235  1.00  0.00    -0.049 OA 
ENDBRANCH  17  19
ENDBRANCH  16  17
ENDBRANCH  13  16
ENDBRANCH   9  10
ENDBRANCH   7   9
ENDBRANCH   6   7
TORSDOF 6
ENDMDL
MODEL      158
REMARK 921   NORMALIZED FREE ENERGY PREDICTED BY IDOCK:   -4.06 KCAL/MOL
REMARK 922        TOTAL FREE ENERGY PREDICTED BY IDOCK:   -6.03 KCAL/MOL
REMARK 923 INTER-LIGAND FREE ENERGY PREDICTED BY IDOCK:   -5.61 KCAL/MOL
REMARK 924 INTRA-LIGAND FREE ENERGY PREDICTED BY IDOCK:   -0.42 KCAL/MOL
REMARK 927      BINDING AFFINITY PREDICTED BY RF-SCORE:    0.00 PKD
ROOT
HETATM    1  O   UNL     1     -10.304   4.812  72.374  1.00  0.00    -0.191 OA 
HETATM    2  C   UNL     1     -10.745   5.944  72.224  1.00  0.00    -0.234 C  
HETATM    3  N   UNL     1     -12.060   6.254  72.044  1.00  0.00    -0.323 NA 
HETATM    4  O   UNL     1     -12.286   7.625  71.821  1.00  0.00    -0.290 OA 
HETATM    5  C   UNL     1     -10.996   8.252  71.847  1.00  0.00    -0.287 C  
HETATM    6  C   UNL     1      -9.952   7.218  72.251  1.00  0.00    -0.169 C  
ENDROOT
BRANCH   6   7
HETATM    7  N   UNL     1      -8.848   7.214  71.271  1.00  0.00    -0.129 NA 
HETATM    8  H   UNL     1      -7.878   7.401  71.525  1.00  0.00     0.000 HD 
BRANCH   7   9
HETATM    9  C   UNL     1      -9.221   6.954  70.063  1.00  0.00    -0.155 C  
BRANCH   9  10
HETATM   10  C   UNL     1      -9.366   8.025  69.061  1.00  0.00    -0.147 A  
HETATM   11  C   UNL     1      -8.459   9.087  69.107  1.00  0.00    -0.128 A  
HETATM   12  C   UNL     1      -8.681  10.213  68.312  1.00  0.00    -0.120 A  
HETATM   13  C   UNL     1      -9.793  10.264  67.466  1.00  0.00    -0.204 A  
HETATM   14  C   UNL     1     -10.660   9.173  67.369  1.00  0.00    -0.315 A  
HETATM   15  C   UNL     1     -10.449   8.049  68.175  1.00  0.00    -0.222 A  
BRANCH  13  16
HETATM   16  C   UNL     1     -10.108  11.509  66.737  1.00  0.00    -0.215 C  
BRANCH  16  17
HETATM   17  N   UNL     1     -11.237  11.652  66.127  1.00  0.00    -0.289 NA 
HETATM   18  H   UNL     1     -11.648  10.913  65.556  1.00  0.00     0.000 HD 
BRANCH  17  19
HETATM   19  C   UNL     1     -11.886  12.958  66.317  1.00  0.00    -0.416 C  
HETATM   20  C   UNL     1     -11.837  13.353  67.783  1.00  0.00    -0.358 C  
HETATM   21  O   UNL     1     -11.834  14.788  67.818  1.00  0.00    -0.351 OA 
HETATM   22  N   UNL     1     -11.279  15.183  66.576  1.00  0.00    -0.322 NA 
HETATM   23  C   UNL     1     -11.121  14.112  65.729  1.00  0.00    -0.309 C  
HETATM   24  O   UNL     1     -10.522  14.141  64.664  1.00  0.00    -0.434 OA 
ENDBRANCH  17  19
ENDBRANCH  16  17
ENDBRANCH  13  16
ENDBRANCH   9  10
ENDBRANCH   7   9
ENDBRANCH   6   7
TORSDOF 6
ENDMDL
MODEL      159
REMARK 921   NORMALIZED FREE ENERGY PREDICTED BY IDOCK:   -4.03 KCAL/MOL
REMARK 922        TOTAL FREE ENERGY PREDICTED BY IDOCK:   -5.99 KCAL/MOL
REMARK 923 INTER-LIGAND FREE ENERGY PREDICTED BY IDOCK:   -5.50 KCAL/MOL
REMARK 924 INTRA-LIGAND FREE ENERGY PREDICTED BY IDOCK:   -0.49 KCAL/MOL
REMARK 927      BINDING AFFINITY PREDICTED BY RF-SCORE:    0.00 PKD
ROOT
HETATM    1  O   UNL     1     -12.279  14.709  70.072  1.00  0.00    -0.307 OA 
HETATM    2  C   UNL     1     -11.659  15.098  69.092  1.00  0.00    -0.323 C  
HETATM    3  N   UNL     1     -11.509  16.403  68.727  1.00  0.00    -0.293 NA 
HETATM    4  O   UNL     1     -10.812  16.569  67.516  1.00  0.00    -0.313 OA 
HETATM    5  C   UNL     1     -10.495  15.249  67.053  1.00  0.00    -0.292 C  
HETATM    6  C   UNL     1     -10.901  14.240  68.121  1.00  0.00    -0.244 C  
ENDROOT
BRANCH   6   7
HETATM    7  N   UNL     1     -11.747  13.190  67.519  1.00  0.00    -0.351 NA 
HETATM    8  H   UNL     1     -12.405  13.373  66.761  1.00  0.00     0.000 HD 
BRANCH   7   9
HETATM    9  C   UNL     1     -11.580  12.021  68.038  1.00  0.00    -0.342 C  
BRANCH   9  10
HETATM   10  C   UNL     1     -10.960  10.926  67.271  1.00  0.00    -0.355 A  
HETATM   11  C   UNL     1     -10.920   9.659  67.859  1.00  0.00    -0.205 A  
HETATM   12  C   UNL     1     -10.170   8.648  67.258  1.00  0.00    -0.337 A  
HETATM   13  C   UNL     1      -9.480   8.901  66.069  1.00  0.00    -0.320 A  
HETATM   14  C   UNL     1      -9.576  10.147  65.445  1.00  0.00    -0.325 A  
HETATM   15  C   UNL     1     -10.316  11.167  66.052  1.00  0.00    -0.308 A  
BRANCH  13  16
HETATM   16  C   UNL     1      -8.570   7.879  65.512  1.00  0.00    -0.116 C  
BRANCH  16  17
HETATM   17  N   UNL     1      -9.028   6.754  65.074  1.00  0.00    -0.262 NA 
HETATM   18  H   UNL     1      -9.540   6.675  64.195  1.00  0.00     0.000 HD 
BRANCH  17  19
HETATM   19  C   UNL     1      -8.755   5.593  65.935  1.00  0.00    -0.147 C  
HETATM   20  C   UNL     1     -10.044   4.839  66.213  1.00  0.00    -0.264 C  
HETATM   21  O   UNL     1      -9.676   3.470  66.432  1.00  0.00    -0.143 OA 
HETATM   22  N   UNL     1      -8.459   3.300  65.726  1.00  0.00    -0.104 NA 
HETATM   23  C   UNL     1      -7.976   4.499  65.257  1.00  0.00    -0.098 C  
HETATM   24  O   UNL     1      -7.036   4.624  64.486  1.00  0.00    -0.048 OA 
ENDBRANCH  17  19
ENDBRANCH  16  17
ENDBRANCH  13  16
ENDBRANCH   9  10
ENDBRANCH   7   9
ENDBRANCH   6   7
TORSDOF 6
ENDMDL
MODEL      160
REMARK 921   NORMALIZED FREE ENERGY PREDICTED BY IDOCK:   -3.99 KCAL/MOL
REMARK 922        TOTAL FREE ENERGY PREDICTED BY IDOCK:   -5.93 KCAL/MOL
REMARK 923 INTER-LIGAND FREE ENERGY PREDICTED BY IDOCK:   -5.08 KCAL/MOL
REMARK 924 INTRA-LIGAND FREE ENERGY PREDICTED BY IDOCK:   -0.85 KCAL/MOL
REMARK 927      BINDING AFFINITY PREDICTED BY RF-SCORE:    0.00 PKD
ROOT
HETATM    1  O   UNL     1     -11.692  15.654  69.799  1.00  0.00    -0.314 OA 
HETATM    2  C   UNL     1     -10.808  16.240  69.189  1.00  0.00    -0.314 C  
HETATM    3  N   UNL     1     -11.015  17.197  68.240  1.00  0.00    -0.309 NA 
HETATM    4  O   UNL     1      -9.827  17.655  67.640  1.00  0.00    -0.277 OA 
HETATM    5  C   UNL     1      -8.760  16.915  68.249  1.00  0.00    -0.235 C  
HETATM    6  C   UNL     1      -9.329  16.067  69.381  1.00  0.00    -0.218 C  
ENDROOT
BRANCH   6   7
HETATM    7  N   UNL     1      -8.901  14.664  69.217  1.00  0.00    -0.397 NA 
HETATM    8  H   UNL     1      -8.831  14.010  69.997  1.00  0.00     0.000 HD 
BRANCH   7   9
HETATM    9  C   UNL     1      -8.622  14.340  68.000  1.00  0.00    -0.169 C  
BRANCH   9  10
HETATM   10  C   UNL     1      -8.897  12.986  67.488  1.00  0.00    -0.195 A  
HETATM   11  C   UNL     1     -10.076  12.789  66.765  1.00  0.00    -0.239 A  
HETATM   12  C   UNL     1     -10.471  11.491  66.438  1.00  0.00    -0.292 A  
HETATM   13  C   UNL     1      -9.682  10.402  66.819  1.00  0.00    -0.224 A  
HETATM   14  C   UNL     1      -8.468  10.604  67.482  1.00  0.00    -0.121 A  
HETATM   15  C   UNL     1      -8.076  11.902  67.823  1.00  0.00    -0.146 A  
BRANCH  13  16
HETATM   16  C   UNL     1     -10.170   9.025  66.603  1.00  0.00    -0.263 C  
BRANCH  16  17
HETATM   17  N   UNL     1     -11.028   8.493  67.408  1.00  0.00    -0.433 NA 
HETATM   18  H   UNL     1     -11.989   8.827  67.484  1.00  0.00     0.000 HD 
BRANCH  17  19
HETATM   19  C   UNL     1     -10.518   7.369  68.207  1.00  0.00    -0.189 C  
HETATM   20  C   UNL     1      -9.341   6.720  67.498  1.00  0.00    -0.124 C  
HETATM   21  O   UNL     1      -8.510   6.155  68.522  1.00  0.00    -0.113 OA 
HETATM   22  N   UNL     1      -8.779   6.926  69.679  1.00  0.00    -0.140 NA 
HETATM   23  C   UNL     1      -9.833   7.785  69.480  1.00  0.00    -0.179 C  
HETATM   24  O   UNL     1     -10.173   8.670  70.251  1.00  0.00    -0.186 OA 
ENDBRANCH  17  19
ENDBRANCH  16  17
ENDBRANCH  13  16
ENDBRANCH   9  10
ENDBRANCH   7   9
ENDBRANCH   6   7
TORSDOF 6
ENDMDL
MODEL      161
REMARK 921   NORMALIZED FREE ENERGY PREDICTED BY IDOCK:   -3.98 KCAL/MOL
REMARK 922        TOTAL FREE ENERGY PREDICTED BY IDOCK:   -5.91 KCAL/MOL
REMARK 923 INTER-LIGAND FREE ENERGY PREDICTED BY IDOCK:   -5.39 KCAL/MOL
REMARK 924 INTRA-LIGAND FREE ENERGY PREDICTED BY IDOCK:   -0.52 KCAL/MOL
REMARK 927      BINDING AFFINITY PREDICTED BY RF-SCORE:    0.00 PKD
ROOT
HETATM    1  O   UNL     1      -7.107   5.665  65.380  1.00  0.00    -0.063 OA 
HETATM    2  C   UNL     1      -8.178   5.371  65.893  1.00  0.00    -0.119 C  
HETATM    3  N   UNL     1      -9.158   4.636  65.292  1.00  0.00    -0.147 NA 
HETATM    4  O   UNL     1     -10.320   4.507  66.076  1.00  0.00    -0.267 OA 
HETATM    5  C   UNL     1     -10.070   5.236  67.285  1.00  0.00    -0.195 C  
HETATM    6  C   UNL     1      -8.621   5.710  67.287  1.00  0.00    -0.109 C  
ENDROOT
BRANCH   6   7
HETATM    7  N   UNL     1      -8.571   7.161  67.555  1.00  0.00    -0.122 NA 
HETATM    8  H   UNL     1      -7.992   7.571  68.288  1.00  0.00     0.000 HD 
BRANCH   7   9
HETATM    9  C   UNL     1      -9.326   7.863  66.780  1.00  0.00    -0.184 C  
BRANCH   9  10
HETATM   10  C   UNL     1     -10.168   8.949  67.314  1.00  0.00    -0.326 A  
HETATM   11  C   UNL     1     -10.548   9.969  66.438  1.00  0.00    -0.138 A  
HETATM   12  C   UNL     1     -11.171  11.111  66.944  1.00  0.00    -0.258 A  
HETATM   13  C   UNL     1     -11.425  11.220  68.315  1.00  0.00    -0.378 A  
HETATM   14  C   UNL     1     -11.107  10.170  69.180  1.00  0.00    -0.257 A  
HETATM   15  C   UNL     1     -10.471   9.031  68.678  1.00  0.00    -0.229 A  
BRANCH  13  16
HETATM   16  C   UNL     1     -11.948  12.485  68.869  1.00  0.00    -0.236 C  
BRANCH  16  17
HETATM   17  N   UNL     1     -11.192  13.526  68.972  1.00  0.00    -0.261 NA 
HETATM   18  H   UNL     1     -10.197  13.504  68.752  1.00  0.00     0.000 HD 
BRANCH  17  19
HETATM   19  C   UNL     1     -11.873  14.747  69.431  1.00  0.00    -0.323 C  
HETATM   20  C   UNL     1     -12.779  14.425  70.607  1.00  0.00    -0.357 C  
HETATM   21  O   UNL     1     -12.863  15.620  71.396  1.00  0.00    -0.439 OA 
HETATM   22  N   UNL     1     -11.666  16.327  71.119  1.00  0.00    -0.386 NA 
HETATM   23  C   UNL     1     -10.961  15.743  70.094  1.00  0.00    -0.352 C  
HETATM   24  O   UNL     1      -9.826  16.049  69.759  1.00  0.00    -0.246 OA 
ENDBRANCH  17  19
ENDBRANCH  16  17
ENDBRANCH  13  16
ENDBRANCH   9  10
ENDBRANCH   7   9
ENDBRANCH   6   7
TORSDOF 6
ENDMDL
MODEL      162
REMARK 921   NORMALIZED FREE ENERGY PREDICTED BY IDOCK:   -3.98 KCAL/MOL
REMARK 922        TOTAL FREE ENERGY PREDICTED BY IDOCK:   -5.91 KCAL/MOL
REMARK 923 INTER-LIGAND FREE ENERGY PREDICTED BY IDOCK:   -5.41 KCAL/MOL
REMARK 924 INTRA-LIGAND FREE ENERGY PREDICTED BY IDOCK:   -0.50 KCAL/MOL
REMARK 927      BINDING AFFINITY PREDICTED BY RF-SCORE:    0.00 PKD
ROOT
HETATM    1  O   UNL     1      -9.678  14.185  65.557  1.00  0.00    -0.246 OA 
HETATM    2  C   UNL     1     -10.593  13.949  64.779  1.00  0.00    -0.426 C  
HETATM    3  N   UNL     1     -11.592  14.820  64.460  1.00  0.00    -0.385 NA 
HETATM    4  O   UNL     1     -12.559  14.270  63.598  1.00  0.00    -0.831 OA 
HETATM    5  C   UNL     1     -12.151  12.918  63.350  1.00  0.00    -0.530 C  
HETATM    6  C   UNL     1     -10.785  12.689  63.986  1.00  0.00    -0.425 C  
ENDROOT
BRANCH   6   7
HETATM    7  N   UNL     1     -10.828  11.487  64.843  1.00  0.00    -0.298 NA 
HETATM    8  H   UNL     1     -11.411  11.420  65.677  1.00  0.00     0.000 HD 
BRANCH   7   9
HETATM    9  C   UNL     1     -10.063  10.530  64.440  1.00  0.00    -0.325 C  
BRANCH   9  10
HETATM   10  C   UNL     1      -9.237   9.762  65.389  1.00  0.00    -0.282 A  
HETATM   11  C   UNL     1      -8.531   8.662  64.897  1.00  0.00    -0.180 A  
HETATM   12  C   UNL     1      -7.902   7.794  65.791  1.00  0.00    -0.104 A  
HETATM   13  C   UNL     1      -7.967   8.039  67.167  1.00  0.00    -0.113 A  
HETATM   14  C   UNL     1      -8.614   9.178  67.654  1.00  0.00    -0.117 A  
HETATM   15  C   UNL     1      -9.257  10.041  66.761  1.00  0.00    -0.173 A  
BRANCH  13  16
HETATM   16  C   UNL     1      -7.430   7.046  68.118  1.00  0.00    -0.099 C  
BRANCH  16  17
HETATM   17  N   UNL     1      -7.851   5.826  68.112  1.00  0.00    -0.102 NA 
HETATM   18  H   UNL     1      -7.871   5.258  67.265  1.00  0.00     0.000 HD 
BRANCH  17  19
HETATM   19  C   UNL     1      -8.301   5.316  69.416  1.00  0.00    -0.095 C  
HETATM   20  C   UNL     1      -9.618   5.967  69.801  1.00  0.00    -0.153 C  
HETATM   21  O   UNL     1     -10.310   5.025  70.634  1.00  0.00    -0.247 OA 
HETATM   22  N   UNL     1      -9.805   3.758  70.252  1.00  0.00    -0.145 NA 
HETATM   23  C   UNL     1      -8.740   3.877  69.391  1.00  0.00    -0.079 C  
HETATM   24  O   UNL     1      -8.221   2.952  68.784  1.00  0.00    -0.059 OA 
ENDBRANCH  17  19
ENDBRANCH  16  17
ENDBRANCH  13  16
ENDBRANCH   9  10
ENDBRANCH   7   9
ENDBRANCH   6   7
TORSDOF 6
ENDMDL
MODEL      163
REMARK 921   NORMALIZED FREE ENERGY PREDICTED BY IDOCK:   -3.97 KCAL/MOL
REMARK 922        TOTAL FREE ENERGY PREDICTED BY IDOCK:   -5.91 KCAL/MOL
REMARK 923 INTER-LIGAND FREE ENERGY PREDICTED BY IDOCK:   -5.41 KCAL/MOL
REMARK 924 INTRA-LIGAND FREE ENERGY PREDICTED BY IDOCK:   -0.50 KCAL/MOL
REMARK 927      BINDING AFFINITY PREDICTED BY RF-SCORE:    0.00 PKD
ROOT
HETATM    1  O   UNL     1     -10.914  18.201  64.899  1.00  0.00    -0.718 OA 
HETATM    2  C   UNL     1     -10.683  18.490  66.064  1.00  0.00    -0.212 C  
HETATM    3  N   UNL     1     -10.960  19.694  66.642  1.00  0.00    -0.359 NA 
HETATM    4  O   UNL     1     -10.523  19.787  67.977  1.00  0.00    -0.434 OA 
HETATM    5  C   UNL     1      -9.896  18.534  68.282  1.00  0.00    -0.363 C  
HETATM    6  C   UNL     1     -10.096  17.583  67.107  1.00  0.00    -0.321 C  
ENDROOT
BRANCH   6   7
HETATM    7  N   UNL     1      -8.795  17.020  66.694  1.00  0.00    -0.239 NA 
HETATM    8  H   UNL     1      -7.912  17.516  66.814  1.00  0.00     0.000 HD 
BRANCH   7   9
HETATM    9  C   UNL     1      -8.876  15.845  66.168  1.00  0.00    -0.328 C  
BRANCH   9  10
HETATM   10  C   UNL     1      -8.652  14.631  66.974  1.00  0.00    -0.249 A  
HETATM   11  C   UNL     1      -7.343  14.340  67.364  1.00  0.00    -0.152 A  
HETATM   12  C   UNL     1      -7.060  13.105  67.950  1.00  0.00    -0.129 A  
HETATM   13  C   UNL     1      -8.086  12.178  68.158  1.00  0.00    -0.161 A  
HETATM   14  C   UNL     1      -9.406  12.497  67.831  1.00  0.00    -0.200 A  
HETATM   15  C   UNL     1      -9.690  13.728  67.231  1.00  0.00    -0.242 A  
BRANCH  13  16
HETATM   16  C   UNL     1      -7.765  10.820  68.641  1.00  0.00    -0.114 C  
BRANCH  16  17
HETATM   17  N   UNL     1      -7.374  10.624  69.856  1.00  0.00    -0.318 NA 
HETATM   18  H   UNL     1      -6.698  11.233  70.318  1.00  0.00     0.000 HD 
BRANCH  17  19
HETATM   19  C   UNL     1      -7.974   9.459  70.523  1.00  0.00    -0.174 C  
HETATM   20  C   UNL     1      -9.472   9.431  70.270  1.00  0.00    -0.251 C  
HETATM   21  O   UNL     1      -9.868   8.053  70.322  1.00  0.00    -0.182 OA 
HETATM   22  N   UNL     1      -8.703   7.323  69.979  1.00  0.00    -0.140 NA 
HETATM   23  C   UNL     1      -7.599   8.140  69.905  1.00  0.00    -0.089 C  
HETATM   24  O   UNL     1      -6.505   7.805  69.475  1.00  0.00    -0.034 OA 
ENDBRANCH  17  19
ENDBRANCH  16  17
ENDBRANCH  13  16
ENDBRANCH   9  10
ENDBRANCH   7   9
ENDBRANCH   6   7
TORSDOF 6
ENDMDL
MODEL      164
REMARK 921   NORMALIZED FREE ENERGY PREDICTED BY IDOCK:   -3.97 KCAL/MOL
REMARK 922        TOTAL FREE ENERGY PREDICTED BY IDOCK:   -5.90 KCAL/MOL
REMARK 923 INTER-LIGAND FREE ENERGY PREDICTED BY IDOCK:   -5.41 KCAL/MOL
REMARK 924 INTRA-LIGAND FREE ENERGY PREDICTED BY IDOCK:   -0.48 KCAL/MOL
REMARK 927      BINDING AFFINITY PREDICTED BY RF-SCORE:    0.00 PKD
ROOT
HETATM    1  O   UNL     1     -14.257   8.100  72.106  1.00  0.00    -0.372 OA 
HETATM    2  C   UNL     1     -13.159   8.611  71.932  1.00  0.00    -0.373 C  
HETATM    3  N   UNL     1     -12.950   9.891  71.511  1.00  0.00    -0.390 NA 
HETATM    4  O   UNL     1     -11.590  10.202  71.321  1.00  0.00    -0.364 OA 
HETATM    5  C   UNL     1     -10.859   9.010  71.635  1.00  0.00    -0.366 C  
HETATM    6  C   UNL     1     -11.827   7.966  72.183  1.00  0.00    -0.334 C  
ENDROOT
BRANCH   6   7
HETATM    7  N   UNL     1     -11.667   6.700  71.442  1.00  0.00    -0.309 NA 
HETATM    8  H   UNL     1     -11.520   5.801  71.902  1.00  0.00     0.000 HD 
BRANCH   7   9
HETATM    9  C   UNL     1     -11.728   6.832  70.160  1.00  0.00    -0.313 C  
BRANCH   9  10
HETATM   10  C   UNL     1     -10.882   6.020  69.267  1.00  0.00    -0.428 A  
HETATM   11  C   UNL     1     -10.968   6.258  67.893  1.00  0.00    -0.421 A  
HETATM   12  C   UNL     1     -10.341   5.383  67.005  1.00  0.00    -0.299 A  
HETATM   13  C   UNL     1      -9.618   4.290  67.492  1.00  0.00    -0.217 A  
HETATM   14  C   UNL     1      -9.474   4.093  68.868  1.00  0.00    -0.238 A  
HETATM   15  C   UNL     1     -10.114   4.959  69.760  1.00  0.00    -0.319 A  
BRANCH  13  16
HETATM   16  C   UNL     1      -9.079   3.285  66.554  1.00  0.00    -0.162 C  
BRANCH  16  17
HETATM   17  N   UNL     1      -9.047   3.514  65.284  1.00  0.00    -0.138 NA 
HETATM   18  H   UNL     1      -9.814   3.259  64.662  1.00  0.00     0.000 HD 
BRANCH  17  19
HETATM   19  C   UNL     1      -7.822   4.170  64.801  1.00  0.00    -0.085 C  
HETATM   20  C   UNL     1      -6.693   3.158  64.709  1.00  0.00    -0.040 C  
HETATM   21  O   UNL     1      -5.816   3.618  63.672  1.00  0.00    -0.013 OA 
HETATM   22  N   UNL     1      -6.635   4.400  62.820  1.00  0.00    -0.026 NA 
HETATM   23  C   UNL     1      -7.885   4.594  63.359  1.00  0.00    -0.079 C  
HETATM   24  O   UNL     1      -8.834   5.090  62.771  1.00  0.00    -0.129 OA 
ENDBRANCH  17  19
ENDBRANCH  16  17
ENDBRANCH  13  16
ENDBRANCH   9  10
ENDBRANCH   7   9
ENDBRANCH   6   7
TORSDOF 6
ENDMDL
MODEL      165
REMARK 921   NORMALIZED FREE ENERGY PREDICTED BY IDOCK:   -3.96 KCAL/MOL
REMARK 922        TOTAL FREE ENERGY PREDICTED BY IDOCK:   -5.89 KCAL/MOL
REMARK 923 INTER-LIGAND FREE ENERGY PREDICTED BY IDOCK:   -5.40 KCAL/MOL
REMARK 924 INTRA-LIGAND FREE ENERGY PREDICTED BY IDOCK:   -0.49 KCAL/MOL
REMARK 927      BINDING AFFINITY PREDICTED BY RF-SCORE:    0.00 PKD
ROOT
HETATM    1  O   UNL     1      -9.076  16.016  69.178  1.00  0.00    -0.229 OA 
HETATM    2  C   UNL     1      -9.676  15.616  68.190  1.00  0.00    -0.204 C  
HETATM    3  N   UNL     1     -10.057  16.395  67.138  1.00  0.00    -0.265 NA 
HETATM    4  O   UNL     1     -10.800  15.698  66.166  1.00  0.00    -0.314 OA 
HETATM    5  C   UNL     1     -10.919  14.352  66.644  1.00  0.00    -0.318 C  
HETATM    6  C   UNL     1     -10.078  14.198  67.906  1.00  0.00    -0.235 C  
ENDROOT
BRANCH   6   7
HETATM    7  N   UNL     1     -10.899  13.619  68.986  1.00  0.00    -0.347 NA 
HETATM    8  H   UNL     1     -11.079  14.100  69.867  1.00  0.00     0.000 HD 
BRANCH   7   9
HETATM    9  C   UNL     1     -11.369  12.448  68.716  1.00  0.00    -0.293 C  
BRANCH   9  10
HETATM   10  C   UNL     1     -11.153  11.309  69.627  1.00  0.00    -0.273 A  
HETATM   11  C   UNL     1      -9.913  10.667  69.583  1.00  0.00    -0.090 A  
HETATM   12  C   UNL     1      -9.736   9.469  70.278  1.00  0.00    -0.314 A  
HETATM   13  C   UNL     1     -10.790   8.930  71.023  1.00  0.00    -0.326 A  
HETATM   14  C   UNL     1     -12.007   9.609  71.122  1.00  0.00    -0.452 A  
HETATM   15  C   UNL     1     -12.191  10.802  70.416  1.00  0.00    -0.437 A  
BRANCH  13  16
HETATM   16  C   UNL     1     -10.651   7.594  71.636  1.00  0.00    -0.202 C  
BRANCH  16  17
HETATM   17  N   UNL     1      -9.660   6.825  71.331  1.00  0.00    -0.168 NA 
HETATM   18  H   UNL     1      -8.699   7.037  71.599  1.00  0.00     0.000 HD 
BRANCH  17  19
HETATM   19  C   UNL     1     -10.019   5.619  70.569  1.00  0.00    -0.205 C  
HETATM   20  C   UNL     1      -8.976   5.353  69.497  1.00  0.00    -0.105 C  
HETATM   21  O   UNL     1      -8.974   3.936  69.273  1.00  0.00    -0.095 OA 
HETATM   22  N   UNL     1      -9.440   3.373  70.486  1.00  0.00    -0.169 NA 
HETATM   23  C   UNL     1      -9.893   4.341  71.352  1.00  0.00    -0.190 C  
HETATM   24  O   UNL     1     -10.198   4.151  72.520  1.00  0.00    -0.167 OA 
ENDBRANCH  17  19
ENDBRANCH  16  17
ENDBRANCH  13  16
ENDBRANCH   9  10
ENDBRANCH   7   9
ENDBRANCH   6   7
TORSDOF 6
ENDMDL
MODEL      166
REMARK 921   NORMALIZED FREE ENERGY PREDICTED BY IDOCK:   -3.95 KCAL/MOL
REMARK 922        TOTAL FREE ENERGY PREDICTED BY IDOCK:   -5.88 KCAL/MOL
REMARK 923 INTER-LIGAND FREE ENERGY PREDICTED BY IDOCK:   -5.85 KCAL/MOL
REMARK 924 INTRA-LIGAND FREE ENERGY PREDICTED BY IDOCK:   -0.02 KCAL/MOL
REMARK 927      BINDING AFFINITY PREDICTED BY RF-SCORE:    0.00 PKD
ROOT
HETATM    1  O   UNL     1     -11.919  14.538  64.432  1.00  0.00    -0.456 OA 
HETATM    2  C   UNL     1     -11.125  14.981  65.252  1.00  0.00    -0.386 C  
HETATM    3  N   UNL     1     -10.851  16.303  65.440  1.00  0.00    -0.338 NA 
HETATM    4  O   UNL     1      -9.843  16.535  66.395  1.00  0.00    -0.261 OA 
HETATM    5  C   UNL     1      -9.422  15.243  66.854  1.00  0.00    -0.234 C  
HETATM    6  C   UNL     1     -10.329  14.181  66.242  1.00  0.00    -0.292 C  
ENDROOT
BRANCH   6   7
HETATM    7  N   UNL     1      -9.510  13.138  65.595  1.00  0.00    -0.476 NA 
HETATM    8  H   UNL     1      -8.619  13.334  65.139  1.00  0.00     0.000 HD 
BRANCH   7   9
HETATM    9  C   UNL     1     -10.023  11.956  65.656  1.00  0.00    -0.241 C  
BRANCH   9  10
HETATM   10  C   UNL     1     -10.090  11.218  66.931  1.00  0.00    -0.246 A  
HETATM   11  C   UNL     1      -8.956  10.509  67.334  1.00  0.00    -0.139 A  
HETATM   12  C   UNL     1      -9.041   9.641  68.423  1.00  0.00    -0.123 A  
HETATM   13  C   UNL     1     -10.251   9.498  69.111  1.00  0.00    -0.209 A  
HETATM   14  C   UNL     1     -11.365  10.259  68.750  1.00  0.00    -0.226 A  
HETATM   15  C   UNL     1     -11.287  11.120  67.651  1.00  0.00    -0.356 A  
BRANCH  13  16
HETATM   16  C   UNL     1     -10.381   8.474  70.167  1.00  0.00    -0.207 C  
BRANCH  16  17
HETATM   17  N   UNL     1     -11.373   7.647  70.168  1.00  0.00    -0.445 NA 
HETATM   18  H   UNL     1     -12.260   7.855  70.627  1.00  0.00     0.000 HD 
BRANCH  17  19
HETATM   19  C   UNL     1     -11.130   6.382  69.459  1.00  0.00    -0.396 C  
HETATM   20  C   UNL     1     -10.990   6.641  67.968  1.00  0.00    -0.249 C  
HETATM   21  O   UNL     1     -10.136   5.610  67.453  1.00  0.00    -0.142 OA 
HETATM   22  N   UNL     1      -9.343   5.206  68.556  1.00  0.00    -0.120 NA 
HETATM   23  C   UNL     1      -9.777   5.781  69.727  1.00  0.00    -0.162 C  
HETATM   24  O   UNL     1      -9.184   5.733  70.795  1.00  0.00    -0.149 OA 
ENDBRANCH  17  19
ENDBRANCH  16  17
ENDBRANCH  13  16
ENDBRANCH   9  10
ENDBRANCH   7   9
ENDBRANCH   6   7
TORSDOF 6
ENDMDL
MODEL      167
REMARK 921   NORMALIZED FREE ENERGY PREDICTED BY IDOCK:   -3.95 KCAL/MOL
REMARK 922        TOTAL FREE ENERGY PREDICTED BY IDOCK:   -5.88 KCAL/MOL
REMARK 923 INTER-LIGAND FREE ENERGY PREDICTED BY IDOCK:   -5.23 KCAL/MOL
REMARK 924 INTRA-LIGAND FREE ENERGY PREDICTED BY IDOCK:   -0.65 KCAL/MOL
REMARK 927      BINDING AFFINITY PREDICTED BY RF-SCORE:    0.00 PKD
ROOT
HETATM    1  O   UNL     1     -11.616  13.762  65.997  1.00  0.00    -0.326 OA 
HETATM    2  C   UNL     1     -10.982  12.722  65.887  1.00  0.00    -0.274 C  
HETATM    3  N   UNL     1     -11.090  11.846  64.848  1.00  0.00    -0.310 NA 
HETATM    4  O   UNL     1     -10.301  10.691  65.007  1.00  0.00    -0.310 OA 
HETATM    5  C   UNL     1      -9.634  10.832  66.268  1.00  0.00    -0.195 C  
HETATM    6  C   UNL     1      -9.931  12.217  66.833  1.00  0.00    -0.204 C  
ENDROOT
BRANCH   6   7
HETATM    7  N   UNL     1     -10.431  12.095  68.216  1.00  0.00    -0.207 NA 
HETATM    8  H   UNL     1     -10.284  12.813  68.926  1.00  0.00     0.000 HD 
BRANCH   7   9
HETATM    9  C   UNL     1     -11.071  10.999  68.447  1.00  0.00    -0.251 C  
BRANCH   9  10
HETATM   10  C   UNL     1     -10.688  10.110  69.559  1.00  0.00    -0.277 A  
HETATM   11  C   UNL     1     -11.669   9.779  70.496  1.00  0.00    -0.343 A  
HETATM   12  C   UNL     1     -11.304   9.110  71.665  1.00  0.00    -0.446 A  
HETATM   13  C   UNL     1      -9.967   8.763  71.884  1.00  0.00    -0.401 A  
HETATM   14  C   UNL     1      -8.997   9.034  70.915  1.00  0.00    -0.300 A  
HETATM   15  C   UNL     1      -9.358   9.716  69.749  1.00  0.00    -0.238 A  
BRANCH  13  16
HETATM   16  C   UNL     1      -9.556   8.189  73.181  1.00  0.00    -0.237 C  
BRANCH  16  17
HETATM   17  N   UNL     1      -8.391   8.440  73.678  1.00  0.00    -0.365 NA 
HETATM   18  H   UNL     1      -7.970   9.369  73.644  1.00  0.00     0.000 HD 
BRANCH  17  19
HETATM   19  C   UNL     1      -7.717   7.289  74.297  1.00  0.00    -0.129 C  
HETATM   20  C   UNL     1      -8.681   6.120  74.405  1.00  0.00    -0.128 C  
HETATM   21  O   UNL     1      -7.884   4.928  74.354  1.00  0.00    -0.095 OA 
HETATM   22  N   UNL     1      -6.715   5.299  73.644  1.00  0.00    -0.073 NA 
HETATM   23  C   UNL     1      -6.666   6.656  73.426  1.00  0.00    -0.076 C  
HETATM   24  O   UNL     1      -5.857   7.223  72.707  1.00  0.00    -0.041 OA 
ENDBRANCH  17  19
ENDBRANCH  16  17
ENDBRANCH  13  16
ENDBRANCH   9  10
ENDBRANCH   7   9
ENDBRANCH   6   7
TORSDOF 6
ENDMDL
MODEL      168
REMARK 921   NORMALIZED FREE ENERGY PREDICTED BY IDOCK:   -3.93 KCAL/MOL
REMARK 922        TOTAL FREE ENERGY PREDICTED BY IDOCK:   -5.85 KCAL/MOL
REMARK 923 INTER-LIGAND FREE ENERGY PREDICTED BY IDOCK:   -5.17 KCAL/MOL
REMARK 924 INTRA-LIGAND FREE ENERGY PREDICTED BY IDOCK:   -0.67 KCAL/MOL
REMARK 927      BINDING AFFINITY PREDICTED BY RF-SCORE:    0.00 PKD
ROOT
HETATM    1  O   UNL     1     -10.494  12.477  63.794  1.00  0.00    -0.416 OA 
HETATM    2  C   UNL     1     -10.865  13.374  64.538  1.00  0.00    -0.406 C  
HETATM    3  N   UNL     1     -10.200  14.547  64.742  1.00  0.00    -0.325 NA 
HETATM    4  O   UNL     1     -10.807  15.373  65.706  1.00  0.00    -0.329 OA 
HETATM    5  C   UNL     1     -11.960  14.661  66.175  1.00  0.00    -0.241 C  
HETATM    6  C   UNL     1     -12.134  13.398  65.340  1.00  0.00    -0.421 C  
ENDROOT
BRANCH   6   7
HETATM    7  N   UNL     1     -12.259  12.226  66.229  1.00  0.00    -0.557 NA 
HETATM    8  H   UNL     1     -12.843  11.420  66.007  1.00  0.00     0.000 HD 
BRANCH   7   9
HETATM    9  C   UNL     1     -11.563  12.313  67.312  1.00  0.00    -0.357 C  
BRANCH   9  10
HETATM   10  C   UNL     1     -10.667  11.222  67.733  1.00  0.00    -0.265 A  
HETATM   11  C   UNL     1      -9.834  10.652  66.767  1.00  0.00    -0.240 A  
HETATM   12  C   UNL     1      -9.122   9.491  67.073  1.00  0.00    -0.154 A  
HETATM   13  C   UNL     1      -9.232   8.918  68.344  1.00  0.00    -0.140 A  
HETATM   14  C   UNL     1     -10.010   9.527  69.331  1.00  0.00    -0.199 A  
HETATM   15  C   UNL     1     -10.735  10.682  69.023  1.00  0.00    -0.257 A  
BRANCH  13  16
HETATM   16  C   UNL     1      -8.596   7.614  68.622  1.00  0.00    -0.129 C  
BRANCH  16  17
HETATM   17  N   UNL     1      -8.174   7.322  69.806  1.00  0.00    -0.128 NA 
HETATM   18  H   UNL     1      -7.445   7.859  70.276  1.00  0.00     0.000 HD 
BRANCH  17  19
HETATM   19  C   UNL     1      -8.822   6.157  70.428  1.00  0.00    -0.149 C  
HETATM   20  C   UNL     1     -10.135   5.857  69.726  1.00  0.00    -0.197 C  
HETATM   21  O   UNL     1     -10.361   4.447  69.870  1.00  0.00    -0.048 OA 
HETATM   22  N   UNL     1      -9.071   3.884  70.031  1.00  0.00    -0.105 NA 
HETATM   23  C   UNL     1      -8.110   4.856  70.178  1.00  0.00    -0.073 C  
HETATM   24  O   UNL     1      -6.904   4.657  70.173  1.00  0.00    -0.036 OA 
ENDBRANCH  17  19
ENDBRANCH  16  17
ENDBRANCH  13  16
ENDBRANCH   9  10
ENDBRANCH   7   9
ENDBRANCH   6   7
TORSDOF 6
ENDMDL
MODEL      169
REMARK 921   NORMALIZED FREE ENERGY PREDICTED BY IDOCK:   -3.89 KCAL/MOL
REMARK 922        TOTAL FREE ENERGY PREDICTED BY IDOCK:   -5.80 KCAL/MOL
REMARK 923 INTER-LIGAND FREE ENERGY PREDICTED BY IDOCK:   -5.14 KCAL/MOL
REMARK 924 INTRA-LIGAND FREE ENERGY PREDICTED BY IDOCK:   -0.66 KCAL/MOL
REMARK 927      BINDING AFFINITY PREDICTED BY RF-SCORE:    0.00 PKD
ROOT
HETATM    1  O   UNL     1      -7.656   6.624  67.323  1.00  0.00    -0.096 OA 
HETATM    2  C   UNL     1      -8.094   5.511  67.577  1.00  0.00    -0.101 C  
HETATM    3  N   UNL     1      -7.768   4.368  66.908  1.00  0.00    -0.092 NA 
HETATM    4  O   UNL     1      -8.473   3.236  67.357  1.00  0.00    -0.089 OA 
HETATM    5  C   UNL     1      -9.342   3.694  68.402  1.00  0.00    -0.165 C  
HETATM    6  C   UNL     1      -9.036   5.159  68.693  1.00  0.00    -0.105 C  
ENDROOT
BRANCH   6   7
HETATM    7  N   UNL     1     -10.282   5.947  68.646  1.00  0.00    -0.174 NA 
HETATM    8  H   UNL     1     -11.031   5.765  67.978  1.00  0.00     0.000 HD 
BRANCH   7   9
HETATM    9  C   UNL     1     -10.340   6.889  69.527  1.00  0.00    -0.207 C  
BRANCH   9  10
HETATM   10  C   UNL     1     -10.605   8.285  69.135  1.00  0.00    -0.179 A  
HETATM   11  C   UNL     1     -10.586   8.595  67.773  1.00  0.00    -0.249 A  
HETATM   12  C   UNL     1     -10.632   9.931  67.373  1.00  0.00    -0.338 A  
HETATM   13  C   UNL     1     -10.713  10.946  68.332  1.00  0.00    -0.240 A  
HETATM   14  C   UNL     1     -10.803  10.632  69.690  1.00  0.00    -0.318 A  
HETATM   15  C   UNL     1     -10.743   9.295  70.095  1.00  0.00    -0.269 A  
BRANCH  13  16
HETATM   16  C   UNL     1     -10.614  12.360  67.919  1.00  0.00    -0.213 C  
BRANCH  16  17
HETATM   17  N   UNL     1     -11.303  12.810  66.923  1.00  0.00    -0.303 NA 
HETATM   18  H   UNL     1     -11.488  12.252  66.089  1.00  0.00     0.000 HD 
BRANCH  17  19
HETATM   19  C   UNL     1     -11.801  14.184  67.081  1.00  0.00    -0.423 C  
HETATM   20  C   UNL     1     -11.819  14.564  68.552  1.00  0.00    -0.320 C  
HETATM   21  O   UNL     1     -11.644  15.987  68.607  1.00  0.00    -0.386 OA 
HETATM   22  N   UNL     1     -10.950  16.318  67.417  1.00  0.00    -0.236 NA 
HETATM   23  C   UNL     1     -10.857  15.238  66.570  1.00  0.00    -0.311 C  
HETATM   24  O   UNL     1     -10.178  15.199  65.555  1.00  0.00    -0.322 OA 
ENDBRANCH  17  19
ENDBRANCH  16  17
ENDBRANCH  13  16
ENDBRANCH   9  10
ENDBRANCH   7   9
ENDBRANCH   6   7
TORSDOF 6
ENDMDL
MODEL      170
REMARK 921   NORMALIZED FREE ENERGY PREDICTED BY IDOCK:   -3.88 KCAL/MOL
REMARK 922        TOTAL FREE ENERGY PREDICTED BY IDOCK:   -5.79 KCAL/MOL
REMARK 923 INTER-LIGAND FREE ENERGY PREDICTED BY IDOCK:   -5.25 KCAL/MOL
REMARK 924 INTRA-LIGAND FREE ENERGY PREDICTED BY IDOCK:   -0.54 KCAL/MOL
REMARK 927      BINDING AFFINITY PREDICTED BY RF-SCORE:    0.00 PKD
ROOT
HETATM    1  O   UNL     1      -9.980  17.994  65.683  1.00  0.00    -0.519 OA 
HETATM    2  C   UNL     1      -9.714  17.297  66.652  1.00  0.00    -0.288 C  
HETATM    3  N   UNL     1      -8.907  17.669  67.686  1.00  0.00    -0.234 NA 
HETATM    4  O   UNL     1      -8.708  16.650  68.636  1.00  0.00    -0.230 OA 
HETATM    5  C   UNL     1      -9.445  15.514  68.163  1.00  0.00    -0.198 C  
HETATM    6  C   UNL     1     -10.246  15.921  66.933  1.00  0.00    -0.277 C  
ENDROOT
BRANCH   6   7
HETATM    7  N   UNL     1      -9.978  14.979  65.828  1.00  0.00    -0.323 NA 
HETATM    8  H   UNL     1      -9.127  15.008  65.267  1.00  0.00     0.000 HD 
BRANCH   7   9
HETATM    9  C   UNL     1     -10.917  14.116  65.637  1.00  0.00    -0.308 C  
BRANCH   9  10
HETATM   10  C   UNL     1     -10.642  12.668  65.667  1.00  0.00    -0.299 A  
HETATM   11  C   UNL     1     -10.322  12.091  66.898  1.00  0.00    -0.238 A  
HETATM   12  C   UNL     1      -9.860  10.775  66.940  1.00  0.00    -0.224 A  
HETATM   13  C   UNL     1      -9.737  10.039  65.757  1.00  0.00    -0.321 A  
HETATM   14  C   UNL     1     -10.123  10.594  64.534  1.00  0.00    -0.421 A  
HETATM   15  C   UNL     1     -10.573  11.917  64.488  1.00  0.00    -0.358 A  
BRANCH  13  16
HETATM   16  C   UNL     1      -9.113   8.701  65.782  1.00  0.00    -0.187 C  
BRANCH  16  17
HETATM   17  N   UNL     1      -8.231   8.364  64.901  1.00  0.00    -0.149 NA 
HETATM   18  H   UNL     1      -7.849   9.028  64.228  1.00  0.00     0.000 HD 
BRANCH  17  19
HETATM   19  C   UNL     1      -7.819   6.953  64.941  1.00  0.00    -0.122 C  
HETATM   20  C   UNL     1      -8.815   6.144  65.754  1.00  0.00    -0.124 C  
HETATM   21  O   UNL     1      -8.780   4.809  65.230  1.00  0.00    -0.131 OA 
HETATM   22  N   UNL     1      -8.348   4.953  63.888  1.00  0.00    -0.122 NA 
HETATM   23  C   UNL     1      -7.948   6.242  63.622  1.00  0.00    -0.090 C  
HETATM   24  O   UNL     1      -7.684   6.679  62.512  1.00  0.00    -0.084 OA 
ENDBRANCH  17  19
ENDBRANCH  16  17
ENDBRANCH  13  16
ENDBRANCH   9  10
ENDBRANCH   7   9
ENDBRANCH   6   7
TORSDOF 6
ENDMDL
MODEL      171
REMARK 921   NORMALIZED FREE ENERGY PREDICTED BY IDOCK:   -3.87 KCAL/MOL
REMARK 922        TOTAL FREE ENERGY PREDICTED BY IDOCK:   -5.77 KCAL/MOL
REMARK 923 INTER-LIGAND FREE ENERGY PREDICTED BY IDOCK:   -5.15 KCAL/MOL
REMARK 924 INTRA-LIGAND FREE ENERGY PREDICTED BY IDOCK:   -0.63 KCAL/MOL
REMARK 927      BINDING AFFINITY PREDICTED BY RF-SCORE:    0.00 PKD
ROOT
HETATM    1  O   UNL     1     -10.161  16.456  65.457  1.00  0.00    -0.496 OA 
HETATM    2  C   UNL     1     -10.252  17.654  65.687  1.00  0.00    -0.045 C  
HETATM    3  N   UNL     1     -11.018  18.532  64.979  1.00  0.00    -0.372 NA 
HETATM    4  O   UNL     1     -10.882  19.865  65.408  1.00  0.00    -0.398 OA 
HETATM    5  C   UNL     1      -9.932  19.845  66.482  1.00  0.00    -0.474 C  
HETATM    6  C   UNL     1      -9.586  18.397  66.809  1.00  0.00    -0.307 C  
ENDROOT
BRANCH   6   7
HETATM    7  N   UNL     1      -8.121  18.221  66.808  1.00  0.00    -0.242 NA 
HETATM    8  H   UNL     1      -7.529  18.493  66.023  1.00  0.00     0.000 HD 
BRANCH   7   9
HETATM    9  C   UNL     1      -7.656  17.694  67.890  1.00  0.00    -0.210 C  
BRANCH   9  10
HETATM   10  C   UNL     1      -7.766  16.245  68.141  1.00  0.00    -0.159 A  
HETATM   11  C   UNL     1      -6.829  15.405  67.534  1.00  0.00    -0.223 A  
HETATM   12  C   UNL     1      -7.015  14.023  67.581  1.00  0.00    -0.198 A  
HETATM   13  C   UNL     1      -8.123  13.488  68.246  1.00  0.00    -0.155 A  
HETATM   14  C   UNL     1      -9.022  14.326  68.912  1.00  0.00    -0.025 A  
HETATM   15  C   UNL     1      -8.845  15.712  68.855  1.00  0.00    -0.222 A  
BRANCH  13  16
HETATM   16  C   UNL     1      -8.400  12.040  68.172  1.00  0.00    -0.165 C  
BRANCH  16  17
HETATM   17  N   UNL     1      -8.604  11.349  69.243  1.00  0.00    -0.360 NA 
HETATM   18  H   UNL     1      -8.100  11.523  70.112  1.00  0.00     0.000 HD 
BRANCH  17  19
HETATM   19  C   UNL     1      -9.618  10.291  69.117  1.00  0.00    -0.218 C  
HETATM   20  C   UNL     1     -10.237  10.328  67.730  1.00  0.00    -0.187 C  
HETATM   21  O   UNL     1     -10.654   8.987  67.434  1.00  0.00    -0.275 OA 
HETATM   22  N   UNL     1      -9.810   8.160  68.216  1.00  0.00    -0.166 NA 
HETATM   23  C   UNL     1      -9.048   8.899  69.091  1.00  0.00    -0.141 C  
HETATM   24  O   UNL     1      -8.128   8.459  69.765  1.00  0.00    -0.111 OA 
ENDBRANCH  17  19
ENDBRANCH  16  17
ENDBRANCH  13  16
ENDBRANCH   9  10
ENDBRANCH   7   9
ENDBRANCH   6   7
TORSDOF 6
ENDMDL
MODEL      172
REMARK 921   NORMALIZED FREE ENERGY PREDICTED BY IDOCK:   -3.85 KCAL/MOL
REMARK 922        TOTAL FREE ENERGY PREDICTED BY IDOCK:   -5.75 KCAL/MOL
REMARK 923 INTER-LIGAND FREE ENERGY PREDICTED BY IDOCK:   -5.61 KCAL/MOL
REMARK 924 INTRA-LIGAND FREE ENERGY PREDICTED BY IDOCK:   -0.14 KCAL/MOL
REMARK 927      BINDING AFFINITY PREDICTED BY RF-SCORE:    0.00 PKD
ROOT
HETATM    1  O   UNL     1     -10.853  14.801  65.107  1.00  0.00    -0.350 OA 
HETATM    2  C   UNL     1     -11.121  14.781  66.300  1.00  0.00    -0.341 C  
HETATM    3  N   UNL     1     -10.434  15.452  67.268  1.00  0.00    -0.276 NA 
HETATM    4  O   UNL     1     -10.907  15.196  68.569  1.00  0.00    -0.234 OA 
HETATM    5  C   UNL     1     -11.989  14.266  68.425  1.00  0.00    -0.309 C  
HETATM    6  C   UNL     1     -12.273  14.062  66.941  1.00  0.00    -0.380 C  
ENDROOT
BRANCH   6   7
HETATM    7  N   UNL     1     -12.280  12.620  66.628  1.00  0.00    -0.492 NA 
HETATM    8  H   UNL     1     -13.102  12.133  66.270  1.00  0.00     0.000 HD 
BRANCH   7   9
HETATM    9  C   UNL     1     -11.154  12.030  66.848  1.00  0.00    -0.302 C  
BRANCH   9  10
HETATM   10  C   UNL     1     -11.083  10.789  67.639  1.00  0.00    -0.384 A  
HETATM   11  C   UNL     1     -11.468  10.848  68.981  1.00  0.00    -0.371 A  
HETATM   12  C   UNL     1     -11.229   9.753  69.812  1.00  0.00    -0.242 A  
HETATM   13  C   UNL     1     -10.622   8.603  69.297  1.00  0.00    -0.204 A  
HETATM   14  C   UNL     1     -10.301   8.519  67.940  1.00  0.00    -0.281 A  
HETATM   15  C   UNL     1     -10.527   9.619  67.108  1.00  0.00    -0.317 A  
BRANCH  13  16
HETATM   16  C   UNL     1     -10.236   7.504  70.204  1.00  0.00    -0.206 C  
BRANCH  16  17
HETATM   17  N   UNL     1      -9.121   6.872  70.042  1.00  0.00    -0.145 NA 
HETATM   18  H   UNL     1      -8.745   6.653  69.120  1.00  0.00     0.000 HD 
BRANCH  17  19
HETATM   19  C   UNL     1      -8.435   6.491  71.286  1.00  0.00    -0.126 C  
HETATM   20  C   UNL     1      -7.109   5.824  70.964  1.00  0.00    -0.068 C  
HETATM   21  O   UNL     1      -6.240   6.086  72.075  1.00  0.00    -0.039 OA 
HETATM   22  N   UNL     1      -6.732   7.283  72.650  1.00  0.00    -0.062 NA 
HETATM   23  C   UNL     1      -7.930   7.659  72.088  1.00  0.00    -0.105 C  
HETATM   24  O   UNL     1      -8.492   8.726  72.281  1.00  0.00    -0.375 OA 
ENDBRANCH  17  19
ENDBRANCH  16  17
ENDBRANCH  13  16
ENDBRANCH   9  10
ENDBRANCH   7   9
ENDBRANCH   6   7
TORSDOF 6
ENDMDL
MODEL      173
REMARK 921   NORMALIZED FREE ENERGY PREDICTED BY IDOCK:   -3.83 KCAL/MOL
REMARK 922        TOTAL FREE ENERGY PREDICTED BY IDOCK:   -5.72 KCAL/MOL
REMARK 923 INTER-LIGAND FREE ENERGY PREDICTED BY IDOCK:   -4.93 KCAL/MOL
REMARK 924 INTRA-LIGAND FREE ENERGY PREDICTED BY IDOCK:   -0.78 KCAL/MOL
REMARK 927      BINDING AFFINITY PREDICTED BY RF-SCORE:    0.00 PKD
ROOT
HETATM    1  O   UNL     1     -11.894  10.775  68.322  1.00  0.00    -0.504 OA 
HETATM    2  C   UNL     1     -12.228  11.247  69.400  1.00  0.00    -0.247 C  
HETATM    3  N   UNL     1     -11.843  12.466  69.874  1.00  0.00    -0.328 NA 
HETATM    4  O   UNL     1     -12.309  12.734  71.175  1.00  0.00    -0.314 OA 
HETATM    5  C   UNL     1     -13.052  11.576  71.580  1.00  0.00    -0.326 C  
HETATM    6  C   UNL     1     -13.156  10.617  70.399  1.00  0.00    -0.038 C  
ENDROOT
BRANCH   6   7
HETATM    7  N   UNL     1     -12.710   9.271  70.808  1.00  0.00    -0.510 NA 
HETATM    8  H   UNL     1     -13.142   8.414  70.464  1.00  0.00     0.000 HD 
BRANCH   7   9
HETATM    9  C   UNL     1     -11.726   9.276  71.642  1.00  0.00    -0.392 C  
BRANCH   9  10
HETATM   10  C   UNL     1     -10.944   8.055  71.908  1.00  0.00    -0.321 A  
HETATM   11  C   UNL     1      -9.632   8.208  72.363  1.00  0.00    -0.335 A  
HETATM   12  C   UNL     1      -8.796   7.093  72.435  1.00  0.00    -0.144 A  
HETATM   13  C   UNL     1      -9.278   5.833  72.067  1.00  0.00    -0.156 A  
HETATM   14  C   UNL     1     -10.610   5.670  71.679  1.00  0.00    -0.301 A  
HETATM   15  C   UNL     1     -11.446   6.787  71.593  1.00  0.00    -0.322 A  
BRANCH  13  16
HETATM   16  C   UNL     1      -8.357   4.681  72.002  1.00  0.00    -0.117 C  
BRANCH  16  17
HETATM   17  N   UNL     1      -7.293   4.724  71.271  1.00  0.00    -0.065 NA 
HETATM   18  H   UNL     1      -6.414   5.117  71.607  1.00  0.00     0.000 HD 
BRANCH  17  19
HETATM   19  C   UNL     1      -7.444   4.164  69.919  1.00  0.00    -0.049 C  
HETATM   20  C   UNL     1      -8.511   3.083  69.921  1.00  0.00    -0.053 C  
HETATM   21  O   UNL     1      -9.075   3.065  68.603  1.00  0.00    -0.123 OA 
HETATM   22  N   UNL     1      -8.866   4.371  68.097  1.00  0.00    -0.105 NA 
HETATM   23  C   UNL     1      -8.064   5.114  68.931  1.00  0.00    -0.085 C  
HETATM   24  O   UNL     1      -7.854   6.313  68.820  1.00  0.00    -0.099 OA 
ENDBRANCH  17  19
ENDBRANCH  16  17
ENDBRANCH  13  16
ENDBRANCH   9  10
ENDBRANCH   7   9
ENDBRANCH   6   7
TORSDOF 6
ENDMDL
MODEL      174
REMARK 921   NORMALIZED FREE ENERGY PREDICTED BY IDOCK:   -3.82 KCAL/MOL
REMARK 922        TOTAL FREE ENERGY PREDICTED BY IDOCK:   -5.70 KCAL/MOL
REMARK 923 INTER-LIGAND FREE ENERGY PREDICTED BY IDOCK:   -5.19 KCAL/MOL
REMARK 924 INTRA-LIGAND FREE ENERGY PREDICTED BY IDOCK:   -0.50 KCAL/MOL
REMARK 927      BINDING AFFINITY PREDICTED BY RF-SCORE:    0.00 PKD
ROOT
HETATM    1  O   UNL     1     -10.532  11.916  66.159  1.00  0.00    -0.224 OA 
HETATM    2  C   UNL     1      -9.959  11.301  65.270  1.00  0.00    -0.253 C  
HETATM    3  N   UNL     1     -10.378  11.227  63.975  1.00  0.00    -0.339 NA 
HETATM    4  O   UNL     1      -9.576  10.392  63.175  1.00  0.00    -0.306 OA 
HETATM    5  C   UNL     1      -8.555   9.872  64.037  1.00  0.00    -0.190 C  
HETATM    6  C   UNL     1      -8.668  10.546  65.400  1.00  0.00    -0.183 C  
ENDROOT
BRANCH   6   7
HETATM    7  N   UNL     1      -8.720   9.522  66.461  1.00  0.00    -0.133 NA 
HETATM    8  H   UNL     1      -8.022   9.452  67.201  1.00  0.00     0.000 HD 
BRANCH   7   9
HETATM    9  C   UNL     1      -9.728   8.722  66.367  1.00  0.00    -0.265 C  
BRANCH   9  10
HETATM   10  C   UNL     1     -10.289   8.058  67.557  1.00  0.00    -0.330 A  
HETATM   11  C   UNL     1     -10.328   8.783  68.751  1.00  0.00    -0.234 A  
HETATM   12  C   UNL     1     -10.662   8.132  69.939  1.00  0.00    -0.241 A  
HETATM   13  C   UNL     1     -10.969   6.768  69.927  1.00  0.00    -0.340 A  
HETATM   14  C   UNL     1     -10.997   6.059  68.723  1.00  0.00    -0.384 A  
HETATM   15  C   UNL     1     -10.650   6.706  67.533  1.00  0.00    -0.347 A  
BRANCH  13  16
HETATM   16  C   UNL     1     -11.179   6.048  71.199  1.00  0.00    -0.261 C  
BRANCH  16  17
HETATM   17  N   UNL     1     -10.707   6.511  72.308  1.00  0.00    -0.216 NA 
HETATM   18  H   UNL     1     -10.728   7.505  72.539  1.00  0.00     0.000 HD 
BRANCH  17  19
HETATM   19  C   UNL     1     -10.137   5.502  73.212  1.00  0.00    -0.184 C  
HETATM   20  C   UNL     1     -11.164   4.418  73.494  1.00  0.00    -0.288 C  
HETATM   21  O   UNL     1     -10.427   3.218  73.765  1.00  0.00    -0.141 OA 
HETATM   22  N   UNL     1      -9.194   3.384  73.087  1.00  0.00    -0.097 NA 
HETATM   23  C   UNL     1      -9.061   4.658  72.586  1.00  0.00    -0.126 C  
HETATM   24  O   UNL     1      -8.176   5.025  71.828  1.00  0.00    -0.111 OA 
ENDBRANCH  17  19
ENDBRANCH  16  17
ENDBRANCH  13  16
ENDBRANCH   9  10
ENDBRANCH   7   9
ENDBRANCH   6   7
TORSDOF 6
ENDMDL
MODEL      175
REMARK 921   NORMALIZED FREE ENERGY PREDICTED BY IDOCK:   -3.81 KCAL/MOL
REMARK 922        TOTAL FREE ENERGY PREDICTED BY IDOCK:   -5.69 KCAL/MOL
REMARK 923 INTER-LIGAND FREE ENERGY PREDICTED BY IDOCK:   -5.19 KCAL/MOL
REMARK 924 INTRA-LIGAND FREE ENERGY PREDICTED BY IDOCK:   -0.50 KCAL/MOL
REMARK 927      BINDING AFFINITY PREDICTED BY RF-SCORE:    0.00 PKD
ROOT
HETATM    1  O   UNL     1     -11.635  13.998  69.483  1.00  0.00    -0.263 OA 
HETATM    2  C   UNL     1     -11.747  13.754  68.289  1.00  0.00    -0.359 C  
HETATM    3  N   UNL     1     -12.181  14.640  67.347  1.00  0.00    -0.190 NA 
HETATM    4  O   UNL     1     -12.287  14.080  66.060  1.00  0.00    -0.445 OA 
HETATM    5  C   UNL     1     -11.899  12.706  66.189  1.00  0.00    -0.418 C  
HETATM    6  C   UNL     1     -11.394  12.465  67.607  1.00  0.00    -0.312 C  
ENDROOT
BRANCH   6   7
HETATM    7  N   UNL     1     -12.095  11.307  68.196  1.00  0.00    -0.667 NA 
HETATM    8  H   UNL     1     -13.060  11.067  67.969  1.00  0.00     0.000 HD 
BRANCH   7   9
HETATM    9  C   UNL     1     -11.377  10.625  69.023  1.00  0.00    -0.277 C  
BRANCH   9  10
HETATM   10  C   UNL     1     -10.830   9.308  68.653  1.00  0.00    -0.120 A  
HETATM   11  C   UNL     1     -10.616   9.048  67.298  1.00  0.00    -0.301 A  
HETATM   12  C   UNL     1     -10.292   7.753  66.890  1.00  0.00    -0.396 A  
HETATM   13  C   UNL     1     -10.169   6.731  67.837  1.00  0.00    -0.207 A  
HETATM   14  C   UNL     1     -10.315   7.007  69.199  1.00  0.00    -0.209 A  
HETATM   15  C   UNL     1     -10.653   8.300  69.609  1.00  0.00    -0.222 A  
BRANCH  13  16
HETATM   16  C   UNL     1      -9.972   5.336  67.396  1.00  0.00    -0.174 C  
BRANCH  16  17
HETATM   17  N   UNL     1      -9.502   4.446  68.204  1.00  0.00    -0.146 NA 
HETATM   18  H   UNL     1      -9.713   4.446  69.202  1.00  0.00     0.000 HD 
BRANCH  17  19
HETATM   19  C   UNL     1      -8.639   3.432  67.579  1.00  0.00    -0.103 C  
HETATM   20  C   UNL     1      -9.058   3.212  66.135  1.00  0.00    -0.149 C  
HETATM   21  O   UNL     1      -7.881   2.798  65.427  1.00  0.00    -0.079 OA 
HETATM   22  N   UNL     1      -6.800   3.340  66.165  1.00  0.00    -0.051 NA 
HETATM   23  C   UNL     1      -7.224   3.888  67.353  1.00  0.00    -0.067 C  
HETATM   24  O   UNL     1      -6.531   4.560  68.103  1.00  0.00    -0.036 OA 
ENDBRANCH  17  19
ENDBRANCH  16  17
ENDBRANCH  13  16
ENDBRANCH   9  10
ENDBRANCH   7   9
ENDBRANCH   6   7
TORSDOF 6
ENDMDL
MODEL      176
REMARK 921   NORMALIZED FREE ENERGY PREDICTED BY IDOCK:   -3.81 KCAL/MOL
REMARK 922        TOTAL FREE ENERGY PREDICTED BY IDOCK:   -5.69 KCAL/MOL
REMARK 923 INTER-LIGAND FREE ENERGY PREDICTED BY IDOCK:   -5.60 KCAL/MOL
REMARK 924 INTRA-LIGAND FREE ENERGY PREDICTED BY IDOCK:   -0.09 KCAL/MOL
REMARK 927      BINDING AFFINITY PREDICTED BY RF-SCORE:    0.00 PKD
ROOT
HETATM    1  O   UNL     1     -11.035  15.412  69.885  1.00  0.00    -0.252 OA 
HETATM    2  C   UNL     1     -11.614  15.545  70.954  1.00  0.00    -0.375 C  
HETATM    3  N   UNL     1     -11.479  16.614  71.789  1.00  0.00    -0.117 NA 
HETATM    4  O   UNL     1     -12.200  16.481  72.990  1.00  0.00    -0.478 OA 
HETATM    5  C   UNL     1     -12.848  15.203  72.928  1.00  0.00    -0.435 C  
HETATM    6  C   UNL     1     -12.616  14.598  71.548  1.00  0.00    -0.343 C  
ENDROOT
BRANCH   6   7
HETATM    7  N   UNL     1     -12.083  13.229  71.687  1.00  0.00     0.013 NA 
HETATM    8  H   UNL     1     -11.186  13.024  72.126  1.00  0.00     0.000 HD 
BRANCH   7   9
HETATM    9  C   UNL     1     -12.854  12.315  71.202  1.00  0.00    -0.207 C  
BRANCH   9  10
HETATM   10  C   UNL     1     -12.374  10.935  71.009  1.00  0.00    -0.498 A  
HETATM   11  C   UNL     1     -12.521  10.040  72.072  1.00  0.00    -0.311 A  
HETATM   12  C   UNL     1     -11.904   8.790  72.007  1.00  0.00    -0.442 A  
HETATM   13  C   UNL     1     -11.160   8.435  70.877  1.00  0.00    -0.289 A  
HETATM   14  C   UNL     1     -11.072   9.303  69.786  1.00  0.00    -0.168 A  
HETATM   15  C   UNL     1     -11.677  10.562  69.854  1.00  0.00    -0.372 A  
BRANCH  13  16
HETATM   16  C   UNL     1     -10.389   7.176  70.868  1.00  0.00    -0.201 C  
BRANCH  16  17
HETATM   17  N   UNL     1      -9.148   7.157  71.224  1.00  0.00    -0.150 NA 
HETATM   18  H   UNL     1      -8.563   6.327  71.127  1.00  0.00     0.000 HD 
BRANCH  17  19
HETATM   19  C   UNL     1      -8.640   8.421  71.779  1.00  0.00    -0.176 C  
HETATM   20  C   UNL     1      -7.712   8.138  72.948  1.00  0.00    -0.140 C  
HETATM   21  O   UNL     1      -6.779   9.226  73.000  1.00  0.00    -0.239 OA 
HETATM   22  N   UNL     1      -6.722   9.724  71.675  1.00  0.00    -0.216 NA 
HETATM   23  C   UNL     1      -7.679   9.143  70.876  1.00  0.00    -0.126 C  
HETATM   24  O   UNL     1      -7.750   9.268  69.662  1.00  0.00    -0.075 OA 
ENDBRANCH  17  19
ENDBRANCH  16  17
ENDBRANCH  13  16
ENDBRANCH   9  10
ENDBRANCH   7   9
ENDBRANCH   6   7
TORSDOF 6
ENDMDL
MODEL      177
REMARK 921   NORMALIZED FREE ENERGY PREDICTED BY IDOCK:   -3.80 KCAL/MOL
REMARK 922        TOTAL FREE ENERGY PREDICTED BY IDOCK:   -5.67 KCAL/MOL
REMARK 923 INTER-LIGAND FREE ENERGY PREDICTED BY IDOCK:   -5.21 KCAL/MOL
REMARK 924 INTRA-LIGAND FREE ENERGY PREDICTED BY IDOCK:   -0.46 KCAL/MOL
REMARK 927      BINDING AFFINITY PREDICTED BY RF-SCORE:    0.00 PKD
ROOT
HETATM    1  O   UNL     1      -8.212   5.694  68.865  1.00  0.00    -0.099 OA 
HETATM    2  C   UNL     1      -9.191   6.101  69.475  1.00  0.00    -0.138 C  
HETATM    3  N   UNL     1      -9.695   5.540  70.611  1.00  0.00    -0.169 NA 
HETATM    4  O   UNL     1     -10.873   6.160  71.066  1.00  0.00    -0.253 OA 
HETATM    5  C   UNL     1     -11.161   7.208  70.131  1.00  0.00    -0.272 C  
HETATM    6  C   UNL     1     -10.010   7.313  69.136  1.00  0.00    -0.170 C  
ENDROOT
BRANCH   6   7
HETATM    7  N   UNL     1     -10.536   7.269  67.758  1.00  0.00    -0.308 NA 
HETATM    8  H   UNL     1     -11.350   6.715  67.491  1.00  0.00     0.000 HD 
BRANCH   7   9
HETATM    9  C   UNL     1      -9.874   7.994  66.921  1.00  0.00    -0.248 C  
BRANCH   9  10
HETATM   10  C   UNL     1      -9.880   9.465  67.013  1.00  0.00    -0.258 A  
HETATM   11  C   UNL     1     -11.097  10.096  67.284  1.00  0.00    -0.166 A  
HETATM   12  C   UNL     1     -11.187  11.485  67.181  1.00  0.00    -0.365 A  
HETATM   13  C   UNL     1     -10.061  12.235  66.826  1.00  0.00    -0.224 A  
HETATM   14  C   UNL     1      -8.828  11.609  66.624  1.00  0.00    -0.187 A  
HETATM   15  C   UNL     1      -8.738  10.216  66.712  1.00  0.00    -0.133 A  
BRANCH  13  16
HETATM   16  C   UNL     1     -10.190  13.684  66.574  1.00  0.00    -0.284 C  
BRANCH  16  17
HETATM   17  N   UNL     1     -10.908  14.429  67.347  1.00  0.00    -0.287 NA 
HETATM   18  H   UNL     1     -11.927  14.395  67.348  1.00  0.00     0.000 HD 
BRANCH  17  19
HETATM   19  C   UNL     1     -10.147  15.331  68.224  1.00  0.00    -0.225 C  
HETATM   20  C   UNL     1      -9.612  16.506  67.423  1.00  0.00    -0.238 C  
HETATM   21  O   UNL     1      -9.502  17.606  68.337  1.00  0.00    -0.278 OA 
HETATM   22  N   UNL     1     -10.455  17.337  69.350  1.00  0.00    -0.254 NA 
HETATM   23  C   UNL     1     -10.995  16.080  69.215  1.00  0.00    -0.306 C  
HETATM   24  O   UNL     1     -11.948  15.653  69.850  1.00  0.00    -0.344 OA 
ENDBRANCH  17  19
ENDBRANCH  16  17
ENDBRANCH  13  16
ENDBRANCH   9  10
ENDBRANCH   7   9
ENDBRANCH   6   7
TORSDOF 6
ENDMDL
MODEL      178
REMARK 921   NORMALIZED FREE ENERGY PREDICTED BY IDOCK:   -3.79 KCAL/MOL
REMARK 922        TOTAL FREE ENERGY PREDICTED BY IDOCK:   -5.66 KCAL/MOL
REMARK 923 INTER-LIGAND FREE ENERGY PREDICTED BY IDOCK:   -5.19 KCAL/MOL
REMARK 924 INTRA-LIGAND FREE ENERGY PREDICTED BY IDOCK:   -0.47 KCAL/MOL
REMARK 927      BINDING AFFINITY PREDICTED BY RF-SCORE:    0.00 PKD
ROOT
HETATM    1  O   UNL     1     -10.815  11.279  62.844  1.00  0.00    -0.050 OA 
HETATM    2  C   UNL     1     -11.424  11.838  63.746  1.00  0.00    -0.420 C  
HETATM    3  N   UNL     1     -12.490  12.671  63.573  1.00  0.00    -0.723 NA 
HETATM    4  O   UNL     1     -12.958  13.238  64.772  1.00  0.00    -0.710 OA 
HETATM    5  C   UNL     1     -12.108  12.734  65.812  1.00  0.00    -0.448 C  
HETATM    6  C   UNL     1     -11.165  11.693  65.218  1.00  0.00    -0.199 C  
ENDROOT
BRANCH   6   7
HETATM    7  N   UNL     1      -9.772  12.019  65.578  1.00  0.00    -0.308 NA 
HETATM    8  H   UNL     1      -9.435  12.976  65.690  1.00  0.00     0.000 HD 
BRANCH   7   9
HETATM    9  C   UNL     1      -9.016  10.986  65.738  1.00  0.00    -0.195 C  
BRANCH   9  10
HETATM   10  C   UNL     1      -8.944  10.286  67.033  1.00  0.00    -0.147 A  
HETATM   11  C   UNL     1      -8.842  11.064  68.189  1.00  0.00    -0.141 A  
HETATM   12  C   UNL     1      -8.570  10.445  69.410  1.00  0.00    -0.143 A  
HETATM   13  C   UNL     1      -8.418   9.057  69.473  1.00  0.00    -0.125 A  
HETATM   14  C   UNL     1      -8.588   8.273  68.328  1.00  0.00    -0.133 A  
HETATM   15  C   UNL     1      -8.847   8.891  67.101  1.00  0.00    -0.133 A  
BRANCH  13  16
HETATM   16  C   UNL     1      -7.986   8.418  70.732  1.00  0.00    -0.106 C  
BRANCH  16  17
HETATM   17  N   UNL     1      -8.658   7.441  71.244  1.00  0.00    -0.118 NA 
HETATM   18  H   UNL     1      -9.216   6.804  70.676  1.00  0.00     0.000 HD 
BRANCH  17  19
HETATM   19  C   UNL     1      -8.558   7.315  72.706  1.00  0.00    -0.118 C  
HETATM   20  C   UNL     1      -9.921   7.537  73.340  1.00  0.00    -0.323 C  
HETATM   21  O   UNL     1      -9.930   6.782  74.560  1.00  0.00    -0.319 OA 
HETATM   22  N   UNL     1      -8.995   5.739  74.352  1.00  0.00    -0.121 NA 
HETATM   23  C   UNL     1      -8.295   5.913  73.182  1.00  0.00    -0.116 C  
HETATM   24  O   UNL     1      -7.546   5.086  72.682  1.00  0.00    -0.092 OA 
ENDBRANCH  17  19
ENDBRANCH  16  17
ENDBRANCH  13  16
ENDBRANCH   9  10
ENDBRANCH   7   9
ENDBRANCH   6   7
TORSDOF 6
ENDMDL
MODEL      179
REMARK 921   NORMALIZED FREE ENERGY PREDICTED BY IDOCK:   -3.77 KCAL/MOL
REMARK 922        TOTAL FREE ENERGY PREDICTED BY IDOCK:   -5.63 KCAL/MOL
REMARK 923 INTER-LIGAND FREE ENERGY PREDICTED BY IDOCK:   -4.97 KCAL/MOL
REMARK 924 INTRA-LIGAND FREE ENERGY PREDICTED BY IDOCK:   -0.65 KCAL/MOL
REMARK 927      BINDING AFFINITY PREDICTED BY RF-SCORE:    0.00 PKD
ROOT
HETATM    1  O   UNL     1      -7.194   3.041  65.723  1.00  0.00    -0.067 OA 
HETATM    2  C   UNL     1      -8.172   3.224  65.011  1.00  0.00    -0.094 C  
HETATM    3  N   UNL     1      -8.127   3.520  63.681  1.00  0.00    -0.087 NA 
HETATM    4  O   UNL     1      -9.395   3.755  63.117  1.00  0.00    -0.101 OA 
HETATM    5  C   UNL     1     -10.341   3.610  64.185  1.00  0.00    -0.246 C  
HETATM    6  C   UNL     1      -9.610   3.119  65.430  1.00  0.00    -0.035 C  
ENDROOT
BRANCH   6   7
HETATM    7  N   UNL     1      -9.927   3.997  66.574  1.00  0.00    -0.376 NA 
HETATM    8  H   UNL     1      -9.664   3.776  67.534  1.00  0.00     0.000 HD 
BRANCH   7   9
HETATM    9  C   UNL     1     -10.569   5.068  66.249  1.00  0.00    -0.276 C  
BRANCH   9  10
HETATM   10  C   UNL     1     -10.124   6.394  66.714  1.00  0.00    -0.239 A  
HETATM   11  C   UNL     1     -10.813   6.976  67.782  1.00  0.00    -0.276 A  
HETATM   12  C   UNL     1     -10.558   8.305  68.120  1.00  0.00    -0.169 A  
HETATM   13  C   UNL     1      -9.608   9.040  67.404  1.00  0.00    -0.195 A  
HETATM   14  C   UNL     1      -8.870   8.437  66.382  1.00  0.00    -0.181 A  
HETATM   15  C   UNL     1      -9.133   7.109  66.032  1.00  0.00    -0.108 A  
BRANCH  13  16
HETATM   16  C   UNL     1      -9.443  10.484  67.664  1.00  0.00    -0.149 C  
BRANCH  16  17
HETATM   17  N   UNL     1      -9.711  11.356  66.751  1.00  0.00    -0.195 NA 
HETATM   18  H   UNL     1      -9.000  11.723  66.118  1.00  0.00     0.000 HD 
BRANCH  17  19
HETATM   19  C   UNL     1     -11.117  11.783  66.692  1.00  0.00    -0.310 C  
HETATM   20  C   UNL     1     -11.299  13.079  67.463  1.00  0.00    -0.305 C  
HETATM   21  O   UNL     1     -12.400  13.766  66.852  1.00  0.00    -0.392 OA 
HETATM   22  N   UNL     1     -12.432  13.293  65.517  1.00  0.00    -0.476 NA 
HETATM   23  C   UNL     1     -11.558  12.248  65.331  1.00  0.00    -0.363 C  
HETATM   24  O   UNL     1     -11.268  11.759  64.249  1.00  0.00    -0.334 OA 
ENDBRANCH  17  19
ENDBRANCH  16  17
ENDBRANCH  13  16
ENDBRANCH   9  10
ENDBRANCH   7   9
ENDBRANCH   6   7
TORSDOF 6
ENDMDL
MODEL      180
REMARK 921   NORMALIZED FREE ENERGY PREDICTED BY IDOCK:   -3.76 KCAL/MOL
REMARK 922        TOTAL FREE ENERGY PREDICTED BY IDOCK:   -5.62 KCAL/MOL
REMARK 923 INTER-LIGAND FREE ENERGY PREDICTED BY IDOCK:   -4.94 KCAL/MOL
REMARK 924 INTRA-LIGAND FREE ENERGY PREDICTED BY IDOCK:   -0.68 KCAL/MOL
REMARK 927      BINDING AFFINITY PREDICTED BY RF-SCORE:    0.00 PKD
ROOT
HETATM    1  O   UNL     1      -9.566   4.497  71.801  1.00  0.00    -0.144 OA 
HETATM    2  C   UNL     1      -9.401   5.526  72.441  1.00  0.00    -0.143 C  
HETATM    3  N   UNL     1      -9.111   5.582  73.773  1.00  0.00    -0.123 NA 
HETATM    4  O   UNL     1      -9.046   6.894  74.277  1.00  0.00    -0.179 OA 
HETATM    5  C   UNL     1      -9.333   7.762  73.171  1.00  0.00    -0.255 C  
HETATM    6  C   UNL     1      -9.435   6.926  71.901  1.00  0.00    -0.141 C  
ENDROOT
BRANCH   6   7
HETATM    7  N   UNL     1     -10.702   7.229  71.205  1.00  0.00    -0.225 NA 
HETATM    8  H   UNL     1     -10.795   7.217  70.189  1.00  0.00     0.000 HD 
BRANCH   7   9
HETATM    9  C   UNL     1     -11.680   7.510  71.997  1.00  0.00    -0.294 C  
BRANCH   9  10
HETATM   10  C   UNL     1     -12.382   8.803  71.915  1.00  0.00    -0.429 A  
HETATM   11  C   UNL     1     -11.696   9.882  71.353  1.00  0.00    -0.449 A  
HETATM   12  C   UNL     1     -12.243  11.163  71.438  1.00  0.00    -0.237 A  
HETATM   13  C   UNL     1     -13.477  11.356  72.068  1.00  0.00    -0.289 A  
HETATM   14  C   UNL     1     -14.195  10.267  72.569  1.00  0.00     0.729 A  
HETATM   15  C   UNL     1     -13.642   8.985  72.497  1.00  0.00    -0.492 A  
BRANCH  13  16
HETATM   16  C   UNL     1     -13.986  12.725  72.288  1.00  0.00    -0.167 C  
BRANCH  16  17
HETATM   17  N   UNL     1     -13.987  13.593  71.332  1.00  0.00    -0.014 NA 
HETATM   18  H   UNL     1     -14.482  13.440  70.454  1.00  0.00     0.000 HD 
BRANCH  17  19
HETATM   19  C   UNL     1     -13.221  14.819  71.605  1.00  0.00    -0.349 C  
HETATM   20  C   UNL     1     -13.016  14.981  73.101  1.00  0.00    -0.522 C  
HETATM   21  O   UNL     1     -11.793  15.712  73.269  1.00  0.00    -0.440 OA 
HETATM   22  N   UNL     1     -11.039  15.436  72.101  1.00  0.00    -0.241 NA 
HETATM   23  C   UNL     1     -11.783  14.751  71.170  1.00  0.00    -0.309 C  
HETATM   24  O   UNL     1     -11.339  14.250  70.147  1.00  0.00    -0.225 OA 
ENDBRANCH  17  19
ENDBRANCH  16  17
ENDBRANCH  13  16
ENDBRANCH   9  10
ENDBRANCH   7   9
ENDBRANCH   6   7
TORSDOF 6
ENDMDL
MODEL      181
REMARK 921   NORMALIZED FREE ENERGY PREDICTED BY IDOCK:   -3.76 KCAL/MOL
REMARK 922        TOTAL FREE ENERGY PREDICTED BY IDOCK:   -5.61 KCAL/MOL
REMARK 923 INTER-LIGAND FREE ENERGY PREDICTED BY IDOCK:   -5.01 KCAL/MOL
REMARK 924 INTRA-LIGAND FREE ENERGY PREDICTED BY IDOCK:   -0.61 KCAL/MOL
REMARK 927      BINDING AFFINITY PREDICTED BY RF-SCORE:    0.00 PKD
ROOT
HETATM    1  O   UNL     1      -7.173   1.703  64.106  1.00  0.00    -0.048 OA 
HETATM    2  C   UNL     1      -8.204   2.276  63.780  1.00  0.00    -0.081 C  
HETATM    3  N   UNL     1      -8.517   2.661  62.510  1.00  0.00    -0.074 NA 
HETATM    4  O   UNL     1      -9.731   3.369  62.423  1.00  0.00    -0.093 OA 
HETATM    5  C   UNL     1     -10.239   3.457  63.761  1.00  0.00    -0.214 C  
HETATM    6  C   UNL     1      -9.349   2.632  64.684  1.00  0.00    -0.135 C  
ENDROOT
BRANCH   6   7
HETATM    7  N   UNL     1      -8.923   3.454  65.833  1.00  0.00    -0.138 NA 
HETATM    8  H   UNL     1      -8.027   3.328  66.305  1.00  0.00     0.000 HD 
BRANCH   7   9
HETATM    9  C   UNL     1      -9.786   4.345  66.188  1.00  0.00    -0.214 C  
BRANCH   9  10
HETATM   10  C   UNL     1      -9.969   4.709  67.604  1.00  0.00    -0.161 A  
HETATM   11  C   UNL     1     -10.783   5.806  67.895  1.00  0.00    -0.295 A  
HETATM   12  C   UNL     1     -10.823   6.306  69.198  1.00  0.00    -0.403 A  
HETATM   13  C   UNL     1     -10.064   5.698  70.203  1.00  0.00    -0.293 A  
HETATM   14  C   UNL     1      -9.304   4.559  69.926  1.00  0.00    -0.218 A  
HETATM   15  C   UNL     1      -9.252   4.065  68.619  1.00  0.00    -0.209 A  
BRANCH  13  16
HETATM   16  C   UNL     1      -9.991   6.312  71.544  1.00  0.00    -0.184 C  
BRANCH  16  17
HETATM   17  N   UNL     1     -11.015   6.310  72.330  1.00  0.00    -0.241 NA 
HETATM   18  H   UNL     1     -11.361   5.461  72.777  1.00  0.00     0.000 HD 
BRANCH  17  19
HETATM   19  C   UNL     1     -11.645   7.623  72.534  1.00  0.00    -0.330 C  
HETATM   20  C   UNL     1     -10.733   8.722  72.018  1.00  0.00    -0.347 C  
HETATM   21  O   UNL     1     -11.585   9.805  71.619  1.00  0.00    -0.375 OA 
HETATM   22  N   UNL     1     -12.826   9.199  71.305  1.00  0.00    -0.297 NA 
HETATM   23  C   UNL     1     -12.842   7.869  71.657  1.00  0.00    -0.334 C  
HETATM   24  O   UNL     1     -13.720   7.074  71.356  1.00  0.00    -0.324 OA 
ENDBRANCH  17  19
ENDBRANCH  16  17
ENDBRANCH  13  16
ENDBRANCH   9  10
ENDBRANCH   7   9
ENDBRANCH   6   7
TORSDOF 6
ENDMDL
MODEL      182
REMARK 921   NORMALIZED FREE ENERGY PREDICTED BY IDOCK:   -3.74 KCAL/MOL
REMARK 922        TOTAL FREE ENERGY PREDICTED BY IDOCK:   -5.59 KCAL/MOL
REMARK 923 INTER-LIGAND FREE ENERGY PREDICTED BY IDOCK:   -5.70 KCAL/MOL
REMARK 924 INTRA-LIGAND FREE ENERGY PREDICTED BY IDOCK:    0.12 KCAL/MOL
REMARK 927      BINDING AFFINITY PREDICTED BY RF-SCORE:    0.00 PKD
ROOT
HETATM    1  O   UNL     1      -8.423   4.043  67.647  1.00  0.00    -0.097 OA 
HETATM    2  C   UNL     1      -7.799   4.956  67.124  1.00  0.00    -0.095 C  
HETATM    3  N   UNL     1      -6.462   4.938  66.857  1.00  0.00    -0.044 NA 
HETATM    4  O   UNL     1      -5.982   6.147  66.320  1.00  0.00    -0.026 OA 
HETATM    5  C   UNL     1      -7.112   7.028  66.246  1.00  0.00    -0.074 C  
HETATM    6  C   UNL     1      -8.368   6.254  66.628  1.00  0.00    -0.112 C  
ENDROOT
BRANCH   6   7
HETATM    7  N   UNL     1      -9.103   6.984  67.681  1.00  0.00    -0.123 NA 
HETATM    8  H   UNL     1      -8.766   7.064  68.640  1.00  0.00     0.000 HD 
BRANCH   7   9
HETATM    9  C   UNL     1     -10.209   7.510  67.278  1.00  0.00    -0.267 C  
BRANCH   9  10
HETATM   10  C   UNL     1     -10.332   8.964  67.069  1.00  0.00    -0.340 A  
HETATM   11  C   UNL     1      -9.704   9.518  65.951  1.00  0.00    -0.352 A  
HETATM   12  C   UNL     1      -9.624  10.905  65.825  1.00  0.00    -0.259 A  
HETATM   13  C   UNL     1     -10.185  11.730  66.805  1.00  0.00    -0.240 A  
HETATM   14  C   UNL     1     -10.873  11.176  67.887  1.00  0.00    -0.285 A  
HETATM   15  C   UNL     1     -10.942   9.786  68.024  1.00  0.00    -0.236 A  
BRANCH  13  16
HETATM   16  C   UNL     1      -9.975  13.190  66.748  1.00  0.00    -0.250 C  
BRANCH  16  17
HETATM   17  N   UNL     1      -9.673  13.774  65.637  1.00  0.00    -0.503 NA 
HETATM   18  H   UNL     1      -8.733  13.747  65.241  1.00  0.00     0.000 HD 
BRANCH  17  19
HETATM   19  C   UNL     1     -10.785  14.479  64.982  1.00  0.00    -0.427 C  
HETATM   20  C   UNL     1     -11.336  13.637  63.844  1.00  0.00    -0.108 C  
HETATM   21  O   UNL     1     -12.720  13.991  63.708  1.00  0.00    -0.734 OA 
HETATM   22  N   UNL     1     -13.107  14.458  64.988  1.00  0.00    -0.522 NA 
HETATM   23  C   UNL     1     -12.025  14.584  65.828  1.00  0.00    -0.306 C  
HETATM   24  O   UNL     1     -12.090  14.811  67.027  1.00  0.00    -0.306 OA 
ENDBRANCH  17  19
ENDBRANCH  16  17
ENDBRANCH  13  16
ENDBRANCH   9  10
ENDBRANCH   7   9
ENDBRANCH   6   7
TORSDOF 6
ENDMDL
MODEL      183
REMARK 921   NORMALIZED FREE ENERGY PREDICTED BY IDOCK:   -3.73 KCAL/MOL
REMARK 922        TOTAL FREE ENERGY PREDICTED BY IDOCK:   -5.58 KCAL/MOL
REMARK 923 INTER-LIGAND FREE ENERGY PREDICTED BY IDOCK:   -5.09 KCAL/MOL
REMARK 924 INTRA-LIGAND FREE ENERGY PREDICTED BY IDOCK:   -0.50 KCAL/MOL
REMARK 927      BINDING AFFINITY PREDICTED BY RF-SCORE:    0.00 PKD
ROOT
HETATM    1  O   UNL     1      -7.869   4.854  73.674  1.00  0.00    -0.094 OA 
HETATM    2  C   UNL     1      -8.384   3.768  73.446  1.00  0.00    -0.088 C  
HETATM    3  N   UNL     1      -7.702   2.622  73.163  1.00  0.00    -0.049 NA 
HETATM    4  O   UNL     1      -8.540   1.531  72.866  1.00  0.00    -0.059 OA 
HETATM    5  C   UNL     1      -9.884   2.023  72.953  1.00  0.00    -0.101 C  
HETATM    6  C   UNL     1      -9.853   3.456  73.471  1.00  0.00    -0.110 C  
ENDROOT
BRANCH   6   7
HETATM    7  N   UNL     1     -10.629   4.330  72.569  1.00  0.00    -0.151 NA 
HETATM    8  H   UNL     1     -10.648   4.207  71.557  1.00  0.00     0.000 HD 
BRANCH   7   9
HETATM    9  C   UNL     1     -11.280   5.263  73.177  1.00  0.00    -0.318 C  
BRANCH   9  10
HETATM   10  C   UNL     1     -11.374   6.621  72.612  1.00  0.00    -0.262 A  
HETATM   11  C   UNL     1     -12.478   6.919  71.809  1.00  0.00    -0.397 A  
HETATM   12  C   UNL     1     -12.504   8.118  71.096  1.00  0.00    -0.195 A  
HETATM   13  C   UNL     1     -11.439   9.018  71.200  1.00  0.00    -0.376 A  
HETATM   14  C   UNL     1     -10.368   8.751  72.057  1.00  0.00    -0.411 A  
HETATM   15  C   UNL     1     -10.332   7.544  72.762  1.00  0.00    -0.331 A  
BRANCH  13  16
HETATM   16  C   UNL     1     -11.397  10.215  70.336  1.00  0.00    -0.326 C  
BRANCH  16  17
HETATM   17  N   UNL     1     -10.861  10.166  69.163  1.00  0.00    -0.216 NA 
HETATM   18  H   UNL     1     -10.838   9.312  68.606  1.00  0.00     0.000 HD 
BRANCH  17  19
HETATM   19  C   UNL     1     -10.287  11.434  68.688  1.00  0.00    -0.203 C  
HETATM   20  C   UNL     1      -8.893  11.196  68.133  1.00  0.00    -0.148 C  
HETATM   21  O   UNL     1      -8.673  12.204  67.136  1.00  0.00    -0.176 OA 
HETATM   22  N   UNL     1      -9.968  12.559  66.683  1.00  0.00    -0.231 NA 
HETATM   23  C   UNL     1     -10.949  11.980  67.453  1.00  0.00    -0.261 C  
HETATM   24  O   UNL     1     -12.142  11.987  67.191  1.00  0.00    -0.587 OA 
ENDBRANCH  17  19
ENDBRANCH  16  17
ENDBRANCH  13  16
ENDBRANCH   9  10
ENDBRANCH   7   9
ENDBRANCH   6   7
TORSDOF 6
ENDMDL
MODEL      184
REMARK 921   NORMALIZED FREE ENERGY PREDICTED BY IDOCK:   -3.72 KCAL/MOL
REMARK 922        TOTAL FREE ENERGY PREDICTED BY IDOCK:   -5.57 KCAL/MOL
REMARK 923 INTER-LIGAND FREE ENERGY PREDICTED BY IDOCK:   -5.64 KCAL/MOL
REMARK 924 INTRA-LIGAND FREE ENERGY PREDICTED BY IDOCK:    0.07 KCAL/MOL
REMARK 927      BINDING AFFINITY PREDICTED BY RF-SCORE:    0.00 PKD
ROOT
HETATM    1  O   UNL     1      -8.293   5.854  70.950  1.00  0.00    -0.122 OA 
HETATM    2  C   UNL     1      -8.537   6.324  72.052  1.00  0.00    -0.131 C  
HETATM    3  N   UNL     1      -7.720   6.231  73.141  1.00  0.00    -0.096 NA 
HETATM    4  O   UNL     1      -8.274   6.795  74.305  1.00  0.00    -0.122 OA 
HETATM    5  C   UNL     1      -9.570   7.284  73.936  1.00  0.00    -0.276 C  
HETATM    6  C   UNL     1      -9.745   7.131  72.429  1.00  0.00    -0.149 C  
ENDROOT
BRANCH   6   7
HETATM    7  N   UNL     1     -11.007   6.421  72.143  1.00  0.00    -0.239 NA 
HETATM    8  H   UNL     1     -11.203   5.478  72.478  1.00  0.00     0.000 HD 
BRANCH   7   9
HETATM    9  C   UNL     1     -11.840   7.100  71.429  1.00  0.00    -0.308 C  
BRANCH   9  10
HETATM   10  C   UNL     1     -11.460   8.396  70.838  1.00  0.00    -0.295 A  
HETATM   11  C   UNL     1     -12.075   9.546  71.338  1.00  0.00    -0.459 A  
HETATM   12  C   UNL     1     -11.897  10.762  70.677  1.00  0.00    -0.460 A  
HETATM   13  C   UNL     1     -11.095  10.826  69.534  1.00  0.00    -0.334 A  
HETATM   14  C   UNL     1     -10.424   9.689  69.075  1.00  0.00    -0.229 A  
HETATM   15  C   UNL     1     -10.612   8.467  69.727  1.00  0.00    -0.221 A  
BRANCH  13  16
HETATM   16  C   UNL     1     -11.024  12.077  68.752  1.00  0.00    -0.239 C  
BRANCH  16  17
HETATM   17  N   UNL     1      -9.917  12.734  68.652  1.00  0.00    -0.391 NA 
HETATM   18  H   UNL     1      -9.041  12.395  69.052  1.00  0.00     0.000 HD 
BRANCH  17  19
HETATM   19  C   UNL     1     -10.012  14.006  67.921  1.00  0.00    -0.237 C  
HETATM   20  C   UNL     1     -10.177  13.738  66.434  1.00  0.00    -0.292 C  
HETATM   21  O   UNL     1     -10.905  14.852  65.898  1.00  0.00    -0.315 OA 
HETATM   22  N   UNL     1     -11.649  15.363  66.990  1.00  0.00    -0.116 NA 
HETATM   23  C   UNL     1     -11.287  14.763  68.173  1.00  0.00    -0.307 C  
HETATM   24  O   UNL     1     -11.873  14.897  69.237  1.00  0.00    -0.299 OA 
ENDBRANCH  17  19
ENDBRANCH  16  17
ENDBRANCH  13  16
ENDBRANCH   9  10
ENDBRANCH   7   9
ENDBRANCH   6   7
TORSDOF 6
ENDMDL
MODEL      185
REMARK 921   NORMALIZED FREE ENERGY PREDICTED BY IDOCK:   -3.71 KCAL/MOL
REMARK 922        TOTAL FREE ENERGY PREDICTED BY IDOCK:   -5.55 KCAL/MOL
REMARK 923 INTER-LIGAND FREE ENERGY PREDICTED BY IDOCK:   -5.60 KCAL/MOL
REMARK 924 INTRA-LIGAND FREE ENERGY PREDICTED BY IDOCK:    0.05 KCAL/MOL
REMARK 927      BINDING AFFINITY PREDICTED BY RF-SCORE:    0.00 PKD
ROOT
HETATM    1  O   UNL     1     -11.024  14.726  64.547  1.00  0.00    -0.327 OA 
HETATM    2  C   UNL     1     -11.275  14.802  65.742  1.00  0.00    -0.337 C  
HETATM    3  N   UNL     1     -10.563  15.533  66.647  1.00  0.00    -0.304 NA 
HETATM    4  O   UNL     1     -11.022  15.386  67.969  1.00  0.00    -0.285 OA 
HETATM    5  C   UNL     1     -12.121  14.467  67.912  1.00  0.00    -0.226 C  
HETATM    6  C   UNL     1     -12.430  14.156  66.452  1.00  0.00    -0.318 C  
ENDROOT
BRANCH   6   7
HETATM    7  N   UNL     1     -12.466  12.694  66.251  1.00  0.00    -0.383 NA 
HETATM    8  H   UNL     1     -13.327  12.149  66.287  1.00  0.00     0.000 HD 
BRANCH   7   9
HETATM    9  C   UNL     1     -11.310  12.167  66.025  1.00  0.00    -0.358 C  
BRANCH   9  10
HETATM   10  C   UNL     1     -10.783  11.087  66.877  1.00  0.00    -0.325 A  
HETATM   11  C   UNL     1     -10.549  11.374  68.224  1.00  0.00    -0.224 A  
HETATM   12  C   UNL     1      -9.868  10.448  69.015  1.00  0.00    -0.222 A  
HETATM   13  C   UNL     1      -9.439   9.237  68.463  1.00  0.00    -0.150 A  
HETATM   14  C   UNL     1      -9.735   8.921  67.134  1.00  0.00    -0.241 A  
HETATM   15  C   UNL     1     -10.405   9.853  66.336  1.00  0.00    -0.246 A  
BRANCH  13  16
HETATM   16  C   UNL     1      -8.593   8.324  69.256  1.00  0.00    -0.138 C  
BRANCH  16  17
HETATM   17  N   UNL     1      -9.108   7.563  70.163  1.00  0.00    -0.148 NA 
HETATM   18  H   UNL     1      -8.540   6.971  70.769  1.00  0.00     0.000 HD 
BRANCH  17  19
HETATM   19  C   UNL     1     -10.575   7.612  70.257  1.00  0.00    -0.230 C  
HETATM   20  C   UNL     1     -11.161   6.245  69.948  1.00  0.00    -0.429 C  
HETATM   21  O   UNL     1     -12.398   6.159  70.670  1.00  0.00     0.192 OA 
HETATM   22  N   UNL     1     -12.244   7.043  71.766  1.00  0.00    -0.335 NA 
HETATM   23  C   UNL     1     -11.092   7.786  71.659  1.00  0.00    -0.237 C  
HETATM   24  O   UNL     1     -10.635   8.503  72.536  1.00  0.00    -0.331 OA 
ENDBRANCH  17  19
ENDBRANCH  16  17
ENDBRANCH  13  16
ENDBRANCH   9  10
ENDBRANCH   7   9
ENDBRANCH   6   7
TORSDOF 6
ENDMDL
MODEL      186
REMARK 921   NORMALIZED FREE ENERGY PREDICTED BY IDOCK:   -3.71 KCAL/MOL
REMARK 922        TOTAL FREE ENERGY PREDICTED BY IDOCK:   -5.55 KCAL/MOL
REMARK 923 INTER-LIGAND FREE ENERGY PREDICTED BY IDOCK:   -5.35 KCAL/MOL
REMARK 924 INTRA-LIGAND FREE ENERGY PREDICTED BY IDOCK:   -0.20 KCAL/MOL
REMARK 927      BINDING AFFINITY PREDICTED BY RF-SCORE:    0.00 PKD
ROOT
HETATM    1  O   UNL     1     -12.249  11.124  67.909  1.00  0.00    -0.521 OA 
HETATM    2  C   UNL     1     -11.185  10.599  67.610  1.00  0.00    -0.290 C  
HETATM    3  N   UNL     1     -10.566   9.620  68.331  1.00  0.00    -0.223 NA 
HETATM    4  O   UNL     1      -9.316   9.244  67.804  1.00  0.00    -0.129 OA 
HETATM    5  C   UNL     1      -9.107  10.064  66.647  1.00  0.00    -0.147 C  
HETATM    6  C   UNL     1     -10.368  10.879  66.383  1.00  0.00    -0.251 C  
ENDROOT
BRANCH   6   7
HETATM    7  N   UNL     1     -10.020  12.308  66.253  1.00  0.00    -0.227 NA 
HETATM    8  H   UNL     1      -9.671  12.719  65.388  1.00  0.00     0.000 HD 
BRANCH   7   9
HETATM    9  C   UNL     1     -10.197  12.990  67.334  1.00  0.00    -0.231 C  
BRANCH   9  10
HETATM   10  C   UNL     1      -9.175  13.936  67.816  1.00  0.00    -0.197 A  
HETATM   11  C   UNL     1      -9.586  14.958  68.675  1.00  0.00    -0.222 A  
HETATM   12  C   UNL     1      -8.697  15.986  68.992  1.00  0.00    -0.245 A  
HETATM   13  C   UNL     1      -7.402  15.979  68.466  1.00  0.00    -0.146 A  
HETATM   14  C   UNL     1      -6.969  14.920  67.664  1.00  0.00    -0.207 A  
HETATM   15  C   UNL     1      -7.862  13.895  67.333  1.00  0.00    -0.177 A  
BRANCH  13  16
HETATM   16  C   UNL     1      -6.511  17.137  68.682  1.00  0.00    -0.175 C  
BRANCH  16  17
HETATM   17  N   UNL     1      -6.845  18.088  69.488  1.00  0.00    -0.113 NA 
HETATM   18  H   UNL     1      -6.941  17.945  70.494  1.00  0.00     0.000 HD 
BRANCH  17  19
HETATM   19  C   UNL     1      -7.078  19.392  68.850  1.00  0.00    -0.358 C  
HETATM   20  C   UNL     1      -6.286  19.486  67.557  1.00  0.00    -0.199 C  
HETATM   21  O   UNL     1      -7.013  20.375  66.697  1.00  0.00    -0.239 OA 
HETATM   22  N   UNL     1      -8.358  20.289  67.135  1.00  0.00    -0.335 NA 
HETATM   23  C   UNL     1      -8.466  19.564  68.298  1.00  0.00    -0.340 C  
HETATM   24  O   UNL     1      -9.517  19.201  68.804  1.00  0.00    -0.374 OA 
ENDBRANCH  17  19
ENDBRANCH  16  17
ENDBRANCH  13  16
ENDBRANCH   9  10
ENDBRANCH   7   9
ENDBRANCH   6   7
TORSDOF 6
ENDMDL
MODEL      187
REMARK 921   NORMALIZED FREE ENERGY PREDICTED BY IDOCK:   -3.71 KCAL/MOL
REMARK 922        TOTAL FREE ENERGY PREDICTED BY IDOCK:   -5.55 KCAL/MOL
REMARK 923 INTER-LIGAND FREE ENERGY PREDICTED BY IDOCK:   -4.86 KCAL/MOL
REMARK 924 INTRA-LIGAND FREE ENERGY PREDICTED BY IDOCK:   -0.69 KCAL/MOL
REMARK 927      BINDING AFFINITY PREDICTED BY RF-SCORE:    0.00 PKD
ROOT
HETATM    1  O   UNL     1      -7.514   1.730  64.325  1.00  0.00    -0.055 OA 
HETATM    2  C   UNL     1      -8.398   2.447  63.879  1.00  0.00    -0.082 C  
HETATM    3  N   UNL     1      -8.318   3.160  62.720  1.00  0.00    -0.074 NA 
HETATM    4  O   UNL     1      -9.449   3.963  62.477  1.00  0.00    -0.105 OA 
HETATM    5  C   UNL     1     -10.332   3.756  63.588  1.00  0.00    -0.226 C  
HETATM    6  C   UNL     1      -9.759   2.658  64.477  1.00  0.00    -0.082 C  
ENDROOT
BRANCH   6   7
HETATM    7  N   UNL     1      -9.692   3.131  65.873  1.00  0.00    -0.395 NA 
HETATM    8  H   UNL     1      -9.382   2.542  66.646  1.00  0.00     0.000 HD 
BRANCH   7   9
HETATM    9  C   UNL     1     -10.062   4.357  66.029  1.00  0.00    -0.239 C  
BRANCH   9  10
HETATM   10  C   UNL     1     -10.194   4.950  67.372  1.00  0.00    -0.173 A  
HETATM   11  C   UNL     1      -9.733   4.207  68.461  1.00  0.00    -0.148 A  
HETATM   12  C   UNL     1     -10.019   4.639  69.757  1.00  0.00    -0.295 A  
HETATM   13  C   UNL     1     -10.747   5.815  69.958  1.00  0.00    -0.400 A  
HETATM   14  C   UNL     1     -11.149   6.594  68.870  1.00  0.00    -0.312 A  
HETATM   15  C   UNL     1     -10.876   6.157  67.570  1.00  0.00    -0.422 A  
BRANCH  13  16
HETATM   16  C   UNL     1     -11.175   6.194  71.320  1.00  0.00    -0.287 C  
BRANCH  16  17
HETATM   17  N   UNL     1     -11.278   7.435  71.660  1.00  0.00    -0.243 NA 
HETATM   18  H   UNL     1     -11.957   8.066  71.234  1.00  0.00     0.000 HD 
BRANCH  17  19
HETATM   19  C   UNL     1     -10.344   7.872  72.709  1.00  0.00    -0.333 C  
HETATM   20  C   UNL     1      -9.801   6.666  73.456  1.00  0.00    -0.207 C  
HETATM   21  O   UNL     1      -8.499   7.034  73.933  1.00  0.00    -0.129 OA 
HETATM   22  N   UNL     1      -8.053   8.040  73.041  1.00  0.00    -0.154 NA 
HETATM   23  C   UNL     1      -9.051   8.432  72.181  1.00  0.00    -0.239 C  
HETATM   24  O   UNL     1      -8.898   9.162  71.213  1.00  0.00    -0.257 OA 
ENDBRANCH  17  19
ENDBRANCH  16  17
ENDBRANCH  13  16
ENDBRANCH   9  10
ENDBRANCH   7   9
ENDBRANCH   6   7
TORSDOF 6
ENDMDL
MODEL      188
REMARK 921   NORMALIZED FREE ENERGY PREDICTED BY IDOCK:   -3.66 KCAL/MOL
REMARK 922        TOTAL FREE ENERGY PREDICTED BY IDOCK:   -5.49 KCAL/MOL
REMARK 923 INTER-LIGAND FREE ENERGY PREDICTED BY IDOCK:   -4.93 KCAL/MOL
REMARK 924 INTRA-LIGAND FREE ENERGY PREDICTED BY IDOCK:   -0.55 KCAL/MOL
REMARK 927      BINDING AFFINITY PREDICTED BY RF-SCORE:    0.00 PKD
ROOT
HETATM    1  O   UNL     1      -8.910   2.829  69.422  1.00  0.00    -0.074 OA 
HETATM    2  C   UNL     1      -9.106   3.680  70.279  1.00  0.00    -0.130 C  
HETATM    3  N   UNL     1     -10.127   3.662  71.182  1.00  0.00    -0.031 NA 
HETATM    4  O   UNL     1     -10.164   4.801  72.007  1.00  0.00    -0.189 OA 
HETATM    5  C   UNL     1      -9.076   5.635  71.587  1.00  0.00    -0.139 C  
HETATM    6  C   UNL     1      -8.253   4.886  70.546  1.00  0.00    -0.096 C  
ENDROOT
BRANCH   6   7
HETATM    7  N   UNL     1      -8.080   5.729  69.346  1.00  0.00    -0.100 NA 
HETATM    8  H   UNL     1      -7.499   5.456  68.554  1.00  0.00     0.000 HD 
BRANCH   7   9
HETATM    9  C   UNL     1      -8.730   6.843  69.391  1.00  0.00    -0.133 C  
BRANCH   9  10
HETATM   10  C   UNL     1      -9.033   7.600  68.163  1.00  0.00    -0.126 A  
HETATM   11  C   UNL     1      -8.040   8.440  67.653  1.00  0.00    -0.118 A  
HETATM   12  C   UNL     1      -8.352   9.320  66.616  1.00  0.00    -0.122 A  
HETATM   13  C   UNL     1      -9.645   9.345  66.085  1.00  0.00    -0.311 A  
HETATM   14  C   UNL     1     -10.618   8.456  66.547  1.00  0.00     0.078 A  
HETATM   15  C   UNL     1     -10.312   7.582  67.596  1.00  0.00    -0.295 A  
BRANCH  13  16
HETATM   16  C   UNL     1     -10.014  10.374  65.092  1.00  0.00    -0.322 C  
BRANCH  16  17
HETATM   17  N   UNL     1     -10.131  11.614  65.434  1.00  0.00    -0.248 NA 
HETATM   18  H   UNL     1      -9.364  12.281  65.346  1.00  0.00     0.000 HD 
BRANCH  17  19
HETATM   19  C   UNL     1     -11.450  11.992  65.962  1.00  0.00    -0.338 C  
HETATM   20  C   UNL     1     -11.294  13.061  67.031  1.00  0.00    -0.301 C  
HETATM   21  O   UNL     1     -12.502  13.835  67.013  1.00  0.00    -0.315 OA 
HETATM   22  N   UNL     1     -13.010  13.692  65.698  1.00  0.00    -0.547 NA 
HETATM   23  C   UNL     1     -12.304  12.752  64.984  1.00  0.00    -0.499 C  
HETATM   24  O   UNL     1     -12.424  12.545  63.785  1.00  0.00    -0.579 OA 
ENDBRANCH  17  19
ENDBRANCH  16  17
ENDBRANCH  13  16
ENDBRANCH   9  10
ENDBRANCH   7   9
ENDBRANCH   6   7
TORSDOF 6
ENDMDL
MODEL      189
REMARK 921   NORMALIZED FREE ENERGY PREDICTED BY IDOCK:   -3.66 KCAL/MOL
REMARK 922        TOTAL FREE ENERGY PREDICTED BY IDOCK:   -5.48 KCAL/MOL
REMARK 923 INTER-LIGAND FREE ENERGY PREDICTED BY IDOCK:   -5.00 KCAL/MOL
REMARK 924 INTRA-LIGAND FREE ENERGY PREDICTED BY IDOCK:   -0.48 KCAL/MOL
REMARK 927      BINDING AFFINITY PREDICTED BY RF-SCORE:    0.00 PKD
ROOT
HETATM    1  O   UNL     1     -10.731  18.558  65.333  1.00  0.00    -0.585 OA 
HETATM    2  C   UNL     1     -10.467  18.727  66.515  1.00  0.00    -0.427 C  
HETATM    3  N   UNL     1     -10.014  19.893  67.058  1.00  0.00    -0.398 NA 
HETATM    4  O   UNL     1      -9.718  19.793  68.430  1.00  0.00    -0.363 OA 
HETATM    5  C   UNL     1      -9.994  18.435  68.802  1.00  0.00    -0.375 C  
HETATM    6  C   UNL     1     -10.627  17.718  67.616  1.00  0.00    -0.379 C  
ENDROOT
BRANCH   6   7
HETATM    7  N   UNL     1      -9.895  16.466  67.341  1.00  0.00    -0.240 NA 
HETATM    8  H   UNL     1      -8.877  16.404  67.351  1.00  0.00     0.000 HD 
BRANCH   7   9
HETATM    9  C   UNL     1     -10.658  15.458  67.086  1.00  0.00    -0.305 C  
BRANCH   9  10
HETATM   10  C   UNL     1     -10.152  14.076  67.169  1.00  0.00    -0.259 A  
HETATM   11  C   UNL     1     -11.040  13.080  67.583  1.00  0.00    -0.296 A  
HETATM   12  C   UNL     1     -10.555  11.803  67.868  1.00  0.00    -0.231 A  
HETATM   13  C   UNL     1      -9.192  11.524  67.722  1.00  0.00    -0.165 A  
HETATM   14  C   UNL     1      -8.316  12.501  67.242  1.00  0.00    -0.185 A  
HETATM   15  C   UNL     1      -8.797  13.785  66.969  1.00  0.00    -0.230 A  
BRANCH  13  16
HETATM   16  C   UNL     1      -8.655  10.220  68.162  1.00  0.00    -0.119 C  
BRANCH  16  17
HETATM   17  N   UNL     1      -7.493   9.816  67.770  1.00  0.00    -0.090 NA 
HETATM   18  H   UNL     1      -7.284   9.614  66.793  1.00  0.00     0.000 HD 
BRANCH  17  19
HETATM   19  C   UNL     1      -6.493   9.670  68.839  1.00  0.00    -0.046 C  
HETATM   20  C   UNL     1      -7.135   9.935  70.190  1.00  0.00    -0.145 C  
HETATM   21  O   UNL     1      -6.395   9.167  71.150  1.00  0.00    -0.062 OA 
HETATM   22  N   UNL     1      -5.841   8.092  70.411  1.00  0.00    -0.029 NA 
HETATM   23  C   UNL     1      -6.038   8.254  69.060  1.00  0.00    -0.043 C  
HETATM   24  O   UNL     1      -5.806   7.406  68.211  1.00  0.00    -0.025 OA 
ENDBRANCH  17  19
ENDBRANCH  16  17
ENDBRANCH  13  16
ENDBRANCH   9  10
ENDBRANCH   7   9
ENDBRANCH   6   7
TORSDOF 6
ENDMDL
MODEL      190
REMARK 921   NORMALIZED FREE ENERGY PREDICTED BY IDOCK:   -3.65 KCAL/MOL
REMARK 922        TOTAL FREE ENERGY PREDICTED BY IDOCK:   -5.48 KCAL/MOL
REMARK 923 INTER-LIGAND FREE ENERGY PREDICTED BY IDOCK:   -5.10 KCAL/MOL
REMARK 924 INTRA-LIGAND FREE ENERGY PREDICTED BY IDOCK:   -0.38 KCAL/MOL
REMARK 927      BINDING AFFINITY PREDICTED BY RF-SCORE:    0.00 PKD
ROOT
HETATM    1  O   UNL     1      -6.880   9.631  69.910  1.00  0.00    -0.056 OA 
HETATM    2  C   UNL     1      -6.719  10.131  68.805  1.00  0.00    -0.053 C  
HETATM    3  N   UNL     1      -5.573  10.737  68.380  1.00  0.00    -0.043 NA 
HETATM    4  O   UNL     1      -5.680  11.295  67.093  1.00  0.00    -0.056 OA 
HETATM    5  C   UNL     1      -7.021  11.036  66.654  1.00  0.00    -0.140 C  
HETATM    6  C   UNL     1      -7.713  10.147  67.681  1.00  0.00    -0.091 C  
ENDROOT
BRANCH   6   7
HETATM    7  N   UNL     1      -9.000  10.751  68.077  1.00  0.00    -0.136 NA 
HETATM    8  H   UNL     1      -9.286  10.862  69.050  1.00  0.00     0.000 HD 
BRANCH   7   9
HETATM    9  C   UNL     1      -9.731  11.127  67.083  1.00  0.00    -0.177 C  
BRANCH   9  10
HETATM   10  C   UNL     1     -10.052  12.549  66.865  1.00  0.00    -0.232 A  
HETATM   11  C   UNL     1     -10.085  13.016  65.549  1.00  0.00    -0.270 A  
HETATM   12  C   UNL     1     -10.186  14.387  65.310  1.00  0.00    -0.416 A  
HETATM   13  C   UNL     1     -10.269  15.280  66.382  1.00  0.00    -0.287 A  
HETATM   14  C   UNL     1     -10.306  14.807  67.697  1.00  0.00    -0.237 A  
HETATM   15  C   UNL     1     -10.192  13.435  67.940  1.00  0.00    -0.241 A  
BRANCH  13  16
HETATM   16  C   UNL     1     -10.228  16.736  66.135  1.00  0.00    -0.351 C  
BRANCH  16  17
HETATM   17  N   UNL     1      -9.103  17.350  65.986  1.00  0.00    -0.516 NA 
HETATM   18  H   UNL     1      -8.438  17.106  65.252  1.00  0.00     0.000 HD 
BRANCH  17  19
HETATM   19  C   UNL     1      -8.850  18.429  66.953  1.00  0.00    -0.279 C  
HETATM   20  C   UNL     1      -7.357  18.692  67.059  1.00  0.00    -0.211 C  
HETATM   21  O   UNL     1      -7.211  20.072  67.423  1.00  0.00    -0.239 OA 
HETATM   22  N   UNL     1      -8.385  20.704  66.944  1.00  0.00    -0.186 NA 
HETATM   23  C   UNL     1      -9.301  19.786  66.486  1.00  0.00    -0.394 C  
HETATM   24  O   UNL     1     -10.325  20.060  65.877  1.00  0.00    -0.485 OA 
ENDBRANCH  17  19
ENDBRANCH  16  17
ENDBRANCH  13  16
ENDBRANCH   9  10
ENDBRANCH   7   9
ENDBRANCH   6   7
TORSDOF 6
ENDMDL
MODEL      191
REMARK 921   NORMALIZED FREE ENERGY PREDICTED BY IDOCK:   -3.64 KCAL/MOL
REMARK 922        TOTAL FREE ENERGY PREDICTED BY IDOCK:   -5.46 KCAL/MOL
REMARK 923 INTER-LIGAND FREE ENERGY PREDICTED BY IDOCK:   -5.35 KCAL/MOL
REMARK 924 INTRA-LIGAND FREE ENERGY PREDICTED BY IDOCK:   -0.11 KCAL/MOL
REMARK 927      BINDING AFFINITY PREDICTED BY RF-SCORE:    0.00 PKD
ROOT
HETATM    1  O   UNL     1     -10.937   3.830  64.184  1.00  0.00    -0.294 OA 
HETATM    2  C   UNL     1      -9.786   3.817  64.599  1.00  0.00    -0.190 C  
HETATM    3  N   UNL     1      -8.819   2.944  64.196  1.00  0.00    -0.100 NA 
HETATM    4  O   UNL     1      -7.603   3.100  64.887  1.00  0.00    -0.074 OA 
HETATM    5  C   UNL     1      -7.810   4.162  65.828  1.00  0.00    -0.090 C  
HETATM    6  C   UNL     1      -9.186   4.773  65.589  1.00  0.00    -0.152 C  
ENDROOT
BRANCH   6   7
HETATM    7  N   UNL     1      -9.940   4.815  66.857  1.00  0.00    -0.207 NA 
HETATM    8  H   UNL     1      -9.750   4.187  67.638  1.00  0.00     0.000 HD 
BRANCH   7   9
HETATM    9  C   UNL     1     -10.861   5.718  66.889  1.00  0.00    -0.254 C  
BRANCH   9  10
HETATM   10  C   UNL     1     -10.599   7.057  67.446  1.00  0.00    -0.372 A  
HETATM   11  C   UNL     1     -10.761   7.233  68.823  1.00  0.00    -0.168 A  
HETATM   12  C   UNL     1     -10.720   8.521  69.359  1.00  0.00    -0.166 A  
HETATM   13  C   UNL     1     -10.500   9.621  68.523  1.00  0.00    -0.241 A  
HETATM   14  C   UNL     1     -10.268   9.437  67.157  1.00  0.00    -0.319 A  
HETATM   15  C   UNL     1     -10.323   8.149  66.615  1.00  0.00    -0.284 A  
BRANCH  13  16
HETATM   16  C   UNL     1     -10.602  10.991  69.064  1.00  0.00    -0.225 C  
BRANCH  16  17
HETATM   17  N   UNL     1      -9.664  11.854  68.861  1.00  0.00    -0.413 NA 
HETATM   18  H   UNL     1      -8.685  11.658  69.067  1.00  0.00     0.000 HD 
BRANCH  17  19
HETATM   19  C   UNL     1     -10.113  13.142  68.310  1.00  0.00    -0.247 C  
HETATM   20  C   UNL     1     -10.453  12.986  66.837  1.00  0.00    -0.254 C  
HETATM   21  O   UNL     1     -11.455  13.970  66.544  1.00  0.00    -0.331 OA 
HETATM   22  N   UNL     1     -12.104  14.212  67.780  1.00  0.00    -0.345 NA 
HETATM   23  C   UNL     1     -11.454  13.592  68.821  1.00  0.00    -0.311 C  
HETATM   24  O   UNL     1     -11.883  13.501  69.962  1.00  0.00    -0.308 OA 
ENDBRANCH  17  19
ENDBRANCH  16  17
ENDBRANCH  13  16
ENDBRANCH   9  10
ENDBRANCH   7   9
ENDBRANCH   6   7
TORSDOF 6
ENDMDL
MODEL      192
REMARK 921   NORMALIZED FREE ENERGY PREDICTED BY IDOCK:   -3.63 KCAL/MOL
REMARK 922        TOTAL FREE ENERGY PREDICTED BY IDOCK:   -5.44 KCAL/MOL
REMARK 923 INTER-LIGAND FREE ENERGY PREDICTED BY IDOCK:   -5.31 KCAL/MOL
REMARK 924 INTRA-LIGAND FREE ENERGY PREDICTED BY IDOCK:   -0.13 KCAL/MOL
REMARK 927      BINDING AFFINITY PREDICTED BY RF-SCORE:    0.00 PKD
ROOT
HETATM    1  O   UNL     1      -7.361   6.822  69.368  1.00  0.00    -0.086 OA 
HETATM    2  C   UNL     1      -7.931   6.054  70.130  1.00  0.00    -0.106 C  
HETATM    3  N   UNL     1      -8.275   4.768  69.832  1.00  0.00    -0.068 NA 
HETATM    4  O   UNL     1      -8.990   4.128  70.861  1.00  0.00    -0.087 OA 
HETATM    5  C   UNL     1      -9.130   5.093  71.912  1.00  0.00    -0.137 C  
HETATM    6  C   UNL     1      -8.329   6.339  71.549  1.00  0.00    -0.126 C  
ENDROOT
BRANCH   6   7
HETATM    7  N   UNL     1      -9.187   7.534  71.663  1.00  0.00    -0.134 NA 
HETATM    8  H   UNL     1     -10.118   7.513  72.079  1.00  0.00     0.000 HD 
BRANCH   7   9
HETATM    9  C   UNL     1      -8.654   8.609  71.188  1.00  0.00    -0.181 C  
BRANCH   9  10
HETATM   10  C   UNL     1      -9.403   9.496  70.280  1.00  0.00    -0.305 A  
HETATM   11  C   UNL     1      -8.675  10.417  69.522  1.00  0.00    -0.102 A  
HETATM   12  C   UNL     1      -9.354  11.405  68.807  1.00  0.00    -0.115 A  
HETATM   13  C   UNL     1     -10.751  11.457  68.838  1.00  0.00    -0.248 A  
HETATM   14  C   UNL     1     -11.480  10.494  69.540  1.00  0.00    -0.339 A  
HETATM   15  C   UNL     1     -10.802   9.512  70.270  1.00  0.00    -0.319 A  
BRANCH  13  16
HETATM   16  C   UNL     1     -11.461  12.585  68.203  1.00  0.00    -0.319 C  
BRANCH  16  17
HETATM   17  N   UNL     1     -12.084  12.430  67.083  1.00  0.00    -0.512 NA 
HETATM   18  H   UNL     1     -12.515  11.545  66.815  1.00  0.00     0.000 HD 
BRANCH  17  19
HETATM   19  C   UNL     1     -12.125  13.622  66.223  1.00  0.00    -0.434 C  
HETATM   20  C   UNL     1     -11.570  14.821  66.972  1.00  0.00    -0.339 C  
HETATM   21  O   UNL     1     -11.019  15.701  65.981  1.00  0.00    -0.299 OA 
HETATM   22  N   UNL     1     -10.683  14.860  64.891  1.00  0.00    -0.416 NA 
HETATM   23  C   UNL     1     -11.154  13.581  65.076  1.00  0.00    -0.328 C  
HETATM   24  O   UNL     1     -10.872  12.621  64.374  1.00  0.00    -0.312 OA 
ENDBRANCH  17  19
ENDBRANCH  16  17
ENDBRANCH  13  16
ENDBRANCH   9  10
ENDBRANCH   7   9
ENDBRANCH   6   7
TORSDOF 6
ENDMDL
MODEL      193
REMARK 921   NORMALIZED FREE ENERGY PREDICTED BY IDOCK:   -3.63 KCAL/MOL
REMARK 922        TOTAL FREE ENERGY PREDICTED BY IDOCK:   -5.44 KCAL/MOL
REMARK 923 INTER-LIGAND FREE ENERGY PREDICTED BY IDOCK:   -4.73 KCAL/MOL
REMARK 924 INTRA-LIGAND FREE ENERGY PREDICTED BY IDOCK:   -0.71 KCAL/MOL
REMARK 927      BINDING AFFINITY PREDICTED BY RF-SCORE:    0.00 PKD
ROOT
HETATM    1  O   UNL     1      -8.089   2.293  66.893  1.00  0.00    -0.073 OA 
HETATM    2  C   UNL     1      -8.916   3.137  66.578  1.00  0.00    -0.154 C  
HETATM    3  N   UNL     1      -9.484   3.254  65.344  1.00  0.00    -0.148 NA 
HETATM    4  O   UNL     1     -10.350   4.358  65.229  1.00  0.00    -0.242 OA 
HETATM    5  C   UNL     1     -10.327   5.018  66.502  1.00  0.00    -0.284 C  
HETATM    6  C   UNL     1      -9.511   4.180  67.479  1.00  0.00    -0.184 C  
ENDROOT
BRANCH   6   7
HETATM    7  N   UNL     1      -8.482   5.022  68.120  1.00  0.00    -0.099 NA 
HETATM    8  H   UNL     1      -8.279   4.989  69.119  1.00  0.00     0.000 HD 
BRANCH   7   9
HETATM    9  C   UNL     1      -7.861   5.804  67.303  1.00  0.00    -0.102 C  
BRANCH   9  10
HETATM   10  C   UNL     1      -7.840   7.263  67.509  1.00  0.00    -0.112 A  
HETATM   11  C   UNL     1      -8.306   7.755  68.731  1.00  0.00    -0.128 A  
HETATM   12  C   UNL     1      -8.492   9.129  68.891  1.00  0.00    -0.129 A  
HETATM   13  C   UNL     1      -8.196  10.003  67.839  1.00  0.00    -0.113 A  
HETATM   14  C   UNL     1      -7.665   9.516  66.642  1.00  0.00    -0.098 A  
HETATM   15  C   UNL     1      -7.491   8.138  66.474  1.00  0.00    -0.088 A  
BRANCH  13  16
HETATM   16  C   UNL     1      -8.529  11.436  67.956  1.00  0.00    -0.145 C  
BRANCH  16  17
HETATM   17  N   UNL     1      -9.388  11.848  68.827  1.00  0.00    -0.395 NA 
HETATM   18  H   UNL     1      -9.341  11.583  69.811  1.00  0.00     0.000 HD 
BRANCH  17  19
HETATM   19  C   UNL     1     -10.440  12.728  68.297  1.00  0.00    -0.241 C  
HETATM   20  C   UNL     1      -9.979  13.362  66.995  1.00  0.00    -0.246 C  
HETATM   21  O   UNL     1     -11.162  13.617  66.224  1.00  0.00    -0.299 OA 
HETATM   22  N   UNL     1     -12.111  12.672  66.686  1.00  0.00    -0.539 NA 
HETATM   23  C   UNL     1     -11.653  11.996  67.792  1.00  0.00    -0.330 C  
HETATM   24  O   UNL     1     -12.196  11.023  68.295  1.00  0.00    -0.582 OA 
ENDBRANCH  17  19
ENDBRANCH  16  17
ENDBRANCH  13  16
ENDBRANCH   9  10
ENDBRANCH   7   9
ENDBRANCH   6   7
TORSDOF 6
ENDMDL
MODEL      194
REMARK 921   NORMALIZED FREE ENERGY PREDICTED BY IDOCK:   -3.62 KCAL/MOL
REMARK 922        TOTAL FREE ENERGY PREDICTED BY IDOCK:   -5.43 KCAL/MOL
REMARK 923 INTER-LIGAND FREE ENERGY PREDICTED BY IDOCK:   -4.87 KCAL/MOL
REMARK 924 INTRA-LIGAND FREE ENERGY PREDICTED BY IDOCK:   -0.57 KCAL/MOL
REMARK 927      BINDING AFFINITY PREDICTED BY RF-SCORE:    0.00 PKD
ROOT
HETATM    1  O   UNL     1     -10.068   4.431  65.021  1.00  0.00    -0.192 OA 
HETATM    2  C   UNL     1      -9.038   4.825  65.550  1.00  0.00    -0.152 C  
HETATM    3  N   UNL     1      -7.856   4.145  65.564  1.00  0.00    -0.089 NA 
HETATM    4  O   UNL     1      -6.849   4.789  66.307  1.00  0.00    -0.058 OA 
HETATM    5  C   UNL     1      -7.441   5.986  66.830  1.00  0.00    -0.087 C  
HETATM    6  C   UNL     1      -8.842   6.139  66.249  1.00  0.00    -0.146 C  
ENDROOT
BRANCH   6   7
HETATM    7  N   UNL     1      -9.815   6.346  67.340  1.00  0.00    -0.125 NA 
HETATM    8  H   UNL     1      -9.767   5.850  68.229  1.00  0.00     0.000 HD 
BRANCH   7   9
HETATM    9  C   UNL     1     -10.731   7.212  67.067  1.00  0.00    -0.350 C  
BRANCH   9  10
HETATM   10  C   UNL     1     -10.497   8.656  67.251  1.00  0.00    -0.360 A  
HETATM   11  C   UNL     1     -10.681   9.188  68.530  1.00  0.00    -0.160 A  
HETATM   12  C   UNL     1     -10.666  10.572  68.706  1.00  0.00    -0.249 A  
HETATM   13  C   UNL     1     -10.453  11.415  67.610  1.00  0.00    -0.225 A  
HETATM   14  C   UNL     1     -10.200  10.880  66.344  1.00  0.00    -0.289 A  
HETATM   15  C   UNL     1     -10.227   9.494  66.162  1.00  0.00    -0.272 A  
BRANCH  13  16
HETATM   16  C   UNL     1     -10.583  12.877  67.768  1.00  0.00    -0.222 C  
BRANCH  16  17
HETATM   17  N   UNL     1     -10.066  13.482  68.784  1.00  0.00    -0.399 NA 
HETATM   18  H   UNL     1     -10.126  13.111  69.732  1.00  0.00     0.000 HD 
BRANCH  17  19
HETATM   19  C   UNL     1      -9.383  14.747  68.474  1.00  0.00    -0.199 C  
HETATM   20  C   UNL     1      -8.699  14.650  67.120  1.00  0.00    -0.222 C  
HETATM   21  O   UNL     1      -8.658  15.981  66.587  1.00  0.00    -0.223 OA 
HETATM   22  N   UNL     1      -9.743  16.655  67.201  1.00  0.00    -0.245 NA 
HETATM   23  C   UNL     1     -10.316  15.892  68.191  1.00  0.00    -0.256 C  
HETATM   24  O   UNL     1     -11.360  16.161  68.768  1.00  0.00    -0.346 OA 
ENDBRANCH  17  19
ENDBRANCH  16  17
ENDBRANCH  13  16
ENDBRANCH   9  10
ENDBRANCH   7   9
ENDBRANCH   6   7
TORSDOF 6
ENDMDL
MODEL      195
REMARK 921   NORMALIZED FREE ENERGY PREDICTED BY IDOCK:   -3.62 KCAL/MOL
REMARK 922        TOTAL FREE ENERGY PREDICTED BY IDOCK:   -5.43 KCAL/MOL
REMARK 923 INTER-LIGAND FREE ENERGY PREDICTED BY IDOCK:   -4.81 KCAL/MOL
REMARK 924 INTRA-LIGAND FREE ENERGY PREDICTED BY IDOCK:   -0.61 KCAL/MOL
REMARK 927      BINDING AFFINITY PREDICTED BY RF-SCORE:    0.00 PKD
ROOT
HETATM    1  O   UNL     1     -10.200  16.516  64.863  1.00  0.00    -0.486 OA 
HETATM    2  C   UNL     1     -10.362  16.688  66.063  1.00  0.00    -0.340 C  
HETATM    3  N   UNL     1      -9.705  17.616  66.817  1.00  0.00    -0.287 NA 
HETATM    4  O   UNL     1     -10.024  17.551  68.186  1.00  0.00    -0.288 OA 
HETATM    5  C   UNL     1     -10.962  16.475  68.328  1.00  0.00    -0.346 C  
HETATM    6  C   UNL     1     -11.334  15.958  66.944  1.00  0.00     0.123 C  
ENDROOT
BRANCH   6   7
HETATM    7  N   UNL     1     -11.150  14.494  66.892  1.00  0.00    -0.317 NA 
HETATM    8  H   UNL     1     -11.567  13.907  66.169  1.00  0.00     0.000 HD 
BRANCH   7   9
HETATM    9  C   UNL     1     -10.416  14.025  67.843  1.00  0.00    -0.241 C  
BRANCH   9  10
HETATM   10  C   UNL     1     -10.255  12.573  68.037  1.00  0.00    -0.225 A  
HETATM   11  C   UNL     1      -9.012  12.009  67.738  1.00  0.00    -0.176 A  
HETATM   12  C   UNL     1      -8.876  10.620  67.716  1.00  0.00    -0.133 A  
HETATM   13  C   UNL     1      -9.974   9.805  68.007  1.00  0.00    -0.185 A  
HETATM   14  C   UNL     1     -11.199  10.370  68.374  1.00  0.00    -0.318 A  
HETATM   15  C   UNL     1     -11.341  11.761  68.384  1.00  0.00    -0.328 A  
BRANCH  13  16
HETATM   16  C   UNL     1      -9.871   8.341  67.840  1.00  0.00    -0.169 C  
BRANCH  16  17
HETATM   17  N   UNL     1      -9.813   7.811  66.665  1.00  0.00    -0.301 NA 
HETATM   18  H   UNL     1     -10.441   8.084  65.909  1.00  0.00     0.000 HD 
BRANCH  17  19
HETATM   19  C   UNL     1      -8.774   6.784  66.496  1.00  0.00    -0.136 C  
HETATM   20  C   UNL     1      -7.950   6.665  67.767  1.00  0.00    -0.112 C  
HETATM   21  O   UNL     1      -7.470   5.314  67.817  1.00  0.00    -0.075 OA 
HETATM   22  N   UNL     1      -8.409   4.563  67.068  1.00  0.00    -0.105 NA 
HETATM   23  C   UNL     1      -9.308   5.380  66.423  1.00  0.00    -0.150 C  
HETATM   24  O   UNL     1     -10.313   4.996  65.842  1.00  0.00    -0.219 OA 
ENDBRANCH  17  19
ENDBRANCH  16  17
ENDBRANCH  13  16
ENDBRANCH   9  10
ENDBRANCH   7   9
ENDBRANCH   6   7
TORSDOF 6
ENDMDL
MODEL      196
REMARK 921   NORMALIZED FREE ENERGY PREDICTED BY IDOCK:   -3.61 KCAL/MOL
REMARK 922        TOTAL FREE ENERGY PREDICTED BY IDOCK:   -5.41 KCAL/MOL
REMARK 923 INTER-LIGAND FREE ENERGY PREDICTED BY IDOCK:   -5.16 KCAL/MOL
REMARK 924 INTRA-LIGAND FREE ENERGY PREDICTED BY IDOCK:   -0.26 KCAL/MOL
REMARK 927      BINDING AFFINITY PREDICTED BY RF-SCORE:    0.00 PKD
ROOT
HETATM    1  O   UNL     1      -9.308   4.043  65.569  1.00  0.00    -0.140 OA 
HETATM    2  C   UNL     1      -8.981   4.239  66.732  1.00  0.00    -0.122 C  
HETATM    3  N   UNL     1      -8.823   3.266  67.675  1.00  0.00    -0.119 NA 
HETATM    4  O   UNL     1      -8.516   3.770  68.952  1.00  0.00    -0.075 OA 
HETATM    5  C   UNL     1      -8.487   5.198  68.823  1.00  0.00    -0.087 C  
HETATM    6  C   UNL     1      -8.645   5.564  67.351  1.00  0.00    -0.108 C  
ENDROOT
BRANCH   6   7
HETATM    7  N   UNL     1      -9.733   6.549  67.197  1.00  0.00    -0.136 NA 
HETATM    8  H   UNL     1     -10.544   6.392  66.598  1.00  0.00     0.000 HD 
BRANCH   7   9
HETATM    9  C   UNL     1      -9.566   7.627  67.886  1.00  0.00    -0.144 C  
BRANCH   9  10
HETATM   10  C   UNL     1     -10.200   8.896  67.485  1.00  0.00    -0.309 A  
HETATM   11  C   UNL     1      -9.858   9.429  66.239  1.00  0.00    -0.351 A  
HETATM   12  C   UNL     1     -10.276  10.719  65.908  1.00  0.00    -0.319 A  
HETATM   13  C   UNL     1     -11.043  11.460  66.812  1.00  0.00    -0.343 A  
HETATM   14  C   UNL     1     -11.442  10.900  68.028  1.00  0.00    -0.356 A  
HETATM   15  C   UNL     1     -11.014   9.613  68.369  1.00  0.00    -0.161 A  
BRANCH  13  16
HETATM   16  C   UNL     1     -11.360  12.874  66.525  1.00  0.00    -0.318 C  
BRANCH  16  17
HETATM   17  N   UNL     1     -11.850  13.642  67.439  1.00  0.00    -0.381 NA 
HETATM   18  H   UNL     1     -12.827  13.935  67.442  1.00  0.00     0.000 HD 
BRANCH  17  19
HETATM   19  C   UNL     1     -10.896  14.062  68.476  1.00  0.00    -0.254 C  
HETATM   20  C   UNL     1     -10.298  15.411  68.115  1.00  0.00    -0.239 C  
HETATM   21  O   UNL     1      -9.958  16.051  69.354  1.00  0.00    -0.240 OA 
HETATM   22  N   UNL     1     -10.831  15.481  70.312  1.00  0.00    -0.321 NA 
HETATM   23  C   UNL     1     -11.539  14.426  69.787  1.00  0.00    -0.298 C  
HETATM   24  O   UNL     1     -12.470  13.860  70.340  1.00  0.00    -0.336 OA 
ENDBRANCH  17  19
ENDBRANCH  16  17
ENDBRANCH  13  16
ENDBRANCH   9  10
ENDBRANCH   7   9
ENDBRANCH   6   7
TORSDOF 6
ENDMDL
MODEL      197
REMARK 921   NORMALIZED FREE ENERGY PREDICTED BY IDOCK:   -3.60 KCAL/MOL
REMARK 922        TOTAL FREE ENERGY PREDICTED BY IDOCK:   -5.41 KCAL/MOL
REMARK 923 INTER-LIGAND FREE ENERGY PREDICTED BY IDOCK:   -4.96 KCAL/MOL
REMARK 924 INTRA-LIGAND FREE ENERGY PREDICTED BY IDOCK:   -0.45 KCAL/MOL
REMARK 927      BINDING AFFINITY PREDICTED BY RF-SCORE:    0.00 PKD
ROOT
HETATM    1  O   UNL     1     -11.843  16.575  71.806  1.00  0.00    -0.423 OA 
HETATM    2  C   UNL     1     -12.613  15.640  71.980  1.00  0.00    -0.430 C  
HETATM    3  N   UNL     1     -13.364  15.442  73.101  1.00  0.00    -0.502 NA 
HETATM    4  O   UNL     1     -14.108  14.248  73.072  1.00  0.00    -0.396 OA 
HETATM    5  C   UNL     1     -13.798  13.613  71.824  1.00  0.00    -0.278 C  
HETATM    6  C   UNL     1     -12.927  14.551  70.995  1.00  0.00    -0.358 C  
ENDROOT
BRANCH   6   7
HETATM    7  N   UNL     1     -11.717  13.837  70.541  1.00  0.00    -0.518 NA 
HETATM    8  H   UNL     1     -10.977  13.539  71.176  1.00  0.00     0.000 HD 
BRANCH   7   9
HETATM    9  C   UNL     1     -11.681  13.625  69.270  1.00  0.00    -0.325 C  
BRANCH   9  10
HETATM   10  C   UNL     1     -11.066  12.405  68.716  1.00  0.00    -0.307 A  
HETATM   11  C   UNL     1      -9.683  12.257  68.843  1.00  0.00     0.126 A  
HETATM   12  C   UNL     1      -9.039  11.223  68.162  1.00  0.00    -0.166 A  
HETATM   13  C   UNL     1      -9.779  10.336  67.374  1.00  0.00    -0.189 A  
HETATM   14  C   UNL     1     -11.170  10.443  67.303  1.00  0.00    -0.153 A  
HETATM   15  C   UNL     1     -11.817  11.486  67.973  1.00  0.00    -0.287 A  
BRANCH  13  16
HETATM   16  C   UNL     1      -9.085   9.335  66.539  1.00  0.00    -0.154 C  
BRANCH  16  17
HETATM   17  N   UNL     1      -7.937   8.860  66.891  1.00  0.00    -0.101 NA 
HETATM   18  H   UNL     1      -7.060   9.189  66.486  1.00  0.00     0.000 HD 
BRANCH  17  19
HETATM   19  C   UNL     1      -7.986   7.810  67.920  1.00  0.00    -0.125 C  
HETATM   20  C   UNL     1      -8.939   6.707  67.490  1.00  0.00    -0.114 C  
HETATM   21  O   UNL     1      -8.468   5.500  68.105  1.00  0.00    -0.099 OA 
HETATM   22  N   UNL     1      -7.082   5.708  68.309  1.00  0.00    -0.072 NA 
HETATM   23  C   UNL     1      -6.720   7.006  68.034  1.00  0.00    -0.065 C  
HETATM   24  O   UNL     1      -5.571   7.417  67.971  1.00  0.00    -0.024 OA 
ENDBRANCH  17  19
ENDBRANCH  16  17
ENDBRANCH  13  16
ENDBRANCH   9  10
ENDBRANCH   7   9
ENDBRANCH   6   7
TORSDOF 6
ENDMDL
MODEL      198
REMARK 921   NORMALIZED FREE ENERGY PREDICTED BY IDOCK:   -3.60 KCAL/MOL
REMARK 922        TOTAL FREE ENERGY PREDICTED BY IDOCK:   -5.40 KCAL/MOL
REMARK 923 INTER-LIGAND FREE ENERGY PREDICTED BY IDOCK:   -4.87 KCAL/MOL
REMARK 924 INTRA-LIGAND FREE ENERGY PREDICTED BY IDOCK:   -0.53 KCAL/MOL
REMARK 927      BINDING AFFINITY PREDICTED BY RF-SCORE:    0.00 PKD
ROOT
HETATM    1  O   UNL     1      -9.090  16.799  68.976  1.00  0.00    -0.256 OA 
HETATM    2  C   UNL     1      -9.693  16.244  68.067  1.00  0.00    -0.230 C  
HETATM    3  N   UNL     1     -10.295  16.882  67.023  1.00  0.00    -0.311 NA 
HETATM    4  O   UNL     1     -10.983  16.011  66.157  1.00  0.00    -0.225 OA 
HETATM    5  C   UNL     1     -10.819  14.694  66.701  1.00  0.00    -0.312 C  
HETATM    6  C   UNL     1      -9.858  14.764  67.883  1.00  0.00    -0.212 C  
ENDROOT
BRANCH   6   7
HETATM    7  N   UNL     1     -10.467  14.115  69.060  1.00  0.00    -0.349 NA 
HETATM    8  H   UNL     1     -10.335  14.455  70.013  1.00  0.00     0.000 HD 
BRANCH   7   9
HETATM    9  C   UNL     1     -11.183  13.080  68.776  1.00  0.00    -0.282 C  
BRANCH   9  10
HETATM   10  C   UNL     1     -10.758  11.726  69.175  1.00  0.00    -0.169 A  
HETATM   11  C   UNL     1      -9.578  11.223  68.621  1.00  0.00    -0.195 A  
HETATM   12  C   UNL     1      -9.248   9.881  68.813  1.00  0.00    -0.147 A  
HETATM   13  C   UNL     1     -10.086   9.054  69.568  1.00  0.00    -0.199 A  
HETATM   14  C   UNL     1     -11.230   9.575  70.179  1.00  0.00    -0.275 A  
HETATM   15  C   UNL     1     -11.571  10.916  69.978  1.00  0.00    -0.424 A  
BRANCH  13  16
HETATM   16  C   UNL     1      -9.816   7.605  69.649  1.00  0.00    -0.181 C  
BRANCH  16  17
HETATM   17  N   UNL     1      -9.102   7.013  68.750  1.00  0.00    -0.134 NA 
HETATM   18  H   UNL     1      -8.091   7.130  68.689  1.00  0.00     0.000 HD 
BRANCH  17  19
HETATM   19  C   UNL     1      -9.856   6.158  67.821  1.00  0.00    -0.123 C  
HETATM   20  C   UNL     1      -9.271   6.270  66.423  1.00  0.00    -0.156 C  
HETATM   21  O   UNL     1      -9.539   5.022  65.768  1.00  0.00    -0.159 OA 
HETATM   22  N   UNL     1      -9.654   4.075  66.816  1.00  0.00    -0.206 NA 
HETATM   23  C   UNL     1      -9.658   4.685  68.049  1.00  0.00    -0.155 C  
HETATM   24  O   UNL     1      -9.585   4.102  69.121  1.00  0.00    -0.172 OA 
ENDBRANCH  17  19
ENDBRANCH  16  17
ENDBRANCH  13  16
ENDBRANCH   9  10
ENDBRANCH   7   9
ENDBRANCH   6   7
TORSDOF 6
ENDMDL
MODEL      199
REMARK 921   NORMALIZED FREE ENERGY PREDICTED BY IDOCK:   -3.59 KCAL/MOL
REMARK 922        TOTAL FREE ENERGY PREDICTED BY IDOCK:   -5.39 KCAL/MOL
REMARK 923 INTER-LIGAND FREE ENERGY PREDICTED BY IDOCK:   -4.95 KCAL/MOL
REMARK 924 INTRA-LIGAND FREE ENERGY PREDICTED BY IDOCK:   -0.45 KCAL/MOL
REMARK 927      BINDING AFFINITY PREDICTED BY RF-SCORE:    0.00 PKD
ROOT
HETATM    1  O   UNL     1      -9.509  18.175  65.702  1.00  0.00    -0.375 OA 
HETATM    2  C   UNL     1      -9.104  17.664  66.737  1.00  0.00    -0.260 C  
HETATM    3  N   UNL     1      -8.331  18.291  67.669  1.00  0.00    -0.245 NA 
HETATM    4  O   UNL     1      -7.942  17.451  68.730  1.00  0.00    -0.270 OA 
HETATM    5  C   UNL     1      -8.505  16.163  68.447  1.00  0.00    -0.184 C  
HETATM    6  C   UNL     1      -9.402  16.274  67.219  1.00  0.00    -0.224 C  
ENDROOT
BRANCH   6   7
HETATM    7  N   UNL     1      -9.026  15.243  66.232  1.00  0.00    -0.404 NA 
HETATM    8  H   UNL     1      -8.060  15.063  65.956  1.00  0.00     0.000 HD 
BRANCH   7   9
HETATM    9  C   UNL     1     -10.028  14.591  65.748  1.00  0.00    -0.334 C  
BRANCH   9  10
HETATM   10  C   UNL     1     -10.296  13.197  66.145  1.00  0.00    -0.287 A  
HETATM   11  C   UNL     1     -10.358  12.909  67.511  1.00  0.00    -0.223 A  
HETATM   12  C   UNL     1     -10.408  11.579  67.930  1.00  0.00    -0.203 A  
HETATM   13  C   UNL     1     -10.412  10.547  66.986  1.00  0.00    -0.304 A  
HETATM   14  C   UNL     1     -10.419  10.838  65.619  1.00  0.00    -0.255 A  
HETATM   15  C   UNL     1     -10.355  12.170  65.197  1.00  0.00    -0.311 A  
BRANCH  13  16
HETATM   16  C   UNL     1     -10.316   9.142  67.429  1.00  0.00    -0.264 C  
BRANCH  16  17
HETATM   17  N   UNL     1      -9.260   8.441  67.185  1.00  0.00    -0.139 NA 
HETATM   18  H   UNL     1      -8.319   8.831  67.240  1.00  0.00     0.000 HD 
BRANCH  17  19
HETATM   19  C   UNL     1      -9.513   7.038  66.824  1.00  0.00    -0.163 C  
HETATM   20  C   UNL     1      -8.777   6.691  65.541  1.00  0.00    -0.039 C  
HETATM   21  O   UNL     1      -8.494   5.286  65.600  1.00  0.00    -0.124 OA 
HETATM   22  N   UNL     1      -8.452   4.979  66.983  1.00  0.00    -0.107 NA 
HETATM   23  C   UNL     1      -8.868   6.043  67.749  1.00  0.00    -0.106 C  
HETATM   24  O   UNL     1      -8.780   6.107  68.967  1.00  0.00    -0.123 OA 
ENDBRANCH  17  19
ENDBRANCH  16  17
ENDBRANCH  13  16
ENDBRANCH   9  10
ENDBRANCH   7   9
ENDBRANCH   6   7
TORSDOF 6
ENDMDL
MODEL      200
REMARK 921   NORMALIZED FREE ENERGY PREDICTED BY IDOCK:   -3.58 KCAL/MOL
REMARK 922        TOTAL FREE ENERGY PREDICTED BY IDOCK:   -5.38 KCAL/MOL
REMARK 923 INTER-LIGAND FREE ENERGY PREDICTED BY IDOCK:   -4.87 KCAL/MOL
REMARK 924 INTRA-LIGAND FREE ENERGY PREDICTED BY IDOCK:   -0.52 KCAL/MOL
REMARK 927      BINDING AFFINITY PREDICTED BY RF-SCORE:    0.00 PKD
ROOT
HETATM    1  O   UNL     1      -5.591   4.463  66.263  1.00  0.00    -0.013 OA 
HETATM    2  C   UNL     1      -6.238   3.863  65.416  1.00  0.00    -0.027 C  
HETATM    3  N   UNL     1      -6.213   4.126  64.079  1.00  0.00    -0.021 NA 
HETATM    4  O   UNL     1      -7.110   3.336  63.336  1.00  0.00    -0.046 OA 
HETATM    5  C   UNL     1      -7.783   2.496  64.283  1.00  0.00    -0.076 C  
HETATM    6  C   UNL     1      -7.150   2.694  65.656  1.00  0.00    -0.061 C  
ENDROOT
BRANCH   6   7
HETATM    7  N   UNL     1      -8.200   2.995  66.650  1.00  0.00    -0.088 NA 
HETATM    8  H   UNL     1      -8.282   2.501  67.538  1.00  0.00     0.000 HD 
BRANCH   7   9
HETATM    9  C   UNL     1      -9.003   3.939  66.293  1.00  0.00    -0.132 C  
BRANCH   9  10
HETATM   10  C   UNL     1      -9.636   4.821  67.290  1.00  0.00    -0.185 A  
HETATM   11  C   UNL     1      -9.477   4.498  68.640  1.00  0.00    -0.220 A  
HETATM   12  C   UNL     1     -10.219   5.184  69.602  1.00  0.00    -0.337 A  
HETATM   13  C   UNL     1     -11.102   6.197  69.213  1.00  0.00    -0.463 A  
HETATM   14  C   UNL     1     -11.208   6.567  67.870  1.00  0.00    -0.257 A  
HETATM   15  C   UNL     1     -10.476   5.872  66.903  1.00  0.00    -0.349 A  
BRANCH  13  16
HETATM   16  C   UNL     1     -11.994   6.822  70.211  1.00  0.00    -0.236 C  
BRANCH  16  17
HETATM   17  N   UNL     1     -11.560   7.125  71.389  1.00  0.00    -0.269 NA 
HETATM   18  H   UNL     1     -11.216   6.423  72.043  1.00  0.00     0.000 HD 
BRANCH  17  19
HETATM   19  C   UNL     1     -11.600   8.558  71.716  1.00  0.00    -0.312 C  
HETATM   20  C   UNL     1     -11.118   9.375  70.529  1.00  0.00    -0.273 C  
HETATM   21  O   UNL     1     -11.775  10.648  70.616  1.00  0.00    -0.320 OA 
HETATM   22  N   UNL     1     -12.968  10.395  71.338  1.00  0.00    -0.412 NA 
HETATM   23  C   UNL     1     -12.990   9.118  71.846  1.00  0.00    -0.404 C  
HETATM   24  O   UNL     1     -13.959   8.586  72.368  1.00  0.00    -0.364 OA 
ENDBRANCH  17  19
ENDBRANCH  16  17
ENDBRANCH  13  16
ENDBRANCH   9  10
ENDBRANCH   7   9
ENDBRANCH   6   7
TORSDOF 6
ENDMDL
MODEL      201
REMARK 921   NORMALIZED FREE ENERGY PREDICTED BY IDOCK:   -3.56 KCAL/MOL
REMARK 922        TOTAL FREE ENERGY PREDICTED BY IDOCK:   -5.35 KCAL/MOL
REMARK 923 INTER-LIGAND FREE ENERGY PREDICTED BY IDOCK:   -4.86 KCAL/MOL
REMARK 924 INTRA-LIGAND FREE ENERGY PREDICTED BY IDOCK:   -0.49 KCAL/MOL
REMARK 927      BINDING AFFINITY PREDICTED BY RF-SCORE:    0.00 PKD
ROOT
HETATM    1  O   UNL     1     -10.517   5.640  66.428  1.00  0.00    -0.229 OA 
HETATM    2  C   UNL     1      -9.537   5.703  67.157  1.00  0.00    -0.131 C  
HETATM    3  N   UNL     1      -8.843   4.629  67.631  1.00  0.00    -0.104 NA 
HETATM    4  O   UNL     1      -7.802   4.979  68.511  1.00  0.00    -0.081 OA 
HETATM    5  C   UNL     1      -7.837   6.408  68.624  1.00  0.00    -0.102 C  
HETATM    6  C   UNL     1      -8.868   6.956  67.644  1.00  0.00    -0.118 C  
ENDROOT
BRANCH   6   7
HETATM    7  N   UNL     1      -9.802   7.853  68.352  1.00  0.00    -0.168 NA 
HETATM    8  H   UNL     1      -9.941   7.826  69.362  1.00  0.00     0.000 HD 
BRANCH   7   9
HETATM    9  C   UNL     1     -10.428   8.674  67.578  1.00  0.00    -0.266 C  
BRANCH   9  10
HETATM   10  C   UNL     1      -9.973  10.067  67.415  1.00  0.00    -0.242 A  
HETATM   11  C   UNL     1      -9.323  10.671  68.494  1.00  0.00    -0.170 A  
HETATM   12  C   UNL     1      -9.057  12.040  68.455  1.00  0.00    -0.107 A  
HETATM   13  C   UNL     1      -9.426  12.793  67.336  1.00  0.00    -0.190 A  
HETATM   14  C   UNL     1     -10.014  12.176  66.229  1.00  0.00    -0.249 A  
HETATM   15  C   UNL     1     -10.294  10.806  66.270  1.00  0.00    -0.303 A  
BRANCH  13  16
HETATM   16  C   UNL     1      -9.279  14.263  67.355  1.00  0.00    -0.200 C  
BRANCH  16  17
HETATM   17  N   UNL     1      -8.371  14.847  66.647  1.00  0.00    -0.403 NA 
HETATM   18  H   UNL     1      -7.433  14.462  66.534  1.00  0.00     0.000 HD 
BRANCH  17  19
HETATM   19  C   UNL     1      -8.788  16.108  66.017  1.00  0.00    -0.278 C  
HETATM   20  C   UNL     1     -10.268  16.052  65.674  1.00  0.00    -0.386 C  
HETATM   21  O   UNL     1     -10.748  17.403  65.717  1.00  0.00    -0.361 OA 
HETATM   22  N   UNL     1      -9.872  18.075  66.605  1.00  0.00    -0.334 NA 
HETATM   23  C   UNL     1      -8.802  17.285  66.953  1.00  0.00    -0.240 C  
HETATM   24  O   UNL     1      -7.985  17.552  67.823  1.00  0.00    -0.202 OA 
ENDBRANCH  17  19
ENDBRANCH  16  17
ENDBRANCH  13  16
ENDBRANCH   9  10
ENDBRANCH   7   9
ENDBRANCH   6   7
TORSDOF 6
ENDMDL
MODEL      202
REMARK 921   NORMALIZED FREE ENERGY PREDICTED BY IDOCK:   -3.56 KCAL/MOL
REMARK 922        TOTAL FREE ENERGY PREDICTED BY IDOCK:   -5.35 KCAL/MOL
REMARK 923 INTER-LIGAND FREE ENERGY PREDICTED BY IDOCK:   -5.43 KCAL/MOL
REMARK 924 INTRA-LIGAND FREE ENERGY PREDICTED BY IDOCK:    0.07 KCAL/MOL
REMARK 927      BINDING AFFINITY PREDICTED BY RF-SCORE:    0.00 PKD
ROOT
HETATM    1  O   UNL     1      -8.866   4.357  67.022  1.00  0.00    -0.110 OA 
HETATM    2  C   UNL     1      -8.166   4.402  66.020  1.00  0.00    -0.109 C  
HETATM    3  N   UNL     1      -6.937   3.824  65.897  1.00  0.00    -0.061 NA 
HETATM    4  O   UNL     1      -6.313   4.092  64.664  1.00  0.00    -0.028 OA 
HETATM    5  C   UNL     1      -7.219   4.929  63.932  1.00  0.00    -0.050 C  
HETATM    6  C   UNL     1      -8.521   5.053  64.714  1.00  0.00    -0.148 C  
ENDROOT
BRANCH   6   7
HETATM    7  N   UNL     1      -8.873   6.477  64.874  1.00  0.00    -0.339 NA 
HETATM    8  H   UNL     1      -9.154   7.071  64.094  1.00  0.00     0.000 HD 
BRANCH   7   9
HETATM    9  C   UNL     1      -8.794   6.903  66.089  1.00  0.00    -0.147 C  
BRANCH   9  10
HETATM   10  C   UNL     1      -9.195   8.276  66.445  1.00  0.00    -0.247 A  
HETATM   11  C   UNL     1      -9.572   8.524  67.767  1.00  0.00    -0.185 A  
HETATM   12  C   UNL     1     -10.146   9.752  68.098  1.00  0.00    -0.193 A  
HETATM   13  C   UNL     1     -10.324  10.729  67.114  1.00  0.00    -0.269 A  
HETATM   14  C   UNL     1      -9.883  10.507  65.807  1.00  0.00    -0.295 A  
HETATM   15  C   UNL     1      -9.320   9.272  65.469  1.00  0.00    -0.303 A  
BRANCH  13  16
HETATM   16  C   UNL     1     -11.063  11.968  67.430  1.00  0.00    -0.281 C  
BRANCH  16  17
HETATM   17  N   UNL     1     -11.829  12.525  66.553  1.00  0.00    -0.520 NA 
HETATM   18  H   UNL     1     -12.225  12.010  65.766  1.00  0.00     0.000 HD 
BRANCH  17  19
HETATM   19  C   UNL     1     -12.090  13.956  66.773  1.00  0.00    -0.439 C  
HETATM   20  C   UNL     1     -11.850  14.309  68.231  1.00  0.00    -0.335 C  
HETATM   21  O   UNL     1     -11.458  15.689  68.257  1.00  0.00    -0.353 OA 
HETATM   22  N   UNL     1     -10.891  15.933  66.981  1.00  0.00    -0.293 NA 
HETATM   23  C   UNL     1     -11.077  14.866  66.134  1.00  0.00    -0.335 C  
HETATM   24  O   UNL     1     -10.556  14.743  65.035  1.00  0.00    -0.386 OA 
ENDBRANCH  17  19
ENDBRANCH  16  17
ENDBRANCH  13  16
ENDBRANCH   9  10
ENDBRANCH   7   9
ENDBRANCH   6   7
TORSDOF 6
ENDMDL
MODEL      203
REMARK 921   NORMALIZED FREE ENERGY PREDICTED BY IDOCK:   -3.55 KCAL/MOL
REMARK 922        TOTAL FREE ENERGY PREDICTED BY IDOCK:   -5.33 KCAL/MOL
REMARK 923 INTER-LIGAND FREE ENERGY PREDICTED BY IDOCK:   -4.76 KCAL/MOL
REMARK 924 INTRA-LIGAND FREE ENERGY PREDICTED BY IDOCK:   -0.57 KCAL/MOL
REMARK 927      BINDING AFFINITY PREDICTED BY RF-SCORE:    0.00 PKD
ROOT
HETATM    1  O   UNL     1      -7.674   3.872  68.339  1.00  0.00    -0.065 OA 
HETATM    2  C   UNL     1      -8.157   4.167  69.424  1.00  0.00    -0.059 C  
HETATM    3  N   UNL     1      -8.509   3.275  70.393  1.00  0.00    -0.055 NA 
HETATM    4  O   UNL     1      -9.112   3.875  71.514  1.00  0.00    -0.103 OA 
HETATM    5  C   UNL     1      -9.163   5.281  71.235  1.00  0.00    -0.146 C  
HETATM    6  C   UNL     1      -8.419   5.554  69.933  1.00  0.00    -0.116 C  
ENDROOT
BRANCH   6   7
HETATM    7  N   UNL     1      -9.278   6.335  69.022  1.00  0.00    -0.128 NA 
HETATM    8  H   UNL     1     -10.069   5.930  68.521  1.00  0.00     0.000 HD 
BRANCH   7   9
HETATM    9  C   UNL     1      -8.939   7.575  68.916  1.00  0.00    -0.134 C  
BRANCH   9  10
HETATM   10  C   UNL     1      -9.935   8.653  69.054  1.00  0.00    -0.197 A  
HETATM   11  C   UNL     1     -10.341   9.317  67.894  1.00  0.00    -0.279 A  
HETATM   12  C   UNL     1     -11.123  10.468  68.001  1.00  0.00    -0.361 A  
HETATM   13  C   UNL     1     -11.508  10.939  69.260  1.00  0.00    -0.372 A  
HETATM   14  C   UNL     1     -11.159  10.236  70.416  1.00  0.00    -0.391 A  
HETATM   15  C   UNL     1     -10.364   9.090  70.313  1.00  0.00    -0.243 A  
BRANCH  13  16
HETATM   16  C   UNL     1     -12.208  12.233  69.381  1.00  0.00    -0.065 C  
BRANCH  16  17
HETATM   17  N   UNL     1     -12.032  13.166  68.507  1.00  0.00    -0.331 NA 
HETATM   18  H   UNL     1     -12.022  12.982  67.503  1.00  0.00     0.000 HD 
BRANCH  17  19
HETATM   19  C   UNL     1     -11.847  14.515  69.064  1.00  0.00    -0.318 C  
HETATM   20  C   UNL     1     -11.916  14.464  70.581  1.00  0.00    -0.323 C  
HETATM   21  O   UNL     1     -11.108  15.546  71.062  1.00  0.00    -0.344 OA 
HETATM   22  N   UNL     1     -10.162  15.783  70.034  1.00  0.00    -0.284 NA 
HETATM   23  C   UNL     1     -10.453  15.056  68.903  1.00  0.00    -0.241 C  
HETATM   24  O   UNL     1      -9.721  14.948  67.931  1.00  0.00    -0.204 OA 
ENDBRANCH  17  19
ENDBRANCH  16  17
ENDBRANCH  13  16
ENDBRANCH   9  10
ENDBRANCH   7   9
ENDBRANCH   6   7
TORSDOF 6
ENDMDL
MODEL      204
REMARK 921   NORMALIZED FREE ENERGY PREDICTED BY IDOCK:   -3.54 KCAL/MOL
REMARK 922        TOTAL FREE ENERGY PREDICTED BY IDOCK:   -5.32 KCAL/MOL
REMARK 923 INTER-LIGAND FREE ENERGY PREDICTED BY IDOCK:   -5.04 KCAL/MOL
REMARK 924 INTRA-LIGAND FREE ENERGY PREDICTED BY IDOCK:   -0.27 KCAL/MOL
REMARK 927      BINDING AFFINITY PREDICTED BY RF-SCORE:    0.00 PKD
ROOT
HETATM    1  O   UNL     1      -5.378  11.464  68.384  1.00  0.00    -0.043 OA 
HETATM    2  C   UNL     1      -5.977  12.505  68.154  1.00  0.00    -0.073 C  
HETATM    3  N   UNL     1      -5.859  13.653  68.881  1.00  0.00    -0.080 NA 
HETATM    4  O   UNL     1      -6.717  14.681  68.446  1.00  0.00    -0.088 OA 
HETATM    5  C   UNL     1      -7.464  14.140  67.348  1.00  0.00    -0.134 C  
HETATM    6  C   UNL     1      -6.921  12.756  67.014  1.00  0.00     0.166 C  
ENDROOT
BRANCH   6   7
HETATM    7  N   UNL     1      -8.029  11.781  66.977  1.00  0.00    -0.161 NA 
HETATM    8  H   UNL     1      -7.935  10.847  66.577  1.00  0.00     0.000 HD 
BRANCH   7   9
HETATM    9  C   UNL     1      -9.126  12.216  67.497  1.00  0.00    -0.180 C  
BRANCH   9  10
HETATM   10  C   UNL     1      -9.761  11.522  68.632  1.00  0.00    -0.172 A  
HETATM   11  C   UNL     1      -9.071  10.455  69.212  1.00  0.00    -0.188 A  
HETATM   12  C   UNL     1      -9.718   9.648  70.150  1.00  0.00    -0.301 A  
HETATM   13  C   UNL     1     -11.040   9.921  70.514  1.00  0.00    -0.398 A  
HETATM   14  C   UNL     1     -11.706  11.029  69.985  1.00  0.00    -0.437 A  
HETATM   15  C   UNL     1     -11.066  11.831  69.035  1.00  0.00    -0.301 A  
BRANCH  13  16
HETATM   16  C   UNL     1     -11.771   8.985  71.392  1.00  0.00    -0.322 C  
BRANCH  16  17
HETATM   17  N   UNL     1     -12.608   8.133  70.902  1.00  0.00    -0.505 NA 
HETATM   18  H   UNL     1     -13.481   8.417  70.457  1.00  0.00     0.000 HD 
BRANCH  17  19
HETATM   19  C   UNL     1     -12.211   6.724  71.032  1.00  0.00    -0.352 C  
HETATM   20  C   UNL     1     -11.395   6.301  69.822  1.00  0.00    -0.436 C  
HETATM   21  O   UNL     1     -10.516   5.258  70.267  1.00  0.00    -0.279 OA 
HETATM   22  N   UNL     1     -10.346   5.490  71.655  1.00  0.00    -0.212 NA 
HETATM   23  C   UNL     1     -11.192   6.473  72.110  1.00  0.00    -0.271 C  
HETATM   24  O   UNL     1     -11.146   6.981  73.221  1.00  0.00    -0.276 OA 
ENDBRANCH  17  19
ENDBRANCH  16  17
ENDBRANCH  13  16
ENDBRANCH   9  10
ENDBRANCH   7   9
ENDBRANCH   6   7
TORSDOF 6
ENDMDL
MODEL      205
REMARK 921   NORMALIZED FREE ENERGY PREDICTED BY IDOCK:   -3.54 KCAL/MOL
REMARK 922        TOTAL FREE ENERGY PREDICTED BY IDOCK:   -5.32 KCAL/MOL
REMARK 923 INTER-LIGAND FREE ENERGY PREDICTED BY IDOCK:   -4.89 KCAL/MOL
REMARK 924 INTRA-LIGAND FREE ENERGY PREDICTED BY IDOCK:   -0.43 KCAL/MOL
REMARK 927      BINDING AFFINITY PREDICTED BY RF-SCORE:    0.00 PKD
ROOT
HETATM    1  O   UNL     1      -8.267  14.733  68.171  1.00  0.00    -0.131 OA 
HETATM    2  C   UNL     1      -7.873  13.627  67.829  1.00  0.00    -0.171 C  
HETATM    3  N   UNL     1      -6.649  13.364  67.289  1.00  0.00    -0.210 NA 
HETATM    4  O   UNL     1      -6.479  12.017  66.917  1.00  0.00    -0.142 OA 
HETATM    5  C   UNL     1      -7.711  11.356  67.234  1.00  0.00    -0.145 C  
HETATM    6  C   UNL     1      -8.621  12.333  67.971  1.00  0.00    -0.176 C  
ENDROOT
BRANCH   6   7
HETATM    7  N   UNL     1      -9.943  12.373  67.317  1.00  0.00    -0.205 NA 
HETATM    8  H   UNL     1     -10.062  12.435  66.306  1.00  0.00     0.000 HD 
BRANCH   7   9
HETATM    9  C   UNL     1     -10.936  12.324  68.139  1.00  0.00    -0.231 C  
BRANCH   9  10
HETATM   10  C   UNL     1     -11.067  11.226  69.114  1.00  0.00    -0.312 A  
HETATM   11  C   UNL     1     -10.719   9.939  68.697  1.00  0.00    -0.256 A  
HETATM   12  C   UNL     1     -11.016   8.849  69.516  1.00  0.00    -0.097 A  
HETATM   13  C   UNL     1     -11.641   9.050  70.751  1.00  0.00    -0.313 A  
HETATM   14  C   UNL     1     -11.925  10.343  71.198  1.00  0.00    -0.460 A  
HETATM   15  C   UNL     1     -11.641  11.437  70.373  1.00  0.00    -0.267 A  
BRANCH  13  16
HETATM   16  C   UNL     1     -12.086   7.891  71.550  1.00  0.00    -0.306 C  
BRANCH  16  17
HETATM   17  N   UNL     1     -11.310   6.875  71.733  1.00  0.00    -0.250 NA 
HETATM   18  H   UNL     1     -11.046   6.245  70.976  1.00  0.00     0.000 HD 
BRANCH  17  19
HETATM   19  C   UNL     1     -10.837   6.694  73.113  1.00  0.00    -0.269 C  
HETATM   20  C   UNL     1     -10.596   5.220  73.390  1.00  0.00    -0.257 C  
HETATM   21  O   UNL     1      -9.568   5.155  74.389  1.00  0.00    -0.128 OA 
HETATM   22  N   UNL     1      -8.835   6.358  74.238  1.00  0.00    -0.138 NA 
HETATM   23  C   UNL     1      -9.447   7.216  73.356  1.00  0.00    -0.193 C  
HETATM   24  O   UNL     1      -8.954   8.247  72.923  1.00  0.00    -0.233 OA 
ENDBRANCH  17  19
ENDBRANCH  16  17
ENDBRANCH  13  16
ENDBRANCH   9  10
ENDBRANCH   7   9
ENDBRANCH   6   7
TORSDOF 6
ENDMDL
MODEL      206
REMARK 921   NORMALIZED FREE ENERGY PREDICTED BY IDOCK:   -3.53 KCAL/MOL
REMARK 922        TOTAL FREE ENERGY PREDICTED BY IDOCK:   -5.31 KCAL/MOL
REMARK 923 INTER-LIGAND FREE ENERGY PREDICTED BY IDOCK:   -4.93 KCAL/MOL
REMARK 924 INTRA-LIGAND FREE ENERGY PREDICTED BY IDOCK:   -0.38 KCAL/MOL
REMARK 927      BINDING AFFINITY PREDICTED BY RF-SCORE:    0.00 PKD
ROOT
HETATM    1  O   UNL     1     -14.148   7.571  71.885  1.00  0.00    -0.354 OA 
HETATM    2  C   UNL     1     -13.125   8.237  71.797  1.00  0.00    -0.344 C  
HETATM    3  N   UNL     1     -13.046   9.480  71.242  1.00  0.00    -0.344 NA 
HETATM    4  O   UNL     1     -11.736   9.992  71.201  1.00  0.00    -0.345 OA 
HETATM    5  C   UNL     1     -10.893   8.980  71.770  1.00  0.00    -0.367 C  
HETATM    6  C   UNL     1     -11.768   7.856  72.313  1.00  0.00    -0.355 C  
ENDROOT
BRANCH   6   7
HETATM    7  N   UNL     1     -11.305   6.561  71.777  1.00  0.00    -0.266 NA 
HETATM    8  H   UNL     1     -10.668   5.946  72.283  1.00  0.00     0.000 HD 
BRANCH   7   9
HETATM    9  C   UNL     1     -11.780   6.277  70.612  1.00  0.00    -0.215 C  
BRANCH   9  10
HETATM   10  C   UNL     1     -10.888   6.004  69.470  1.00  0.00    -0.439 A  
HETATM   11  C   UNL     1     -11.265   6.494  68.217  1.00  0.00    -0.259 A  
HETATM   12  C   UNL     1     -10.560   6.091  67.083  1.00  0.00    -0.374 A  
HETATM   13  C   UNL     1      -9.476   5.216  67.206  1.00  0.00    -0.141 A  
HETATM   14  C   UNL     1      -9.057   4.782  68.467  1.00  0.00    -0.150 A  
HETATM   15  C   UNL     1      -9.770   5.173  69.604  1.00  0.00    -0.255 A  
BRANCH  13  16
HETATM   16  C   UNL     1      -8.824   4.674  65.998  1.00  0.00    -0.121 C  
BRANCH  16  17
HETATM   17  N   UNL     1      -8.428   5.458  65.051  1.00  0.00    -0.148 NA 
HETATM   18  H   UNL     1      -8.814   5.417  64.108  1.00  0.00     0.000 HD 
BRANCH  17  19
HETATM   19  C   UNL     1      -7.379   6.416  65.433  1.00  0.00    -0.076 C  
HETATM   20  C   UNL     1      -6.114   6.145  64.636  1.00  0.00    -0.029 C  
HETATM   21  O   UNL     1      -5.428   7.400  64.523  1.00  0.00    -0.032 OA 
HETATM   22  N   UNL     1      -6.441   8.384  64.636  1.00  0.00    -0.065 NA 
HETATM   23  C   UNL     1      -7.648   7.827  64.989  1.00  0.00    -0.096 C  
HETATM   24  O   UNL     1      -8.718   8.418  64.999  1.00  0.00    -0.154 OA 
ENDBRANCH  17  19
ENDBRANCH  16  17
ENDBRANCH  13  16
ENDBRANCH   9  10
ENDBRANCH   7   9
ENDBRANCH   6   7
TORSDOF 6
ENDMDL
MODEL      207
REMARK 921   NORMALIZED FREE ENERGY PREDICTED BY IDOCK:   -3.50 KCAL/MOL
REMARK 922        TOTAL FREE ENERGY PREDICTED BY IDOCK:   -5.27 KCAL/MOL
REMARK 923 INTER-LIGAND FREE ENERGY PREDICTED BY IDOCK:   -4.59 KCAL/MOL
REMARK 924 INTRA-LIGAND FREE ENERGY PREDICTED BY IDOCK:   -0.68 KCAL/MOL
REMARK 927      BINDING AFFINITY PREDICTED BY RF-SCORE:    0.00 PKD
ROOT
HETATM    1  O   UNL     1     -11.654  10.475  68.756  1.00  0.00    -0.252 OA 
HETATM    2  C   UNL     1     -12.120  10.745  69.854  1.00  0.00    -0.337 C  
HETATM    3  N   UNL     1     -11.994  11.947  70.484  1.00  0.00    -0.332 NA 
HETATM    4  O   UNL     1     -12.561  11.966  71.772  1.00  0.00    -0.198 OA 
HETATM    5  C   UNL     1     -13.089  10.652  71.996  1.00  0.00    -0.396 C  
HETATM    6  C   UNL     1     -12.957   9.841  70.712  1.00  0.00    -0.149 C  
ENDROOT
BRANCH   6   7
HETATM    7  N   UNL     1     -12.285   8.558  71.000  1.00  0.00    -0.444 NA 
HETATM    8  H   UNL     1     -12.311   7.762  70.363  1.00  0.00     0.000 HD 
BRANCH   7   9
HETATM    9  C   UNL     1     -11.663   8.535  72.130  1.00  0.00    -0.378 C  
BRANCH   9  10
HETATM   10  C   UNL     1     -11.352   7.262  72.805  1.00  0.00    -0.318 A  
HETATM   11  C   UNL     1     -10.234   7.223  73.641  1.00  0.00    -0.393 A  
HETATM   12  C   UNL     1      -9.791   5.997  74.138  1.00  0.00    -0.228 A  
HETATM   13  C   UNL     1     -10.474   4.821  73.810  1.00  0.00    -0.301 A  
HETATM   14  C   UNL     1     -11.632   4.869  73.031  1.00  0.00    -0.284 A  
HETATM   15  C   UNL     1     -12.071   6.095  72.521  1.00  0.00    -0.108 A  
BRANCH  13  16
HETATM   16  C   UNL     1      -9.923   3.512  74.213  1.00  0.00    -0.134 C  
BRANCH  16  17
HETATM   17  N   UNL     1      -8.671   3.380  74.499  1.00  0.00    -0.086 NA 
HETATM   18  H   UNL     1      -8.243   3.833  75.307  1.00  0.00     0.000 HD 
BRANCH  17  19
HETATM   19  C   UNL     1      -7.907   2.527  73.576  1.00  0.00    -0.051 C  
HETATM   20  C   UNL     1      -8.842   1.901  72.554  1.00  0.00    -0.062 C  
HETATM   21  O   UNL     1      -8.063   1.680  71.370  1.00  0.00    -0.043 OA 
HETATM   22  N   UNL     1      -7.021   2.638  71.433  1.00  0.00    -0.031 NA 
HETATM   23  C   UNL     1      -7.007   3.291  72.643  1.00  0.00    -0.042 C  
HETATM   24  O   UNL     1      -6.321   4.268  72.906  1.00  0.00    -0.022 OA 
ENDBRANCH  17  19
ENDBRANCH  16  17
ENDBRANCH  13  16
ENDBRANCH   9  10
ENDBRANCH   7   9
ENDBRANCH   6   7
TORSDOF 6
ENDMDL
MODEL      208
REMARK 921   NORMALIZED FREE ENERGY PREDICTED BY IDOCK:   -3.46 KCAL/MOL
REMARK 922        TOTAL FREE ENERGY PREDICTED BY IDOCK:   -5.21 KCAL/MOL
REMARK 923 INTER-LIGAND FREE ENERGY PREDICTED BY IDOCK:   -4.67 KCAL/MOL
REMARK 924 INTRA-LIGAND FREE ENERGY PREDICTED BY IDOCK:   -0.54 KCAL/MOL
REMARK 927      BINDING AFFINITY PREDICTED BY RF-SCORE:    0.00 PKD
ROOT
HETATM    1  O   UNL     1     -11.320  15.196  74.012  1.00  0.00     0.340 OA 
HETATM    2  C   UNL     1     -12.208  15.043  73.185  1.00  0.00    -0.364 C  
HETATM    3  N   UNL     1     -13.046  13.969  73.126  1.00  0.00    -0.501 NA 
HETATM    4  O   UNL     1     -13.929  14.008  72.030  1.00  0.00    -0.440 OA 
HETATM    5  C   UNL     1     -13.622  15.210  71.311  1.00  0.00    -0.484 C  
HETATM    6  C   UNL     1     -12.592  16.009  72.102  1.00  0.00    -0.422 C  
ENDROOT
BRANCH   6   7
HETATM    7  N   UNL     1     -11.454  16.357  71.230  1.00  0.00    -0.539 NA 
HETATM    8  H   UNL     1     -10.585  16.759  71.583  1.00  0.00     0.000 HD 
BRANCH   7   9
HETATM    9  C   UNL     1     -11.656  16.108  69.980  1.00  0.00    -0.239 C  
BRANCH   9  10
HETATM   10  C   UNL     1     -10.658  15.381  69.176  1.00  0.00    -0.248 A  
HETATM   11  C   UNL     1     -10.972  14.082  68.768  1.00  0.00    -0.282 A  
HETATM   12  C   UNL     1      -9.984  13.289  68.181  1.00  0.00    -0.234 A  
HETATM   13  C   UNL     1      -8.697  13.802  67.990  1.00  0.00    -0.181 A  
HETATM   14  C   UNL     1      -8.404  15.124  68.335  1.00  0.00    -0.154 A  
HETATM   15  C   UNL     1      -9.387  15.916  68.936  1.00  0.00    -0.233 A  
BRANCH  13  16
HETATM   16  C   UNL     1      -7.616  12.921  67.507  1.00  0.00    -0.164 C  
BRANCH  16  17
HETATM   17  N   UNL     1      -7.756  11.637  67.512  1.00  0.00    -0.127 NA 
HETATM   18  H   UNL     1      -8.654  11.183  67.346  1.00  0.00     0.000 HD 
BRANCH  17  19
HETATM   19  C   UNL     1      -6.524  10.878  67.774  1.00  0.00    -0.063 C  
HETATM   20  C   UNL     1      -6.849   9.616  68.556  1.00  0.00    -0.057 C  
HETATM   21  O   UNL     1      -5.845   8.652  68.209  1.00  0.00    -0.041 OA 
HETATM   22  N   UNL     1      -5.397   9.037  66.921  1.00  0.00    -0.039 NA 
HETATM   23  C   UNL     1      -5.918  10.253  66.548  1.00  0.00    -0.065 C  
HETATM   24  O   UNL     1      -5.826  10.743  65.432  1.00  0.00    -0.133 OA 
ENDBRANCH  17  19
ENDBRANCH  16  17
ENDBRANCH  13  16
ENDBRANCH   9  10
ENDBRANCH   7   9
ENDBRANCH   6   7
TORSDOF 6
ENDMDL
MODEL      209
REMARK 921   NORMALIZED FREE ENERGY PREDICTED BY IDOCK:   -3.45 KCAL/MOL
REMARK 922        TOTAL FREE ENERGY PREDICTED BY IDOCK:   -5.21 KCAL/MOL
REMARK 923 INTER-LIGAND FREE ENERGY PREDICTED BY IDOCK:   -4.67 KCAL/MOL
REMARK 924 INTRA-LIGAND FREE ENERGY PREDICTED BY IDOCK:   -0.53 KCAL/MOL
REMARK 927      BINDING AFFINITY PREDICTED BY RF-SCORE:    0.00 PKD
ROOT
HETATM    1  O   UNL     1      -8.696   3.805  67.539  1.00  0.00    -0.099 OA 
HETATM    2  C   UNL     1      -7.881   4.247  66.741  1.00  0.00    -0.097 C  
HETATM    3  N   UNL     1      -6.534   4.052  66.809  1.00  0.00    -0.040 NA 
HETATM    4  O   UNL     1      -5.818   4.733  65.806  1.00  0.00    -0.021 OA 
HETATM    5  C   UNL     1      -6.794   5.442  65.030  1.00  0.00    -0.049 C  
HETATM    6  C   UNL     1      -8.187   5.049  65.509  1.00  0.00    -0.118 C  
ENDROOT
BRANCH   6   7
HETATM    7  N   UNL     1      -8.973   6.262  65.808  1.00  0.00    -0.297 NA 
HETATM    8  H   UNL     1      -9.914   6.232  66.199  1.00  0.00     0.000 HD 
BRANCH   7   9
HETATM    9  C   UNL     1      -8.362   7.363  65.529  1.00  0.00    -0.135 C  
BRANCH   9  10
HETATM   10  C   UNL     1      -8.959   8.671  65.855  1.00  0.00    -0.245 A  
HETATM   11  C   UNL     1      -8.317   9.817  65.379  1.00  0.00    -0.143 A  
HETATM   12  C   UNL     1      -8.730  11.072  65.828  1.00  0.00    -0.179 A  
HETATM   13  C   UNL     1      -9.790  11.176  66.735  1.00  0.00    -0.230 A  
HETATM   14  C   UNL     1     -10.476  10.034  67.156  1.00  0.00    -0.305 A  
HETATM   15  C   UNL     1     -10.055   8.775  66.718  1.00  0.00    -0.359 A  
BRANCH  13  16
HETATM   16  C   UNL     1     -10.132  12.487  67.322  1.00  0.00    -0.213 C  
BRANCH  16  17
HETATM   17  N   UNL     1     -10.246  12.631  68.600  1.00  0.00    -0.366 NA 
HETATM   18  H   UNL     1     -10.223  11.841  69.244  1.00  0.00     0.000 HD 
BRANCH  17  19
HETATM   19  C   UNL     1     -10.411  14.019  69.058  1.00  0.00    -0.156 C  
HETATM   20  C   UNL     1     -10.641  14.934  67.867  1.00  0.00    -0.254 C  
HETATM   21  O   UNL     1     -11.426  16.036  68.345  1.00  0.00    -0.369 OA 
HETATM   22  N   UNL     1     -12.129  15.526  69.465  1.00  0.00    -0.337 NA 
HETATM   23  C   UNL     1     -11.693  14.267  69.805  1.00  0.00    -0.309 C  
HETATM   24  O   UNL     1     -12.230  13.536  70.623  1.00  0.00    -0.351 OA 
ENDBRANCH  17  19
ENDBRANCH  16  17
ENDBRANCH  13  16
ENDBRANCH   9  10
ENDBRANCH   7   9
ENDBRANCH   6   7
TORSDOF 6
ENDMDL
MODEL      210
REMARK 921   NORMALIZED FREE ENERGY PREDICTED BY IDOCK:   -3.42 KCAL/MOL
REMARK 922        TOTAL FREE ENERGY PREDICTED BY IDOCK:   -5.16 KCAL/MOL
REMARK 923 INTER-LIGAND FREE ENERGY PREDICTED BY IDOCK:   -5.24 KCAL/MOL
REMARK 924 INTRA-LIGAND FREE ENERGY PREDICTED BY IDOCK:    0.08 KCAL/MOL
REMARK 927      BINDING AFFINITY PREDICTED BY RF-SCORE:    0.00 PKD
ROOT
HETATM    1  O   UNL     1      -9.211  16.286  68.841  1.00  0.00    -0.228 OA 
HETATM    2  C   UNL     1      -9.520  15.628  67.857  1.00  0.00    -0.204 C  
HETATM    3  N   UNL     1     -10.226  16.100  66.791  1.00  0.00    -0.274 NA 
HETATM    4  O   UNL     1     -10.511  15.113  65.828  1.00  0.00    -0.297 OA 
HETATM    5  C   UNL     1      -9.946  13.893  66.326  1.00  0.00    -0.306 C  
HETATM    6  C   UNL     1      -9.155  14.196  67.594  1.00  0.00    -0.194 C  
ENDROOT
BRANCH   6   7
HETATM    7  N   UNL     1      -9.590  13.296  68.680  1.00  0.00    -0.404 NA 
HETATM    8  H   UNL     1      -9.175  13.308  69.612  1.00  0.00     0.000 HD 
BRANCH   7   9
HETATM    9  C   UNL     1     -10.541  12.492  68.345  1.00  0.00    -0.242 C  
BRANCH   9  10
HETATM   10  C   UNL     1     -10.410  11.035  68.528  1.00  0.00    -0.204 A  
HETATM   11  C   UNL     1     -10.669  10.214  67.428  1.00  0.00    -0.336 A  
HETATM   12  C   UNL     1     -10.753   8.832  67.607  1.00  0.00    -0.206 A  
HETATM   13  C   UNL     1     -10.562   8.279  68.878  1.00  0.00    -0.160 A  
HETATM   14  C   UNL     1     -10.235   9.095  69.964  1.00  0.00    -0.229 A  
HETATM   15  C   UNL     1     -10.164  10.481  69.789  1.00  0.00    -0.168 A  
BRANCH  13  16
HETATM   16  C   UNL     1     -10.795   6.837  69.096  1.00  0.00    -0.258 C  
BRANCH  16  17
HETATM   17  N   UNL     1     -10.000   6.143  69.840  1.00  0.00    -0.167 NA 
HETATM   18  H   UNL     1      -8.988   6.147  69.712  1.00  0.00     0.000 HD 
BRANCH  17  19
HETATM   19  C   UNL     1     -10.661   5.347  70.885  1.00  0.00    -0.212 C  
HETATM   20  C   UNL     1      -9.691   5.077  72.023  1.00  0.00    -0.164 C  
HETATM   21  O   UNL     1     -10.485   4.935  73.210  1.00  0.00    -0.174 OA 
HETATM   22  N   UNL     1     -11.665   5.675  72.952  1.00  0.00    -0.205 NA 
HETATM   23  C   UNL     1     -11.722   6.096  71.644  1.00  0.00    -0.228 C  
HETATM   24  O   UNL     1     -12.543   6.881  71.194  1.00  0.00    -0.376 OA 
ENDBRANCH  17  19
ENDBRANCH  16  17
ENDBRANCH  13  16
ENDBRANCH   9  10
ENDBRANCH   7   9
ENDBRANCH   6   7
TORSDOF 6
ENDMDL
MODEL      211
REMARK 921   NORMALIZED FREE ENERGY PREDICTED BY IDOCK:   -3.39 KCAL/MOL
REMARK 922        TOTAL FREE ENERGY PREDICTED BY IDOCK:   -5.12 KCAL/MOL
REMARK 923 INTER-LIGAND FREE ENERGY PREDICTED BY IDOCK:   -4.66 KCAL/MOL
REMARK 924 INTRA-LIGAND FREE ENERGY PREDICTED BY IDOCK:   -0.46 KCAL/MOL
REMARK 927      BINDING AFFINITY PREDICTED BY RF-SCORE:    0.00 PKD
ROOT
HETATM    1  O   UNL     1     -14.409   8.126  71.993  1.00  0.00    -0.417 OA 
HETATM    2  C   UNL     1     -13.304   8.642  71.900  1.00  0.00    -0.382 C  
HETATM    3  N   UNL     1     -13.060   9.884  71.392  1.00  0.00    -0.383 NA 
HETATM    4  O   UNL     1     -11.691  10.205  71.331  1.00  0.00    -0.360 OA 
HETATM    5  C   UNL     1     -10.989   9.061  71.835  1.00  0.00    -0.353 C  
HETATM    6  C   UNL     1     -12.003   8.050  72.360  1.00  0.00    -0.350 C  
ENDROOT
BRANCH   6   7
HETATM    7  N   UNL     1     -11.745   6.727  71.760  1.00  0.00    -0.296 NA 
HETATM    8  H   UNL     1     -11.413   5.927  72.300  1.00  0.00     0.000 HD 
BRANCH   7   9
HETATM    9  C   UNL     1     -11.976   6.672  70.492  1.00  0.00    -0.316 C  
BRANCH   9  10
HETATM   10  C   UNL     1     -10.895   6.391  69.530  1.00  0.00    -0.381 A  
HETATM   11  C   UNL     1      -9.590   6.306  70.023  1.00  0.00    -0.176 A  
HETATM   12  C   UNL     1      -8.522   6.242  69.127  1.00  0.00    -0.120 A  
HETATM   13  C   UNL     1      -8.763   6.248  67.749  1.00  0.00    -0.113 A  
HETATM   14  C   UNL     1     -10.071   6.263  67.259  1.00  0.00    -0.203 A  
HETATM   15  C   UNL     1     -11.143   6.340  68.154  1.00  0.00    -0.364 A  
BRANCH  13  16
HETATM   16  C   UNL     1      -7.632   6.329  66.803  1.00  0.00    -0.099 C  
BRANCH  16  17
HETATM   17  N   UNL     1      -6.775   5.367  66.712  1.00  0.00    -0.060 NA 
HETATM   18  H   UNL     1      -5.773   5.512  66.837  1.00  0.00     0.000 HD 
BRANCH  17  19
HETATM   19  C   UNL     1      -7.350   4.047  66.413  1.00  0.00    -0.076 C  
HETATM   20  C   UNL     1      -6.616   3.414  65.242  1.00  0.00    -0.036 C  
HETATM   21  O   UNL     1      -6.714   1.994  65.420  1.00  0.00    -0.033 OA 
HETATM   22  N   UNL     1      -6.880   1.810  66.815  1.00  0.00    -0.038 NA 
HETATM   23  C   UNL     1      -7.072   3.007  67.463  1.00  0.00    -0.053 C  
HETATM   24  O   UNL     1      -7.082   3.155  68.676  1.00  0.00    -0.048 OA 
ENDBRANCH  17  19
ENDBRANCH  16  17
ENDBRANCH  13  16
ENDBRANCH   9  10
ENDBRANCH   7   9
ENDBRANCH   6   7
TORSDOF 6
ENDMDL
MODEL      212
REMARK 921   NORMALIZED FREE ENERGY PREDICTED BY IDOCK:   -3.35 KCAL/MOL
REMARK 922        TOTAL FREE ENERGY PREDICTED BY IDOCK:   -5.07 KCAL/MOL
REMARK 923 INTER-LIGAND FREE ENERGY PREDICTED BY IDOCK:   -4.43 KCAL/MOL
REMARK 924 INTRA-LIGAND FREE ENERGY PREDICTED BY IDOCK:   -0.64 KCAL/MOL
REMARK 927      BINDING AFFINITY PREDICTED BY RF-SCORE:    0.00 PKD
ROOT
HETATM    1  O   UNL     1      -6.999   1.500  66.506  1.00  0.00    -0.040 OA 
HETATM    2  C   UNL     1      -7.301   1.749  65.347  1.00  0.00    -0.053 C  
HETATM    3  N   UNL     1      -6.413   1.999  64.343  1.00  0.00    -0.019 NA 
HETATM    4  O   UNL     1      -7.028   2.330  63.121  1.00  0.00    -0.033 OA 
HETATM    5  C   UNL     1      -8.441   2.302  63.364  1.00  0.00    -0.085 C  
HETATM    6  C   UNL     1      -8.689   1.786  64.777  1.00  0.00    -0.103 C  
ENDROOT
BRANCH   6   7
HETATM    7  N   UNL     1      -9.570   2.722  65.502  1.00  0.00    -0.365 NA 
HETATM    8  H   UNL     1     -10.255   2.418  66.194  1.00  0.00     0.000 HD 
BRANCH   7   9
HETATM    9  C   UNL     1      -9.396   3.959  65.183  1.00  0.00    -0.158 C  
BRANCH   9  10
HETATM   10  C   UNL     1      -9.519   5.032  66.186  1.00  0.00    -0.166 A  
HETATM   11  C   UNL     1     -10.715   5.753  66.226  1.00  0.00    -0.092 A  
HETATM   12  C   UNL     1     -10.799   6.899  67.018  1.00  0.00    -0.436 A  
HETATM   13  C   UNL     1      -9.697   7.309  67.775  1.00  0.00    -0.167 A  
HETATM   14  C   UNL     1      -8.525   6.549  67.788  1.00  0.00    -0.118 A  
HETATM   15  C   UNL     1      -8.433   5.408  66.985  1.00  0.00    -0.106 A  
BRANCH  13  16
HETATM   16  C   UNL     1      -9.736   8.597  68.495  1.00  0.00    -0.163 C  
BRANCH  16  17
HETATM   17  N   UNL     1     -10.827   9.019  69.041  1.00  0.00    -0.410 NA 
HETATM   18  H   UNL     1     -11.539   9.530  68.519  1.00  0.00     0.000 HD 
BRANCH  17  19
HETATM   19  C   UNL     1     -10.968   8.707  70.472  1.00  0.00    -0.238 C  
HETATM   20  C   UNL     1     -11.753   9.806  71.167  1.00  0.00    -0.385 C  
HETATM   21  O   UNL     1     -12.417   9.191  72.281  1.00  0.00    -0.368 OA 
HETATM   22  N   UNL     1     -12.561   7.829  71.915  1.00  0.00    -0.316 NA 
HETATM   23  C   UNL     1     -11.877   7.543  70.757  1.00  0.00    -0.228 C  
HETATM   24  O   UNL     1     -11.960   6.494  70.134  1.00  0.00    -0.383 OA 
ENDBRANCH  17  19
ENDBRANCH  16  17
ENDBRANCH  13  16
ENDBRANCH   9  10
ENDBRANCH   7   9
ENDBRANCH   6   7
TORSDOF 6
ENDMDL
MODEL      213
REMARK 921   NORMALIZED FREE ENERGY PREDICTED BY IDOCK:   -3.34 KCAL/MOL
REMARK 922        TOTAL FREE ENERGY PREDICTED BY IDOCK:   -5.05 KCAL/MOL
REMARK 923 INTER-LIGAND FREE ENERGY PREDICTED BY IDOCK:   -4.70 KCAL/MOL
REMARK 924 INTRA-LIGAND FREE ENERGY PREDICTED BY IDOCK:   -0.35 KCAL/MOL
REMARK 927      BINDING AFFINITY PREDICTED BY RF-SCORE:    0.00 PKD
ROOT
HETATM    1  O   UNL     1      -7.021   2.535  65.119  1.00  0.00    -0.046 OA 
HETATM    2  C   UNL     1      -7.886   2.903  64.336  1.00  0.00    -0.078 C  
HETATM    3  N   UNL     1      -7.657   3.320  63.057  1.00  0.00    -0.054 NA 
HETATM    4  O   UNL     1      -8.820   3.761  62.397  1.00  0.00    -0.084 OA 
HETATM    5  C   UNL     1      -9.891   3.628  63.341  1.00  0.00    -0.148 C  
HETATM    6  C   UNL     1      -9.365   2.933  64.591  1.00  0.00    -0.147 C  
ENDROOT
BRANCH   6   7
HETATM    7  N   UNL     1      -9.713   3.726  65.786  1.00  0.00    -0.315 NA 
HETATM    8  H   UNL     1     -10.429   3.440  66.454  1.00  0.00     0.000 HD 
BRANCH   7   9
HETATM    9  C   UNL     1      -9.030   4.814  65.910  1.00  0.00    -0.130 C  
BRANCH   9  10
HETATM   10  C   UNL     1      -9.548   5.957  66.682  1.00  0.00    -0.174 A  
HETATM   11  C   UNL     1      -9.234   7.243  66.234  1.00  0.00    -0.175 A  
HETATM   12  C   UNL     1      -9.532   8.342  67.039  1.00  0.00    -0.225 A  
HETATM   13  C   UNL     1     -10.154   8.155  68.277  1.00  0.00    -0.230 A  
HETATM   14  C   UNL     1     -10.531   6.875  68.694  1.00  0.00    -0.217 A  
HETATM   15  C   UNL     1     -10.222   5.770  67.895  1.00  0.00    -0.231 A  
BRANCH  13  16
HETATM   16  C   UNL     1     -10.336   9.299  69.193  1.00  0.00    -0.211 C  
BRANCH  16  17
HETATM   17  N   UNL     1     -10.711  10.451  68.746  1.00  0.00    -0.211 NA 
HETATM   18  H   UNL     1     -10.203  10.946  68.013  1.00  0.00     0.000 HD 
BRANCH  17  19
HETATM   19  C   UNL     1     -11.924  10.997  69.373  1.00  0.00    -0.337 C  
HETATM   20  C   UNL     1     -12.141  10.353  70.732  1.00  0.00    -0.364 C  
HETATM   21  O   UNL     1     -12.842  11.316  71.532  1.00  0.00    -0.416 OA 
HETATM   22  N   UNL     1     -12.498  12.573  70.978  1.00  0.00    -0.334 NA 
HETATM   23  C   UNL     1     -11.797  12.433  69.803  1.00  0.00    -0.317 C  
HETATM   24  O   UNL     1     -11.242  13.342  69.204  1.00  0.00    -0.262 OA 
ENDBRANCH  17  19
ENDBRANCH  16  17
ENDBRANCH  13  16
ENDBRANCH   9  10
ENDBRANCH   7   9
ENDBRANCH   6   7
TORSDOF 6
ENDMDL
MODEL      214
REMARK 921   NORMALIZED FREE ENERGY PREDICTED BY IDOCK:   -3.29 KCAL/MOL
REMARK 922        TOTAL FREE ENERGY PREDICTED BY IDOCK:   -4.98 KCAL/MOL
REMARK 923 INTER-LIGAND FREE ENERGY PREDICTED BY IDOCK:   -4.57 KCAL/MOL
REMARK 924 INTRA-LIGAND FREE ENERGY PREDICTED BY IDOCK:   -0.41 KCAL/MOL
REMARK 927      BINDING AFFINITY PREDICTED BY RF-SCORE:    0.00 PKD
ROOT
HETATM    1  O   UNL     1      -8.941   8.605  73.423  1.00  0.00    -0.252 OA 
HETATM    2  C   UNL     1      -8.969   7.489  72.922  1.00  0.00    -0.158 C  
HETATM    3  N   UNL     1      -7.977   6.560  73.024  1.00  0.00    -0.104 NA 
HETATM    4  O   UNL     1      -8.231   5.386  72.291  1.00  0.00    -0.113 OA 
HETATM    5  C   UNL     1      -9.498   5.583  71.648  1.00  0.00    -0.147 C  
HETATM    6  C   UNL     1     -10.103   6.893  72.139  1.00  0.00    -0.181 C  
ENDROOT
BRANCH   6   7
HETATM    7  N   UNL     1     -10.488   7.728  70.984  1.00  0.00    -0.203 NA 
HETATM    8  H   UNL     1     -11.453   7.833  70.671  1.00  0.00     0.000 HD 
BRANCH   7   9
HETATM    9  C   UNL     1      -9.494   8.313  70.406  1.00  0.00    -0.167 C  
BRANCH   9  10
HETATM   10  C   UNL     1      -9.690   9.529  69.596  1.00  0.00    -0.215 A  
HETATM   11  C   UNL     1     -10.934   9.713  68.987  1.00  0.00    -0.161 A  
HETATM   12  C   UNL     1     -11.096  10.739  68.055  1.00  0.00    -0.359 A  
HETATM   13  C   UNL     1     -10.024  11.583  67.750  1.00  0.00    -0.195 A  
HETATM   14  C   UNL     1      -8.800  11.441  68.410  1.00  0.00    -0.167 A  
HETATM   15  C   UNL     1      -8.631  10.405  69.334  1.00  0.00    -0.143 A  
BRANCH  13  16
HETATM   16  C   UNL     1     -10.151  12.572  66.661  1.00  0.00    -0.230 C  
BRANCH  16  17
HETATM   17  N   UNL     1      -9.462  12.454  65.575  1.00  0.00    -0.439 NA 
HETATM   18  H   UNL     1      -8.708  13.098  65.332  1.00  0.00     0.000 HD 
BRANCH  17  19
HETATM   19  C   UNL     1      -9.844  11.324  64.715  1.00  0.00    -0.266 C  
HETATM   20  C   UNL     1     -10.246  11.831  63.340  1.00  0.00    -0.449 C  
HETATM   21  O   UNL     1      -9.952  10.775  62.415  1.00  0.00    -0.062 OA 
HETATM   22  N   UNL     1      -8.916  10.028  63.028  1.00  0.00    -0.238 NA 
HETATM   23  C   UNL     1      -8.692  10.440  64.320  1.00  0.00    -0.196 C  
HETATM   24  O   UNL     1      -7.757  10.080  65.020  1.00  0.00    -0.128 OA 
ENDBRANCH  17  19
ENDBRANCH  16  17
ENDBRANCH  13  16
ENDBRANCH   9  10
ENDBRANCH   7   9
ENDBRANCH   6   7
TORSDOF 6
ENDMDL
MODEL      215
REMARK 921   NORMALIZED FREE ENERGY PREDICTED BY IDOCK:   -3.28 KCAL/MOL
REMARK 922        TOTAL FREE ENERGY PREDICTED BY IDOCK:   -4.98 KCAL/MOL
REMARK 923 INTER-LIGAND FREE ENERGY PREDICTED BY IDOCK:   -4.83 KCAL/MOL
REMARK 924 INTRA-LIGAND FREE ENERGY PREDICTED BY IDOCK:   -0.15 KCAL/MOL
REMARK 927      BINDING AFFINITY PREDICTED BY RF-SCORE:    0.00 PKD
ROOT
HETATM    1  O   UNL     1      -7.884   7.317  66.416  1.00  0.00    -0.100 OA 
HETATM    2  C   UNL     1      -7.505   7.896  65.407  1.00  0.00    -0.080 C  
HETATM    3  N   UNL     1      -6.226   8.306  65.173  1.00  0.00    -0.045 NA 
HETATM    4  O   UNL     1      -6.077   9.014  63.966  1.00  0.00    -0.071 OA 
HETATM    5  C   UNL     1      -7.383   9.077  63.376  1.00  0.00    -0.097 C  
HETATM    6  C   UNL     1      -8.342   8.234  64.208  1.00  0.00    -0.060 C  
ENDROOT
BRANCH   6   7
HETATM    7  N   UNL     1      -9.532   9.034  64.561  1.00  0.00    -0.239 NA 
HETATM    8  H   UNL     1     -10.370   9.069  63.981  1.00  0.00     0.000 HD 
BRANCH   7   9
HETATM    9  C   UNL     1      -9.415   9.685  65.669  1.00  0.00    -0.255 C  
BRANCH   9  10
HETATM   10  C   UNL     1      -9.960  11.047  65.815  1.00  0.00    -0.294 A  
HETATM   11  C   UNL     1     -10.094  11.823  64.661  1.00  0.00    -0.310 A  
HETATM   12  C   UNL     1     -10.413  13.176  64.777  1.00  0.00    -0.390 A  
HETATM   13  C   UNL     1     -10.612  13.742  66.040  1.00  0.00    -0.290 A  
HETATM   14  C   UNL     1     -10.546  12.950  67.190  1.00  0.00    -0.246 A  
HETATM   15  C   UNL     1     -10.213  11.597  67.077  1.00  0.00    -0.240 A  
BRANCH  13  16
HETATM   16  C   UNL     1     -10.804  15.200  66.173  1.00  0.00    -0.330 C  
BRANCH  16  17
HETATM   17  N   UNL     1     -10.481  15.815  67.262  1.00  0.00    -0.302 NA 
HETATM   18  H   UNL     1     -10.983  15.675  68.139  1.00  0.00     0.000 HD 
BRANCH  17  19
HETATM   19  C   UNL     1      -9.337  16.731  67.144  1.00  0.00    -0.229 C  
HETATM   20  C   UNL     1      -9.790  18.053  66.547  1.00  0.00    -0.353 C  
HETATM   21  O   UNL     1      -8.900  19.056  67.056  1.00  0.00    -0.281 OA 
HETATM   22  N   UNL     1      -8.425  18.535  68.285  1.00  0.00    -0.310 NA 
HETATM   23  C   UNL     1      -8.814  17.228  68.464  1.00  0.00    -0.269 C  
HETATM   24  O   UNL     1      -8.680  16.591  69.498  1.00  0.00    -0.036 OA 
ENDBRANCH  17  19
ENDBRANCH  16  17
ENDBRANCH  13  16
ENDBRANCH   9  10
ENDBRANCH   7   9
ENDBRANCH   6   7
TORSDOF 6
ENDMDL
MODEL      216
REMARK 921   NORMALIZED FREE ENERGY PREDICTED BY IDOCK:   -3.25 KCAL/MOL
REMARK 922        TOTAL FREE ENERGY PREDICTED BY IDOCK:   -4.93 KCAL/MOL
REMARK 923 INTER-LIGAND FREE ENERGY PREDICTED BY IDOCK:   -4.67 KCAL/MOL
REMARK 924 INTRA-LIGAND FREE ENERGY PREDICTED BY IDOCK:   -0.27 KCAL/MOL
REMARK 927      BINDING AFFINITY PREDICTED BY RF-SCORE:    0.00 PKD
ROOT
HETATM    1  O   UNL     1      -8.754   8.826  72.792  1.00  0.00    -0.398 OA 
HETATM    2  C   UNL     1      -9.808   8.358  72.385  1.00  0.00    -0.308 C  
HETATM    3  N   UNL     1     -10.161   7.043  72.459  1.00  0.00    -0.180 NA 
HETATM    4  O   UNL     1     -11.397   6.760  71.848  1.00  0.00    -0.248 OA 
HETATM    5  C   UNL     1     -11.877   8.004  71.322  1.00  0.00    -0.294 C  
HETATM    6  C   UNL     1     -10.943   9.123  71.768  1.00  0.00    -0.359 C  
ENDROOT
BRANCH   6   7
HETATM    7  N   UNL     1     -10.516   9.913  70.596  1.00  0.00    -0.349 NA 
HETATM    8  H   UNL     1     -11.108  10.616  70.154  1.00  0.00     0.000 HD 
BRANCH   7   9
HETATM    9  C   UNL     1      -9.326   9.635  70.182  1.00  0.00    -0.251 C  
BRANCH   9  10
HETATM   10  C   UNL     1      -9.104   8.994  68.873  1.00  0.00    -0.140 A  
HETATM   11  C   UNL     1     -10.223   8.719  68.083  1.00  0.00    -0.250 A  
HETATM   12  C   UNL     1     -10.078   7.939  66.936  1.00  0.00    -0.362 A  
HETATM   13  C   UNL     1      -8.818   7.452  66.576  1.00  0.00    -0.165 A  
HETATM   14  C   UNL     1      -7.688   7.785  67.328  1.00  0.00    -0.113 A  
HETATM   15  C   UNL     1      -7.832   8.556  68.486  1.00  0.00    -0.108 A  
BRANCH  13  16
HETATM   16  C   UNL     1      -8.686   6.507  65.448  1.00  0.00    -0.008 C  
BRANCH  16  17
HETATM   17  N   UNL     1      -9.343   5.395  65.436  1.00  0.00    -0.338 NA 
HETATM   18  H   UNL     1     -10.186   5.263  64.877  1.00  0.00     0.000 HD 
BRANCH  17  19
HETATM   19  C   UNL     1      -8.785   4.333  66.286  1.00  0.00    -0.114 C  
HETATM   20  C   UNL     1      -9.744   4.021  67.422  1.00  0.00    -0.141 C  
HETATM   21  O   UNL     1      -9.528   2.646  67.772  1.00  0.00    -0.204 OA 
HETATM   22  N   UNL     1      -9.019   2.045  66.595  1.00  0.00    -0.121 NA 
HETATM   23  C   UNL     1      -8.742   2.982  65.627  1.00  0.00    -0.128 C  
HETATM   24  O   UNL     1      -8.447   2.729  64.469  1.00  0.00    -0.086 OA 
ENDBRANCH  17  19
ENDBRANCH  16  17
ENDBRANCH  13  16
ENDBRANCH   9  10
ENDBRANCH   7   9
ENDBRANCH   6   7
TORSDOF 6
ENDMDL
MODEL      217
REMARK 921   NORMALIZED FREE ENERGY PREDICTED BY IDOCK:   -3.25 KCAL/MOL
REMARK 922        TOTAL FREE ENERGY PREDICTED BY IDOCK:   -4.93 KCAL/MOL
REMARK 923 INTER-LIGAND FREE ENERGY PREDICTED BY IDOCK:   -5.20 KCAL/MOL
REMARK 924 INTRA-LIGAND FREE ENERGY PREDICTED BY IDOCK:    0.27 KCAL/MOL
REMARK 927      BINDING AFFINITY PREDICTED BY RF-SCORE:    0.00 PKD
ROOT
HETATM    1  O   UNL     1     -10.373  12.234  63.655  1.00  0.00    -0.412 OA 
HETATM    2  C   UNL     1     -10.867  13.095  64.370  1.00  0.00    -0.397 C  
HETATM    3  N   UNL     1     -11.693  14.091  63.940  1.00  0.00    -0.240 NA 
HETATM    4  O   UNL     1     -12.059  14.992  64.956  1.00  0.00    -0.258 OA 
HETATM    5  C   UNL     1     -11.399  14.543  66.147  1.00  0.00    -0.348 C  
HETATM    6  C   UNL     1     -10.711  13.214  65.859  1.00  0.00    -0.274 C  
ENDROOT
BRANCH   6   7
HETATM    7  N   UNL     1      -9.295  13.285  66.271  1.00  0.00    -0.441 NA 
HETATM    8  H   UNL     1      -8.800  14.166  66.410  1.00  0.00     0.000 HD 
BRANCH   7   9
HETATM    9  C   UNL     1      -8.740  12.132  66.440  1.00  0.00    -0.052 C  
BRANCH   9  10
HETATM   10  C   UNL     1      -9.297  11.147  67.384  1.00  0.00    -0.172 A  
HETATM   11  C   UNL     1     -10.382  11.540  68.171  1.00  0.00    -0.211 A  
HETATM   12  C   UNL     1     -10.809  10.715  69.213  1.00  0.00    -0.282 A  
HETATM   13  C   UNL     1     -10.162   9.498  69.450  1.00  0.00    -0.215 A  
HETATM   14  C   UNL     1      -9.123   9.073  68.619  1.00  0.00    -0.137 A  
HETATM   15  C   UNL     1      -8.684   9.905  67.584  1.00  0.00    -0.121 A  
BRANCH  13  16
HETATM   16  C   UNL     1     -10.516   8.695  70.638  1.00  0.00    -0.204 C  
BRANCH  16  17
HETATM   17  N   UNL     1     -10.927   7.477  70.516  1.00  0.00    -0.249 NA 
HETATM   18  H   UNL     1     -11.783   7.235  70.017  1.00  0.00     0.000 HD 
BRANCH  17  19
HETATM   19  C   UNL     1     -10.069   6.464  71.148  1.00  0.00    -0.185 C  
HETATM   20  C   UNL     1     -10.607   6.114  72.526  1.00  0.00    -0.213 C  
HETATM   21  O   UNL     1     -10.210   4.761  72.787  1.00  0.00    -0.168 OA 
HETATM   22  N   UNL     1     -10.055   4.171  71.509  1.00  0.00    -0.156 NA 
HETATM   23  C   UNL     1     -10.150   5.106  70.506  1.00  0.00    -0.256 C  
HETATM   24  O   UNL     1     -10.214   4.852  69.312  1.00  0.00    -0.207 OA 
ENDBRANCH  17  19
ENDBRANCH  16  17
ENDBRANCH  13  16
ENDBRANCH   9  10
ENDBRANCH   7   9
ENDBRANCH   6   7
TORSDOF 6
ENDMDL
MODEL      218
REMARK 921   NORMALIZED FREE ENERGY PREDICTED BY IDOCK:   -3.24 KCAL/MOL
REMARK 922        TOTAL FREE ENERGY PREDICTED BY IDOCK:   -4.91 KCAL/MOL
REMARK 923 INTER-LIGAND FREE ENERGY PREDICTED BY IDOCK:   -5.28 KCAL/MOL
REMARK 924 INTRA-LIGAND FREE ENERGY PREDICTED BY IDOCK:    0.37 KCAL/MOL
REMARK 927      BINDING AFFINITY PREDICTED BY RF-SCORE:    0.00 PKD
ROOT
HETATM    1  O   UNL     1      -9.502   8.905  72.447  1.00  0.00    -0.315 OA 
HETATM    2  C   UNL     1     -10.127   8.037  71.854  1.00  0.00    -0.203 C  
HETATM    3  N   UNL     1      -9.599   6.864  71.401  1.00  0.00    -0.167 NA 
HETATM    4  O   UNL     1     -10.519   6.075  70.685  1.00  0.00    -0.218 OA 
HETATM    5  C   UNL     1     -11.748   6.814  70.666  1.00  0.00    -0.386 C  
HETATM    6  C   UNL     1     -11.595   8.052  71.543  1.00  0.00    -0.275 C  
ENDROOT
BRANCH   6   7
HETATM    7  N   UNL     1     -11.997   9.253  70.784  1.00  0.00    -0.412 NA 
HETATM    8  H   UNL     1     -12.970   9.488  70.590  1.00  0.00     0.000 HD 
BRANCH   7   9
HETATM    9  C   UNL     1     -11.006   9.978  70.389  1.00  0.00    -0.320 C  
BRANCH   9  10
HETATM   10  C   UNL     1     -10.788  10.258  68.959  1.00  0.00    -0.265 A  
HETATM   11  C   UNL     1     -10.578   9.172  68.106  1.00  0.00    -0.235 A  
HETATM   12  C   UNL     1     -10.171   9.400  66.791  1.00  0.00    -0.320 A  
HETATM   13  C   UNL     1      -9.991  10.709  66.331  1.00  0.00    -0.273 A  
HETATM   14  C   UNL     1     -10.268  11.796  67.164  1.00  0.00    -0.236 A  
HETATM   15  C   UNL     1     -10.663  11.570  68.486  1.00  0.00    -0.242 A  
BRANCH  13  16
HETATM   16  C   UNL     1      -9.421  10.948  64.990  1.00  0.00    -0.233 C  
BRANCH  16  17
HETATM   17  N   UNL     1      -8.146  11.069  64.824  1.00  0.00    -0.345 NA 
HETATM   18  H   UNL     1      -7.607  11.820  65.255  1.00  0.00     0.000 HD 
BRANCH  17  19
HETATM   19  C   UNL     1      -7.530  10.045  63.968  1.00  0.00    -0.135 C  
HETATM   20  C   UNL     1      -6.991   8.910  64.823  1.00  0.00    -0.076 C  
HETATM   21  O   UNL     1      -7.037   7.730  64.009  1.00  0.00    -0.066 OA 
HETATM   22  N   UNL     1      -8.066   7.974  63.067  1.00  0.00    -0.147 NA 
HETATM   23  C   UNL     1      -8.514   9.273  63.133  1.00  0.00    -0.212 C  
HETATM   24  O   UNL     1      -9.497   9.707  62.551  1.00  0.00    -0.203 OA 
ENDBRANCH  17  19
ENDBRANCH  16  17
ENDBRANCH  13  16
ENDBRANCH   9  10
ENDBRANCH   7   9
ENDBRANCH   6   7
TORSDOF 6
ENDMDL
MODEL      219
REMARK 921   NORMALIZED FREE ENERGY PREDICTED BY IDOCK:   -3.23 KCAL/MOL
REMARK 922        TOTAL FREE ENERGY PREDICTED BY IDOCK:   -4.90 KCAL/MOL
REMARK 923 INTER-LIGAND FREE ENERGY PREDICTED BY IDOCK:   -4.33 KCAL/MOL
REMARK 924 INTRA-LIGAND FREE ENERGY PREDICTED BY IDOCK:   -0.57 KCAL/MOL
REMARK 927      BINDING AFFINITY PREDICTED BY RF-SCORE:    0.00 PKD
ROOT
HETATM    1  O   UNL     1     -11.909  10.823  68.312  1.00  0.00    -0.504 OA 
HETATM    2  C   UNL     1     -12.274  11.349  69.354  1.00  0.00    -0.221 C  
HETATM    3  N   UNL     1     -11.913  12.596  69.770  1.00  0.00    -0.317 NA 
HETATM    4  O   UNL     1     -12.413  12.929  71.043  1.00  0.00    -0.371 OA 
HETATM    5  C   UNL     1     -13.152  11.785  71.493  1.00  0.00    -0.287 C  
HETATM    6  C   UNL     1     -13.218  10.763  70.364  1.00  0.00     0.140 C  
ENDROOT
BRANCH   6   7
HETATM    7  N   UNL     1     -12.768   9.446  70.857  1.00  0.00    -0.510 NA 
HETATM    8  H   UNL     1     -13.338   8.603  70.791  1.00  0.00     0.000 HD 
BRANCH   7   9
HETATM    9  C   UNL     1     -11.588   9.457  71.378  1.00  0.00    -0.381 C  
BRANCH   9  10
HETATM   10  C   UNL     1     -10.692   8.292  71.266  1.00  0.00    -0.276 A  
HETATM   11  C   UNL     1      -9.501   8.313  71.996  1.00  0.00    -0.304 A  
HETATM   12  C   UNL     1      -8.538   7.330  71.765  1.00  0.00    -0.121 A  
HETATM   13  C   UNL     1      -8.775   6.326  70.822  1.00  0.00    -0.136 A  
HETATM   14  C   UNL     1      -9.995   6.265  70.143  1.00  0.00    -0.209 A  
HETATM   15  C   UNL     1     -10.956   7.257  70.362  1.00  0.00    -0.273 A  
BRANCH  13  16
HETATM   16  C   UNL     1      -7.702   5.374  70.472  1.00  0.00    -0.084 C  
BRANCH  16  17
HETATM   17  N   UNL     1      -7.918   4.101  70.473  1.00  0.00    -0.055 NA 
HETATM   18  H   UNL     1      -7.754   3.516  69.654  1.00  0.00     0.000 HD 
BRANCH  17  19
HETATM   19  C   UNL     1      -8.420   3.557  71.744  1.00  0.00    -0.084 C  
HETATM   20  C   UNL     1      -9.592   2.626  71.483  1.00  0.00    -0.151 C  
HETATM   21  O   UNL     1      -9.594   1.665  72.548  1.00  0.00    -0.075 OA 
HETATM   22  N   UNL     1      -8.250   1.607  72.992  1.00  0.00    -0.052 NA 
HETATM   23  C   UNL     1      -7.482   2.585  72.405  1.00  0.00    -0.051 C  
HETATM   24  O   UNL     1      -6.265   2.663  72.485  1.00  0.00    -0.009 OA 
ENDBRANCH  17  19
ENDBRANCH  16  17
ENDBRANCH  13  16
ENDBRANCH   9  10
ENDBRANCH   7   9
ENDBRANCH   6   7
TORSDOF 6
ENDMDL
MODEL      220
REMARK 921   NORMALIZED FREE ENERGY PREDICTED BY IDOCK:   -3.19 KCAL/MOL
REMARK 922        TOTAL FREE ENERGY PREDICTED BY IDOCK:   -4.85 KCAL/MOL
REMARK 923 INTER-LIGAND FREE ENERGY PREDICTED BY IDOCK:   -4.55 KCAL/MOL
REMARK 924 INTRA-LIGAND FREE ENERGY PREDICTED BY IDOCK:   -0.30 KCAL/MOL
REMARK 927      BINDING AFFINITY PREDICTED BY RF-SCORE:    0.00 PKD
ROOT
HETATM    1  O   UNL     1      -6.033   7.223  64.701  1.00  0.00    -0.036 OA 
HETATM    2  C   UNL     1      -6.449   8.222  64.129  1.00  0.00    -0.067 C  
HETATM    3  N   UNL     1      -5.688   9.299  63.783  1.00  0.00    -0.077 NA 
HETATM    4  O   UNL     1      -6.429  10.344  63.202  1.00  0.00    -0.141 OA 
HETATM    5  C   UNL     1      -7.794   9.905  63.185  1.00  0.00    -0.144 C  
HETATM    6  C   UNL     1      -7.853   8.455  63.652  1.00  0.00    -0.152 C  
ENDROOT
BRANCH   6   7
HETATM    7  N   UNL     1      -8.845   8.320  64.737  1.00  0.00    -0.405 NA 
HETATM    8  H   UNL     1      -9.818   8.064  64.572  1.00  0.00     0.000 HD 
BRANCH   7   9
HETATM    9  C   UNL     1      -8.370   8.555  65.913  1.00  0.00    -0.138 C  
BRANCH   9  10
HETATM   10  C   UNL     1      -8.554   9.865  66.564  1.00  0.00    -0.131 A  
HETATM   11  C   UNL     1      -9.855  10.364  66.666  1.00  0.00    -0.251 A  
HETATM   12  C   UNL     1     -10.054  11.679  67.090  1.00  0.00    -0.227 A  
HETATM   13  C   UNL     1      -8.957  12.481  67.422  1.00  0.00    -0.188 A  
HETATM   14  C   UNL     1      -7.662  11.959  67.386  1.00  0.00    -0.158 A  
HETATM   15  C   UNL     1      -7.458  10.646  66.949  1.00  0.00    -0.115 A  
BRANCH  13  16
HETATM   16  C   UNL     1      -9.155  13.912  67.728  1.00  0.00    -0.191 C  
BRANCH  16  17
HETATM   17  N   UNL     1      -9.410  14.303  68.931  1.00  0.00    -0.371 NA 
HETATM   18  H   UNL     1      -9.501  13.652  69.711  1.00  0.00     0.000 HD 
BRANCH  17  19
HETATM   19  C   UNL     1      -9.559  15.757  69.095  1.00  0.00    -0.255 C  
HETATM   20  C   UNL     1      -8.565  16.484  68.204  1.00  0.00    -0.193 C  
HETATM   21  O   UNL     1      -9.157  17.751  67.883  1.00  0.00    -0.250 OA 
HETATM   22  N   UNL     1     -10.554  17.541  67.993  1.00  0.00    -0.389 NA 
HETATM   23  C   UNL     1     -10.839  16.308  68.529  1.00  0.00    -0.330 C  
HETATM   24  O   UNL     1     -11.953  15.807  68.587  1.00  0.00    -0.344 OA 
ENDBRANCH  17  19
ENDBRANCH  16  17
ENDBRANCH  13  16
ENDBRANCH   9  10
ENDBRANCH   7   9
ENDBRANCH   6   7
TORSDOF 6
ENDMDL
MODEL      221
REMARK 921   NORMALIZED FREE ENERGY PREDICTED BY IDOCK:   -3.18 KCAL/MOL
REMARK 922        TOTAL FREE ENERGY PREDICTED BY IDOCK:   -4.83 KCAL/MOL
REMARK 923 INTER-LIGAND FREE ENERGY PREDICTED BY IDOCK:   -4.75 KCAL/MOL
REMARK 924 INTRA-LIGAND FREE ENERGY PREDICTED BY IDOCK:   -0.08 KCAL/MOL
REMARK 927      BINDING AFFINITY PREDICTED BY RF-SCORE:    0.00 PKD
ROOT
HETATM    1  O   UNL     1      -5.771   6.162  67.332  1.00  0.00    -0.015 OA 
HETATM    2  C   UNL     1      -6.894   6.338  67.783  1.00  0.00    -0.066 C  
HETATM    3  N   UNL     1      -7.449   5.624  68.804  1.00  0.00    -0.082 NA 
HETATM    4  O   UNL     1      -8.783   5.981  69.076  1.00  0.00    -0.121 OA 
HETATM    5  C   UNL     1      -9.121   7.010  68.137  1.00  0.00    -0.128 C  
HETATM    6  C   UNL     1      -7.873   7.391  67.349  1.00  0.00    -0.111 C  
ENDROOT
BRANCH   6   7
HETATM    7  N   UNL     1      -8.158   7.331  65.902  1.00  0.00    -0.118 NA 
HETATM    8  H   UNL     1      -8.565   6.513  65.449  1.00  0.00     0.000 HD 
BRANCH   7   9
HETATM    9  C   UNL     1      -7.846   8.407  65.262  1.00  0.00    -0.111 C  
BRANCH   9  10
HETATM   10  C   UNL     1      -8.658   9.631  65.384  1.00  0.00    -0.167 A  
HETATM   11  C   UNL     1      -9.653   9.851  64.429  1.00  0.00    -0.257 A  
HETATM   12  C   UNL     1     -10.305  11.084  64.389  1.00  0.00    -0.424 A  
HETATM   13  C   UNL     1      -9.972  12.082  65.310  1.00  0.00    -0.273 A  
HETATM   14  C   UNL     1      -9.026  11.836  66.309  1.00  0.00    -0.176 A  
HETATM   15  C   UNL     1      -8.361  10.607  66.343  1.00  0.00    -0.151 A  
BRANCH  13  16
HETATM   16  C   UNL     1     -10.555  13.432  65.177  1.00  0.00    -0.343 C  
BRANCH  16  17
HETATM   17  N   UNL     1     -11.823  13.624  65.323  1.00  0.00    -0.334 NA 
HETATM   18  H   UNL     1     -12.498  13.401  64.592  1.00  0.00     0.000 HD 
BRANCH  17  19
HETATM   19  C   UNL     1     -12.222  14.187  66.622  1.00  0.00    -0.418 C  
HETATM   20  C   UNL     1     -12.132  13.121  67.700  1.00  0.00    -0.232 C  
HETATM   21  O   UNL     1     -11.863  13.807  68.931  1.00  0.00    -0.320 OA 
HETATM   22  N   UNL     1     -11.218  15.008  68.547  1.00  0.00    -0.273 NA 
HETATM   23  C   UNL     1     -11.243  15.182  67.183  1.00  0.00    -0.320 C  
HETATM   24  O   UNL     1     -10.626  16.043  66.574  1.00  0.00    -0.308 OA 
ENDBRANCH  17  19
ENDBRANCH  16  17
ENDBRANCH  13  16
ENDBRANCH   9  10
ENDBRANCH   7   9
ENDBRANCH   6   7
TORSDOF 6
ENDMDL
MODEL      222
REMARK 921   NORMALIZED FREE ENERGY PREDICTED BY IDOCK:   -3.16 KCAL/MOL
REMARK 922        TOTAL FREE ENERGY PREDICTED BY IDOCK:   -4.81 KCAL/MOL
REMARK 923 INTER-LIGAND FREE ENERGY PREDICTED BY IDOCK:   -4.15 KCAL/MOL
REMARK 924 INTRA-LIGAND FREE ENERGY PREDICTED BY IDOCK:   -0.66 KCAL/MOL
REMARK 927      BINDING AFFINITY PREDICTED BY RF-SCORE:    0.00 PKD
ROOT
HETATM    1  O   UNL     1      -8.962  11.236  65.633  1.00  0.00    -0.207 OA 
HETATM    2  C   UNL     1      -9.810  11.505  66.472  1.00  0.00    -0.202 C  
HETATM    3  N   UNL     1     -10.086  12.759  66.932  1.00  0.00    -0.229 NA 
HETATM    4  O   UNL     1     -11.056  12.780  67.952  1.00  0.00    -0.225 OA 
HETATM    5  C   UNL     1     -11.430  11.414  68.177  1.00  0.00    -0.305 C  
HETATM    6  C   UNL     1     -10.748  10.537  67.133  1.00  0.00    -0.265 C  
ENDROOT
BRANCH   6   7
HETATM    7  N   UNL     1     -10.035   9.430  67.800  1.00  0.00    -0.174 NA 
HETATM    8  H   UNL     1      -9.178   9.018  67.431  1.00  0.00     0.000 HD 
BRANCH   7   9
HETATM    9  C   UNL     1     -10.592   9.032  68.893  1.00  0.00    -0.180 C  
BRANCH   9  10
HETATM   10  C   UNL     1     -10.246   7.732  69.497  1.00  0.00    -0.207 A  
HETATM   11  C   UNL     1      -8.922   7.531  69.896  1.00  0.00    -0.141 A  
HETATM   12  C   UNL     1      -8.509   6.256  70.284  1.00  0.00    -0.134 A  
HETATM   13  C   UNL     1      -9.421   5.195  70.287  1.00  0.00    -0.233 A  
HETATM   14  C   UNL     1     -10.760   5.412  69.954  1.00  0.00    -0.292 A  
HETATM   15  C   UNL     1     -11.174   6.686  69.552  1.00  0.00    -0.383 A  
BRANCH  13  16
HETATM   16  C   UNL     1      -8.952   3.821  70.555  1.00  0.00    -0.092 C  
BRANCH  16  17
HETATM   17  N   UNL     1      -9.735   2.948  71.094  1.00  0.00    -0.154 NA 
HETATM   18  H   UNL     1     -10.486   2.490  70.576  1.00  0.00     0.000 HD 
BRANCH  17  19
HETATM   19  C   UNL     1      -9.465   2.661  72.511  1.00  0.00    -0.100 C  
HETATM   20  C   UNL     1      -8.032   3.032  72.852  1.00  0.00    -0.063 C  
HETATM   21  O   UNL     1      -8.020   3.376  74.244  1.00  0.00    -0.068 OA 
HETATM   22  N   UNL     1      -9.341   3.804  74.527  1.00  0.00    -0.102 NA 
HETATM   23  C   UNL     1     -10.185   3.572  73.467  1.00  0.00    -0.144 C  
HETATM   24  O   UNL     1     -11.332   3.985  73.379  1.00  0.00    -0.253 OA 
ENDBRANCH  17  19
ENDBRANCH  16  17
ENDBRANCH  13  16
ENDBRANCH   9  10
ENDBRANCH   7   9
ENDBRANCH   6   7
TORSDOF 6
ENDMDL
MODEL      223
REMARK 921   NORMALIZED FREE ENERGY PREDICTED BY IDOCK:   -3.16 KCAL/MOL
REMARK 922        TOTAL FREE ENERGY PREDICTED BY IDOCK:   -4.81 KCAL/MOL
REMARK 923 INTER-LIGAND FREE ENERGY PREDICTED BY IDOCK:   -4.28 KCAL/MOL
REMARK 924 INTRA-LIGAND FREE ENERGY PREDICTED BY IDOCK:   -0.53 KCAL/MOL
REMARK 927      BINDING AFFINITY PREDICTED BY RF-SCORE:    0.00 PKD
ROOT
HETATM    1  O   UNL     1      -7.764  12.386  68.479  1.00  0.00    -0.132 OA 
HETATM    2  C   UNL     1      -8.354  13.277  67.884  1.00  0.00    -0.163 C  
HETATM    3  N   UNL     1      -8.305  14.601  68.208  1.00  0.00    -0.141 NA 
HETATM    4  O   UNL     1      -9.137  15.404  67.406  1.00  0.00    -0.190 OA 
HETATM    5  C   UNL     1      -9.790  14.515  66.491  1.00  0.00    -0.285 C  
HETATM    6  C   UNL     1      -9.209  13.116  66.660  1.00  0.00    -0.215 C  
ENDROOT
BRANCH   6   7
HETATM    7  N   UNL     1     -10.300  12.143  66.862  1.00  0.00    -0.211 NA 
HETATM    8  H   UNL     1     -10.924  12.166  67.669  1.00  0.00     0.000 HD 
BRANCH   7   9
HETATM    9  C   UNL     1     -10.395  11.260  65.925  1.00  0.00    -0.253 C  
BRANCH   9  10
HETATM   10  C   UNL     1      -9.963   9.868  66.142  1.00  0.00    -0.331 A  
HETATM   11  C   UNL     1      -8.917   9.380  65.356  1.00  0.00    -0.251 A  
HETATM   12  C   UNL     1      -8.613   8.018  65.386  1.00  0.00    -0.138 A  
HETATM   13  C   UNL     1      -9.342   7.157  66.212  1.00  0.00    -0.154 A  
HETATM   14  C   UNL     1     -10.342   7.657  67.050  1.00  0.00    -0.400 A  
HETATM   15  C   UNL     1     -10.658   9.018  67.011  1.00  0.00    -0.270 A  
BRANCH  13  16
HETATM   16  C   UNL     1      -9.120   5.699  66.136  1.00  0.00    -0.152 C  
BRANCH  16  17
HETATM   17  N   UNL     1      -9.727   4.981  65.251  1.00  0.00    -0.358 NA 
HETATM   18  H   UNL     1     -10.744   4.929  65.192  1.00  0.00     0.000 HD 
BRANCH  17  19
HETATM   19  C   UNL     1      -8.844   4.244  64.335  1.00  0.00    -0.144 C  
HETATM   20  C   UNL     1      -7.590   3.799  65.069  1.00  0.00    -0.077 C  
HETATM   21  O   UNL     1      -7.139   2.604  64.416  1.00  0.00    -0.047 OA 
HETATM   22  N   UNL     1      -8.301   2.044  63.831  1.00  0.00    -0.080 NA 
HETATM   23  C   UNL     1      -9.375   2.898  63.925  1.00  0.00    -0.110 C  
HETATM   24  O   UNL     1     -10.530   2.608  63.648  1.00  0.00    -0.180 OA 
ENDBRANCH  17  19
ENDBRANCH  16  17
ENDBRANCH  13  16
ENDBRANCH   9  10
ENDBRANCH   7   9
ENDBRANCH   6   7
TORSDOF 6
ENDMDL
MODEL      224
REMARK 921   NORMALIZED FREE ENERGY PREDICTED BY IDOCK:   -3.15 KCAL/MOL
REMARK 922        TOTAL FREE ENERGY PREDICTED BY IDOCK:   -4.80 KCAL/MOL
REMARK 923 INTER-LIGAND FREE ENERGY PREDICTED BY IDOCK:   -4.43 KCAL/MOL
REMARK 924 INTRA-LIGAND FREE ENERGY PREDICTED BY IDOCK:   -0.37 KCAL/MOL
REMARK 927      BINDING AFFINITY PREDICTED BY RF-SCORE:    0.00 PKD
ROOT
HETATM    1  O   UNL     1      -8.851   5.756  73.893  1.00  0.00    -0.126 OA 
HETATM    2  C   UNL     1      -8.418   6.758  73.341  1.00  0.00    -0.117 C  
HETATM    3  N   UNL     1      -7.518   7.625  73.886  1.00  0.00    -0.114 NA 
HETATM    4  O   UNL     1      -7.245   8.736  73.067  1.00  0.00    -0.341 OA 
HETATM    5  C   UNL     1      -8.052   8.576  71.893  1.00  0.00    -0.130 C  
HETATM    6  C   UNL     1      -8.742   7.218  71.949  1.00  0.00    -0.115 C  
ENDROOT
BRANCH   6   7
HETATM    7  N   UNL     1     -10.193   7.386  71.736  1.00  0.00    -0.191 NA 
HETATM    8  H   UNL     1     -10.666   8.285  71.820  1.00  0.00     0.000 HD 
BRANCH   7   9
HETATM    9  C   UNL     1     -10.808   6.293  71.434  1.00  0.00    -0.261 C  
BRANCH   9  10
HETATM   10  C   UNL     1     -10.706   5.707  70.085  1.00  0.00    -0.376 A  
HETATM   11  C   UNL     1     -10.015   4.500  69.950  1.00  0.00    -0.273 A  
HETATM   12  C   UNL     1      -9.724   4.016  68.674  1.00  0.00    -0.138 A  
HETATM   13  C   UNL     1     -10.135   4.729  67.544  1.00  0.00    -0.161 A  
HETATM   14  C   UNL     1     -10.886   5.900  67.680  1.00  0.00    -0.331 A  
HETATM   15  C   UNL     1     -11.168   6.395  68.957  1.00  0.00    -0.402 A  
BRANCH  13  16
HETATM   16  C   UNL     1      -9.702   4.297  66.200  1.00  0.00    -0.212 C  
BRANCH  16  17
HETATM   17  N   UNL     1      -9.732   3.051  65.863  1.00  0.00    -0.389 NA 
HETATM   18  H   UNL     1      -9.789   2.299  66.550  1.00  0.00     0.000 HD 
BRANCH  17  19
HETATM   19  C   UNL     1      -9.679   2.796  64.416  1.00  0.00    -0.124 C  
HETATM   20  C   UNL     1     -10.687   3.677  63.696  1.00  0.00    -0.251 C  
HETATM   21  O   UNL     1     -10.165   3.900  62.379  1.00  0.00    -0.151 OA 
HETATM   22  N   UNL     1      -8.762   3.753  62.510  1.00  0.00    -0.085 NA 
HETATM   23  C   UNL     1      -8.418   3.281  63.755  1.00  0.00    -0.090 C  
HETATM   24  O   UNL     1      -7.278   3.214  64.190  1.00  0.00    -0.055 OA 
ENDBRANCH  17  19
ENDBRANCH  16  17
ENDBRANCH  13  16
ENDBRANCH   9  10
ENDBRANCH   7   9
ENDBRANCH   6   7
TORSDOF 6
ENDMDL
MODEL      225
REMARK 921   NORMALIZED FREE ENERGY PREDICTED BY IDOCK:   -3.12 KCAL/MOL
REMARK 922        TOTAL FREE ENERGY PREDICTED BY IDOCK:   -4.75 KCAL/MOL
REMARK 923 INTER-LIGAND FREE ENERGY PREDICTED BY IDOCK:   -4.60 KCAL/MOL
REMARK 924 INTRA-LIGAND FREE ENERGY PREDICTED BY IDOCK:   -0.15 KCAL/MOL
REMARK 927      BINDING AFFINITY PREDICTED BY RF-SCORE:    0.00 PKD
ROOT
HETATM    1  O   UNL     1      -8.518   8.419  74.291  1.00  0.00    -0.180 OA 
HETATM    2  C   UNL     1      -8.993   7.379  73.857  1.00  0.00    -0.236 C  
HETATM    3  N   UNL     1      -8.278   6.259  73.551  1.00  0.00    -0.117 NA 
HETATM    4  O   UNL     1      -9.061   5.228  72.998  1.00  0.00    -0.125 OA 
HETATM    5  C   UNL     1     -10.400   5.736  72.930  1.00  0.00    -0.199 C  
HETATM    6  C   UNL     1     -10.448   7.098  73.614  1.00  0.00    -0.370 C  
ENDROOT
BRANCH   6   7
HETATM    7  N   UNL     1     -11.068   8.087  72.712  1.00  0.00    -0.392 NA 
HETATM    8  H   UNL     1     -12.068   8.104  72.507  1.00  0.00     0.000 HD 
BRANCH   7   9
HETATM    9  C   UNL     1     -10.233   8.930  72.204  1.00  0.00    -0.222 C  
BRANCH   9  10
HETATM   10  C   UNL     1     -10.070   9.059  70.745  1.00  0.00    -0.303 A  
HETATM   11  C   UNL     1     -10.779  10.073  70.097  1.00  0.00    -0.361 A  
HETATM   12  C   UNL     1     -10.811  10.105  68.702  1.00  0.00    -0.272 A  
HETATM   13  C   UNL     1     -10.124   9.135  67.965  1.00  0.00    -0.238 A  
HETATM   14  C   UNL     1      -9.358   8.163  68.613  1.00  0.00    -0.143 A  
HETATM   15  C   UNL     1      -9.336   8.120  70.010  1.00  0.00    -0.159 A  
BRANCH  13  16
HETATM   16  C   UNL     1     -10.276   9.080  66.497  1.00  0.00    -0.248 C  
BRANCH  16  17
HETATM   17  N   UNL     1      -9.688   8.164  65.804  1.00  0.00    -0.401 NA 
HETATM   18  H   UNL     1      -9.981   7.187  65.825  1.00  0.00     0.000 HD 
BRANCH  17  19
HETATM   19  C   UNL     1      -8.563   8.633  64.980  1.00  0.00    -0.158 C  
HETATM   20  C   UNL     1      -8.396  10.135  65.136  1.00  0.00    -0.161 C  
HETATM   21  O   UNL     1      -7.007  10.416  64.913  1.00  0.00    -0.122 OA 
HETATM   22  N   UNL     1      -6.332   9.216  65.248  1.00  0.00    -0.064 NA 
HETATM   23  C   UNL     1      -7.214   8.187  65.477  1.00  0.00    -0.071 C  
HETATM   24  O   UNL     1      -6.915   7.095  65.936  1.00  0.00    -0.062 OA 
ENDBRANCH  17  19
ENDBRANCH  16  17
ENDBRANCH  13  16
ENDBRANCH   9  10
ENDBRANCH   7   9
ENDBRANCH   6   7
TORSDOF 6
ENDMDL
MODEL      226
REMARK 921   NORMALIZED FREE ENERGY PREDICTED BY IDOCK:   -3.11 KCAL/MOL
REMARK 922        TOTAL FREE ENERGY PREDICTED BY IDOCK:   -4.74 KCAL/MOL
REMARK 923 INTER-LIGAND FREE ENERGY PREDICTED BY IDOCK:   -4.50 KCAL/MOL
REMARK 924 INTRA-LIGAND FREE ENERGY PREDICTED BY IDOCK:   -0.25 KCAL/MOL
REMARK 927      BINDING AFFINITY PREDICTED BY RF-SCORE:    0.00 PKD
ROOT
HETATM    1  O   UNL     1      -9.868  12.831  63.713  1.00  0.00    -0.286 OA 
HETATM    2  C   UNL     1     -10.625  12.712  64.666  1.00  0.00    -0.333 C  
HETATM    3  N   UNL     1     -11.986  12.679  64.586  1.00  0.00    -0.379 NA 
HETATM    4  O   UNL     1     -12.619  12.610  65.841  1.00  0.00    -0.526 OA 
HETATM    5  C   UNL     1     -11.569  12.612  66.819  1.00  0.00    -0.374 C  
HETATM    6  C   UNL     1     -10.226  12.533  66.103  1.00  0.00    -0.252 C  
ENDROOT
BRANCH   6   7
HETATM    7  N   UNL     1      -9.343  13.615  66.580  1.00  0.00    -0.381 NA 
HETATM    8  H   UNL     1      -9.621  14.597  66.590  1.00  0.00     0.000 HD 
BRANCH   7   9
HETATM    9  C   UNL     1      -8.187  13.209  66.982  1.00  0.00    -0.051 C  
BRANCH   9  10
HETATM   10  C   UNL     1      -8.000  11.849  67.521  1.00  0.00    -0.155 A  
HETATM   11  C   UNL     1      -7.437  10.887  66.679  1.00  0.00    -0.139 A  
HETATM   12  C   UNL     1      -7.428   9.549  67.077  1.00  0.00    -0.091 A  
HETATM   13  C   UNL     1      -7.965   9.183  68.315  1.00  0.00    -0.103 A  
HETATM   14  C   UNL     1      -8.466  10.155  69.185  1.00  0.00    -0.157 A  
HETATM   15  C   UNL     1      -8.488  11.495  68.784  1.00  0.00    -0.057 A  
BRANCH  13  16
HETATM   16  C   UNL     1      -8.090   7.756  68.672  1.00  0.00    -0.127 C  
BRANCH  16  17
HETATM   17  N   UNL     1      -8.049   7.376  69.905  1.00  0.00    -0.124 NA 
HETATM   18  H   UNL     1      -7.212   7.469  70.480  1.00  0.00     0.000 HD 
BRANCH  17  19
HETATM   19  C   UNL     1      -9.300   6.798  70.419  1.00  0.00    -0.163 C  
HETATM   20  C   UNL     1      -9.686   5.580  69.596  1.00  0.00    -0.172 C  
HETATM   21  O   UNL     1     -10.430   4.718  70.469  1.00  0.00    -0.178 OA 
HETATM   22  N   UNL     1      -9.980   5.038  71.773  1.00  0.00    -0.184 NA 
HETATM   23  C   UNL     1      -9.163   6.145  71.768  1.00  0.00    -0.144 C  
HETATM   24  O   UNL     1      -8.512   6.542  72.723  1.00  0.00    -0.120 OA 
ENDBRANCH  17  19
ENDBRANCH  16  17
ENDBRANCH  13  16
ENDBRANCH   9  10
ENDBRANCH   7   9
ENDBRANCH   6   7
TORSDOF 6
ENDMDL
MODEL      227
REMARK 921   NORMALIZED FREE ENERGY PREDICTED BY IDOCK:   -3.11 KCAL/MOL
REMARK 922        TOTAL FREE ENERGY PREDICTED BY IDOCK:   -4.74 KCAL/MOL
REMARK 923 INTER-LIGAND FREE ENERGY PREDICTED BY IDOCK:   -4.15 KCAL/MOL
REMARK 924 INTRA-LIGAND FREE ENERGY PREDICTED BY IDOCK:   -0.59 KCAL/MOL
REMARK 927      BINDING AFFINITY PREDICTED BY RF-SCORE:    0.00 PKD
ROOT
HETATM    1  O   UNL     1      -6.156  12.422  70.635  1.00  0.00    -0.235 OA 
HETATM    2  C   UNL     1      -6.224  12.359  69.415  1.00  0.00    -0.114 C  
HETATM    3  N   UNL     1      -5.660  13.252  68.553  1.00  0.00    -0.078 NA 
HETATM    4  O   UNL     1      -5.953  12.987  67.202  1.00  0.00    -0.326 OA 
HETATM    5  C   UNL     1      -6.794  11.825  67.196  1.00  0.00    -0.148 C  
HETATM    6  C   UNL     1      -6.892  11.279  68.615  1.00  0.00    -0.076 C  
ENDROOT
BRANCH   6   7
HETATM    7  N   UNL     1      -8.310  11.102  68.984  1.00  0.00    -0.333 NA 
HETATM    8  H   UNL     1      -9.013  11.830  68.857  1.00  0.00     0.000 HD 
BRANCH   7   9
HETATM    9  C   UNL     1      -8.581   9.944  69.483  1.00  0.00    -0.185 C  
BRANCH   9  10
HETATM   10  C   UNL     1      -8.954   8.808  68.620  1.00  0.00    -0.138 A  
HETATM   11  C   UNL     1      -9.956   9.015  67.668  1.00  0.00    -0.252 A  
HETATM   12  C   UNL     1     -10.477   7.923  66.973  1.00  0.00    -0.419 A  
HETATM   13  C   UNL     1      -9.986   6.637  67.219  1.00  0.00    -0.199 A  
HETATM   14  C   UNL     1      -8.937   6.441  68.121  1.00  0.00    -0.116 A  
HETATM   15  C   UNL     1      -8.422   7.531  68.829  1.00  0.00    -0.129 A  
BRANCH  13  16
HETATM   16  C   UNL     1     -10.634   5.468  66.594  1.00  0.00    -0.299 C  
BRANCH  16  17
HETATM   17  N   UNL     1     -10.370   5.137  65.374  1.00  0.00    -0.414 NA 
HETATM   18  H   UNL     1     -10.983   5.377  64.596  1.00  0.00     0.000 HD 
BRANCH  17  19
HETATM   19  C   UNL     1      -9.117   4.388  65.191  1.00  0.00    -0.148 C  
HETATM   20  C   UNL     1      -9.422   2.975  64.722  1.00  0.00    -0.143 C  
HETATM   21  O   UNL     1      -8.290   2.549  63.949  1.00  0.00    -0.081 OA 
HETATM   22  N   UNL     1      -7.709   3.745  63.461  1.00  0.00    -0.070 NA 
HETATM   23  C   UNL     1      -8.290   4.856  64.025  1.00  0.00    -0.131 C  
HETATM   24  O   UNL     1      -8.094   6.009  63.668  1.00  0.00    -0.117 OA 
ENDBRANCH  17  19
ENDBRANCH  16  17
ENDBRANCH  13  16
ENDBRANCH   9  10
ENDBRANCH   7   9
ENDBRANCH   6   7
TORSDOF 6
ENDMDL
MODEL      228
REMARK 921   NORMALIZED FREE ENERGY PREDICTED BY IDOCK:   -3.10 KCAL/MOL
REMARK 922        TOTAL FREE ENERGY PREDICTED BY IDOCK:   -4.73 KCAL/MOL
REMARK 923 INTER-LIGAND FREE ENERGY PREDICTED BY IDOCK:   -4.56 KCAL/MOL
REMARK 924 INTRA-LIGAND FREE ENERGY PREDICTED BY IDOCK:   -0.17 KCAL/MOL
REMARK 927      BINDING AFFINITY PREDICTED BY RF-SCORE:    0.00 PKD
ROOT
HETATM    1  O   UNL     1      -5.552   4.787  68.607  1.00  0.00    -0.014 OA 
HETATM    2  C   UNL     1      -6.207   4.495  67.616  1.00  0.00    -0.036 C  
HETATM    3  N   UNL     1      -6.513   5.351  66.599  1.00  0.00    -0.042 NA 
HETATM    4  O   UNL     1      -7.343   4.779  65.617  1.00  0.00    -0.074 OA 
HETATM    5  C   UNL     1      -7.605   3.437  66.046  1.00  0.00    -0.081 C  
HETATM    6  C   UNL     1      -6.768   3.142  67.286  1.00  0.00    -0.045 C  
ENDROOT
BRANCH   6   7
HETATM    7  N   UNL     1      -7.634   2.616  68.359  1.00  0.00    -0.054 NA 
HETATM    8  H   UNL     1      -7.281   2.051  69.132  1.00  0.00     0.000 HD 
BRANCH   7   9
HETATM    9  C   UNL     1      -8.878   2.934  68.232  1.00  0.00    -0.125 C  
BRANCH   9  10
HETATM   10  C   UNL     1      -9.486   3.989  69.062  1.00  0.00    -0.243 A  
HETATM   11  C   UNL     1      -9.531   3.786  70.443  1.00  0.00    -0.254 A  
HETATM   12  C   UNL     1     -10.272   4.660  71.241  1.00  0.00    -0.205 A  
HETATM   13  C   UNL     1     -10.947   5.737  70.659  1.00  0.00    -0.319 A  
HETATM   14  C   UNL     1     -10.844   5.979  69.287  1.00  0.00    -0.428 A  
HETATM   15  C   UNL     1     -10.114   5.098  68.483  1.00  0.00    -0.214 A  
BRANCH  13  16
HETATM   16  C   UNL     1     -11.847   6.573  71.478  1.00  0.00    -0.333 C  
BRANCH  16  17
HETATM   17  N   UNL     1     -11.562   6.844  72.708  1.00  0.00    -0.489 NA 
HETATM   18  H   UNL     1     -11.878   6.263  73.485  1.00  0.00     0.000 HD 
BRANCH  17  19
HETATM   19  C   UNL     1     -10.749   8.053  72.906  1.00  0.00    -0.333 C  
HETATM   20  C   UNL     1      -9.272   7.703  72.835  1.00  0.00    -0.188 C  
HETATM   21  O   UNL     1      -8.597   8.879  72.366  1.00  0.00    -0.399 OA 
HETATM   22  N   UNL     1      -9.573   9.591  71.626  1.00  0.00    -0.024 NA 
HETATM   23  C   UNL     1     -10.821   9.032  71.766  1.00  0.00    -0.367 C  
HETATM   24  O   UNL     1     -11.808   9.346  71.117  1.00  0.00    -0.294 OA 
ENDBRANCH  17  19
ENDBRANCH  16  17
ENDBRANCH  13  16
ENDBRANCH   9  10
ENDBRANCH   7   9
ENDBRANCH   6   7
TORSDOF 6
ENDMDL
MODEL      229
REMARK 921   NORMALIZED FREE ENERGY PREDICTED BY IDOCK:   -3.06 KCAL/MOL
REMARK 922        TOTAL FREE ENERGY PREDICTED BY IDOCK:   -4.67 KCAL/MOL
REMARK 923 INTER-LIGAND FREE ENERGY PREDICTED BY IDOCK:   -4.96 KCAL/MOL
REMARK 924 INTRA-LIGAND FREE ENERGY PREDICTED BY IDOCK:    0.29 KCAL/MOL
REMARK 927      BINDING AFFINITY PREDICTED BY RF-SCORE:    0.00 PKD
ROOT
HETATM    1  O   UNL     1      -6.229  10.885  71.025  1.00  0.00    -0.359 OA 
HETATM    2  C   UNL     1      -5.960  12.029  70.686  1.00  0.00     0.034 C  
HETATM    3  N   UNL     1      -5.335  12.952  71.472  1.00  0.00    -0.349 NA 
HETATM    4  O   UNL     1      -5.214  14.215  70.863  1.00  0.00    -0.107 OA 
HETATM    5  C   UNL     1      -5.828  14.097  69.573  1.00  0.00    -0.102 C  
HETATM    6  C   UNL     1      -6.212  12.640  69.339  1.00  0.00    -0.113 C  
ENDROOT
BRANCH   6   7
HETATM    7  N   UNL     1      -7.631  12.557  68.941  1.00  0.00    -0.304 NA 
HETATM    8  H   UNL     1      -8.348  12.128  69.525  1.00  0.00     0.000 HD 
BRANCH   7   9
HETATM    9  C   UNL     1      -7.882  13.075  67.786  1.00  0.00    -0.157 C  
BRANCH   9  10
HETATM   10  C   UNL     1      -8.812  14.210  67.644  1.00  0.00    -0.194 A  
HETATM   11  C   UNL     1      -8.606  15.091  66.580  1.00  0.00    -0.246 A  
HETATM   12  C   UNL     1      -9.332  16.282  66.525  1.00  0.00    -0.298 A  
HETATM   13  C   UNL     1     -10.268  16.577  67.522  1.00  0.00    -0.283 A  
HETATM   14  C   UNL     1     -10.523  15.663  68.547  1.00  0.00    -0.236 A  
HETATM   15  C   UNL     1      -9.787  14.476  68.613  1.00  0.00    -0.232 A  
BRANCH  13  16
HETATM   16  C   UNL     1     -10.929  17.898  67.545  1.00  0.00    -0.089 C  
BRANCH  16  17
HETATM   17  N   UNL     1     -10.418  18.905  66.919  1.00  0.00    -0.405 NA 
HETATM   18  H   UNL     1     -10.991  19.602  66.444  1.00  0.00     0.000 HD 
BRANCH  17  19
HETATM   19  C   UNL     1      -8.949  18.972  66.942  1.00  0.00    -0.301 C  
HETATM   20  C   UNL     1      -8.456  19.912  65.855  1.00  0.00    -0.159 C  
HETATM   21  O   UNL     1      -7.210  20.452  66.318  1.00  0.00    -0.265 OA 
HETATM   22  N   UNL     1      -7.282  20.382  67.731  1.00  0.00    -0.304 NA 
HETATM   23  C   UNL     1      -8.389  19.680  68.146  1.00  0.00    -0.311 C  
HETATM   24  O   UNL     1      -8.780  19.603  69.301  1.00  0.00    -0.185 OA 
ENDBRANCH  17  19
ENDBRANCH  16  17
ENDBRANCH  13  16
ENDBRANCH   9  10
ENDBRANCH   7   9
ENDBRANCH   6   7
TORSDOF 6
ENDMDL
MODEL      230
REMARK 921   NORMALIZED FREE ENERGY PREDICTED BY IDOCK:   -3.03 KCAL/MOL
REMARK 922        TOTAL FREE ENERGY PREDICTED BY IDOCK:   -4.64 KCAL/MOL
REMARK 923 INTER-LIGAND FREE ENERGY PREDICTED BY IDOCK:   -4.24 KCAL/MOL
REMARK 924 INTRA-LIGAND FREE ENERGY PREDICTED BY IDOCK:   -0.39 KCAL/MOL
REMARK 927      BINDING AFFINITY PREDICTED BY RF-SCORE:    0.00 PKD
ROOT
HETATM    1  O   UNL     1      -7.324   2.675  68.015  1.00  0.00    -0.051 OA 
HETATM    2  C   UNL     1      -7.844   3.015  69.069  1.00  0.00    -0.049 C  
HETATM    3  N   UNL     1      -8.208   2.166  70.072  1.00  0.00    -0.041 NA 
HETATM    4  O   UNL     1      -8.854   2.811  71.143  1.00  0.00    -0.070 OA 
HETATM    5  C   UNL     1      -8.922   4.200  70.792  1.00  0.00    -0.095 C  
HETATM    6  C   UNL     1      -8.145   4.422  69.499  1.00  0.00    -0.060 C  
ENDROOT
BRANCH   6   7
HETATM    7  N   UNL     1      -8.991   5.138  68.525  1.00  0.00    -0.104 NA 
HETATM    8  H   UNL     1      -9.847   4.743  68.136  1.00  0.00     0.000 HD 
BRANCH   7   9
HETATM    9  C   UNL     1      -8.551   6.309  68.211  1.00  0.00    -0.117 C  
BRANCH   9  10
HETATM   10  C   UNL     1      -9.414   7.500  68.304  1.00  0.00    -0.146 A  
HETATM   11  C   UNL     1      -9.876   8.066  67.113  1.00  0.00    -0.274 A  
HETATM   12  C   UNL     1     -10.524   9.301  67.145  1.00  0.00    -0.319 A  
HETATM   13  C   UNL     1     -10.722   9.955  68.366  1.00  0.00    -0.271 A  
HETATM   14  C   UNL     1     -10.322   9.357  69.563  1.00  0.00    -0.223 A  
HETATM   15  C   UNL     1      -9.660   8.126  69.532  1.00  0.00    -0.168 A  
BRANCH  13  16
HETATM   16  C   UNL     1     -11.274  11.325  68.387  1.00  0.00    -0.262 C  
BRANCH  16  17
HETATM   17  N   UNL     1     -11.223  12.076  67.338  1.00  0.00    -0.286 NA 
HETATM   18  H   UNL     1     -11.648  11.808  66.451  1.00  0.00     0.000 HD 
BRANCH  17  19
HETATM   19  C   UNL     1     -10.506  13.348  67.518  1.00  0.00    -0.236 C  
HETATM   20  C   UNL     1     -10.115  13.918  66.165  1.00  0.00    -0.308 C  
HETATM   21  O   UNL     1     -10.063  15.343  66.324  1.00  0.00    -0.262 OA 
HETATM   22  N   UNL     1     -10.942  15.625  67.399  1.00  0.00    -0.312 NA 
HETATM   23  C   UNL     1     -11.373  14.473  68.013  1.00  0.00    -0.306 C  
HETATM   24  O   UNL     1     -12.254  14.416  68.858  1.00  0.00    -0.281 OA 
ENDBRANCH  17  19
ENDBRANCH  16  17
ENDBRANCH  13  16
ENDBRANCH   9  10
ENDBRANCH   7   9
ENDBRANCH   6   7
TORSDOF 6
ENDMDL
MODEL      231
REMARK 921   NORMALIZED FREE ENERGY PREDICTED BY IDOCK:   -3.01 KCAL/MOL
REMARK 922        TOTAL FREE ENERGY PREDICTED BY IDOCK:   -4.61 KCAL/MOL
REMARK 923 INTER-LIGAND FREE ENERGY PREDICTED BY IDOCK:   -4.43 KCAL/MOL
REMARK 924 INTRA-LIGAND FREE ENERGY PREDICTED BY IDOCK:   -0.18 KCAL/MOL
REMARK 927      BINDING AFFINITY PREDICTED BY RF-SCORE:    0.00 PKD
ROOT
HETATM    1  O   UNL     1      -6.021  10.150  71.676  1.00  0.00    -0.304 OA 
HETATM    2  C   UNL     1      -5.670  11.313  71.527  1.00  0.00     0.425 C  
HETATM    3  N   UNL     1      -5.449  12.200  72.538  1.00  0.00     0.103 NA 
HETATM    4  O   UNL     1      -5.127  13.494  72.088  1.00  0.00    -0.154 OA 
HETATM    5  C   UNL     1      -5.156  13.437  70.655  1.00  0.00    -0.113 C  
HETATM    6  C   UNL     1      -5.368  11.991  70.222  1.00  0.00    -0.115 C  
ENDROOT
BRANCH   6   7
HETATM    7  N   UNL     1      -6.498  11.915  69.274  1.00  0.00    -0.102 NA 
HETATM    8  H   UNL     1      -6.972  11.042  69.043  1.00  0.00     0.000 HD 
BRANCH   7   9
HETATM    9  C   UNL     1      -6.831  13.052  68.765  1.00  0.00    -0.102 C  
BRANCH   9  10
HETATM   10  C   UNL     1      -8.246  13.415  68.566  1.00  0.00    -0.093 A  
HETATM   11  C   UNL     1      -9.130  12.403  68.182  1.00  0.00    -0.200 A  
HETATM   12  C   UNL     1     -10.427  12.738  67.790  1.00  0.00    -0.228 A  
HETATM   13  C   UNL     1     -10.838  14.075  67.799  1.00  0.00    -0.257 A  
HETATM   14  C   UNL     1      -9.975  15.078  68.249  1.00  0.00    -0.225 A  
HETATM   15  C   UNL     1      -8.671  14.747  68.629  1.00  0.00    -0.178 A  
BRANCH  13  16
HETATM   16  C   UNL     1     -12.156  14.445  67.247  1.00  0.00    -0.323 C  
BRANCH  16  17
HETATM   17  N   UNL     1     -12.771  13.665  66.422  1.00  0.00    -0.295 NA 
HETATM   18  H   UNL     1     -13.708  13.304  66.604  1.00  0.00     0.000 HD 
BRANCH  17  19
HETATM   19  C   UNL     1     -12.022  13.337  65.200  1.00  0.00    -0.381 C  
HETATM   20  C   UNL     1     -12.506  12.013  64.634  1.00  0.00    -0.103 C  
HETATM   21  O   UNL     1     -12.286  12.070  63.217  1.00  0.00    -0.506 OA 
HETATM   22  N   UNL     1     -12.305  13.450  62.899  1.00  0.00    -0.355 NA 
HETATM   23  C   UNL     1     -12.337  14.230  64.031  1.00  0.00    -0.244 C  
HETATM   24  O   UNL     1     -12.519  15.438  64.046  1.00  0.00    -0.676 OA 
ENDBRANCH  17  19
ENDBRANCH  16  17
ENDBRANCH  13  16
ENDBRANCH   9  10
ENDBRANCH   7   9
ENDBRANCH   6   7
TORSDOF 6
ENDMDL
MODEL      232
REMARK 921   NORMALIZED FREE ENERGY PREDICTED BY IDOCK:   -2.90 KCAL/MOL
REMARK 922        TOTAL FREE ENERGY PREDICTED BY IDOCK:   -4.45 KCAL/MOL
REMARK 923 INTER-LIGAND FREE ENERGY PREDICTED BY IDOCK:   -4.46 KCAL/MOL
REMARK 924 INTRA-LIGAND FREE ENERGY PREDICTED BY IDOCK:    0.00 KCAL/MOL
REMARK 927      BINDING AFFINITY PREDICTED BY RF-SCORE:    0.00 PKD
ROOT
HETATM    1  O   UNL     1     -10.866  10.787  66.093  1.00  0.00    -0.172 OA 
HETATM    2  C   UNL     1     -10.094  10.464  65.200  1.00  0.00    -0.308 C  
HETATM    3  N   UNL     1     -10.133  10.936  63.922  1.00  0.00    -0.336 NA 
HETATM    4  O   UNL     1      -9.176  10.343  63.077  1.00  0.00    -0.235 OA 
HETATM    5  C   UNL     1      -8.464   9.395  63.882  1.00  0.00    -0.197 C  
HETATM    6  C   UNL     1      -8.927   9.528  65.329  1.00  0.00    -0.200 C  
ENDROOT
BRANCH   6   7
HETATM    7  N   UNL     1      -9.322   8.205  65.851  1.00  0.00    -0.398 NA 
HETATM    8  H   UNL     1      -8.826   7.345  65.618  1.00  0.00     0.000 HD 
BRANCH   7   9
HETATM    9  C   UNL     1     -10.351   8.235  66.628  1.00  0.00    -0.223 C  
BRANCH   9  10
HETATM   10  C   UNL     1     -10.372   7.484  67.896  1.00  0.00    -0.266 A  
HETATM   11  C   UNL     1     -10.576   8.203  69.076  1.00  0.00    -0.167 A  
HETATM   12  C   UNL     1     -10.405   7.566  70.306  1.00  0.00    -0.215 A  
HETATM   13  C   UNL     1     -10.047   6.215  70.350  1.00  0.00    -0.237 A  
HETATM   14  C   UNL     1      -9.911   5.479  69.170  1.00  0.00    -0.256 A  
HETATM   15  C   UNL     1     -10.069   6.118  67.937  1.00  0.00    -0.179 A  
BRANCH  13  16
HETATM   16  C   UNL     1      -9.722   5.580  71.644  1.00  0.00    -0.161 C  
BRANCH  16  17
HETATM   17  N   UNL     1     -10.236   6.018  72.744  1.00  0.00    -0.183 NA 
HETATM   18  H   UNL     1     -11.242   6.116  72.878  1.00  0.00     0.000 HD 
BRANCH  17  19
HETATM   19  C   UNL     1      -9.262   6.366  73.790  1.00  0.00    -0.135 C  
HETATM   20  C   UNL     1      -7.958   5.623  73.553  1.00  0.00    -0.112 C  
HETATM   21  O   UNL     1      -6.917   6.439  74.107  1.00  0.00    -0.081 OA 
HETATM   22  N   UNL     1      -7.427   7.760  74.068  1.00  0.00    -0.128 NA 
HETATM   23  C   UNL     1      -8.753   7.779  73.706  1.00  0.00    -0.262 C  
HETATM   24  O   UNL     1      -9.394   8.785  73.440  1.00  0.00    -0.001 OA 
ENDBRANCH  17  19
ENDBRANCH  16  17
ENDBRANCH  13  16
ENDBRANCH   9  10
ENDBRANCH   7   9
ENDBRANCH   6   7
TORSDOF 6
ENDMDL
MODEL      233
REMARK 921   NORMALIZED FREE ENERGY PREDICTED BY IDOCK:   -2.88 KCAL/MOL
REMARK 922        TOTAL FREE ENERGY PREDICTED BY IDOCK:   -4.43 KCAL/MOL
REMARK 923 INTER-LIGAND FREE ENERGY PREDICTED BY IDOCK:   -4.50 KCAL/MOL
REMARK 924 INTRA-LIGAND FREE ENERGY PREDICTED BY IDOCK:    0.07 KCAL/MOL
REMARK 927      BINDING AFFINITY PREDICTED BY RF-SCORE:    0.00 PKD
ROOT
HETATM    1  O   UNL     1     -13.692   7.214  71.770  1.00  0.00    -0.354 OA 
HETATM    2  C   UNL     1     -13.018   8.226  71.636  1.00  0.00    -0.337 C  
HETATM    3  N   UNL     1     -13.457   9.392  71.083  1.00  0.00    -0.268 NA 
HETATM    4  O   UNL     1     -12.456  10.376  70.982  1.00  0.00    -0.320 OA 
HETATM    5  C   UNL     1     -11.259   9.784  71.506  1.00  0.00    -0.220 C  
HETATM    6  C   UNL     1     -11.598   8.415  72.086  1.00  0.00    -0.374 C  
ENDROOT
BRANCH   6   7
HETATM    7  N   UNL     1     -10.690   7.397  71.523  1.00  0.00    -0.222 NA 
HETATM    8  H   UNL     1      -9.803   7.141  71.958  1.00  0.00     0.000 HD 
BRANCH   7   9
HETATM    9  C   UNL     1     -11.118   6.859  70.432  1.00  0.00    -0.296 C  
BRANCH   9  10
HETATM   10  C   UNL     1     -10.442   7.102  69.144  1.00  0.00    -0.219 A  
HETATM   11  C   UNL     1     -11.000   6.530  67.998  1.00  0.00    -0.368 A  
HETATM   12  C   UNL     1     -10.288   6.566  66.798  1.00  0.00    -0.279 A  
HETATM   13  C   UNL     1      -9.035   7.184  66.746  1.00  0.00    -0.151 A  
HETATM   14  C   UNL     1      -8.509   7.816  67.876  1.00  0.00    -0.122 A  
HETATM   15  C   UNL     1      -9.214   7.770  69.083  1.00  0.00    -0.144 A  
BRANCH  13  16
HETATM   16  C   UNL     1      -8.218   7.094  65.519  1.00  0.00    -0.139 C  
BRANCH  16  17
HETATM   17  N   UNL     1      -8.726   7.371  64.364  1.00  0.00    -0.211 NA 
HETATM   18  H   UNL     1      -9.371   6.743  63.885  1.00  0.00     0.000 HD 
BRANCH  17  19
HETATM   19  C   UNL     1      -8.305   8.658  63.791  1.00  0.00    -0.112 C  
HETATM   20  C   UNL     1      -8.969   9.801  64.539  1.00  0.00    -0.238 C  
HETATM   21  O   UNL     1      -8.083  10.925  64.437  1.00  0.00     0.069 OA 
HETATM   22  N   UNL     1      -6.796  10.361  64.253  1.00  0.00    -0.048 NA 
HETATM   23  C   UNL     1      -6.864   9.002  64.054  1.00  0.00    -0.088 C  
HETATM   24  O   UNL     1      -5.903   8.247  64.028  1.00  0.00    -0.063 OA 
ENDBRANCH  17  19
ENDBRANCH  16  17
ENDBRANCH  13  16
ENDBRANCH   9  10
ENDBRANCH   7   9
ENDBRANCH   6   7
TORSDOF 6
ENDMDL
MODEL      234
REMARK 921   NORMALIZED FREE ENERGY PREDICTED BY IDOCK:   -2.86 KCAL/MOL
REMARK 922        TOTAL FREE ENERGY PREDICTED BY IDOCK:   -4.41 KCAL/MOL
REMARK 923 INTER-LIGAND FREE ENERGY PREDICTED BY IDOCK:   -4.13 KCAL/MOL
REMARK 924 INTRA-LIGAND FREE ENERGY PREDICTED BY IDOCK:   -0.27 KCAL/MOL
REMARK 927      BINDING AFFINITY PREDICTED BY RF-SCORE:    0.00 PKD
ROOT
HETATM    1  O   UNL     1      -7.887   4.254  64.456  1.00  0.00    -0.083 OA 
HETATM    2  C   UNL     1      -7.096   4.601  65.322  1.00  0.00    -0.063 C  
HETATM    3  N   UNL     1      -5.839   4.097  65.482  1.00  0.00    -0.022 NA 
HETATM    4  O   UNL     1      -5.166   4.617  66.604  1.00  0.00    -0.008 OA 
HETATM    5  C   UNL     1      -6.078   5.530  67.229  1.00  0.00    -0.030 C  
HETATM    6  C   UNL     1      -7.316   5.672  66.351  1.00  0.00    -0.078 C  
ENDROOT
BRANCH   6   7
HETATM    7  N   UNL     1      -8.529   5.435  67.158  1.00  0.00    -0.107 NA 
HETATM    8  H   UNL     1      -8.545   4.819  67.971  1.00  0.00     0.000 HD 
BRANCH   7   9
HETATM    9  C   UNL     1      -9.568   6.077  66.743  1.00  0.00    -0.149 C  
BRANCH   9  10
HETATM   10  C   UNL     1      -9.684   7.536  66.917  1.00  0.00    -0.272 A  
HETATM   11  C   UNL     1      -9.386   8.350  65.821  1.00  0.00    -0.141 A  
HETATM   12  C   UNL     1      -9.288   9.730  65.998  1.00  0.00    -0.249 A  
HETATM   13  C   UNL     1      -9.503  10.291  67.261  1.00  0.00    -0.174 A  
HETATM   14  C   UNL     1      -9.869   9.484  68.341  1.00  0.00    -0.175 A  
HETATM   15  C   UNL     1      -9.955   8.099  68.170  1.00  0.00    -0.219 A  
BRANCH  13  16
HETATM   16  C   UNL     1      -9.257  11.731  67.480  1.00  0.00    -0.175 C  
BRANCH  16  17
HETATM   17  N   UNL     1      -9.034  12.524  66.486  1.00  0.00    -0.368 NA 
HETATM   18  H   UNL     1      -8.249  12.394  65.847  1.00  0.00     0.000 HD 
BRANCH  17  19
HETATM   19  C   UNL     1      -9.995  13.627  66.342  1.00  0.00    -0.296 C  
HETATM   20  C   UNL     1     -11.393  13.073  66.124  1.00  0.00    -0.314 C  
HETATM   21  O   UNL     1     -12.305  14.048  66.648  1.00  0.00    -0.451 OA 
HETATM   22  N   UNL     1     -11.565  14.749  67.632  1.00  0.00    -0.347 NA 
HETATM   23  C   UNL     1     -10.236  14.397  67.612  1.00  0.00    -0.229 C  
HETATM   24  O   UNL     1      -9.410  14.726  68.450  1.00  0.00    -0.185 OA 
ENDBRANCH  17  19
ENDBRANCH  16  17
ENDBRANCH  13  16
ENDBRANCH   9  10
ENDBRANCH   7   9
ENDBRANCH   6   7
TORSDOF 6
ENDMDL
MODEL      235
REMARK 921   NORMALIZED FREE ENERGY PREDICTED BY IDOCK:   -2.83 KCAL/MOL
REMARK 922        TOTAL FREE ENERGY PREDICTED BY IDOCK:   -4.36 KCAL/MOL
REMARK 923 INTER-LIGAND FREE ENERGY PREDICTED BY IDOCK:   -4.06 KCAL/MOL
REMARK 924 INTRA-LIGAND FREE ENERGY PREDICTED BY IDOCK:   -0.30 KCAL/MOL
REMARK 927      BINDING AFFINITY PREDICTED BY RF-SCORE:    0.00 PKD
ROOT
HETATM    1  O   UNL     1      -7.938   4.856  65.778  1.00  0.00    -0.104 OA 
HETATM    2  C   UNL     1      -7.043   5.237  66.519  1.00  0.00    -0.069 C  
HETATM    3  N   UNL     1      -6.056   4.445  67.026  1.00  0.00    -0.030 NA 
HETATM    4  O   UNL     1      -5.197   5.121  67.913  1.00  0.00    -0.003 OA 
HETATM    5  C   UNL     1      -5.683   6.467  67.994  1.00  0.00    -0.012 C  
HETATM    6  C   UNL     1      -6.814   6.645  66.987  1.00  0.00    -0.066 C  
ENDROOT
BRANCH   6   7
HETATM    7  N   UNL     1      -7.998   7.213  67.661  1.00  0.00    -0.113 NA 
HETATM    8  H   UNL     1      -8.134   7.174  68.672  1.00  0.00     0.000 HD 
BRANCH   7   9
HETATM    9  C   UNL     1      -8.844   7.763  66.859  1.00  0.00    -0.131 C  
BRANCH   9  10
HETATM   10  C   UNL     1      -8.985   9.229  66.783  1.00  0.00    -0.154 A  
HETATM   11  C   UNL     1      -8.102   9.926  65.955  1.00  0.00    -0.120 A  
HETATM   12  C   UNL     1      -8.068  11.320  66.008  1.00  0.00    -0.009 A  
HETATM   13  C   UNL     1      -8.924  12.009  66.873  1.00  0.00    -0.199 A  
HETATM   14  C   UNL     1      -9.854  11.314  67.650  1.00  0.00    -0.190 A  
HETATM   15  C   UNL     1      -9.881   9.916  67.609  1.00  0.00    -0.198 A  
BRANCH  13  16
HETATM   16  C   UNL     1      -8.787  13.470  67.038  1.00  0.00    -0.211 C  
BRANCH  16  17
HETATM   17  N   UNL     1      -9.101  14.276  66.079  1.00  0.00    -0.494 NA 
HETATM   18  H   UNL     1      -8.777  14.140  65.121  1.00  0.00     0.000 HD 
BRANCH  17  19
HETATM   19  C   UNL     1      -9.958  15.405  66.470  1.00  0.00    -0.268 C  
HETATM   20  C   UNL     1      -9.108  16.529  67.039  1.00  0.00    -0.211 C  
HETATM   21  O   UNL     1      -9.814  17.749  66.771  1.00  0.00    -0.291 OA 
HETATM   22  N   UNL     1     -10.611  17.470  65.633  1.00  0.00    -0.556 NA 
HETATM   23  C   UNL     1     -10.577  16.134  65.309  1.00  0.00    -0.369 C  
HETATM   24  O   UNL     1     -11.040  15.647  64.288  1.00  0.00    -0.267 OA 
ENDBRANCH  17  19
ENDBRANCH  16  17
ENDBRANCH  13  16
ENDBRANCH   9  10
ENDBRANCH   7   9
ENDBRANCH   6   7
TORSDOF 6
ENDMDL
MODEL      236
REMARK 921   NORMALIZED FREE ENERGY PREDICTED BY IDOCK:   -2.82 KCAL/MOL
REMARK 922        TOTAL FREE ENERGY PREDICTED BY IDOCK:   -4.35 KCAL/MOL
REMARK 923 INTER-LIGAND FREE ENERGY PREDICTED BY IDOCK:   -4.52 KCAL/MOL
REMARK 924 INTRA-LIGAND FREE ENERGY PREDICTED BY IDOCK:    0.18 KCAL/MOL
REMARK 927      BINDING AFFINITY PREDICTED BY RF-SCORE:    0.00 PKD
ROOT
HETATM    1  O   UNL     1     -11.815  11.842  66.028  1.00  0.00    -0.446 OA 
HETATM    2  C   UNL     1     -11.043  12.755  66.285  1.00  0.00    -0.288 C  
HETATM    3  N   UNL     1     -10.069  13.217  65.449  1.00  0.00    -0.276 NA 
HETATM    4  O   UNL     1      -9.272  14.225  66.021  1.00  0.00    -0.167 OA 
HETATM    5  C   UNL     1      -9.770  14.422  67.351  1.00  0.00    -0.220 C  
HETATM    6  C   UNL     1     -11.029  13.582  67.537  1.00  0.00    -0.268 C  
ENDROOT
BRANCH   6   7
HETATM    7  N   UNL     1     -10.903  12.757  68.755  1.00  0.00    -0.273 NA 
HETATM    8  H   UNL     1     -11.530  12.846  69.554  1.00  0.00     0.000 HD 
BRANCH   7   9
HETATM    9  C   UNL     1      -9.927  11.914  68.717  1.00  0.00    -0.092 C  
BRANCH   9  10
HETATM   10  C   UNL     1     -10.072  10.555  69.269  1.00  0.00    -0.244 A  
HETATM   11  C   UNL     1     -11.308  10.200  69.814  1.00  0.00    -0.312 A  
HETATM   12  C   UNL     1     -11.428   9.004  70.523  1.00  0.00    -0.248 A  
HETATM   13  C   UNL     1     -10.320   8.163  70.669  1.00  0.00    -0.214 A  
HETATM   14  C   UNL     1      -9.103   8.485  70.064  1.00  0.00    -0.147 A  
HETATM   15  C   UNL     1      -8.976   9.689  69.365  1.00  0.00    -0.186 A  
BRANCH  13  16
HETATM   16  C   UNL     1     -10.407   6.974  71.539  1.00  0.00    -0.203 C  
BRANCH  16  17
HETATM   17  N   UNL     1      -9.917   5.840  71.163  1.00  0.00    -0.186 NA 
HETATM   18  H   UNL     1     -10.094   5.446  70.239  1.00  0.00     0.000 HD 
BRANCH  17  19
HETATM   19  C   UNL     1      -9.083   5.159  72.165  1.00  0.00    -0.136 C  
HETATM   20  C   UNL     1      -7.628   5.178  71.730  1.00  0.00    -0.106 C  
HETATM   21  O   UNL     1      -6.843   5.149  72.930  1.00  0.00    -0.071 OA 
HETATM   22  N   UNL     1      -7.677   5.711  73.927  1.00  0.00    -0.100 NA 
HETATM   23  C   UNL     1      -8.957   5.906  73.465  1.00  0.00    -0.128 C  
HETATM   24  O   UNL     1      -9.832   6.519  74.058  1.00  0.00    -0.212 OA 
ENDBRANCH  17  19
ENDBRANCH  16  17
ENDBRANCH  13  16
ENDBRANCH   9  10
ENDBRANCH   7   9
ENDBRANCH   6   7
TORSDOF 6
ENDMDL
MODEL      237
REMARK 921   NORMALIZED FREE ENERGY PREDICTED BY IDOCK:   -2.81 KCAL/MOL
REMARK 922        TOTAL FREE ENERGY PREDICTED BY IDOCK:   -4.33 KCAL/MOL
REMARK 923 INTER-LIGAND FREE ENERGY PREDICTED BY IDOCK:   -4.32 KCAL/MOL
REMARK 924 INTRA-LIGAND FREE ENERGY PREDICTED BY IDOCK:   -0.01 KCAL/MOL
REMARK 927      BINDING AFFINITY PREDICTED BY RF-SCORE:    0.00 PKD
ROOT
HETATM    1  O   UNL     1      -6.188  10.878  69.845  1.00  0.00    -0.085 OA 
HETATM    2  C   UNL     1      -6.187  12.100  69.797  1.00  0.00    -0.132 C  
HETATM    3  N   UNL     1      -5.729  12.923  70.783  1.00  0.00    -0.208 NA 
HETATM    4  O   UNL     1      -5.914  14.290  70.502  1.00  0.00    -0.156 OA 
HETATM    5  C   UNL     1      -6.563  14.352  69.224  1.00  0.00    -0.122 C  
HETATM    6  C   UNL     1      -6.641  12.945  68.642  1.00  0.00    -0.091 C  
ENDROOT
BRANCH   6   7
HETATM    7  N   UNL     1      -8.031  12.649  68.240  1.00  0.00    -0.148 NA 
HETATM    8  H   UNL     1      -8.841  12.932  68.791  1.00  0.00     0.000 HD 
BRANCH   7   9
HETATM    9  C   UNL     1      -8.128  11.999  67.130  1.00  0.00    -0.177 C  
BRANCH   9  10
HETATM   10  C   UNL     1      -8.882  10.735  67.049  1.00  0.00    -0.137 A  
HETATM   11  C   UNL     1     -10.000  10.588  67.873  1.00  0.00    -0.193 A  
HETATM   12  C   UNL     1     -10.619   9.342  67.975  1.00  0.00    -0.262 A  
HETATM   13  C   UNL     1     -10.130   8.256  67.242  1.00  0.00    -0.315 A  
HETATM   14  C   UNL     1      -9.055   8.420  66.365  1.00  0.00    -0.231 A  
HETATM   15  C   UNL     1      -8.424   9.664  66.271  1.00  0.00    -0.125 A  
BRANCH  13  16
HETATM   16  C   UNL     1     -10.691   6.907  67.459  1.00  0.00    -0.298 C  
BRANCH  16  17
HETATM   17  N   UNL     1     -11.090   6.188  66.464  1.00  0.00    -0.749 NA 
HETATM   18  H   UNL     1     -11.811   6.502  65.815  1.00  0.00     0.000 HD 
BRANCH  17  19
HETATM   19  C   UNL     1     -10.427   4.881  66.336  1.00  0.00    -0.280 C  
HETATM   20  C   UNL     1      -9.255   4.986  65.374  1.00  0.00    -0.138 C  
HETATM   21  O   UNL     1      -8.305   3.991  65.780  1.00  0.00    -0.108 OA 
HETATM   22  N   UNL     1      -8.551   3.790  67.161  1.00  0.00    -0.104 NA 
HETATM   23  C   UNL     1      -9.688   4.447  67.571  1.00  0.00    -0.163 C  
HETATM   24  O   UNL     1     -10.043   4.575  68.734  1.00  0.00    -0.099 OA 
ENDBRANCH  17  19
ENDBRANCH  16  17
ENDBRANCH  13  16
ENDBRANCH   9  10
ENDBRANCH   7   9
ENDBRANCH   6   7
TORSDOF 6
ENDMDL
MODEL      238
REMARK 921   NORMALIZED FREE ENERGY PREDICTED BY IDOCK:   -2.80 KCAL/MOL
REMARK 922        TOTAL FREE ENERGY PREDICTED BY IDOCK:   -4.32 KCAL/MOL
REMARK 923 INTER-LIGAND FREE ENERGY PREDICTED BY IDOCK:   -3.73 KCAL/MOL
REMARK 924 INTRA-LIGAND FREE ENERGY PREDICTED BY IDOCK:   -0.60 KCAL/MOL
REMARK 927      BINDING AFFINITY PREDICTED BY RF-SCORE:    0.00 PKD
ROOT
HETATM    1  O   UNL     1     -11.717  11.282  66.065  1.00  0.00    -0.132 OA 
HETATM    2  C   UNL     1     -10.664  11.601  66.600  1.00  0.00    -0.270 C  
HETATM    3  N   UNL     1      -9.628  12.232  65.975  1.00  0.00    -0.239 NA 
HETATM    4  O   UNL     1      -8.505  12.416  66.803  1.00  0.00    -0.174 OA 
HETATM    5  C   UNL     1      -8.843  11.840  68.072  1.00  0.00    -0.164 C  
HETATM    6  C   UNL     1     -10.307  11.413  68.046  1.00  0.00    -0.184 C  
ENDROOT
BRANCH   6   7
HETATM    7  N   UNL     1     -10.424  10.006  68.475  1.00  0.00    -0.192 NA 
HETATM    8  H   UNL     1     -10.585   9.238  67.824  1.00  0.00     0.000 HD 
BRANCH   7   9
HETATM    9  C   UNL     1     -10.304   9.835  69.748  1.00  0.00    -0.246 C  
BRANCH   9  10
HETATM   10  C   UNL     1      -9.409   8.801  70.299  1.00  0.00    -0.193 A  
HETATM   11  C   UNL     1      -9.177   7.661  69.526  1.00  0.00    -0.150 A  
HETATM   12  C   UNL     1      -8.504   6.576  70.088  1.00  0.00    -0.135 A  
HETATM   13  C   UNL     1      -8.054   6.640  71.411  1.00  0.00    -0.111 A  
HETATM   14  C   UNL     1      -8.226   7.807  72.161  1.00  0.00    -0.140 A  
HETATM   15  C   UNL     1      -8.912   8.891  71.605  1.00  0.00    -0.243 A  
BRANCH  13  16
HETATM   16  C   UNL     1      -7.475   5.443  72.052  1.00  0.00    -0.098 C  
BRANCH  16  17
HETATM   17  N   UNL     1      -8.032   4.911  73.087  1.00  0.00    -0.100 NA 
HETATM   18  H   UNL     1      -7.547   4.806  73.978  1.00  0.00     0.000 HD 
BRANCH  17  19
HETATM   19  C   UNL     1      -9.420   4.466  72.887  1.00  0.00    -0.130 C  
HETATM   20  C   UNL     1      -9.514   2.961  73.075  1.00  0.00    -0.091 C  
HETATM   21  O   UNL     1     -10.846   2.690  73.532  1.00  0.00    -0.160 OA 
HETATM   22  N   UNL     1     -11.265   3.884  74.170  1.00  0.00    -0.031 NA 
HETATM   23  C   UNL     1     -10.365   4.904  73.972  1.00  0.00    -0.255 C  
HETATM   24  O   UNL     1     -10.396   5.987  74.538  1.00  0.00    -0.289 OA 
ENDBRANCH  17  19
ENDBRANCH  16  17
ENDBRANCH  13  16
ENDBRANCH   9  10
ENDBRANCH   7   9
ENDBRANCH   6   7
TORSDOF 6
ENDMDL
MODEL      239
REMARK 921   NORMALIZED FREE ENERGY PREDICTED BY IDOCK:   -2.80 KCAL/MOL
REMARK 922        TOTAL FREE ENERGY PREDICTED BY IDOCK:   -4.32 KCAL/MOL
REMARK 923 INTER-LIGAND FREE ENERGY PREDICTED BY IDOCK:   -4.08 KCAL/MOL
REMARK 924 INTRA-LIGAND FREE ENERGY PREDICTED BY IDOCK:   -0.25 KCAL/MOL
REMARK 927      BINDING AFFINITY PREDICTED BY RF-SCORE:    0.00 PKD
ROOT
HETATM    1  O   UNL     1      -8.782   8.571  73.772  1.00  0.00    -0.263 OA 
HETATM    2  C   UNL     1      -9.478   7.675  73.315  1.00  0.00    -0.259 C  
HETATM    3  N   UNL     1      -9.138   6.355  73.290  1.00  0.00    -0.128 NA 
HETATM    4  O   UNL     1     -10.087   5.545  72.639  1.00  0.00    -0.175 OA 
HETATM    5  C   UNL     1     -11.127   6.426  72.193  1.00  0.00    -0.263 C  
HETATM    6  C   UNL     1     -10.854   7.826  72.732  1.00  0.00    -0.379 C  
ENDROOT
BRANCH   6   7
HETATM    7  N   UNL     1     -10.892   8.803  71.626  1.00  0.00    -0.302 NA 
HETATM    8  H   UNL     1     -11.750   9.259  71.317  1.00  0.00     0.000 HD 
BRANCH   7   9
HETATM    9  C   UNL     1      -9.742   9.027  71.086  1.00  0.00    -0.299 C  
BRANCH   9  10
HETATM   10  C   UNL     1      -9.593   9.128  69.623  1.00  0.00    -0.182 A  
HETATM   11  C   UNL     1     -10.657   8.693  68.828  1.00  0.00    -0.169 A  
HETATM   12  C   UNL     1     -10.481   8.584  67.447  1.00  0.00    -0.351 A  
HETATM   13  C   UNL     1      -9.254   8.924  66.869  1.00  0.00    -0.185 A  
HETATM   14  C   UNL     1      -8.214   9.424  67.656  1.00  0.00    -0.114 A  
HETATM   15  C   UNL     1      -8.382   9.522  69.041  1.00  0.00    -0.126 A  
BRANCH  13  16
HETATM   16  C   UNL     1      -9.021   8.671  65.433  1.00  0.00    -0.130 C  
BRANCH  16  17
HETATM   17  N   UNL     1      -8.275   7.691  65.046  1.00  0.00    -0.207 NA 
HETATM   18  H   UNL     1      -7.559   7.798  64.327  1.00  0.00     0.000 HD 
BRANCH  17  19
HETATM   19  C   UNL     1      -8.532   6.409  65.719  1.00  0.00    -0.148 C  
HETATM   20  C   UNL     1      -8.735   5.312  64.686  1.00  0.00    -0.091 C  
HETATM   21  O   UNL     1      -8.315   4.088  65.304  1.00  0.00    -0.104 OA 
HETATM   22  N   UNL     1      -7.377   4.478  66.292  1.00  0.00    -0.080 NA 
HETATM   23  C   UNL     1      -7.338   5.845  66.439  1.00  0.00    -0.078 C  
HETATM   24  O   UNL     1      -6.512   6.457  67.100  1.00  0.00    -0.042 OA 
ENDBRANCH  17  19
ENDBRANCH  16  17
ENDBRANCH  13  16
ENDBRANCH   9  10
ENDBRANCH   7   9
ENDBRANCH   6   7
TORSDOF 6
ENDMDL
MODEL      240
REMARK 921   NORMALIZED FREE ENERGY PREDICTED BY IDOCK:   -2.77 KCAL/MOL
REMARK 922        TOTAL FREE ENERGY PREDICTED BY IDOCK:   -4.29 KCAL/MOL
REMARK 923 INTER-LIGAND FREE ENERGY PREDICTED BY IDOCK:   -5.27 KCAL/MOL
REMARK 924 INTRA-LIGAND FREE ENERGY PREDICTED BY IDOCK:    0.98 KCAL/MOL
REMARK 927      BINDING AFFINITY PREDICTED BY RF-SCORE:    0.00 PKD
ROOT
HETATM    1  O   UNL     1     -10.742  11.411  63.055  1.00  0.00    -0.228 OA 
HETATM    2  C   UNL     1     -11.280  12.062  63.940  1.00  0.00    -0.417 C  
HETATM    3  N   UNL     1     -12.301  12.945  63.751  1.00  0.00    -0.645 NA 
HETATM    4  O   UNL     1     -12.685  13.616  64.927  1.00  0.00    -0.629 OA 
HETATM    5  C   UNL     1     -11.824  13.129  65.965  1.00  0.00    -0.407 C  
HETATM    6  C   UNL     1     -10.969  11.997  65.407  1.00  0.00    -0.300 C  
ENDROOT
BRANCH   6   7
HETATM    7  N   UNL     1      -9.545  12.259  65.692  1.00  0.00    -0.393 NA 
HETATM    8  H   UNL     1      -9.150  13.199  65.732  1.00  0.00     0.000 HD 
BRANCH   7   9
HETATM    9  C   UNL     1      -8.845  11.194  65.887  1.00  0.00    -0.186 C  
BRANCH   9  10
HETATM   10  C   UNL     1      -9.228  10.204  66.910  1.00  0.00    -0.168 A  
HETATM   11  C   UNL     1      -8.354  10.001  67.980  1.00  0.00    -0.117 A  
HETATM   12  C   UNL     1      -8.578   8.939  68.857  1.00  0.00    -0.135 A  
HETATM   13  C   UNL     1      -9.680   8.098  68.670  1.00  0.00    -0.158 A  
HETATM   14  C   UNL     1     -10.592   8.343  67.641  1.00  0.00    -0.265 A  
HETATM   15  C   UNL     1     -10.362   9.398  66.752  1.00  0.00    -0.303 A  
BRANCH  13  16
HETATM   16  C   UNL     1      -9.836   6.890  69.506  1.00  0.00    -0.159 C  
BRANCH  16  17
HETATM   17  N   UNL     1     -10.302   5.795  69.007  1.00  0.00    -0.219 NA 
HETATM   18  H   UNL     1     -11.264   5.490  69.156  1.00  0.00     0.000 HD 
BRANCH  17  19
HETATM   19  C   UNL     1      -9.343   5.018  68.208  1.00  0.00    -0.126 C  
HETATM   20  C   UNL     1      -9.085   5.716  66.883  1.00  0.00    -0.116 C  
HETATM   21  O   UNL     1      -7.756   5.352  66.482  1.00  0.00    -0.097 OA 
HETATM   22  N   UNL     1      -7.080   5.047  67.689  1.00  0.00    -0.065 NA 
HETATM   23  C   UNL     1      -7.943   5.021  68.759  1.00  0.00    -0.081 C  
HETATM   24  O   UNL     1      -7.606   4.943  69.931  1.00  0.00    -0.055 OA 
ENDBRANCH  17  19
ENDBRANCH  16  17
ENDBRANCH  13  16
ENDBRANCH   9  10
ENDBRANCH   7   9
ENDBRANCH   6   7
TORSDOF 6
ENDMDL
MODEL      241
REMARK 921   NORMALIZED FREE ENERGY PREDICTED BY IDOCK:   -2.75 KCAL/MOL
REMARK 922        TOTAL FREE ENERGY PREDICTED BY IDOCK:   -4.25 KCAL/MOL
REMARK 923 INTER-LIGAND FREE ENERGY PREDICTED BY IDOCK:   -3.62 KCAL/MOL
REMARK 924 INTRA-LIGAND FREE ENERGY PREDICTED BY IDOCK:   -0.63 KCAL/MOL
REMARK 927      BINDING AFFINITY PREDICTED BY RF-SCORE:    0.00 PKD
ROOT
HETATM    1  O   UNL     1      -5.326  11.880  68.791  1.00  0.00    -0.050 OA 
HETATM    2  C   UNL     1      -6.363  12.508  68.629  1.00  0.00    -0.073 C  
HETATM    3  N   UNL     1      -6.780  13.545  69.410  1.00  0.00    -0.088 NA 
HETATM    4  O   UNL     1      -8.047  14.042  69.051  1.00  0.00    -0.051 OA 
HETATM    5  C   UNL     1      -8.491  13.244  67.945  1.00  0.00    -0.177 C  
HETATM    6  C   UNL     1      -7.363  12.307  67.528  1.00  0.00    -0.137 C  
ENDROOT
BRANCH   6   7
HETATM    7  N   UNL     1      -7.863  10.919  67.470  1.00  0.00    -0.112 NA 
HETATM    8  H   UNL     1      -7.274  10.126  67.218  1.00  0.00     0.000 HD 
BRANCH   7   9
HETATM    9  C   UNL     1      -9.114  10.800  67.765  1.00  0.00    -0.151 C  
BRANCH   9  10
HETATM   10  C   UNL     1      -9.544  10.175  69.028  1.00  0.00    -0.202 A  
HETATM   11  C   UNL     1      -8.565   9.577  69.826  1.00  0.00    -0.201 A  
HETATM   12  C   UNL     1      -8.951   8.804  70.922  1.00  0.00    -0.247 A  
HETATM   13  C   UNL     1     -10.308   8.647  71.224  1.00  0.00    -0.308 A  
HETATM   14  C   UNL     1     -11.282   9.303  70.468  1.00  0.00    -0.315 A  
HETATM   15  C   UNL     1     -10.899  10.067  69.361  1.00  0.00    -0.270 A  
BRANCH  13  16
HETATM   16  C   UNL     1     -10.722   7.714  72.291  1.00  0.00    -0.260 C  
BRANCH  16  17
HETATM   17  N   UNL     1     -10.494   6.448  72.189  1.00  0.00    -0.204 NA 
HETATM   18  H   UNL     1     -10.710   5.918  71.344  1.00  0.00     0.000 HD 
BRANCH  17  19
HETATM   19  C   UNL     1      -9.899   5.825  73.381  1.00  0.00    -0.161 C  
HETATM   20  C   UNL     1     -10.443   4.417  73.557  1.00  0.00    -0.202 C  
HETATM   21  O   UNL     1      -9.423   3.667  74.231  1.00  0.00    -0.094 OA 
HETATM   22  N   UNL     1      -8.210   4.320  73.901  1.00  0.00    -0.095 NA 
HETATM   23  C   UNL     1      -8.437   5.503  73.237  1.00  0.00    -0.117 C  
HETATM   24  O   UNL     1      -7.576   6.183  72.700  1.00  0.00    -0.099 OA 
ENDBRANCH  17  19
ENDBRANCH  16  17
ENDBRANCH  13  16
ENDBRANCH   9  10
ENDBRANCH   7   9
ENDBRANCH   6   7
TORSDOF 6
ENDMDL
MODEL      242
REMARK 921   NORMALIZED FREE ENERGY PREDICTED BY IDOCK:   -2.73 KCAL/MOL
REMARK 922        TOTAL FREE ENERGY PREDICTED BY IDOCK:   -4.22 KCAL/MOL
REMARK 923 INTER-LIGAND FREE ENERGY PREDICTED BY IDOCK:   -3.67 KCAL/MOL
REMARK 924 INTRA-LIGAND FREE ENERGY PREDICTED BY IDOCK:   -0.55 KCAL/MOL
REMARK 927      BINDING AFFINITY PREDICTED BY RF-SCORE:    0.00 PKD
ROOT
HETATM    1  O   UNL     1      -6.295  11.118  69.709  1.00  0.00    -0.099 OA 
HETATM    2  C   UNL     1      -6.332  12.269  69.295  1.00  0.00    -0.103 C  
HETATM    3  N   UNL     1      -6.017  13.375  70.028  1.00  0.00    -0.133 NA 
HETATM    4  O   UNL     1      -6.216  14.582  69.333  1.00  0.00    -0.102 OA 
HETATM    5  C   UNL     1      -6.716  14.221  68.039  1.00  0.00    -0.148 C  
HETATM    6  C   UNL     1      -6.680  12.703  67.901  1.00  0.00    -0.109 C  
ENDROOT
BRANCH   6   7
HETATM    7  N   UNL     1      -8.003  12.209  67.473  1.00  0.00    -0.152 NA 
HETATM    8  H   UNL     1      -8.881  12.602  67.815  1.00  0.00     0.000 HD 
BRANCH   7   9
HETATM    9  C   UNL     1      -7.951  11.237  66.626  1.00  0.00    -0.159 C  
BRANCH   9  10
HETATM   10  C   UNL     1      -8.353   9.871  67.007  1.00  0.00    -0.121 A  
HETATM   11  C   UNL     1      -9.720   9.588  67.074  1.00  0.00    -0.229 A  
HETATM   12  C   UNL     1     -10.144   8.376  67.621  1.00  0.00    -0.268 A  
HETATM   13  C   UNL     1      -9.203   7.449  68.082  1.00  0.00    -0.133 A  
HETATM   14  C   UNL     1      -7.835   7.703  67.951  1.00  0.00    -0.117 A  
HETATM   15  C   UNL     1      -7.408   8.923  67.416  1.00  0.00    -0.081 A  
BRANCH  13  16
HETATM   16  C   UNL     1      -9.651   6.235  68.792  1.00  0.00    -0.121 C  
BRANCH  16  17
HETATM   17  N   UNL     1      -9.323   6.028  70.023  1.00  0.00    -0.151 NA 
HETATM   18  H   UNL     1      -8.412   6.293  70.399  1.00  0.00     0.000 HD 
BRANCH  17  19
HETATM   19  C   UNL     1     -10.359   5.384  70.844  1.00  0.00    -0.242 C  
HETATM   20  C   UNL     1      -9.740   4.818  72.111  1.00  0.00    -0.166 C  
HETATM   21  O   UNL     1     -10.770   4.832  73.110  1.00  0.00    -0.201 OA 
HETATM   22  N   UNL     1     -11.653   5.865  72.710  1.00  0.00    -0.237 NA 
HETATM   23  C   UNL     1     -11.336   6.346  71.462  1.00  0.00    -0.294 C  
HETATM   24  O   UNL     1     -11.829   7.338  70.946  1.00  0.00    -0.308 OA 
ENDBRANCH  17  19
ENDBRANCH  16  17
ENDBRANCH  13  16
ENDBRANCH   9  10
ENDBRANCH   7   9
ENDBRANCH   6   7
TORSDOF 6
ENDMDL
MODEL      243
REMARK 921   NORMALIZED FREE ENERGY PREDICTED BY IDOCK:   -2.72 KCAL/MOL
REMARK 922        TOTAL FREE ENERGY PREDICTED BY IDOCK:   -4.21 KCAL/MOL
REMARK 923 INTER-LIGAND FREE ENERGY PREDICTED BY IDOCK:   -3.88 KCAL/MOL
REMARK 924 INTRA-LIGAND FREE ENERGY PREDICTED BY IDOCK:   -0.33 KCAL/MOL
REMARK 927      BINDING AFFINITY PREDICTED BY RF-SCORE:    0.00 PKD
ROOT
HETATM    1  O   UNL     1     -10.015   3.744  72.835  1.00  0.00    -0.134 OA 
HETATM    2  C   UNL     1     -10.386   4.895  73.025  1.00  0.00    -0.186 C  
HETATM    3  N   UNL     1     -11.631   5.373  72.742  1.00  0.00    -0.285 NA 
HETATM    4  O   UNL     1     -11.769   6.752  72.988  1.00  0.00    -0.002 OA 
HETATM    5  C   UNL     1     -10.493   7.204  73.460  1.00  0.00    -0.380 C  
HETATM    6  C   UNL     1      -9.578   5.999  73.643  1.00  0.00    -0.148 C  
ENDROOT
BRANCH   6   7
HETATM    7  N   UNL     1      -8.304   6.228  72.934  1.00  0.00    -0.118 NA 
HETATM    8  H   UNL     1      -7.429   6.434  73.416  1.00  0.00     0.000 HD 
BRANCH   7   9
HETATM    9  C   UNL     1      -8.397   6.144  71.650  1.00  0.00    -0.126 C  
BRANCH   9  10
HETATM   10  C   UNL     1      -8.451   7.353  70.808  1.00  0.00    -0.131 A  
HETATM   11  C   UNL     1      -7.362   8.226  70.850  1.00  0.00    -0.059 A  
HETATM   12  C   UNL     1      -7.457   9.472  70.229  1.00  0.00    -0.148 A  
HETATM   13  C   UNL     1      -8.629   9.831  69.557  1.00  0.00    -0.186 A  
HETATM   14  C   UNL     1      -9.692   8.930  69.456  1.00  0.00    -0.173 A  
HETATM   15  C   UNL     1      -9.605   7.686  70.090  1.00  0.00    -0.168 A  
BRANCH  13  16
HETATM   16  C   UNL     1      -8.786  11.201  69.027  1.00  0.00    -0.017 C  
BRANCH  16  17
HETATM   17  N   UNL     1      -8.513  11.469  67.794  1.00  0.00    -0.132 NA 
HETATM   18  H   UNL     1      -7.622  11.221  67.363  1.00  0.00     0.000 HD 
BRANCH  17  19
HETATM   19  C   UNL     1      -9.583  12.157  67.056  1.00  0.00    -0.205 C  
HETATM   20  C   UNL     1     -10.906  11.990  67.783  1.00  0.00    -0.215 C  
HETATM   21  O   UNL     1     -11.697  13.143  67.461  1.00  0.00    -0.329 OA 
HETATM   22  N   UNL     1     -10.758  14.157  67.152  1.00  0.00    -0.279 NA 
HETATM   23  C   UNL     1      -9.478  13.658  67.086  1.00  0.00    -0.244 C  
HETATM   24  O   UNL     1      -8.464  14.334  66.995  1.00  0.00    -0.210 OA 
ENDBRANCH  17  19
ENDBRANCH  16  17
ENDBRANCH  13  16
ENDBRANCH   9  10
ENDBRANCH   7   9
ENDBRANCH   6   7
TORSDOF 6
ENDMDL
MODEL      244
REMARK 921   NORMALIZED FREE ENERGY PREDICTED BY IDOCK:   -2.68 KCAL/MOL
REMARK 922        TOTAL FREE ENERGY PREDICTED BY IDOCK:   -4.16 KCAL/MOL
REMARK 923 INTER-LIGAND FREE ENERGY PREDICTED BY IDOCK:   -3.88 KCAL/MOL
REMARK 924 INTRA-LIGAND FREE ENERGY PREDICTED BY IDOCK:   -0.28 KCAL/MOL
REMARK 927      BINDING AFFINITY PREDICTED BY RF-SCORE:    0.00 PKD
ROOT
HETATM    1  O   UNL     1      -7.003   2.047  65.560  1.00  0.00    -0.044 OA 
HETATM    2  C   UNL     1      -7.797   2.606  64.816  1.00  0.00    -0.077 C  
HETATM    3  N   UNL     1      -7.463   3.288  63.684  1.00  0.00    -0.061 NA 
HETATM    4  O   UNL     1      -8.563   3.899  63.053  1.00  0.00    -0.089 OA 
HETATM    5  C   UNL     1      -9.708   3.593  63.860  1.00  0.00    -0.161 C  
HETATM    6  C   UNL     1      -9.291   2.623  64.960  1.00  0.00    -0.115 C  
ENDROOT
BRANCH   6   7
HETATM    7  N   UNL     1      -9.723   3.142  66.273  1.00  0.00    -0.404 NA 
HETATM    8  H   UNL     1     -10.601   2.871  66.717  1.00  0.00     0.000 HD 
BRANCH   7   9
HETATM    9  C   UNL     1      -8.892   3.970  66.808  1.00  0.00    -0.122 C  
BRANCH   9  10
HETATM   10  C   UNL     1      -9.363   5.139  67.572  1.00  0.00    -0.131 A  
HETATM   11  C   UNL     1     -10.659   5.600  67.326  1.00  0.00    -0.328 A  
HETATM   12  C   UNL     1     -11.071   6.814  67.875  1.00  0.00    -0.262 A  
HETATM   13  C   UNL     1     -10.195   7.553  68.678  1.00  0.00    -0.210 A  
HETATM   14  C   UNL     1      -8.924   7.058  68.980  1.00  0.00    -0.133 A  
HETATM   15  C   UNL     1      -8.503   5.848  68.420  1.00  0.00    -0.111 A  
BRANCH  13  16
HETATM   16  C   UNL     1     -10.577   8.903  69.138  1.00  0.00    -0.195 C  
BRANCH  16  17
HETATM   17  N   UNL     1      -9.904   9.942  68.772  1.00  0.00    -0.165 NA 
HETATM   18  H   UNL     1      -9.289  10.449  69.408  1.00  0.00     0.000 HD 
BRANCH  17  19
HETATM   19  C   UNL     1     -10.090  10.342  67.368  1.00  0.00    -0.202 C  
HETATM   20  C   UNL     1     -11.137  11.440  67.276  1.00  0.00    -0.303 C  
HETATM   21  O   UNL     1     -10.810  12.218  66.116  1.00  0.00    -0.261 OA 
HETATM   22  N   UNL     1      -9.416  12.039  65.936  1.00  0.00    -0.225 NA 
HETATM   23  C   UNL     1      -8.916  11.076  66.781  1.00  0.00    -0.157 C  
HETATM   24  O   UNL     1      -7.730  10.836  66.949  1.00  0.00    -0.118 OA 
ENDBRANCH  17  19
ENDBRANCH  16  17
ENDBRANCH  13  16
ENDBRANCH   9  10
ENDBRANCH   7   9
ENDBRANCH   6   7
TORSDOF 6
ENDMDL
MODEL      245
REMARK 921   NORMALIZED FREE ENERGY PREDICTED BY IDOCK:   -2.51 KCAL/MOL
REMARK 922        TOTAL FREE ENERGY PREDICTED BY IDOCK:   -3.93 KCAL/MOL
REMARK 923 INTER-LIGAND FREE ENERGY PREDICTED BY IDOCK:   -3.64 KCAL/MOL
REMARK 924 INTRA-LIGAND FREE ENERGY PREDICTED BY IDOCK:   -0.29 KCAL/MOL
REMARK 927      BINDING AFFINITY PREDICTED BY RF-SCORE:    0.00 PKD
ROOT
HETATM    1  O   UNL     1      -7.569   8.855  74.374  1.00  0.00    -0.422 OA 
HETATM    2  C   UNL     1      -8.052   7.733  74.317  1.00  0.00    -0.228 C  
HETATM    3  N   UNL     1      -7.350   6.570  74.444  1.00  0.00    -0.099 NA 
HETATM    4  O   UNL     1      -8.138   5.418  74.264  1.00  0.00    -0.105 OA 
HETATM    5  C   UNL     1      -9.466   5.881  73.985  1.00  0.00    -0.145 C  
HETATM    6  C   UNL     1      -9.506   7.397  74.147  1.00  0.00    -0.141 C  
ENDROOT
BRANCH   6   7
HETATM    7  N   UNL     1     -10.086   8.013  72.938  1.00  0.00    -0.303 NA 
HETATM    8  H   UNL     1     -11.046   8.355  72.894  1.00  0.00     0.000 HD 
BRANCH   7   9
HETATM    9  C   UNL     1      -9.271   8.078  71.940  1.00  0.00    -0.167 C  
BRANCH   9  10
HETATM   10  C   UNL     1      -9.225   7.015  70.920  1.00  0.00    -0.156 A  
HETATM   11  C   UNL     1     -10.415   6.688  70.265  1.00  0.00    -0.247 A  
HETATM   12  C   UNL     1     -10.458   5.561  69.444  1.00  0.00    -0.360 A  
HETATM   13  C   UNL     1      -9.313   4.777  69.269  1.00  0.00    -0.196 A  
HETATM   14  C   UNL     1      -8.106   5.144  69.870  1.00  0.00    -0.082 A  
HETATM   15  C   UNL     1      -8.063   6.266  70.704  1.00  0.00    -0.113 A  
BRANCH  13  16
HETATM   16  C   UNL     1      -9.396   3.507  68.522  1.00  0.00    -0.166 C  
BRANCH  16  17
HETATM   17  N   UNL     1      -8.367   3.037  67.898  1.00  0.00    -0.078 NA 
HETATM   18  H   UNL     1      -7.584   2.600  68.383  1.00  0.00     0.000 HD 
BRANCH  17  19
HETATM   19  C   UNL     1      -8.409   3.180  66.434  1.00  0.00    -0.100 C  
HETATM   20  C   UNL     1      -9.707   3.849  66.015  1.00  0.00    -0.162 C  
HETATM   21  O   UNL     1      -9.429   4.545  64.791  1.00  0.00    -0.159 OA 
HETATM   22  N   UNL     1      -8.040   4.818  64.832  1.00  0.00    -0.101 NA 
HETATM   23  C   UNL     1      -7.431   4.184  65.890  1.00  0.00    -0.081 C  
HETATM   24  O   UNL     1      -6.280   4.373  66.253  1.00  0.00    -0.030 OA 
ENDBRANCH  17  19
ENDBRANCH  16  17
ENDBRANCH  13  16
ENDBRANCH   9  10
ENDBRANCH   7   9
ENDBRANCH   6   7
TORSDOF 6
ENDMDL
MODEL      246
REMARK 921   NORMALIZED FREE ENERGY PREDICTED BY IDOCK:   -2.34 KCAL/MOL
REMARK 922        TOTAL FREE ENERGY PREDICTED BY IDOCK:   -3.69 KCAL/MOL
REMARK 923 INTER-LIGAND FREE ENERGY PREDICTED BY IDOCK:   -3.93 KCAL/MOL
REMARK 924 INTRA-LIGAND FREE ENERGY PREDICTED BY IDOCK:    0.24 KCAL/MOL
REMARK 927      BINDING AFFINITY PREDICTED BY RF-SCORE:    0.00 PKD
ROOT
HETATM    1  O   UNL     1      -6.003  10.140  71.671  1.00  0.00    -0.304 OA 
HETATM    2  C   UNL     1      -5.712  11.323  71.556  1.00  0.00     0.425 C  
HETATM    3  N   UNL     1      -5.512  12.185  72.594  1.00  0.00     0.170 NA 
HETATM    4  O   UNL     1      -5.262  13.507  72.182  1.00  0.00    -0.217 OA 
HETATM    5  C   UNL     1      -5.319  13.498  70.749  1.00  0.00    -0.145 C  
HETATM    6  C   UNL     1      -5.470  12.059  70.270  1.00  0.00    -0.133 C  
ENDROOT
BRANCH   6   7
HETATM    7  N   UNL     1      -6.614  11.960  69.342  1.00  0.00    -0.149 NA 
HETATM    8  H   UNL     1      -7.063  11.075  69.106  1.00  0.00     0.000 HD 
BRANCH   7   9
HETATM    9  C   UNL     1      -6.994  13.093  68.857  1.00  0.00    -0.093 C  
BRANCH   9  10
HETATM   10  C   UNL     1      -8.423  13.411  68.691  1.00  0.00     0.001 A  
HETATM   11  C   UNL     1      -8.833  14.722  68.950  1.00  0.00    -0.164 A  
HETATM   12  C   UNL     1     -10.196  15.017  69.000  1.00  0.00    -0.242 A  
HETATM   13  C   UNL     1     -11.139  14.008  68.776  1.00  0.00    -0.287 A  
HETATM   14  C   UNL     1     -10.728  12.714  68.449  1.00  0.00    -0.260 A  
HETATM   15  C   UNL     1      -9.363  12.412  68.411  1.00  0.00    -0.158 A  
BRANCH  13  16
HETATM   16  C   UNL     1     -12.576  14.286  68.974  1.00  0.00     0.293 C  
BRANCH  16  17
HETATM   17  N   UNL     1     -12.966  15.245  69.744  1.00  0.00    -0.493 NA 
HETATM   18  H   UNL     1     -13.543  16.017  69.409  1.00  0.00     0.000 HD 
BRANCH  17  19
HETATM   19  C   UNL     1     -12.517  15.144  71.141  1.00  0.00    -0.352 C  
HETATM   20  C   UNL     1     -13.326  16.087  72.016  1.00  0.00    -0.073 C  
HETATM   21  O   UNL     1     -13.352  15.504  73.326  1.00  0.00    -0.498 OA 
HETATM   22  N   UNL     1     -13.178  14.115  73.113  1.00  0.00    -0.569 NA 
HETATM   23  C   UNL     1     -12.867  13.840  71.802  1.00  0.00    -0.326 C  
HETATM   24  O   UNL     1     -12.822  12.721  71.311  1.00  0.00    -0.359 OA 
ENDBRANCH  17  19
ENDBRANCH  16  17
ENDBRANCH  13  16
ENDBRANCH   9  10
ENDBRANCH   7   9
ENDBRANCH   6   7
TORSDOF 6
ENDMDL
MODEL      247
REMARK 921   NORMALIZED FREE ENERGY PREDICTED BY IDOCK:   -2.29 KCAL/MOL
REMARK 922        TOTAL FREE ENERGY PREDICTED BY IDOCK:   -3.64 KCAL/MOL
REMARK 923 INTER-LIGAND FREE ENERGY PREDICTED BY IDOCK:   -3.09 KCAL/MOL
REMARK 924 INTRA-LIGAND FREE ENERGY PREDICTED BY IDOCK:   -0.55 KCAL/MOL
REMARK 927      BINDING AFFINITY PREDICTED BY RF-SCORE:    0.00 PKD
ROOT
HETATM    1  O   UNL     1      -8.775   1.470  62.897  1.00  0.00    -0.067 OA 
HETATM    2  C   UNL     1      -9.359   2.317  63.558  1.00  0.00    -0.098 C  
HETATM    3  N   UNL     1     -10.480   2.984  63.161  1.00  0.00    -0.172 NA 
HETATM    4  O   UNL     1     -10.906   3.960  64.081  1.00  0.00    -0.287 OA 
HETATM    5  C   UNL     1      -9.966   3.926  65.164  1.00  0.00    -0.170 C  
HETATM    6  C   UNL     1      -9.003   2.765  64.946  1.00  0.00    -0.128 C  
ENDROOT
BRANCH   6   7
HETATM    7  N   UNL     1      -7.611   3.247  65.041  1.00  0.00    -0.076 NA 
HETATM    8  H   UNL     1      -7.143   3.747  64.285  1.00  0.00     0.000 HD 
BRANCH   7   9
HETATM    9  C   UNL     1      -7.039   2.977  66.166  1.00  0.00    -0.058 C  
BRANCH   9  10
HETATM   10  C   UNL     1      -7.260   3.818  67.356  1.00  0.00    -0.063 A  
HETATM   11  C   UNL     1      -8.015   3.281  68.402  1.00  0.00    -0.062 A  
HETATM   12  C   UNL     1      -8.416   4.108  69.453  1.00  0.00    -0.096 A  
HETATM   13  C   UNL     1      -8.049   5.457  69.461  1.00  0.00    -0.096 A  
HETATM   14  C   UNL     1      -7.236   5.976  68.450  1.00  0.00    -0.084 A  
HETATM   15  C   UNL     1      -6.844   5.154  67.389  1.00  0.00    -0.057 A  
BRANCH  13  16
HETATM   16  C   UNL     1      -8.593   6.363  70.493  1.00  0.00    -0.143 C  
BRANCH  16  17
HETATM   17  N   UNL     1      -9.841   6.318  70.822  1.00  0.00    -0.183 NA 
HETATM   18  H   UNL     1     -10.592   6.417  70.139  1.00  0.00     0.000 HD 
BRANCH  17  19
HETATM   19  C   UNL     1     -10.099   6.112  72.255  1.00  0.00    -0.179 C  
HETATM   20  C   UNL     1      -8.794   6.173  73.031  1.00  0.00    -0.124 C  
HETATM   21  O   UNL     1      -9.124   6.636  74.349  1.00  0.00    -0.167 OA 
HETATM   22  N   UNL     1     -10.317   7.382  74.186  1.00  0.00    -0.087 NA 
HETATM   23  C   UNL     1     -10.826   7.252  72.915  1.00  0.00    -0.337 C  
HETATM   24  O   UNL     1     -11.749   7.908  72.457  1.00  0.00    -0.358 OA 
ENDBRANCH  17  19
ENDBRANCH  16  17
ENDBRANCH  13  16
ENDBRANCH   9  10
ENDBRANCH   7   9
ENDBRANCH   6   7
TORSDOF 6
ENDMDL
MODEL      248
REMARK 921   NORMALIZED FREE ENERGY PREDICTED BY IDOCK:   -2.23 KCAL/MOL
REMARK 922        TOTAL FREE ENERGY PREDICTED BY IDOCK:   -3.55 KCAL/MOL
REMARK 923 INTER-LIGAND FREE ENERGY PREDICTED BY IDOCK:   -3.61 KCAL/MOL
REMARK 924 INTRA-LIGAND FREE ENERGY PREDICTED BY IDOCK:    0.05 KCAL/MOL
REMARK 927      BINDING AFFINITY PREDICTED BY RF-SCORE:    0.00 PKD
ROOT
HETATM    1  O   UNL     1     -11.782  11.675  65.960  1.00  0.00    -0.382 OA 
HETATM    2  C   UNL     1     -10.977  12.015  66.816  1.00  0.00    -0.285 C  
HETATM    3  N   UNL     1      -9.766  12.591  66.568  1.00  0.00    -0.241 NA 
HETATM    4  O   UNL     1      -9.005  12.814  67.730  1.00  0.00    -0.172 OA 
HETATM    5  C   UNL     1      -9.792  12.326  68.825  1.00  0.00    -0.004 C  
HETATM    6  C   UNL     1     -11.165  11.917  68.302  1.00  0.00    -0.261 C  
ENDROOT
BRANCH   6   7
HETATM    7  N   UNL     1     -11.475  10.542  68.740  1.00  0.00    -0.421 NA 
HETATM    8  H   UNL     1     -12.200   9.970  68.306  1.00  0.00     0.000 HD 
BRANCH   7   9
HETATM    9  C   UNL     1     -10.747  10.127  69.721  1.00  0.00    -0.279 C  
BRANCH   9  10
HETATM   10  C   UNL     1     -10.059   8.825  69.665  1.00  0.00    -0.204 A  
HETATM   11  C   UNL     1     -10.182   8.073  68.494  1.00  0.00    -0.231 A  
HETATM   12  C   UNL     1      -9.719   6.757  68.472  1.00  0.00    -0.133 A  
HETATM   13  C   UNL     1      -9.122   6.206  69.610  1.00  0.00    -0.139 A  
HETATM   14  C   UNL     1      -8.936   6.981  70.758  1.00  0.00    -0.150 A  
HETATM   15  C   UNL     1      -9.412   8.295  70.787  1.00  0.00    -0.185 A  
BRANCH  13  16
HETATM   16  C   UNL     1      -8.766   4.773  69.636  1.00  0.00    -0.085 C  
BRANCH  16  17
HETATM   17  N   UNL     1      -7.619   4.383  70.084  1.00  0.00    -0.049 NA 
HETATM   18  H   UNL     1      -6.745   4.841  69.823  1.00  0.00     0.000 HD 
BRANCH  17  19
HETATM   19  C   UNL     1      -7.666   3.232  70.997  1.00  0.00    -0.046 C  
HETATM   20  C   UNL     1      -7.564   3.707  72.437  1.00  0.00    -0.062 C  
HETATM   21  O   UNL     1      -8.258   2.739  73.236  1.00  0.00    -0.062 OA 
HETATM   22  N   UNL     1      -9.204   2.150  72.360  1.00  0.00    -0.074 NA 
HETATM   23  C   UNL     1      -9.009   2.556  71.060  1.00  0.00    -0.090 C  
HETATM   24  O   UNL     1      -9.772   2.331  70.133  1.00  0.00    -0.051 OA 
ENDBRANCH  17  19
ENDBRANCH  16  17
ENDBRANCH  13  16
ENDBRANCH   9  10
ENDBRANCH   7   9
ENDBRANCH   6   7
TORSDOF 6
ENDMDL
MODEL      249
REMARK 921   NORMALIZED FREE ENERGY PREDICTED BY IDOCK:   -2.12 KCAL/MOL
REMARK 922        TOTAL FREE ENERGY PREDICTED BY IDOCK:   -3.41 KCAL/MOL
REMARK 923 INTER-LIGAND FREE ENERGY PREDICTED BY IDOCK:   -4.11 KCAL/MOL
REMARK 924 INTRA-LIGAND FREE ENERGY PREDICTED BY IDOCK:    0.70 KCAL/MOL
REMARK 927      BINDING AFFINITY PREDICTED BY RF-SCORE:    0.00 PKD
ROOT
HETATM    1  O   UNL     1     -10.214  11.426  64.981  1.00  0.00    -0.251 OA 
HETATM    2  C   UNL     1      -9.404  10.707  64.412  1.00  0.00    -0.251 C  
HETATM    3  N   UNL     1      -9.697   9.854  63.388  1.00  0.00     0.066 NA 
HETATM    4  O   UNL     1      -8.595   9.089  62.965  1.00  0.00    -0.203 OA 
HETATM    5  C   UNL     1      -7.495   9.474  63.801  1.00  0.00    -0.116 C  
HETATM    6  C   UNL     1      -7.929  10.641  64.681  1.00  0.00     0.050 C  
ENDROOT
BRANCH   6   7
HETATM    7  N   UNL     1      -7.628  10.338  66.094  1.00  0.00    -0.118 NA 
HETATM    8  H   UNL     1      -6.858   9.734  66.382  1.00  0.00     0.000 HD 
BRANCH   7   9
HETATM    9  C   UNL     1      -8.427  10.906  66.933  1.00  0.00    -0.135 C  
BRANCH   9  10
HETATM   10  C   UNL     1      -9.063  10.141  68.020  1.00  0.00    -0.131 A  
HETATM   11  C   UNL     1      -9.076  10.709  69.296  1.00  0.00    -0.117 A  
HETATM   12  C   UNL     1      -9.484   9.939  70.386  1.00  0.00    -0.088 A  
HETATM   13  C   UNL     1      -9.892   8.615  70.194  1.00  0.00    -0.191 A  
HETATM   14  C   UNL     1      -9.945   8.070  68.909  1.00  0.00    -0.199 A  
HETATM   15  C   UNL     1      -9.524   8.835  67.816  1.00  0.00    -0.164 A  
BRANCH  13  16
HETATM   16  C   UNL     1     -10.183   7.756  71.360  1.00  0.00    -0.182 C  
BRANCH  16  17
HETATM   17  N   UNL     1     -10.549   8.270  72.486  1.00  0.00    -0.337 NA 
HETATM   18  H   UNL     1      -9.879   8.584  73.188  1.00  0.00     0.000 HD 
BRANCH  17  19
HETATM   19  C   UNL     1     -12.003   8.370  72.682  1.00  0.00    -0.277 C  
HETATM   20  C   UNL     1     -12.528   9.641  72.035  1.00  0.00    -0.332 C  
HETATM   21  O   UNL     1     -13.888   9.377  71.662  1.00  0.00    -0.341 OA 
HETATM   22  N   UNL     1     -13.953   7.972  71.488  1.00  0.00    -0.371 NA 
HETATM   23  C   UNL     1     -12.796   7.357  71.903  1.00  0.00    -0.272 C  
HETATM   24  O   UNL     1     -12.521   6.180  71.719  1.00  0.00    -0.147 OA 
ENDBRANCH  17  19
ENDBRANCH  16  17
ENDBRANCH  13  16
ENDBRANCH   9  10
ENDBRANCH   7   9
ENDBRANCH   6   7
TORSDOF 6
ENDMDL
MODEL      250
REMARK 921   NORMALIZED FREE ENERGY PREDICTED BY IDOCK:   -2.04 KCAL/MOL
REMARK 922        TOTAL FREE ENERGY PREDICTED BY IDOCK:   -3.30 KCAL/MOL
REMARK 923 INTER-LIGAND FREE ENERGY PREDICTED BY IDOCK:   -2.85 KCAL/MOL
REMARK 924 INTRA-LIGAND FREE ENERGY PREDICTED BY IDOCK:   -0.45 KCAL/MOL
REMARK 927      BINDING AFFINITY PREDICTED BY RF-SCORE:    0.00 PKD
ROOT
HETATM    1  O   UNL     1      -9.923   1.473  62.690  1.00  0.00    -0.091 OA 
HETATM    2  C   UNL     1     -10.239   2.417  63.401  1.00  0.00    -0.147 C  
HETATM    3  N   UNL     1     -11.393   3.134  63.284  1.00  0.00    -0.122 NA 
HETATM    4  O   UNL     1     -11.474   4.215  64.181  1.00  0.00    -0.123 OA 
HETATM    5  C   UNL     1     -10.255   4.200  64.937  1.00  0.00    -0.204 C  
HETATM    6  C   UNL     1      -9.461   2.952  64.568  1.00  0.00    -0.146 C  
ENDROOT
BRANCH   6   7
HETATM    7  N   UNL     1      -8.083   3.329  64.199  1.00  0.00    -0.082 NA 
HETATM    8  H   UNL     1      -7.826   3.652  63.266  1.00  0.00     0.000 HD 
BRANCH   7   9
HETATM    9  C   UNL     1      -7.232   3.214  65.162  1.00  0.00    -0.066 C  
BRANCH   9  10
HETATM   10  C   UNL     1      -7.197   4.186  66.270  1.00  0.00    -0.068 A  
HETATM   11  C   UNL     1      -7.823   3.831  67.467  1.00  0.00    -0.082 A  
HETATM   12  C   UNL     1      -7.987   4.792  68.466  1.00  0.00    -0.084 A  
HETATM   13  C   UNL     1      -7.513   6.093  68.271  1.00  0.00    -0.087 A  
HETATM   14  C   UNL     1      -6.826   6.428  67.101  1.00  0.00    -0.066 A  
HETATM   15  C   UNL     1      -6.672   5.471  66.093  1.00  0.00    -0.057 A  
BRANCH  13  16
HETATM   16  C   UNL     1      -7.815   7.145  69.262  1.00  0.00    -0.117 C  
BRANCH  16  17
HETATM   17  N   UNL     1      -8.970   7.202  69.836  1.00  0.00    -0.142 NA 
HETATM   18  H   UNL     1      -9.175   6.710  70.705  1.00  0.00     0.000 HD 
BRANCH  17  19
HETATM   19  C   UNL     1      -9.969   8.030  69.142  1.00  0.00    -0.188 C  
HETATM   20  C   UNL     1      -9.277   9.148  68.380  1.00  0.00    -0.132 C  
HETATM   21  O   UNL     1     -10.122   9.463  67.264  1.00  0.00    -0.195 OA 
HETATM   22  N   UNL     1     -10.851   8.275  67.009  1.00  0.00    -0.147 NA 
HETATM   23  C   UNL     1     -10.646   7.336  67.992  1.00  0.00    -0.189 C  
HETATM   24  O   UNL     1     -11.022   6.174  67.943  1.00  0.00    -0.312 OA 
ENDBRANCH  17  19
ENDBRANCH  16  17
ENDBRANCH  13  16
ENDBRANCH   9  10
ENDBRANCH   7   9
ENDBRANCH   6   7
TORSDOF 6
ENDMDL
MODEL      251
REMARK 921   NORMALIZED FREE ENERGY PREDICTED BY IDOCK:   -2.01 KCAL/MOL
REMARK 922        TOTAL FREE ENERGY PREDICTED BY IDOCK:   -3.25 KCAL/MOL
REMARK 923 INTER-LIGAND FREE ENERGY PREDICTED BY IDOCK:   -2.69 KCAL/MOL
REMARK 924 INTRA-LIGAND FREE ENERGY PREDICTED BY IDOCK:   -0.57 KCAL/MOL
REMARK 927      BINDING AFFINITY PREDICTED BY RF-SCORE:    0.00 PKD
ROOT
HETATM    1  O   UNL     1      -9.671  10.845  67.800  1.00  0.00    -0.164 OA 
HETATM    2  C   UNL     1      -8.494  11.084  68.030  1.00  0.00    -0.129 C  
HETATM    3  N   UNL     1      -7.662  11.783  67.206  1.00  0.00    -0.149 NA 
HETATM    4  O   UNL     1      -6.336  11.849  67.675  1.00  0.00    -0.065 OA 
HETATM    5  C   UNL     1      -6.310  11.115  68.906  1.00  0.00    -0.050 C  
HETATM    6  C   UNL     1      -7.734  10.706  69.268  1.00  0.00    -0.142 C  
ENDROOT
BRANCH   6   7
HETATM    7  N   UNL     1      -7.783   9.256  69.537  1.00  0.00    -0.079 NA 
HETATM    8  H   UNL     1      -7.350   8.562  68.927  1.00  0.00     0.000 HD 
BRANCH   7   9
HETATM    9  C   UNL     1      -8.423   8.944  70.613  1.00  0.00    -0.184 C  
BRANCH   9  10
HETATM   10  C   UNL     1      -7.981   7.828  71.468  1.00  0.00    -0.097 A  
HETATM   11  C   UNL     1      -7.257   6.795  70.869  1.00  0.00    -0.073 A  
HETATM   12  C   UNL     1      -6.994   5.631  71.593  1.00  0.00    -0.068 A  
HETATM   13  C   UNL     1      -7.442   5.512  72.912  1.00  0.00    -0.096 A  
HETATM   14  C   UNL     1      -8.106   6.573  73.534  1.00  0.00    -0.113 A  
HETATM   15  C   UNL     1      -8.382   7.735  72.806  1.00  0.00    -0.183 A  
BRANCH  13  16
HETATM   16  C   UNL     1      -7.294   4.229  73.628  1.00  0.00    -0.076 C  
BRANCH  16  17
HETATM   17  N   UNL     1      -8.309   3.666  74.194  1.00  0.00    -0.085 NA 
HETATM   18  H   UNL     1      -8.353   3.500  75.200  1.00  0.00     0.000 HD 
BRANCH  17  19
HETATM   19  C   UNL     1      -9.396   3.280  73.282  1.00  0.00    -0.093 C  
HETATM   20  C   UNL     1      -9.581   1.772  73.304  1.00  0.00    -0.072 C  
HETATM   21  O   UNL     1     -10.960   1.526  72.993  1.00  0.00    -0.138 OA 
HETATM   22  N   UNL     1     -11.641   2.702  73.394  1.00  0.00    -0.116 NA 
HETATM   23  C   UNL     1     -10.763   3.698  73.749  1.00  0.00    -0.224 C  
HETATM   24  O   UNL     1     -11.076   4.753  74.282  1.00  0.00    -0.289 OA 
ENDBRANCH  17  19
ENDBRANCH  16  17
ENDBRANCH  13  16
ENDBRANCH   9  10
ENDBRANCH   7   9
ENDBRANCH   6   7
TORSDOF 6
ENDMDL
MODEL      252
REMARK 921   NORMALIZED FREE ENERGY PREDICTED BY IDOCK:   -1.97 KCAL/MOL
REMARK 922        TOTAL FREE ENERGY PREDICTED BY IDOCK:   -3.20 KCAL/MOL
REMARK 923 INTER-LIGAND FREE ENERGY PREDICTED BY IDOCK:   -3.30 KCAL/MOL
REMARK 924 INTRA-LIGAND FREE ENERGY PREDICTED BY IDOCK:    0.10 KCAL/MOL
REMARK 927      BINDING AFFINITY PREDICTED BY RF-SCORE:    0.00 PKD
ROOT
HETATM    1  O   UNL     1      -6.972   2.087  65.689  1.00  0.00    -0.044 OA 
HETATM    2  C   UNL     1      -7.979   2.691  65.348  1.00  0.00    -0.079 C  
HETATM    3  N   UNL     1      -8.180   3.248  64.119  1.00  0.00    -0.089 NA 
HETATM    4  O   UNL     1      -9.395   3.951  64.015  1.00  0.00    -0.135 OA 
HETATM    5  C   UNL     1     -10.029   3.846  65.297  1.00  0.00    -0.154 C  
HETATM    6  C   UNL     1      -9.212   2.907  66.177  1.00  0.00    -0.094 C  
ENDROOT
BRANCH   6   7
HETATM    7  N   UNL     1      -8.914   3.563  67.466  1.00  0.00    -0.131 NA 
HETATM    8  H   UNL     1      -9.596   3.640  68.220  1.00  0.00     0.000 HD 
BRANCH   7   9
HETATM    9  C   UNL     1      -7.715   4.030  67.551  1.00  0.00    -0.075 C  
BRANCH   9  10
HETATM   10  C   UNL     1      -7.458   5.384  68.074  1.00  0.00    -0.077 A  
HETATM   11  C   UNL     1      -6.915   5.495  69.357  1.00  0.00    -0.063 A  
HETATM   12  C   UNL     1      -6.844   6.748  69.965  1.00  0.00    -0.057 A  
HETATM   13  C   UNL     1      -7.298   7.883  69.285  1.00  0.00    -0.082 A  
HETATM   14  C   UNL     1      -7.776   7.780  67.976  1.00  0.00    -0.126 A  
HETATM   15  C   UNL     1      -7.861   6.524  67.369  1.00  0.00    -0.112 A  
BRANCH  13  16
HETATM   16  C   UNL     1      -7.359   9.184  69.981  1.00  0.00    -0.070 C  
BRANCH  16  17
HETATM   17  N   UNL     1      -8.372   9.970  69.829  1.00  0.00    -0.224 NA 
HETATM   18  H   UNL     1      -8.279  10.921  69.472  1.00  0.00     0.000 HD 
BRANCH  17  19
HETATM   19  C   UNL     1      -9.670   9.392  70.207  1.00  0.00    -0.246 C  
HETATM   20  C   UNL     1      -9.650   8.986  71.671  1.00  0.00    -0.248 C  
HETATM   21  O   UNL     1     -11.003   9.082  72.139  1.00  0.00    -0.348 OA 
HETATM   22  N   UNL     1     -11.616  10.040  71.294  1.00  0.00    -0.370 NA 
HETATM   23  C   UNL     1     -10.795  10.389  70.248  1.00  0.00    -0.242 C  
HETATM   24  O   UNL     1     -11.006  11.305  69.466  1.00  0.00    -0.236 OA 
ENDBRANCH  17  19
ENDBRANCH  16  17
ENDBRANCH  13  16
ENDBRANCH   9  10
ENDBRANCH   7   9
ENDBRANCH   6   7
TORSDOF 6
ENDMDL
MODEL      253
REMARK 921   NORMALIZED FREE ENERGY PREDICTED BY IDOCK:   -1.81 KCAL/MOL
REMARK 922        TOTAL FREE ENERGY PREDICTED BY IDOCK:   -2.99 KCAL/MOL
REMARK 923 INTER-LIGAND FREE ENERGY PREDICTED BY IDOCK:   -2.60 KCAL/MOL
REMARK 924 INTRA-LIGAND FREE ENERGY PREDICTED BY IDOCK:   -0.39 KCAL/MOL
REMARK 927      BINDING AFFINITY PREDICTED BY RF-SCORE:    0.00 PKD
ROOT
HETATM    1  O   UNL     1      -7.684  12.039  68.551  1.00  0.00    -0.125 OA 
HETATM    2  C   UNL     1      -7.096  11.613  69.535  1.00  0.00     0.056 C  
HETATM    3  N   UNL     1      -6.023  12.213  70.127  1.00  0.00    -0.159 NA 
HETATM    4  O   UNL     1      -5.490  11.474  71.199  1.00  0.00    -0.282 OA 
HETATM    5  C   UNL     1      -6.284  10.284  71.299  1.00  0.00     0.245 C  
HETATM    6  C   UNL     1      -7.449  10.383  70.320  1.00  0.00     0.159 C  
ENDROOT
BRANCH   6   7
HETATM    7  N   UNL     1      -7.497   9.173  69.477  1.00  0.00    -0.074 NA 
HETATM    8  H   UNL     1      -6.886   9.031  68.673  1.00  0.00     0.000 HD 
BRANCH   7   9
HETATM    9  C   UNL     1      -8.381   8.310  69.849  1.00  0.00    -0.125 C  
BRANCH   9  10
HETATM   10  C   UNL     1      -9.081   7.462  68.867  1.00  0.00    -0.136 A  
HETATM   11  C   UNL     1      -9.426   6.165  69.255  1.00  0.00    -0.147 A  
HETATM   12  C   UNL     1      -9.905   5.268  68.299  1.00  0.00    -0.206 A  
HETATM   13  C   UNL     1     -10.053   5.675  66.969  1.00  0.00    -0.223 A  
HETATM   14  C   UNL     1      -9.774   6.992  66.597  1.00  0.00    -0.226 A  
HETATM   15  C   UNL     1      -9.280   7.889  67.549  1.00  0.00    -0.152 A  
BRANCH  13  16
HETATM   16  C   UNL     1     -10.419   4.689  65.933  1.00  0.00    -0.268 C  
BRANCH  16  17
HETATM   17  N   UNL     1      -9.708   3.627  65.748  1.00  0.00    -0.348 NA 
HETATM   18  H   UNL     1      -9.722   2.839  66.395  1.00  0.00     0.000 HD 
BRANCH  17  19
HETATM   19  C   UNL     1      -8.876   3.639  64.535  1.00  0.00    -0.118 C  
HETATM   20  C   UNL     1      -9.715   4.041  63.334  1.00  0.00    -0.143 C  
HETATM   21  O   UNL     1      -8.821   4.670  62.404  1.00  0.00    -0.111 OA 
HETATM   22  N   UNL     1      -7.764   5.178  63.199  1.00  0.00    -0.066 NA 
HETATM   23  C   UNL     1      -7.859   4.747  64.502  1.00  0.00    -0.089 C  
HETATM   24  O   UNL     1      -7.177   5.159  65.429  1.00  0.00    -0.065 OA 
ENDBRANCH  17  19
ENDBRANCH  16  17
ENDBRANCH  13  16
ENDBRANCH   9  10
ENDBRANCH   7   9
ENDBRANCH   6   7
TORSDOF 6
ENDMDL
MODEL      254
REMARK 921   NORMALIZED FREE ENERGY PREDICTED BY IDOCK:   -0.62 KCAL/MOL
REMARK 922        TOTAL FREE ENERGY PREDICTED BY IDOCK:   -1.38 KCAL/MOL
REMARK 923 INTER-LIGAND FREE ENERGY PREDICTED BY IDOCK:   -1.93 KCAL/MOL
REMARK 924 INTRA-LIGAND FREE ENERGY PREDICTED BY IDOCK:    0.55 KCAL/MOL
REMARK 927      BINDING AFFINITY PREDICTED BY RF-SCORE:    0.00 PKD
ROOT
HETATM    1  O   UNL     1      -9.404  10.335  66.184  1.00  0.00    -0.159 OA 
HETATM    2  C   UNL     1      -8.615  10.141  65.269  1.00  0.00    -0.158 C  
HETATM    3  N   UNL     1      -8.931   9.574  64.070  1.00  0.00    -0.219 NA 
HETATM    4  O   UNL     1      -7.820   9.399  63.224  1.00  0.00    -0.120 OA 
HETATM    5  C   UNL     1      -6.684   9.885  63.951  1.00  0.00    -0.126 C  
HETATM    6  C   UNL     1      -7.163  10.520  65.251  1.00  0.00    -0.051 C  
ENDROOT
BRANCH   6   7
HETATM    7  N   UNL     1      -6.418   9.947  66.390  1.00  0.00    -0.070 NA 
HETATM    8  H   UNL     1      -5.399   9.932  66.436  1.00  0.00     0.000 HD 
BRANCH   7   9
HETATM    9  C   UNL     1      -7.172   9.467  67.320  1.00  0.00    -0.087 C  
BRANCH   9  10
HETATM   10  C   UNL     1      -7.036   8.070  67.768  1.00  0.00    -0.086 A  
HETATM   11  C   UNL     1      -6.112   7.797  68.780  1.00  0.00    -0.039 A  
HETATM   12  C   UNL     1      -5.808   6.471  69.092  1.00  0.00    -0.021 A  
HETATM   13  C   UNL     1      -6.439   5.428  68.405  1.00  0.00    -0.040 A  
HETATM   14  C   UNL     1      -7.414   5.702  67.442  1.00  0.00    -0.084 A  
HETATM   15  C   UNL     1      -7.710   7.029  67.118  1.00  0.00    -0.108 A  
BRANCH  13  16
HETATM   16  C   UNL     1      -6.012   4.033  68.631  1.00  0.00    -0.027 C  
BRANCH  16  17
HETATM   17  N   UNL     1      -6.065   3.506  69.809  1.00  0.00    -0.023 NA 
HETATM   18  H   UNL     1      -5.305   3.598  70.484  1.00  0.00     0.000 HD 
BRANCH  17  19
HETATM   19  C   UNL     1      -7.299   2.765  70.105  1.00  0.00    -0.040 C  
HETATM   20  C   UNL     1      -8.401   3.731  70.508  1.00  0.00    -0.061 C  
HETATM   21  O   UNL     1      -9.641   3.114  70.134  1.00  0.00    -0.169 OA 
HETATM   22  N   UNL     1      -9.310   2.242  69.068  1.00  0.00    -0.145 NA 
HETATM   23  C   UNL     1      -7.948   2.150  68.895  1.00  0.00    -0.051 C  
HETATM   24  O   UNL     1      -7.396   1.598  67.955  1.00  0.00    -0.046 OA 
ENDBRANCH  17  19
ENDBRANCH  16  17
ENDBRANCH  13  16
ENDBRANCH   9  10
ENDBRANCH   7   9
ENDBRANCH   6   7
TORSDOF 6
ENDMDL
MODEL      255
REMARK 921   NORMALIZED FREE ENERGY PREDICTED BY IDOCK:   -0.59 KCAL/MOL
REMARK 922        TOTAL FREE ENERGY PREDICTED BY IDOCK:   -1.33 KCAL/MOL
REMARK 923 INTER-LIGAND FREE ENERGY PREDICTED BY IDOCK:   -3.72 KCAL/MOL
REMARK 924 INTRA-LIGAND FREE ENERGY PREDICTED BY IDOCK:    2.38 KCAL/MOL
REMARK 927      BINDING AFFINITY PREDICTED BY RF-SCORE:    0.00 PKD
ROOT
HETATM    1  O   UNL     1      -7.112   6.843  68.774  1.00  0.00    -0.083 OA 
HETATM    2  C   UNL     1      -7.398   6.268  69.815  1.00  0.00    -0.079 C  
HETATM    3  N   UNL     1      -8.309   5.260  69.927  1.00  0.00    -0.093 NA 
HETATM    4  O   UNL     1      -8.503   4.825  71.251  1.00  0.00    -0.103 OA 
HETATM    5  C   UNL     1      -7.648   5.637  72.068  1.00  0.00    -0.100 C  
HETATM    6  C   UNL     1      -6.787   6.512  71.164  1.00  0.00    -0.066 C  
ENDROOT
BRANCH   6   7
HETATM    7  N   UNL     1      -6.896   7.923  71.584  1.00  0.00    -0.054 NA 
HETATM    8  H   UNL     1      -7.079   8.203  72.548  1.00  0.00     0.000 HD 
BRANCH   7   9
HETATM    9  C   UNL     1      -6.740   8.769  70.623  1.00  0.00    -0.048 C  
BRANCH   9  10
HETATM   10  C   UNL     1      -7.874   9.180  69.776  1.00  0.00    -0.088 A  
HETATM   11  C   UNL     1      -7.586   9.793  68.554  1.00  0.00    -0.080 A  
HETATM   12  C   UNL     1      -8.618  10.375  67.818  1.00  0.00    -0.122 A  
HETATM   13  C   UNL     1      -9.932  10.329  68.297  1.00  0.00    -0.166 A  
HETATM   14  C   UNL     1     -10.229   9.656  69.485  1.00  0.00    -0.233 A  
HETATM   15  C   UNL     1      -9.194   9.083  70.231  1.00  0.00    -0.229 A  
BRANCH  13  16
HETATM   16  C   UNL     1     -10.999  11.069  67.596  1.00  0.00    -0.275 C  
BRANCH  16  17
HETATM   17  N   UNL     1     -11.337  10.759  66.389  1.00  0.00    -0.010 NA 
HETATM   18  H   UNL     1     -12.121  10.141  66.181  1.00  0.00     0.000 HD 
BRANCH  17  19
HETATM   19  C   UNL     1     -10.507  11.363  65.335  1.00  0.00    -0.280 C  
HETATM   20  C   UNL     1      -9.579  10.317  64.743  1.00  0.00    -0.307 C  
HETATM   21  O   UNL     1      -9.326  10.717  63.388  1.00  0.00    -0.238 OA 
HETATM   22  N   UNL     1     -10.453  11.491  63.018  1.00  0.00    -0.256 NA 
HETATM   23  C   UNL     1     -11.271  11.739  64.095  1.00  0.00    -0.364 C  
HETATM   24  O   UNL     1     -12.384  12.241  64.031  1.00  0.00    -0.443 OA 
ENDBRANCH  17  19
ENDBRANCH  16  17
ENDBRANCH  13  16
ENDBRANCH   9  10
ENDBRANCH   7   9
ENDBRANCH   6   7
TORSDOF 6
ENDMDL
