MODEL        1
REMARK 921   NORMALIZED FREE ENERGY PREDICTED BY IDOCK:   -6.99 KCAL/MOL
REMARK 922        TOTAL FREE ENERGY PREDICTED BY IDOCK:   -8.40 KCAL/MOL
REMARK 923 INTER-LIGAND FREE ENERGY PREDICTED BY IDOCK:   -7.80 KCAL/MOL
REMARK 924 INTRA-LIGAND FREE ENERGY PREDICTED BY IDOCK:   -0.59 KCAL/MOL
REMARK 927      BINDING AFFINITY PREDICTED BY RF-SCORE:    0.00 PKD
ROOT
HETATM    1  C   UNL     1     -10.294  11.882  63.494  1.00  0.00    -0.495 C  
HETATM    2  C   UNL     1     -10.888  12.789  64.541  1.00  0.00    -0.347 C  
HETATM    3  C   UNL     1     -10.938  12.462  65.853  1.00  0.00    -0.323 C  
HETATM    4  O   UNL     1     -11.376  14.009  64.072  1.00  0.00    -0.595 OA 
HETATM    5  N   UNL     1      -9.924  10.185  66.565  1.00  0.00    -0.214 NA 
HETATM    6  C   UNL     1     -10.390  11.212  66.288  1.00  0.00    -0.249 C  
HETATM    7  H   UNL     1     -11.750  14.581  64.732  1.00  0.00     0.000 HD 
ENDROOT
BRANCH   3   8
HETATM    8  C   UNL     1     -11.538  13.302  66.940  1.00  0.00    -0.364 C  
HETATM    9  O   UNL     1     -12.519  13.998  66.685  1.00  0.00    -0.420 OA 
HETATM   10  N   UNL     1     -10.980  13.182  68.197  1.00  0.00    -0.242 N  
HETATM   11  H   UNL     1     -10.163  12.582  68.313  1.00  0.00     0.000 HD 
BRANCH  10  12
HETATM   12  C   UNL     1     -11.488  13.849  69.325  1.00  0.00    -0.297 A  
HETATM   13  C   UNL     1     -11.068  15.153  69.582  1.00  0.00    -0.283 A  
HETATM   14  C   UNL     1     -11.415  15.773  70.787  1.00  0.00    -0.423 A  
HETATM   15  C   UNL     1     -12.239  15.119  71.718  1.00  0.00    -0.423 A  
HETATM   16  C   UNL     1     -12.545  15.724  73.063  1.00  0.00    -0.483 C  
HETATM   17  C   UNL     1     -12.752  13.855  71.393  1.00  0.00    -0.445 A  
HETATM   18  F   UNL     1     -13.869  15.992  73.231  1.00  0.00    -0.654 F  
HETATM   19  F   UNL     1     -11.891  16.895  73.298  1.00  0.00    -0.572 F  
HETATM   20  C   UNL     1     -12.370  13.223  70.211  1.00  0.00    -0.334 A  
HETATM   21  F   UNL     1     -12.202  14.899  74.094  1.00  0.00    -0.640 F  
ENDBRANCH  10  12
ENDBRANCH   3   8
TORSDOF 2
ENDMDL
MODEL        2
REMARK 921   NORMALIZED FREE ENERGY PREDICTED BY IDOCK:   -6.83 KCAL/MOL
REMARK 922        TOTAL FREE ENERGY PREDICTED BY IDOCK:   -8.22 KCAL/MOL
REMARK 923 INTER-LIGAND FREE ENERGY PREDICTED BY IDOCK:   -7.67 KCAL/MOL
REMARK 924 INTRA-LIGAND FREE ENERGY PREDICTED BY IDOCK:   -0.56 KCAL/MOL
REMARK 927      BINDING AFFINITY PREDICTED BY RF-SCORE:    0.00 PKD
ROOT
HETATM    1  C   UNL     1     -12.583  15.834  73.534  1.00  0.00    -0.680 C  
HETATM    2  C   UNL     1     -12.094  15.779  72.110  1.00  0.00    -0.478 C  
HETATM    3  C   UNL     1     -12.270  14.699  71.315  1.00  0.00    -0.410 C  
HETATM    4  O   UNL     1     -11.454  16.930  71.649  1.00  0.00    -0.443 OA 
HETATM    5  N   UNL     1     -13.543  12.670  72.305  1.00  0.00    -0.515 NA 
HETATM    6  C   UNL     1     -12.967  13.556  71.824  1.00  0.00    -0.348 C  
HETATM    7  H   UNL     1     -11.145  16.895  70.751  1.00  0.00     0.000 HD 
ENDROOT
BRANCH   3   8
HETATM    8  C   UNL     1     -11.786  14.567  69.902  1.00  0.00    -0.317 C  
HETATM    9  O   UNL     1     -10.736  15.118  69.575  1.00  0.00    -0.244 OA 
HETATM   10  N   UNL     1     -12.530  13.760  69.063  1.00  0.00    -0.310 N  
HETATM   11  H   UNL     1     -13.391  13.346  69.422  1.00  0.00     0.000 HD 
BRANCH  10  12
HETATM   12  C   UNL     1     -12.154  13.484  67.737  1.00  0.00    -0.280 A  
HETATM   13  C   UNL     1     -12.397  14.441  66.754  1.00  0.00    -0.204 A  
HETATM   14  C   UNL     1     -12.200  14.123  65.407  1.00  0.00    -0.441 A  
HETATM   15  C   UNL     1     -11.695  12.867  65.034  1.00  0.00    -0.381 A  
HETATM   16  C   UNL     1     -11.567  12.464  63.588  1.00  0.00    -0.499 C  
HETATM   17  C   UNL     1     -11.341  11.956  66.040  1.00  0.00    -0.375 A  
HETATM   18  F   UNL     1     -10.278  12.241  63.216  1.00  0.00    -0.414 F  
HETATM   19  F   UNL     1     -12.055  13.392  62.718  1.00  0.00    -0.477 F  
HETATM   20  C   UNL     1     -11.580  12.260  67.380  1.00  0.00    -0.425 A  
HETATM   21  F   UNL     1     -12.238  11.310  63.307  1.00  0.00    -0.423 F  
ENDBRANCH  10  12
ENDBRANCH   3   8
TORSDOF 2
ENDMDL
MODEL        3
REMARK 921   NORMALIZED FREE ENERGY PREDICTED BY IDOCK:   -6.44 KCAL/MOL
REMARK 922        TOTAL FREE ENERGY PREDICTED BY IDOCK:   -7.78 KCAL/MOL
REMARK 923 INTER-LIGAND FREE ENERGY PREDICTED BY IDOCK:   -7.20 KCAL/MOL
REMARK 924 INTRA-LIGAND FREE ENERGY PREDICTED BY IDOCK:   -0.58 KCAL/MOL
REMARK 927      BINDING AFFINITY PREDICTED BY RF-SCORE:    0.00 PKD
ROOT
HETATM    1  C   UNL     1      -9.994  10.512  64.310  1.00  0.00    -0.398 C  
HETATM    2  C   UNL     1     -10.099  11.827  65.040  1.00  0.00    -0.263 C  
HETATM    3  C   UNL     1     -11.171  12.644  64.928  1.00  0.00    -0.332 C  
HETATM    4  O   UNL     1      -9.017  12.147  65.860  1.00  0.00    -0.416 OA 
HETATM    5  N   UNL     1     -13.126  11.865  63.416  1.00  0.00    -0.612 NA 
HETATM    6  C   UNL     1     -12.272  12.252  64.101  1.00  0.00    -0.446 C  
HETATM    7  H   UNL     1      -9.083  12.976  66.320  1.00  0.00     0.000 HD 
ENDROOT
BRANCH   3   8
HETATM    8  C   UNL     1     -11.328  13.975  65.601  1.00  0.00    -0.313 C  
HETATM    9  O   UNL     1     -12.372  14.220  66.205  1.00  0.00    -0.437 OA 
HETATM   10  N   UNL     1     -10.242  14.826  65.556  1.00  0.00    -0.348 N  
HETATM   11  H   UNL     1      -9.419  14.539  65.026  1.00  0.00     0.000 HD 
BRANCH  10  12
HETATM   12  C   UNL     1     -10.220  16.071  66.208  1.00  0.00    -0.316 A  
HETATM   13  C   UNL     1     -10.596  17.210  65.498  1.00  0.00    -0.160 A  
HETATM   14  C   UNL     1     -10.413  18.477  66.062  1.00  0.00    -0.433 A  
HETATM   15  C   UNL     1      -9.912  18.613  67.368  1.00  0.00    -0.364 A  
HETATM   16  C   UNL     1      -9.612  19.965  67.961  1.00  0.00    -0.370 C  
HETATM   17  C   UNL     1      -9.651  17.455  68.114  1.00  0.00    -0.287 A  
HETATM   18  F   UNL     1     -10.382  20.245  69.047  1.00  0.00    -0.517 F  
HETATM   19  F   UNL     1      -9.797  20.997  67.092  1.00  0.00    -0.611 F  
HETATM   20  C   UNL     1      -9.794  16.196  67.534  1.00  0.00    -0.237 A  
HETATM   21  F   UNL     1      -8.320  20.072  68.387  1.00  0.00    -0.341 F  
ENDBRANCH  10  12
ENDBRANCH   3   8
TORSDOF 2
ENDMDL
MODEL        4
REMARK 921   NORMALIZED FREE ENERGY PREDICTED BY IDOCK:   -6.42 KCAL/MOL
REMARK 922        TOTAL FREE ENERGY PREDICTED BY IDOCK:   -7.77 KCAL/MOL
REMARK 923 INTER-LIGAND FREE ENERGY PREDICTED BY IDOCK:   -7.24 KCAL/MOL
REMARK 924 INTRA-LIGAND FREE ENERGY PREDICTED BY IDOCK:   -0.53 KCAL/MOL
REMARK 927      BINDING AFFINITY PREDICTED BY RF-SCORE:    0.00 PKD
ROOT
HETATM    1  C   UNL     1     -12.268  15.048  64.575  1.00  0.00    -0.344 C  
HETATM    2  C   UNL     1     -12.310  13.765  65.364  1.00  0.00    -0.475 C  
HETATM    3  C   UNL     1     -11.795  13.652  66.609  1.00  0.00    -0.447 C  
HETATM    4  O   UNL     1     -12.935  12.690  64.731  1.00  0.00    -0.816 OA 
HETATM    5  N   UNL     1     -10.732  15.766  67.668  1.00  0.00    -0.305 NA 
HETATM    6  C   UNL     1     -11.197  14.796  67.230  1.00  0.00    -0.346 C  
HETATM    7  H   UNL     1     -12.961  11.880  65.229  1.00  0.00     0.000 HD 
ENDROOT
BRANCH   3   8
HETATM    8  C   UNL     1     -11.777  12.403  67.438  1.00  0.00    -0.347 C  
HETATM    9  O   UNL     1     -11.864  11.311  66.876  1.00  0.00    -0.423 OA 
HETATM   10  N   UNL     1     -11.591  12.561  68.797  1.00  0.00    -0.299 N  
HETATM   11  H   UNL     1     -11.533  13.506  69.175  1.00  0.00     0.000 HD 
BRANCH  10  12
HETATM   12  C   UNL     1     -11.477  11.476  69.683  1.00  0.00    -0.301 A  
HETATM   13  C   UNL     1     -10.333  10.681  69.632  1.00  0.00    -0.185 A  
HETATM   14  C   UNL     1     -10.272   9.496  70.372  1.00  0.00    -0.337 A  
HETATM   15  C   UNL     1     -11.329   9.127  71.221  1.00  0.00    -0.406 A  
HETATM   16  C   UNL     1     -11.333   7.809  71.951  1.00  0.00    -0.270 C  
HETATM   17  C   UNL     1     -12.422   9.996  71.354  1.00  0.00    -0.510 A  
HETATM   18  F   UNL     1     -11.312   7.958  73.304  1.00  0.00    -0.456 F  
HETATM   19  F   UNL     1     -10.273   7.012  71.643  1.00  0.00    -0.193 F  
HETATM   20  C   UNL     1     -12.498  11.155  70.583  1.00  0.00    -0.448 A  
HETATM   21  F   UNL     1     -12.444   7.066  71.678  1.00  0.00    -0.334 F  
ENDBRANCH  10  12
ENDBRANCH   3   8
TORSDOF 2
ENDMDL
MODEL        5
REMARK 921   NORMALIZED FREE ENERGY PREDICTED BY IDOCK:   -6.40 KCAL/MOL
REMARK 922        TOTAL FREE ENERGY PREDICTED BY IDOCK:   -7.74 KCAL/MOL
REMARK 923 INTER-LIGAND FREE ENERGY PREDICTED BY IDOCK:   -7.24 KCAL/MOL
REMARK 924 INTRA-LIGAND FREE ENERGY PREDICTED BY IDOCK:   -0.49 KCAL/MOL
REMARK 927      BINDING AFFINITY PREDICTED BY RF-SCORE:    0.00 PKD
ROOT
HETATM    1  C   UNL     1      -9.929  11.689  63.291  1.00  0.00    -0.442 C  
HETATM    2  C   UNL     1      -9.854  11.929  64.777  1.00  0.00    -0.191 C  
HETATM    3  C   UNL     1     -10.771  12.660  65.450  1.00  0.00    -0.308 C  
HETATM    4  O   UNL     1      -8.775  11.331  65.429  1.00  0.00    -0.351 OA 
HETATM    5  N   UNL     1     -12.753  13.643  64.099  1.00  0.00    -0.649 NA 
HETATM    6  C   UNL     1     -11.881  13.223  64.741  1.00  0.00    -0.371 C  
HETATM    7  H   UNL     1      -8.727  11.482  66.366  1.00  0.00     0.000 HD 
ENDROOT
BRANCH   3   8
HETATM    8  C   UNL     1     -10.742  12.961  66.919  1.00  0.00    -0.257 C  
HETATM    9  O   UNL     1      -9.798  12.554  67.594  1.00  0.00    -0.195 OA 
HETATM   10  N   UNL     1     -11.763  13.751  67.411  1.00  0.00    -0.360 N  
HETATM   11  H   UNL     1     -12.507  14.038  66.776  1.00  0.00     0.000 HD 
BRANCH  10  12
HETATM   12  C   UNL     1     -11.821  14.175  68.750  1.00  0.00    -0.349 A  
HETATM   13  C   UNL     1     -12.072  13.232  69.746  1.00  0.00    -0.355 A  
HETATM   14  C   UNL     1     -12.313  13.651  71.058  1.00  0.00    -0.436 A  
HETATM   15  C   UNL     1     -12.242  15.011  71.401  1.00  0.00    -0.388 A  
HETATM   16  C   UNL     1     -12.595  15.497  72.782  1.00  0.00    -0.416 C  
HETATM   17  C   UNL     1     -11.872  15.937  70.414  1.00  0.00    -0.358 A  
HETATM   18  F   UNL     1     -11.540  16.068  73.424  1.00  0.00    -0.449 F  
HETATM   19  F   UNL     1     -13.052  14.515  73.607  1.00  0.00    -0.559 F  
HETATM   20  C   UNL     1     -11.674  15.521  69.098  1.00  0.00    -0.380 A  
HETATM   21  F   UNL     1     -13.575  16.446  72.766  1.00  0.00    -0.428 F  
ENDBRANCH  10  12
ENDBRANCH   3   8
TORSDOF 2
ENDMDL
MODEL        6
REMARK 921   NORMALIZED FREE ENERGY PREDICTED BY IDOCK:   -6.39 KCAL/MOL
REMARK 922        TOTAL FREE ENERGY PREDICTED BY IDOCK:   -7.73 KCAL/MOL
REMARK 923 INTER-LIGAND FREE ENERGY PREDICTED BY IDOCK:   -7.19 KCAL/MOL
REMARK 924 INTRA-LIGAND FREE ENERGY PREDICTED BY IDOCK:   -0.54 KCAL/MOL
REMARK 927      BINDING AFFINITY PREDICTED BY RF-SCORE:    0.00 PKD
ROOT
HETATM    1  C   UNL     1      -9.661  10.502  62.691  1.00  0.00    -0.285 C  
HETATM    2  C   UNL     1     -10.378  11.375  63.688  1.00  0.00    -0.410 C  
HETATM    3  C   UNL     1     -10.421  11.097  65.011  1.00  0.00    -0.357 C  
HETATM    4  O   UNL     1     -10.992  12.512  63.160  1.00  0.00    -0.665 OA 
HETATM    5  N   UNL     1      -9.169   8.983  65.836  1.00  0.00    -0.214 NA 
HETATM    6  C   UNL     1      -9.743   9.937  65.508  1.00  0.00    -0.302 C  
HETATM    7  H   UNL     1     -11.445  13.062  63.789  1.00  0.00     0.000 HD 
ENDROOT
BRANCH   3   8
HETATM    8  C   UNL     1     -11.138  11.904  66.051  1.00  0.00    -0.322 C  
HETATM    9  O   UNL     1     -12.283  12.292  65.823  1.00  0.00    -0.622 OA 
HETATM   10  N   UNL     1     -10.477  12.104  67.247  1.00  0.00    -0.215 N  
HETATM   11  H   UNL     1      -9.525  11.748  67.344  1.00  0.00     0.000 HD 
BRANCH  10  12
HETATM   12  C   UNL     1     -11.057  12.775  68.338  1.00  0.00    -0.262 A  
HETATM   13  C   UNL     1     -11.544  12.026  69.408  1.00  0.00    -0.393 A  
HETATM   14  C   UNL     1     -12.284  12.651  70.416  1.00  0.00    -0.368 A  
HETATM   15  C   UNL     1     -12.489  14.040  70.399  1.00  0.00    -0.418 A  
HETATM   16  C   UNL     1     -13.365  14.723  71.417  1.00  0.00    -0.392 C  
HETATM   17  C   UNL     1     -11.892  14.797  69.380  1.00  0.00    -0.360 A  
HETATM   18  F   UNL     1     -12.678  15.604  72.194  1.00  0.00    -0.370 F  
HETATM   19  F   UNL     1     -13.977  13.861  72.276  1.00  0.00    -0.486 F  
HETATM   20  C   UNL     1     -11.191  14.166  68.353  1.00  0.00    -0.289 A  
HETATM   21  F   UNL     1     -14.370  15.443  70.841  1.00  0.00    -0.459 F  
ENDBRANCH  10  12
ENDBRANCH   3   8
TORSDOF 2
ENDMDL
MODEL        7
REMARK 921   NORMALIZED FREE ENERGY PREDICTED BY IDOCK:   -6.31 KCAL/MOL
REMARK 922        TOTAL FREE ENERGY PREDICTED BY IDOCK:   -7.64 KCAL/MOL
REMARK 923 INTER-LIGAND FREE ENERGY PREDICTED BY IDOCK:   -7.10 KCAL/MOL
REMARK 924 INTRA-LIGAND FREE ENERGY PREDICTED BY IDOCK:   -0.54 KCAL/MOL
REMARK 927      BINDING AFFINITY PREDICTED BY RF-SCORE:    0.00 PKD
ROOT
HETATM    1  C   UNL     1     -10.766   5.761  68.837  1.00  0.00    -0.334 C  
HETATM    2  C   UNL     1     -10.948   7.189  69.282  1.00  0.00    -0.136 C  
HETATM    3  C   UNL     1     -11.175   7.534  70.570  1.00  0.00    -0.287 C  
HETATM    4  O   UNL     1     -10.854   8.149  68.273  1.00  0.00    -0.430 OA 
HETATM    5  N   UNL     1     -11.252   5.632  72.329  1.00  0.00    -0.271 NA 
HETATM    6  C   UNL     1     -11.227   6.514  71.573  1.00  0.00    -0.276 C  
HETATM    7  H   UNL     1     -10.969   9.050  68.553  1.00  0.00     0.000 HD 
ENDROOT
BRANCH   3   8
HETATM    8  C   UNL     1     -11.393   8.929  71.075  1.00  0.00    -0.291 C  
HETATM    9  O   UNL     1     -10.708   9.340  72.010  1.00  0.00    -0.295 OA 
HETATM   10  N   UNL     1     -12.319   9.697  70.397  1.00  0.00    -0.482 N  
HETATM   11  H   UNL     1     -12.844   9.269  69.635  1.00  0.00     0.000 HD 
BRANCH  10  12
HETATM   12  C   UNL     1     -12.570  11.044  70.711  1.00  0.00    -0.369 A  
HETATM   13  C   UNL     1     -12.021  12.038  69.904  1.00  0.00    -0.391 A  
HETATM   14  C   UNL     1     -12.103  13.379  70.294  1.00  0.00    -0.419 A  
HETATM   15  C   UNL     1     -12.792  13.744  71.462  1.00  0.00    -0.445 A  
HETATM   16  C   UNL     1     -12.810  15.167  71.957  1.00  0.00    -0.345 C  
HETATM   17  C   UNL     1     -13.442  12.745  72.202  1.00  0.00    -0.591 A  
HETATM   18  F   UNL     1     -14.061  15.703  71.969  1.00  0.00    -0.534 F  
HETATM   19  F   UNL     1     -12.044  16.013  71.214  1.00  0.00    -0.386 F  
HETATM   20  C   UNL     1     -13.322  11.406  71.834  1.00  0.00    -0.409 A  
HETATM   21  F   UNL     1     -12.347  15.280  73.235  1.00  0.00    -0.414 F  
ENDBRANCH  10  12
ENDBRANCH   3   8
TORSDOF 2
ENDMDL
MODEL        8
REMARK 921   NORMALIZED FREE ENERGY PREDICTED BY IDOCK:   -6.25 KCAL/MOL
REMARK 922        TOTAL FREE ENERGY PREDICTED BY IDOCK:   -7.57 KCAL/MOL
REMARK 923 INTER-LIGAND FREE ENERGY PREDICTED BY IDOCK:   -7.00 KCAL/MOL
REMARK 924 INTRA-LIGAND FREE ENERGY PREDICTED BY IDOCK:   -0.57 KCAL/MOL
REMARK 927      BINDING AFFINITY PREDICTED BY RF-SCORE:    0.00 PKD
ROOT
HETATM    1  C   UNL     1     -10.385  19.754  66.816  1.00  0.00    -0.604 C  
HETATM    2  C   UNL     1     -10.295  18.546  67.713  1.00  0.00    -0.402 C  
HETATM    3  C   UNL     1     -10.426  17.280  67.255  1.00  0.00    -0.319 C  
HETATM    4  O   UNL     1     -10.049  18.815  69.060  1.00  0.00    -0.451 OA 
HETATM    5  N   UNL     1     -10.810  16.954  64.712  1.00  0.00    -0.816 NA 
HETATM    6  C   UNL     1     -10.641  17.056  65.857  1.00  0.00    -0.216 C  
HETATM    7  H   UNL     1      -9.992  18.053  69.626  1.00  0.00     0.000 HD 
ENDROOT
BRANCH   3   8
HETATM    8  C   UNL     1     -10.375  16.038  68.093  1.00  0.00    -0.260 C  
HETATM    9  O   UNL     1      -9.449  15.891  68.889  1.00  0.00    -0.207 OA 
HETATM   10  N   UNL     1     -11.431  15.157  67.963  1.00  0.00    -0.336 N  
HETATM   11  H   UNL     1     -12.154  15.361  67.273  1.00  0.00     0.000 HD 
BRANCH  10  12
HETATM   12  C   UNL     1     -11.554  13.993  68.741  1.00  0.00    -0.331 A  
HETATM   13  C   UNL     1     -10.934  12.823  68.306  1.00  0.00    -0.278 A  
HETATM   14  C   UNL     1     -11.187  11.614  68.960  1.00  0.00    -0.323 A  
HETATM   15  C   UNL     1     -12.012  11.573  70.096  1.00  0.00    -0.452 A  
HETATM   16  C   UNL     1     -12.381  10.271  70.759  1.00  0.00    -0.350 C  
HETATM   17  C   UNL     1     -12.534  12.776  70.594  1.00  0.00    -0.328 A  
HETATM   18  F   UNL     1     -11.917  10.181  72.035  1.00  0.00    -0.386 F  
HETATM   19  F   UNL     1     -11.906   9.174  70.108  1.00  0.00    -0.186 F  
HETATM   20  C   UNL     1     -12.314  13.973  69.915  1.00  0.00    -0.367 A  
HETATM   21  F   UNL     1     -13.730  10.094  70.843  1.00  0.00    -0.384 F  
ENDBRANCH  10  12
ENDBRANCH   3   8
TORSDOF 2
ENDMDL
MODEL        9
REMARK 921   NORMALIZED FREE ENERGY PREDICTED BY IDOCK:   -6.24 KCAL/MOL
REMARK 922        TOTAL FREE ENERGY PREDICTED BY IDOCK:   -7.56 KCAL/MOL
REMARK 923 INTER-LIGAND FREE ENERGY PREDICTED BY IDOCK:   -7.12 KCAL/MOL
REMARK 924 INTRA-LIGAND FREE ENERGY PREDICTED BY IDOCK:   -0.44 KCAL/MOL
REMARK 927      BINDING AFFINITY PREDICTED BY RF-SCORE:    0.00 PKD
ROOT
HETATM    1  C   UNL     1     -10.080  18.066  68.593  1.00  0.00    -0.401 C  
HETATM    2  C   UNL     1     -10.758  16.792  69.027  1.00  0.00    -0.331 C  
HETATM    3  C   UNL     1     -10.937  15.737  68.199  1.00  0.00    -0.330 C  
HETATM    4  O   UNL     1     -11.184  16.760  70.355  1.00  0.00    -0.471 OA 
HETATM    5  N   UNL     1     -10.024  15.936  65.782  1.00  0.00    -0.341 NA 
HETATM    6  C   UNL     1     -10.448  15.807  66.855  1.00  0.00    -0.315 C  
HETATM    7  H   UNL     1     -11.612  15.957  70.629  1.00  0.00     0.000 HD 
ENDROOT
BRANCH   3   8
HETATM    8  C   UNL     1     -11.626  14.455  68.556  1.00  0.00    -0.314 C  
HETATM    9  O   UNL     1     -12.291  13.874  67.699  1.00  0.00    -0.265 OA 
HETATM   10  N   UNL     1     -11.406  13.964  69.829  1.00  0.00    -0.428 N  
HETATM   11  H   UNL     1     -10.843  14.518  70.474  1.00  0.00     0.000 HD 
BRANCH  10  12
HETATM   12  C   UNL     1     -11.925  12.736  70.273  1.00  0.00    -0.280 A  
HETATM   13  C   UNL     1     -12.878  12.735  71.290  1.00  0.00    -0.355 A  
HETATM   14  C   UNL     1     -13.276  11.529  71.873  1.00  0.00    -0.479 A  
HETATM   15  C   UNL     1     -12.773  10.305  71.401  1.00  0.00    -0.547 A  
HETATM   16  C   UNL     1     -13.108   9.000  72.076  1.00  0.00    -0.414 C  
HETATM   17  C   UNL     1     -11.906  10.312  70.299  1.00  0.00    -0.372 A  
HETATM   18  F   UNL     1     -13.800   8.152  71.267  1.00  0.00    -0.345 F  
HETATM   19  F   UNL     1     -13.860   9.144  73.202  1.00  0.00    -0.385 F  
HETATM   20  C   UNL     1     -11.478  11.519  69.748  1.00  0.00    -0.362 A  
HETATM   21  F   UNL     1     -11.994   8.314  72.464  1.00  0.00    -0.385 F  
ENDBRANCH  10  12
ENDBRANCH   3   8
TORSDOF 2
ENDMDL
MODEL       10
REMARK 921   NORMALIZED FREE ENERGY PREDICTED BY IDOCK:   -6.22 KCAL/MOL
REMARK 922        TOTAL FREE ENERGY PREDICTED BY IDOCK:   -7.55 KCAL/MOL
REMARK 923 INTER-LIGAND FREE ENERGY PREDICTED BY IDOCK:   -7.10 KCAL/MOL
REMARK 924 INTRA-LIGAND FREE ENERGY PREDICTED BY IDOCK:   -0.44 KCAL/MOL
REMARK 927      BINDING AFFINITY PREDICTED BY RF-SCORE:    0.00 PKD
ROOT
HETATM    1  C   UNL     1      -9.977  10.235  64.466  1.00  0.00    -0.359 C  
HETATM    2  C   UNL     1      -9.793  11.661  64.918  1.00  0.00    -0.235 C  
HETATM    3  C   UNL     1     -10.700  12.633  64.668  1.00  0.00    -0.353 C  
HETATM    4  O   UNL     1      -8.623  11.919  65.632  1.00  0.00    -0.378 OA 
HETATM    5  N   UNL     1     -12.853  11.969  63.388  1.00  0.00    -0.758 NA 
HETATM    6  C   UNL     1     -11.903  12.309  63.962  1.00  0.00    -0.444 C  
HETATM    7  H   UNL     1      -8.506  12.819  65.918  1.00  0.00     0.000 HD 
ENDROOT
BRANCH   3   8
HETATM    8  C   UNL     1     -10.568  14.073  65.063  1.00  0.00    -0.410 C  
HETATM    9  O   UNL     1     -11.223  14.922  64.460  1.00  0.00    -0.341 OA 
HETATM   10  N   UNL     1      -9.754  14.349  66.145  1.00  0.00    -0.327 N  
HETATM   11  H   UNL     1      -9.245  13.580  66.580  1.00  0.00     0.000 HD 
BRANCH  10  12
HETATM   12  C   UNL     1      -9.598  15.642  66.673  1.00  0.00    -0.248 A  
HETATM   13  C   UNL     1     -10.353  16.013  67.784  1.00  0.00    -0.279 A  
HETATM   14  C   UNL     1     -10.351  17.342  68.217  1.00  0.00    -0.374 A  
HETATM   15  C   UNL     1      -9.544  18.301  67.583  1.00  0.00    -0.287 A  
HETATM   16  C   UNL     1      -9.599  19.757  67.965  1.00  0.00    -0.383 C  
HETATM   17  C   UNL     1      -8.699  17.890  66.542  1.00  0.00    -0.278 A  
HETATM   18  F   UNL     1      -8.420  20.214  68.468  1.00  0.00    -0.266 F  
HETATM   19  F   UNL     1     -10.543  20.040  68.904  1.00  0.00    -0.505 F  
HETATM   20  C   UNL     1      -8.735  16.573  66.085  1.00  0.00    -0.335 A  
HETATM   21  F   UNL     1      -9.885  20.564  66.903  1.00  0.00    -0.539 F  
ENDBRANCH  10  12
ENDBRANCH   3   8
TORSDOF 2
ENDMDL
MODEL       11
REMARK 921   NORMALIZED FREE ENERGY PREDICTED BY IDOCK:   -6.20 KCAL/MOL
REMARK 922        TOTAL FREE ENERGY PREDICTED BY IDOCK:   -7.52 KCAL/MOL
REMARK 923 INTER-LIGAND FREE ENERGY PREDICTED BY IDOCK:   -6.96 KCAL/MOL
REMARK 924 INTRA-LIGAND FREE ENERGY PREDICTED BY IDOCK:   -0.55 KCAL/MOL
REMARK 927      BINDING AFFINITY PREDICTED BY RF-SCORE:    0.00 PKD
ROOT
HETATM    1  C   UNL     1     -10.432  19.387  66.793  1.00  0.00    -0.569 C  
HETATM    2  C   UNL     1     -10.447  18.166  67.677  1.00  0.00    -0.416 C  
HETATM    3  C   UNL     1     -10.619  16.914  67.197  1.00  0.00    -0.249 C  
HETATM    4  O   UNL     1     -10.255  18.408  69.038  1.00  0.00    -0.449 OA 
HETATM    5  N   UNL     1     -10.892  16.636  64.634  1.00  0.00    -0.822 NA 
HETATM    6  C   UNL     1     -10.775  16.717  65.787  1.00  0.00    -0.204 C  
HETATM    7  H   UNL     1     -10.265  17.638  69.596  1.00  0.00     0.000 HD 
ENDROOT
BRANCH   3   8
HETATM    8  C   UNL     1     -10.673  15.662  68.020  1.00  0.00    -0.287 C  
HETATM    9  O   UNL     1      -9.745  15.410  68.787  1.00  0.00    -0.194 OA 
HETATM   10  N   UNL     1     -11.817  14.896  67.911  1.00  0.00    -0.481 N  
HETATM   11  H   UNL     1     -12.534  15.182  67.244  1.00  0.00     0.000 HD 
BRANCH  10  12
HETATM   12  C   UNL     1     -12.037  13.740  68.680  1.00  0.00    -0.298 A  
HETATM   13  C   UNL     1     -12.531  13.875  69.976  1.00  0.00    -0.325 A  
HETATM   14  C   UNL     1     -12.588  12.763  70.821  1.00  0.00    -0.308 A  
HETATM   15  C   UNL     1     -12.213  11.491  70.357  1.00  0.00    -0.442 A  
HETATM   16  C   UNL     1     -12.171  10.297  71.275  1.00  0.00    -0.395 C  
HETATM   17  C   UNL     1     -11.832  11.348  69.015  1.00  0.00    -0.415 A  
HETATM   18  F   UNL     1     -13.054   9.326  70.914  1.00  0.00    -0.293 F  
HETATM   19  F   UNL     1     -12.449  10.595  72.574  1.00  0.00    -0.041 F  
HETATM   20  C   UNL     1     -11.735  12.466  68.188  1.00  0.00    -0.408 A  
HETATM   21  F   UNL     1     -10.947   9.695  71.290  1.00  0.00    -0.367 F  
ENDBRANCH  10  12
ENDBRANCH   3   8
TORSDOF 2
ENDMDL
MODEL       12
REMARK 921   NORMALIZED FREE ENERGY PREDICTED BY IDOCK:   -6.20 KCAL/MOL
REMARK 922        TOTAL FREE ENERGY PREDICTED BY IDOCK:   -7.51 KCAL/MOL
REMARK 923 INTER-LIGAND FREE ENERGY PREDICTED BY IDOCK:   -7.61 KCAL/MOL
REMARK 924 INTRA-LIGAND FREE ENERGY PREDICTED BY IDOCK:    0.10 KCAL/MOL
REMARK 927      BINDING AFFINITY PREDICTED BY RF-SCORE:    0.00 PKD
ROOT
HETATM    1  C   UNL     1     -12.297  10.999  71.017  1.00  0.00    -0.490 C  
HETATM    2  C   UNL     1     -11.942  12.282  70.310  1.00  0.00    -0.290 C  
HETATM    3  C   UNL     1     -12.464  13.480  70.657  1.00  0.00    -0.405 C  
HETATM    4  O   UNL     1     -11.017  12.160  69.272  1.00  0.00    -0.369 OA 
HETATM    5  N   UNL     1     -14.115  13.541  72.654  1.00  0.00    -0.729 NA 
HETATM    6  C   UNL     1     -13.382  13.557  71.754  1.00  0.00    -0.397 C  
HETATM    7  H   UNL     1     -10.793  12.968  68.826  1.00  0.00     0.000 HD 
ENDROOT
BRANCH   3   8
HETATM    8  C   UNL     1     -12.177  14.787  69.980  1.00  0.00    -0.333 C  
HETATM    9  O   UNL     1     -12.767  15.799  70.357  1.00  0.00    -0.393 OA 
HETATM   10  N   UNL     1     -11.198  14.780  69.005  1.00  0.00    -0.255 N  
HETATM   11  H   UNL     1     -10.766  13.891  68.755  1.00  0.00     0.000 HD 
BRANCH  10  12
HETATM   12  C   UNL     1     -10.772  15.944  68.343  1.00  0.00    -0.281 A  
HETATM   13  C   UNL     1     -10.529  17.094  69.091  1.00  0.00    -0.296 A  
HETATM   14  C   UNL     1     -10.280  18.308  68.444  1.00  0.00    -0.402 A  
HETATM   15  C   UNL     1     -10.207  18.371  67.043  1.00  0.00    -0.402 A  
HETATM   16  C   UNL     1     -10.040  19.681  66.318  1.00  0.00    -0.480 C  
HETATM   17  C   UNL     1     -10.334  17.184  66.307  1.00  0.00    -0.315 A  
HETATM   18  F   UNL     1      -8.875  19.750  65.617  1.00  0.00    -0.304 F  
HETATM   19  F   UNL     1     -10.049  20.766  67.141  1.00  0.00    -0.588 F  
HETATM   20  C   UNL     1     -10.625  15.983  66.953  1.00  0.00    -0.300 A  
HETATM   21  F   UNL     1     -11.032  19.903  65.408  1.00  0.00    -0.580 F  
ENDBRANCH  10  12
ENDBRANCH   3   8
TORSDOF 2
ENDMDL
MODEL       13
REMARK 921   NORMALIZED FREE ENERGY PREDICTED BY IDOCK:   -6.17 KCAL/MOL
REMARK 922        TOTAL FREE ENERGY PREDICTED BY IDOCK:   -7.49 KCAL/MOL
REMARK 923 INTER-LIGAND FREE ENERGY PREDICTED BY IDOCK:   -6.92 KCAL/MOL
REMARK 924 INTRA-LIGAND FREE ENERGY PREDICTED BY IDOCK:   -0.57 KCAL/MOL
REMARK 927      BINDING AFFINITY PREDICTED BY RF-SCORE:    0.00 PKD
ROOT
HETATM    1  C   UNL     1     -10.482   7.307  73.709  1.00  0.00    -0.335 C  
HETATM    2  C   UNL     1     -11.251   8.084  72.671  1.00  0.00    -0.397 C  
HETATM    3  C   UNL     1     -10.649   8.853  71.736  1.00  0.00    -0.432 C  
HETATM    4  O   UNL     1     -12.638   7.948  72.724  1.00  0.00    -0.567 OA 
HETATM    5  N   UNL     1      -8.059   8.940  71.734  1.00  0.00    -0.350 NA 
HETATM    6  C   UNL     1      -9.219   8.930  71.701  1.00  0.00    -0.231 C  
HETATM    7  H   UNL     1     -13.123   8.438  72.070  1.00  0.00     0.000 HD 
ENDROOT
BRANCH   3   8
HETATM    8  C   UNL     1     -11.351   9.672  70.695  1.00  0.00    -0.312 C  
HETATM    9  O   UNL     1     -12.579   9.743  70.717  1.00  0.00    -0.276 OA 
HETATM   10  N   UNL     1     -10.552  10.362  69.804  1.00  0.00    -0.285 N  
HETATM   11  H   UNL     1      -9.542  10.238  69.858  1.00  0.00     0.000 HD 
BRANCH  10  12
HETATM   12  C   UNL     1     -11.071  11.228  68.825  1.00  0.00    -0.233 A  
HETATM   13  C   UNL     1     -11.046  10.828  67.490  1.00  0.00    -0.374 A  
HETATM   14  C   UNL     1     -11.387  11.736  66.483  1.00  0.00    -0.370 A  
HETATM   15  C   UNL     1     -11.819  13.033  66.806  1.00  0.00    -0.451 A  
HETATM   16  C   UNL     1     -12.097  14.061  65.739  1.00  0.00    -0.427 C  
HETATM   17  C   UNL     1     -11.955  13.383  68.157  1.00  0.00    -0.356 A  
HETATM   18  F   UNL     1     -13.398  14.458  65.718  1.00  0.00    -0.451 F  
HETATM   19  F   UNL     1     -11.813  13.631  64.479  1.00  0.00    -0.356 F  
HETATM   20  C   UNL     1     -11.573  12.490  69.157  1.00  0.00    -0.375 A  
HETATM   21  F   UNL     1     -11.366  15.200  65.912  1.00  0.00    -0.340 F  
ENDBRANCH  10  12
ENDBRANCH   3   8
TORSDOF 2
ENDMDL
MODEL       14
REMARK 921   NORMALIZED FREE ENERGY PREDICTED BY IDOCK:   -6.17 KCAL/MOL
REMARK 922        TOTAL FREE ENERGY PREDICTED BY IDOCK:   -7.48 KCAL/MOL
REMARK 923 INTER-LIGAND FREE ENERGY PREDICTED BY IDOCK:   -6.87 KCAL/MOL
REMARK 924 INTRA-LIGAND FREE ENERGY PREDICTED BY IDOCK:   -0.61 KCAL/MOL
REMARK 927      BINDING AFFINITY PREDICTED BY RF-SCORE:    0.00 PKD
ROOT
HETATM    1  C   UNL     1     -11.152  15.878  64.634  1.00  0.00    -0.368 C  
HETATM    2  C   UNL     1     -11.439  14.540  65.266  1.00  0.00    -0.355 C  
HETATM    3  C   UNL     1     -11.414  14.339  66.603  1.00  0.00    -0.374 C  
HETATM    4  O   UNL     1     -11.751  13.510  64.378  1.00  0.00    -0.374 OA 
HETATM    5  N   UNL     1     -10.885  16.377  68.115  1.00  0.00    -0.337 NA 
HETATM    6  C   UNL     1     -11.124  15.438  67.474  1.00  0.00    -0.315 C  
HETATM    7  H   UNL     1     -11.932  12.666  64.776  1.00  0.00     0.000 HD 
ENDROOT
BRANCH   3   8
HETATM    8  C   UNL     1     -11.661  13.033  67.295  1.00  0.00    -0.375 C  
HETATM    9  O   UNL     1     -12.151  12.101  66.658  1.00  0.00    -0.622 OA 
HETATM   10  N   UNL     1     -11.250  12.939  68.611  1.00  0.00    -0.263 N  
HETATM   11  H   UNL     1     -10.857  13.766  69.059  1.00  0.00     0.000 HD 
BRANCH  10  12
HETATM   12  C   UNL     1     -11.348  11.752  69.358  1.00  0.00    -0.272 A  
HETATM   13  C   UNL     1     -12.409  11.603  70.250  1.00  0.00    -0.339 A  
HETATM   14  C   UNL     1     -12.432  10.519  71.132  1.00  0.00    -0.517 A  
HETATM   15  C   UNL     1     -11.428   9.538  71.088  1.00  0.00    -0.430 A  
HETATM   16  C   UNL     1     -11.375   8.415  72.091  1.00  0.00    -0.366 C  
HETATM   17  C   UNL     1     -10.431   9.637  70.106  1.00  0.00    -0.321 A  
HETATM   18  F   UNL     1     -11.530   7.191  71.519  1.00  0.00    -0.262 F  
HETATM   19  F   UNL     1     -12.329   8.503  73.059  1.00  0.00    -0.401 F  
HETATM   20  C   UNL     1     -10.387  10.741  69.256  1.00  0.00    -0.228 A  
HETATM   21  F   UNL     1     -10.184   8.365  72.754  1.00  0.00    -0.352 F  
ENDBRANCH  10  12
ENDBRANCH   3   8
TORSDOF 2
ENDMDL
MODEL       15
REMARK 921   NORMALIZED FREE ENERGY PREDICTED BY IDOCK:   -6.17 KCAL/MOL
REMARK 922        TOTAL FREE ENERGY PREDICTED BY IDOCK:   -7.48 KCAL/MOL
REMARK 923 INTER-LIGAND FREE ENERGY PREDICTED BY IDOCK:   -6.94 KCAL/MOL
REMARK 924 INTRA-LIGAND FREE ENERGY PREDICTED BY IDOCK:   -0.54 KCAL/MOL
REMARK 927      BINDING AFFINITY PREDICTED BY RF-SCORE:    0.00 PKD
ROOT
HETATM    1  C   UNL     1     -10.902   5.643  68.750  1.00  0.00    -0.210 C  
HETATM    2  C   UNL     1     -10.987   7.076  69.207  1.00  0.00    -0.178 C  
HETATM    3  C   UNL     1     -11.162   7.424  70.503  1.00  0.00    -0.296 C  
HETATM    4  O   UNL     1     -10.860   8.037  68.203  1.00  0.00    -0.430 OA 
HETATM    5  N   UNL     1     -11.311   5.516  72.251  1.00  0.00    -0.233 NA 
HETATM    6  C   UNL     1     -11.251   6.400  71.500  1.00  0.00    -0.284 C  
HETATM    7  H   UNL     1     -10.914   8.941  68.492  1.00  0.00     0.000 HD 
ENDROOT
BRANCH   3   8
HETATM    8  C   UNL     1     -11.284   8.825  71.022  1.00  0.00    -0.273 C  
HETATM    9  O   UNL     1     -10.514   9.205  71.903  1.00  0.00    -0.348 OA 
HETATM   10  N   UNL     1     -12.226   9.633  70.415  1.00  0.00    -0.475 N  
HETATM   11  H   UNL     1     -12.824   9.228  69.695  1.00  0.00     0.000 HD 
BRANCH  10  12
HETATM   12  C   UNL     1     -12.396  10.988  70.747  1.00  0.00    -0.398 A  
HETATM   13  C   UNL     1     -13.154  11.317  71.870  1.00  0.00    -0.510 A  
HETATM   14  C   UNL     1     -13.489  12.651  72.119  1.00  0.00    -0.561 A  
HETATM   15  C   UNL     1     -13.015  13.677  71.284  1.00  0.00    -0.399 A  
HETATM   16  C   UNL     1     -13.442  15.109  71.472  1.00  0.00    -0.462 C  
HETATM   17  C   UNL     1     -12.156  13.343  70.227  1.00  0.00    -0.419 A  
HETATM   18  F   UNL     1     -12.404  15.931  71.787  1.00  0.00    -0.393 F  
HETATM   19  F   UNL     1     -14.368  15.279  72.455  1.00  0.00    -0.545 F  
HETATM   20  C   UNL     1     -11.859  12.008  69.956  1.00  0.00    -0.392 A  
HETATM   21  F   UNL     1     -14.003  15.637  70.346  1.00  0.00    -0.129 F  
ENDBRANCH  10  12
ENDBRANCH   3   8
TORSDOF 2
ENDMDL
MODEL       16
REMARK 921   NORMALIZED FREE ENERGY PREDICTED BY IDOCK:   -6.16 KCAL/MOL
REMARK 922        TOTAL FREE ENERGY PREDICTED BY IDOCK:   -7.48 KCAL/MOL
REMARK 923 INTER-LIGAND FREE ENERGY PREDICTED BY IDOCK:   -7.05 KCAL/MOL
REMARK 924 INTRA-LIGAND FREE ENERGY PREDICTED BY IDOCK:   -0.42 KCAL/MOL
REMARK 927      BINDING AFFINITY PREDICTED BY RF-SCORE:    0.00 PKD
ROOT
HETATM    1  C   UNL     1     -10.039  16.324  65.810  1.00  0.00    -0.373 C  
HETATM    2  C   UNL     1     -10.295  15.068  66.604  1.00  0.00    -0.278 C  
HETATM    3  C   UNL     1     -11.244  14.167  66.265  1.00  0.00    -0.329 C  
HETATM    4  O   UNL     1      -9.472  14.882  67.715  1.00  0.00    -0.199 OA 
HETATM    5  N   UNL     1     -12.638  14.631  64.130  1.00  0.00    -0.790 NA 
HETATM    6  C   UNL     1     -12.038  14.386  65.094  1.00  0.00    -0.395 C  
HETATM    7  H   UNL     1      -9.633  14.090  68.216  1.00  0.00     0.000 HD 
ENDROOT
BRANCH   3   8
HETATM    8  C   UNL     1     -11.570  12.915  67.023  1.00  0.00    -0.362 C  
HETATM    9  O   UNL     1     -12.145  11.996  66.442  1.00  0.00    -0.610 OA 
HETATM   10  N   UNL     1     -11.131  12.849  68.332  1.00  0.00    -0.247 N  
HETATM   11  H   UNL     1     -10.666  13.664  68.731  1.00  0.00     0.000 HD 
BRANCH  10  12
HETATM   12  C   UNL     1     -11.298  11.708  69.136  1.00  0.00    -0.283 A  
HETATM   13  C   UNL     1     -12.402  11.636  69.983  1.00  0.00    -0.261 A  
HETATM   14  C   UNL     1     -12.497  10.603  70.920  1.00  0.00    -0.495 A  
HETATM   15  C   UNL     1     -11.521   9.595  70.975  1.00  0.00    -0.444 A  
HETATM   16  C   UNL     1     -11.546   8.528  72.039  1.00  0.00    -0.362 C  
HETATM   17  C   UNL     1     -10.477   9.613  70.038  1.00  0.00    -0.301 A  
HETATM   18  F   UNL     1     -11.710   7.278  71.526  1.00  0.00    -0.272 F  
HETATM   19  F   UNL     1     -12.540   8.693  72.954  1.00  0.00    -0.441 F  
HETATM   20  C   UNL     1     -10.363  10.668  69.134  1.00  0.00    -0.242 A  
HETATM   21  F   UNL     1     -10.388   8.483  72.759  1.00  0.00    -0.371 F  
ENDBRANCH  10  12
ENDBRANCH   3   8
TORSDOF 2
ENDMDL
MODEL       17
REMARK 921   NORMALIZED FREE ENERGY PREDICTED BY IDOCK:   -6.16 KCAL/MOL
REMARK 922        TOTAL FREE ENERGY PREDICTED BY IDOCK:   -7.47 KCAL/MOL
REMARK 923 INTER-LIGAND FREE ENERGY PREDICTED BY IDOCK:   -7.04 KCAL/MOL
REMARK 924 INTRA-LIGAND FREE ENERGY PREDICTED BY IDOCK:   -0.43 KCAL/MOL
REMARK 927      BINDING AFFINITY PREDICTED BY RF-SCORE:    0.00 PKD
ROOT
HETATM    1  C   UNL     1     -10.472   5.968  69.106  1.00  0.00    -0.321 C  
HETATM    2  C   UNL     1     -10.900   7.106  69.996  1.00  0.00    -0.254 C  
HETATM    3  C   UNL     1     -10.867   8.399  69.601  1.00  0.00    -0.153 C  
HETATM    4  O   UNL     1     -11.352   6.740  71.264  1.00  0.00    -0.262 OA 
HETATM    5  N   UNL     1     -10.065   8.900  67.188  1.00  0.00    -0.226 NA 
HETATM    6  C   UNL     1     -10.429   8.719  68.276  1.00  0.00    -0.187 C  
HETATM    7  H   UNL     1     -11.622   7.458  71.826  1.00  0.00     0.000 HD 
ENDROOT
BRANCH   3   8
HETATM    8  C   UNL     1     -11.251   9.580  70.442  1.00  0.00    -0.270 C  
HETATM    9  O   UNL     1     -10.832   9.653  71.596  1.00  0.00    -0.290 OA 
HETATM   10  N   UNL     1     -12.007  10.560  69.829  1.00  0.00    -0.431 N  
HETATM   11  H   UNL     1     -12.313  10.410  68.868  1.00  0.00     0.000 HD 
BRANCH  10  12
HETATM   12  C   UNL     1     -12.373  11.755  70.472  1.00  0.00    -0.299 A  
HETATM   13  C   UNL     1     -11.871  12.962  69.989  1.00  0.00    -0.356 A  
HETATM   14  C   UNL     1     -12.072  14.141  70.713  1.00  0.00    -0.419 A  
HETATM   15  C   UNL     1     -12.832  14.136  71.894  1.00  0.00    -0.425 A  
HETATM   16  C   UNL     1     -12.980  15.371  72.744  1.00  0.00    -0.448 C  
HETATM   17  C   UNL     1     -13.432  12.937  72.304  1.00  0.00    -0.631 A  
HETATM   18  F   UNL     1     -14.268  15.804  72.823  1.00  0.00    -0.635 F  
HETATM   19  F   UNL     1     -12.253  16.432  72.297  1.00  0.00    -0.497 F  
HETATM   20  C   UNL     1     -13.194  11.755  71.604  1.00  0.00    -0.368 A  
HETATM   21  F   UNL     1     -12.578  15.168  74.031  1.00  0.00    -0.572 F  
ENDBRANCH  10  12
ENDBRANCH   3   8
TORSDOF 2
ENDMDL
MODEL       18
REMARK 921   NORMALIZED FREE ENERGY PREDICTED BY IDOCK:   -6.13 KCAL/MOL
REMARK 922        TOTAL FREE ENERGY PREDICTED BY IDOCK:   -7.44 KCAL/MOL
REMARK 923 INTER-LIGAND FREE ENERGY PREDICTED BY IDOCK:   -6.93 KCAL/MOL
REMARK 924 INTRA-LIGAND FREE ENERGY PREDICTED BY IDOCK:   -0.50 KCAL/MOL
REMARK 927      BINDING AFFINITY PREDICTED BY RF-SCORE:    0.00 PKD
ROOT
HETATM    1  C   UNL     1     -10.065  19.581  65.918  1.00  0.00    -0.444 C  
HETATM    2  C   UNL     1     -10.249  18.184  66.452  1.00  0.00    -0.399 C  
HETATM    3  C   UNL     1     -10.197  17.889  67.771  1.00  0.00    -0.372 C  
HETATM    4  O   UNL     1     -10.493  17.201  65.492  1.00  0.00    -0.593 OA 
HETATM    5  N   UNL     1      -9.802  19.845  69.426  1.00  0.00    -0.220 NA 
HETATM    6  C   UNL     1      -9.979  18.941  68.719  1.00  0.00    -0.408 C  
HETATM    7  H   UNL     1     -10.609  16.320  65.829  1.00  0.00     0.000 HD 
ENDROOT
BRANCH   3   8
HETATM    8  C   UNL     1     -10.342  16.522  68.367  1.00  0.00    -0.294 C  
HETATM    9  O   UNL     1      -9.366  15.992  68.896  1.00  0.00    -0.206 OA 
HETATM   10  N   UNL     1     -11.606  15.965  68.344  1.00  0.00    -0.355 N  
HETATM   11  H   UNL     1     -12.356  16.477  67.878  1.00  0.00     0.000 HD 
BRANCH  10  12
HETATM   12  C   UNL     1     -11.905  14.724  68.933  1.00  0.00    -0.296 A  
HETATM   13  C   UNL     1     -12.452  14.701  70.215  1.00  0.00    -0.401 A  
HETATM   14  C   UNL     1     -12.590  13.486  70.893  1.00  0.00    -0.414 A  
HETATM   15  C   UNL     1     -12.244  12.276  70.271  1.00  0.00    -0.342 A  
HETATM   16  C   UNL     1     -12.289  10.965  71.013  1.00  0.00    -0.393 C  
HETATM   17  C   UNL     1     -11.808  12.302  68.938  1.00  0.00    -0.355 A  
HETATM   18  F   UNL     1     -13.191  10.093  70.485  1.00  0.00    -0.393 F  
HETATM   19  F   UNL     1     -12.614  11.093  72.329  1.00  0.00    -0.283 F  
HETATM   20  C   UNL     1     -11.630  13.519  68.280  1.00  0.00    -0.381 A  
HETATM   21  F   UNL     1     -11.090  10.314  70.992  1.00  0.00    -0.386 F  
ENDBRANCH  10  12
ENDBRANCH   3   8
TORSDOF 2
ENDMDL
MODEL       19
REMARK 921   NORMALIZED FREE ENERGY PREDICTED BY IDOCK:   -6.12 KCAL/MOL
REMARK 922        TOTAL FREE ENERGY PREDICTED BY IDOCK:   -7.43 KCAL/MOL
REMARK 923 INTER-LIGAND FREE ENERGY PREDICTED BY IDOCK:   -7.01 KCAL/MOL
REMARK 924 INTRA-LIGAND FREE ENERGY PREDICTED BY IDOCK:   -0.42 KCAL/MOL
REMARK 927      BINDING AFFINITY PREDICTED BY RF-SCORE:    0.00 PKD
ROOT
HETATM    1  C   UNL     1     -10.484  16.088  66.749  1.00  0.00    -0.308 C  
HETATM    2  C   UNL     1     -10.589  14.787  67.504  1.00  0.00    -0.259 C  
HETATM    3  C   UNL     1     -11.455  13.807  67.160  1.00  0.00    -0.365 C  
HETATM    4  O   UNL     1      -9.718  14.647  68.584  1.00  0.00    -0.211 OA 
HETATM    5  N   UNL     1     -12.955  14.201  65.083  1.00  0.00    -0.735 NA 
HETATM    6  C   UNL     1     -12.303  13.985  66.020  1.00  0.00    -0.473 C  
HETATM    7  H   UNL     1      -9.784  13.827  69.060  1.00  0.00     0.000 HD 
ENDROOT
BRANCH   3   8
HETATM    8  C   UNL     1     -11.631  12.504  67.881  1.00  0.00    -0.347 C  
HETATM    9  O   UNL     1     -11.999  11.515  67.248  1.00  0.00    -0.605 OA 
HETATM   10  N   UNL     1     -11.295  12.485  69.220  1.00  0.00    -0.351 N  
HETATM   11  H   UNL     1     -11.004  13.357  69.662  1.00  0.00     0.000 HD 
BRANCH  10  12
HETATM   12  C   UNL     1     -11.337  11.318  70.001  1.00  0.00    -0.208 A  
HETATM   13  C   UNL     1     -10.343  10.356  69.830  1.00  0.00    -0.252 A  
HETATM   14  C   UNL     1     -10.458   9.113  70.459  1.00  0.00    -0.289 A  
HETATM   15  C   UNL     1     -11.536   8.842  71.318  1.00  0.00    -0.371 A  
HETATM   16  C   UNL     1     -11.738   7.479  71.928  1.00  0.00    -0.284 C  
HETATM   17  C   UNL     1     -12.465   9.860  71.576  1.00  0.00    -0.506 A  
HETATM   18  F   UNL     1     -11.652   7.494  73.286  1.00  0.00    -0.308 F  
HETATM   19  F   UNL     1     -10.835   6.552  71.504  1.00  0.00    -0.248 F  
HETATM   20  C   UNL     1     -12.371  11.084  70.914  1.00  0.00    -0.503 A  
HETATM   21  F   UNL     1     -12.964   6.956  71.641  1.00  0.00    -0.381 F  
ENDBRANCH  10  12
ENDBRANCH   3   8
TORSDOF 2
ENDMDL
MODEL       20
REMARK 921   NORMALIZED FREE ENERGY PREDICTED BY IDOCK:   -6.11 KCAL/MOL
REMARK 922        TOTAL FREE ENERGY PREDICTED BY IDOCK:   -7.42 KCAL/MOL
REMARK 923 INTER-LIGAND FREE ENERGY PREDICTED BY IDOCK:   -7.04 KCAL/MOL
REMARK 924 INTRA-LIGAND FREE ENERGY PREDICTED BY IDOCK:   -0.38 KCAL/MOL
REMARK 927      BINDING AFFINITY PREDICTED BY RF-SCORE:    0.00 PKD
ROOT
HETATM    1  C   UNL     1      -8.046  16.850  66.090  1.00  0.00    -0.295 C  
HETATM    2  C   UNL     1      -8.852  15.771  66.765  1.00  0.00    -0.267 C  
HETATM    3  C   UNL     1     -10.128  15.485  66.421  1.00  0.00    -0.301 C  
HETATM    4  O   UNL     1      -8.189  15.065  67.769  1.00  0.00    -0.137 OA 
HETATM    5  N   UNL     1     -11.188  16.845  64.487  1.00  0.00    -1.066 NA 
HETATM    6  C   UNL     1     -10.752  16.214  65.359  1.00  0.00    -0.358 C  
HETATM    7  H   UNL     1      -8.697  14.384  68.195  1.00  0.00     0.000 HD 
ENDROOT
BRANCH   3   8
HETATM    8  C   UNL     1     -10.995  14.446  67.068  1.00  0.00    -0.304 C  
HETATM    9  O   UNL     1     -11.934  13.970  66.432  1.00  0.00    -0.396 OA 
HETATM   10  N   UNL     1     -10.631  14.035  68.336  1.00  0.00    -0.247 N  
HETATM   11  H   UNL     1      -9.839  14.492  68.788  1.00  0.00     0.000 HD 
BRANCH  10  12
HETATM   12  C   UNL     1     -11.305  13.016  69.031  1.00  0.00    -0.289 A  
HETATM   13  C   UNL     1     -12.118  13.360  70.110  1.00  0.00    -0.415 A  
HETATM   14  C   UNL     1     -12.653  12.359  70.927  1.00  0.00    -0.337 A  
HETATM   15  C   UNL     1     -12.435  11.002  70.633  1.00  0.00    -0.465 A  
HETATM   16  C   UNL     1     -12.916   9.909  71.551  1.00  0.00    -0.422 C  
HETATM   17  C   UNL     1     -11.716  10.669  69.476  1.00  0.00    -0.356 A  
HETATM   18  F   UNL     1     -13.839   9.098  70.965  1.00  0.00    -0.361 F  
HETATM   19  F   UNL     1     -13.494  10.370  72.695  1.00  0.00    -0.350 F  
HETATM   20  C   UNL     1     -11.148  11.670  68.689  1.00  0.00    -0.287 A  
HETATM   21  F   UNL     1     -11.906   9.087  71.956  1.00  0.00    -0.386 F  
ENDBRANCH  10  12
ENDBRANCH   3   8
TORSDOF 2
ENDMDL
MODEL       21
REMARK 921   NORMALIZED FREE ENERGY PREDICTED BY IDOCK:   -6.06 KCAL/MOL
REMARK 922        TOTAL FREE ENERGY PREDICTED BY IDOCK:   -7.37 KCAL/MOL
REMARK 923 INTER-LIGAND FREE ENERGY PREDICTED BY IDOCK:   -7.19 KCAL/MOL
REMARK 924 INTRA-LIGAND FREE ENERGY PREDICTED BY IDOCK:   -0.17 KCAL/MOL
REMARK 927      BINDING AFFINITY PREDICTED BY RF-SCORE:    0.00 PKD
ROOT
HETATM    1  C   UNL     1     -10.224  16.672  65.978  1.00  0.00    -0.366 C  
HETATM    2  C   UNL     1     -10.515  15.463  66.830  1.00  0.00    -0.295 C  
HETATM    3  C   UNL     1     -11.326  14.459  66.427  1.00  0.00    -0.351 C  
HETATM    4  O   UNL     1      -9.878  15.435  68.071  1.00  0.00    -0.214 OA 
HETATM    5  N   UNL     1     -12.375  14.635  64.063  1.00  0.00    -0.764 NA 
HETATM    6  C   UNL     1     -11.927  14.518  65.128  1.00  0.00    -0.369 C  
HETATM    7  H   UNL     1     -10.062  14.673  68.609  1.00  0.00     0.000 HD 
ENDROOT
BRANCH   3   8
HETATM    8  C   UNL     1     -11.680  13.245  67.232  1.00  0.00    -0.377 C  
HETATM    9  O   UNL     1     -12.120  12.252  66.655  1.00  0.00    -0.612 OA 
HETATM   10  N   UNL     1     -11.418  13.301  68.587  1.00  0.00    -0.280 N  
HETATM   11  H   UNL     1     -11.057  14.170  68.979  1.00  0.00     0.000 HD 
BRANCH  10  12
HETATM   12  C   UNL     1     -11.627  12.211  69.450  1.00  0.00    -0.317 A  
HETATM   13  C   UNL     1     -10.941  11.021  69.213  1.00  0.00    -0.305 A  
HETATM   14  C   UNL     1     -11.263   9.873  69.942  1.00  0.00    -0.298 A  
HETATM   15  C   UNL     1     -12.229   9.918  70.960  1.00  0.00    -0.446 A  
HETATM   16  C   UNL     1     -12.665   8.675  71.692  1.00  0.00    -0.341 C  
HETATM   17  C   UNL     1     -12.826  11.149  71.270  1.00  0.00    -0.515 A  
HETATM   18  F   UNL     1     -12.371   8.716  73.020  1.00  0.00    -0.389 F  
HETATM   19  F   UNL     1     -12.097   7.533  71.215  1.00  0.00    -0.302 F  
HETATM   20  C   UNL     1     -12.534  12.283  70.513  1.00  0.00    -0.272 A  
HETATM   21  F   UNL     1     -14.012   8.473  71.618  1.00  0.00    -0.378 F  
ENDBRANCH  10  12
ENDBRANCH   3   8
TORSDOF 2
ENDMDL
MODEL       22
REMARK 921   NORMALIZED FREE ENERGY PREDICTED BY IDOCK:   -6.04 KCAL/MOL
REMARK 922        TOTAL FREE ENERGY PREDICTED BY IDOCK:   -7.33 KCAL/MOL
REMARK 923 INTER-LIGAND FREE ENERGY PREDICTED BY IDOCK:   -6.83 KCAL/MOL
REMARK 924 INTRA-LIGAND FREE ENERGY PREDICTED BY IDOCK:   -0.50 KCAL/MOL
REMARK 927      BINDING AFFINITY PREDICTED BY RF-SCORE:    0.00 PKD
ROOT
HETATM    1  C   UNL     1     -10.739   5.939  66.629  1.00  0.00    -0.323 C  
HETATM    2  C   UNL     1     -10.906   7.034  67.652  1.00  0.00    -0.242 C  
HETATM    3  C   UNL     1     -10.353   8.260  67.512  1.00  0.00    -0.333 C  
HETATM    4  O   UNL     1     -11.687   6.706  68.761  1.00  0.00    -0.549 OA 
HETATM    5  N   UNL     1      -8.990   8.726  65.358  1.00  0.00    -0.188 NA 
HETATM    6  C   UNL     1      -9.591   8.558  66.337  1.00  0.00    -0.245 C  
HETATM    7  H   UNL     1     -11.791   7.396  69.407  1.00  0.00     0.000 HD 
ENDROOT
BRANCH   3   8
HETATM    8  C   UNL     1     -10.455   9.382  68.501  1.00  0.00    -0.208 C  
HETATM    9  O   UNL     1      -9.444   9.743  69.102  1.00  0.00    -0.169 OA 
HETATM   10  N   UNL     1     -11.687   9.994  68.622  1.00  0.00    -0.444 N  
HETATM   11  H   UNL     1     -12.471   9.623  68.085  1.00  0.00     0.000 HD 
BRANCH  10  12
HETATM   12  C   UNL     1     -11.909  11.107  69.452  1.00  0.00    -0.345 A  
HETATM   13  C   UNL     1     -12.455  10.905  70.718  1.00  0.00    -0.489 A  
HETATM   14  C   UNL     1     -12.852  12.001  71.490  1.00  0.00    -0.403 A  
HETATM   15  C   UNL     1     -12.646  13.312  71.031  1.00  0.00    -0.408 A  
HETATM   16  C   UNL     1     -13.154  14.506  71.797  1.00  0.00    -0.346 C  
HETATM   17  C   UNL     1     -11.987  13.503  69.808  1.00  0.00    -0.405 A  
HETATM   18  F   UNL     1     -12.151  15.318  72.230  1.00  0.00    -0.359 F  
HETATM   19  F   UNL     1     -13.878  14.178  72.902  1.00  0.00    -0.537 F  
HETATM   20  C   UNL     1     -11.632  12.408  69.021  1.00  0.00    -0.362 A  
HETATM   21  F   UNL     1     -13.971  15.298  71.045  1.00  0.00    -0.477 F  
ENDBRANCH  10  12
ENDBRANCH   3   8
TORSDOF 2
ENDMDL
MODEL       23
REMARK 921   NORMALIZED FREE ENERGY PREDICTED BY IDOCK:   -6.02 KCAL/MOL
REMARK 922        TOTAL FREE ENERGY PREDICTED BY IDOCK:   -7.31 KCAL/MOL
REMARK 923 INTER-LIGAND FREE ENERGY PREDICTED BY IDOCK:   -6.82 KCAL/MOL
REMARK 924 INTRA-LIGAND FREE ENERGY PREDICTED BY IDOCK:   -0.50 KCAL/MOL
REMARK 927      BINDING AFFINITY PREDICTED BY RF-SCORE:    0.00 PKD
ROOT
HETATM    1  C   UNL     1     -12.632  10.916  70.752  1.00  0.00    -0.470 C  
HETATM    2  C   UNL     1     -11.986  12.204  70.310  1.00  0.00    -0.305 C  
HETATM    3  C   UNL     1     -11.311  12.323  69.144  1.00  0.00    -0.330 C  
HETATM    4  O   UNL     1     -12.139  13.283  71.181  1.00  0.00    -0.408 OA 
HETATM    5  N   UNL     1     -11.181  10.238  67.610  1.00  0.00    -0.308 NA 
HETATM    6  C   UNL     1     -11.214  11.194  68.268  1.00  0.00    -0.279 C  
HETATM    7  H   UNL     1     -11.731  14.095  70.902  1.00  0.00     0.000 HD 
ENDROOT
BRANCH   3   8
HETATM    8  C   UNL     1     -10.622  13.562  68.656  1.00  0.00    -0.244 C  
HETATM    9  O   UNL     1      -9.421  13.515  68.394  1.00  0.00    -0.211 OA 
HETATM   10  N   UNL     1     -11.413  14.679  68.465  1.00  0.00    -0.287 N  
HETATM   11  H   UNL     1     -12.400  14.626  68.715  1.00  0.00     0.000 HD 
BRANCH  10  12
HETATM   12  C   UNL     1     -10.917  15.885  67.941  1.00  0.00    -0.327 A  
HETATM   13  C   UNL     1     -10.742  16.971  68.796  1.00  0.00    -0.313 A  
HETATM   14  C   UNL     1     -10.424  18.228  68.273  1.00  0.00    -0.324 A  
HETATM   15  C   UNL     1     -10.213  18.397  66.895  1.00  0.00    -0.403 A  
HETATM   16  C   UNL     1      -9.967  19.757  66.294  1.00  0.00    -0.478 C  
HETATM   17  C   UNL     1     -10.274  17.272  66.060  1.00  0.00    -0.314 A  
HETATM   18  F   UNL     1      -8.739  19.864  65.718  1.00  0.00    -0.366 F  
HETATM   19  F   UNL     1     -10.051  20.775  67.195  1.00  0.00    -0.588 F  
HETATM   20  C   UNL     1     -10.634  16.029  66.579  1.00  0.00    -0.284 A  
HETATM   21  F   UNL     1     -10.864  20.062  65.312  1.00  0.00    -0.577 F  
ENDBRANCH  10  12
ENDBRANCH   3   8
TORSDOF 2
ENDMDL
MODEL       24
REMARK 921   NORMALIZED FREE ENERGY PREDICTED BY IDOCK:   -6.01 KCAL/MOL
REMARK 922        TOTAL FREE ENERGY PREDICTED BY IDOCK:   -7.30 KCAL/MOL
REMARK 923 INTER-LIGAND FREE ENERGY PREDICTED BY IDOCK:   -6.77 KCAL/MOL
REMARK 924 INTRA-LIGAND FREE ENERGY PREDICTED BY IDOCK:   -0.53 KCAL/MOL
REMARK 927      BINDING AFFINITY PREDICTED BY RF-SCORE:    0.00 PKD
ROOT
HETATM    1  C   UNL     1      -6.903  21.198  67.384  1.00  0.00    -0.405 C  
HETATM    2  C   UNL     1      -7.896  20.101  67.101  1.00  0.00    -0.322 C  
HETATM    3  C   UNL     1      -7.961  18.963  67.830  1.00  0.00    -0.297 C  
HETATM    4  O   UNL     1      -8.767  20.338  66.037  1.00  0.00    -0.572 OA 
HETATM    5  N   UNL     1      -6.316  18.713  69.818  1.00  0.00    -0.216 NA 
HETATM    6  C   UNL     1      -7.068  18.784  68.936  1.00  0.00    -0.305 C  
HETATM    7  H   UNL     1      -9.393  19.645  65.858  1.00  0.00     0.000 HD 
ENDROOT
BRANCH   3   8
HETATM    8  C   UNL     1      -8.902  17.822  67.587  1.00  0.00    -0.248 C  
HETATM    9  O   UNL     1      -9.808  17.611  68.392  1.00  0.00    -0.298 OA 
HETATM   10  N   UNL     1      -8.728  17.112  66.415  1.00  0.00    -0.255 N  
HETATM   11  H   UNL     1      -7.945  17.356  65.809  1.00  0.00     0.000 HD 
BRANCH  10  12
HETATM   12  C   UNL     1      -9.583  16.068  66.020  1.00  0.00    -0.350 A  
HETATM   13  C   UNL     1      -9.239  14.757  66.343  1.00  0.00    -0.301 A  
HETATM   14  C   UNL     1      -9.972  13.692  65.811  1.00  0.00    -0.277 A  
HETATM   15  C   UNL     1     -11.096  13.929  65.003  1.00  0.00    -0.353 A  
HETATM   16  C   UNL     1     -11.842  12.803  64.337  1.00  0.00    -0.384 C  
HETATM   17  C   UNL     1     -11.502  15.254  64.784  1.00  0.00    -0.364 A  
HETATM   18  F   UNL     1     -13.128  12.696  64.769  1.00  0.00    -0.513 F  
HETATM   19  F   UNL     1     -11.276  11.580  64.534  1.00  0.00    -0.375 F  
HETATM   20  C   UNL     1     -10.744  16.313  65.281  1.00  0.00    -0.349 A  
HETATM   21  F   UNL     1     -11.919  12.957  62.984  1.00  0.00    -0.585 F  
ENDBRANCH  10  12
ENDBRANCH   3   8
TORSDOF 2
ENDMDL
MODEL       25
REMARK 921   NORMALIZED FREE ENERGY PREDICTED BY IDOCK:   -6.00 KCAL/MOL
REMARK 922        TOTAL FREE ENERGY PREDICTED BY IDOCK:   -7.30 KCAL/MOL
REMARK 923 INTER-LIGAND FREE ENERGY PREDICTED BY IDOCK:   -6.77 KCAL/MOL
REMARK 924 INTRA-LIGAND FREE ENERGY PREDICTED BY IDOCK:   -0.52 KCAL/MOL
REMARK 927      BINDING AFFINITY PREDICTED BY RF-SCORE:    0.00 PKD
ROOT
HETATM    1  C   UNL     1     -10.758   7.382  73.301  1.00  0.00    -0.441 C  
HETATM    2  C   UNL     1     -10.302   8.241  72.150  1.00  0.00    -0.300 C  
HETATM    3  C   UNL     1     -11.134   9.067  71.475  1.00  0.00    -0.419 C  
HETATM    4  O   UNL     1      -8.948   8.144  71.826  1.00  0.00    -0.134 OA 
HETATM    5  N   UNL     1     -13.605   9.180  72.250  1.00  0.00    -0.463 NA 
HETATM    6  C   UNL     1     -12.508   9.158  71.870  1.00  0.00    -0.387 C  
HETATM    7  H   UNL     1      -8.660   8.686  71.100  1.00  0.00     0.000 HD 
ENDROOT
BRANCH   3   8
HETATM    8  C   UNL     1     -10.754   9.925  70.306  1.00  0.00    -0.310 C  
HETATM    9  O   UNL     1      -9.565  10.058  70.023  1.00  0.00    -0.231 OA 
HETATM   10  N   UNL     1     -11.791  10.464  69.569  1.00  0.00    -0.463 N  
HETATM   11  H   UNL     1     -12.748  10.304  69.883  1.00  0.00     0.000 HD 
BRANCH  10  12
HETATM   12  C   UNL     1     -11.584  11.224  68.404  1.00  0.00    -0.308 A  
HETATM   13  C   UNL     1     -11.900  12.582  68.420  1.00  0.00    -0.353 A  
HETATM   14  C   UNL     1     -11.876  13.318  67.232  1.00  0.00    -0.421 A  
HETATM   15  C   UNL     1     -11.472  12.720  66.027  1.00  0.00    -0.396 A  
HETATM   16  C   UNL     1     -11.532  13.462  64.717  1.00  0.00    -0.336 C  
HETATM   17  C   UNL     1     -11.042  11.385  66.047  1.00  0.00    -0.235 A  
HETATM   18  F   UNL     1     -10.306  13.634  64.154  1.00  0.00    -0.432 F  
HETATM   19  F   UNL     1     -12.078  14.705  64.819  1.00  0.00    -0.382 F  
HETATM   20  C   UNL     1     -11.109  10.642  67.225  1.00  0.00    -0.313 A  
HETATM   21  F   UNL     1     -12.280  12.809  63.782  1.00  0.00    -0.447 F  
ENDBRANCH  10  12
ENDBRANCH   3   8
TORSDOF 2
ENDMDL
MODEL       26
REMARK 921   NORMALIZED FREE ENERGY PREDICTED BY IDOCK:   -5.95 KCAL/MOL
REMARK 922        TOTAL FREE ENERGY PREDICTED BY IDOCK:   -7.23 KCAL/MOL
REMARK 923 INTER-LIGAND FREE ENERGY PREDICTED BY IDOCK:   -6.84 KCAL/MOL
REMARK 924 INTRA-LIGAND FREE ENERGY PREDICTED BY IDOCK:   -0.39 KCAL/MOL
REMARK 927      BINDING AFFINITY PREDICTED BY RF-SCORE:    0.00 PKD
ROOT
HETATM    1  C   UNL     1     -10.410   7.245  73.684  1.00  0.00    -0.399 C  
HETATM    2  C   UNL     1     -11.089   8.031  72.591  1.00  0.00    -0.387 C  
HETATM    3  C   UNL     1     -10.407   8.778  71.693  1.00  0.00    -0.391 C  
HETATM    4  O   UNL     1     -12.480   7.929  72.552  1.00  0.00    -0.538 OA 
HETATM    5  N   UNL     1      -7.821   8.803  71.864  1.00  0.00    -0.317 NA 
HETATM    6  C   UNL     1      -8.977   8.820  71.753  1.00  0.00    -0.212 C  
HETATM    7  H   UNL     1     -12.908   8.424  71.863  1.00  0.00     0.000 HD 
ENDROOT
BRANCH   3   8
HETATM    8  C   UNL     1     -11.018   9.604  70.601  1.00  0.00    -0.320 C  
HETATM    9  O   UNL     1     -12.220   9.862  70.647  1.00  0.00    -0.279 OA 
HETATM   10  N   UNL     1     -10.160  10.088  69.633  1.00  0.00    -0.223 N  
HETATM   11  H   UNL     1      -9.177   9.818  69.674  1.00  0.00     0.000 HD 
BRANCH  10  12
HETATM   12  C   UNL     1     -10.580  10.938  68.596  1.00  0.00    -0.195 A  
HETATM   13  C   UNL     1     -11.185  12.151  68.921  1.00  0.00    -0.320 A  
HETATM   14  C   UNL     1     -11.772  12.929  67.918  1.00  0.00    -0.405 A  
HETATM   15  C   UNL     1     -11.704  12.533  66.572  1.00  0.00    -0.454 A  
HETATM   16  C   UNL     1     -12.413  13.299  65.486  1.00  0.00    -0.474 C  
HETATM   17  C   UNL     1     -10.989  11.371  66.246  1.00  0.00    -0.303 A  
HETATM   18  F   UNL     1     -11.555  13.837  64.576  1.00  0.00    -0.340 F  
HETATM   19  F   UNL     1     -13.166  14.334  65.951  1.00  0.00    -0.487 F  
HETATM   20  C   UNL     1     -10.441  10.576  67.252  1.00  0.00    -0.300 A  
HETATM   21  F   UNL     1     -13.269  12.516  64.769  1.00  0.00    -0.495 F  
ENDBRANCH  10  12
ENDBRANCH   3   8
TORSDOF 2
ENDMDL
MODEL       27
REMARK 921   NORMALIZED FREE ENERGY PREDICTED BY IDOCK:   -5.94 KCAL/MOL
REMARK 922        TOTAL FREE ENERGY PREDICTED BY IDOCK:   -7.23 KCAL/MOL
REMARK 923 INTER-LIGAND FREE ENERGY PREDICTED BY IDOCK:   -6.67 KCAL/MOL
REMARK 924 INTRA-LIGAND FREE ENERGY PREDICTED BY IDOCK:   -0.56 KCAL/MOL
REMARK 927      BINDING AFFINITY PREDICTED BY RF-SCORE:    0.00 PKD
ROOT
HETATM    1  C   UNL     1     -11.057   4.625  71.985  1.00  0.00     0.219 C  
HETATM    2  C   UNL     1     -11.166   6.107  72.234  1.00  0.00    -0.289 C  
HETATM    3  C   UNL     1     -11.226   7.017  71.235  1.00  0.00    -0.296 C  
HETATM    4  O   UNL     1     -11.215   6.490  73.575  1.00  0.00    -0.461 OA 
HETATM    5  N   UNL     1     -11.192   6.132  68.799  1.00  0.00    -0.332 NA 
HETATM    6  C   UNL     1     -11.208   6.570  69.875  1.00  0.00    -0.395 C  
HETATM    7  H   UNL     1     -11.284   7.425  73.732  1.00  0.00     0.000 HD 
ENDROOT
BRANCH   3   8
HETATM    8  C   UNL     1     -11.307   8.503  71.411  1.00  0.00    -0.271 C  
HETATM    9  O   UNL     1     -10.428   9.079  72.052  1.00  0.00    -0.346 OA 
HETATM   10  N   UNL     1     -12.346   9.150  70.769  1.00  0.00    -0.488 N  
HETATM   11  H   UNL     1     -13.030   8.589  70.263  1.00  0.00     0.000 HD 
BRANCH  10  12
HETATM   12  C   UNL     1     -12.500  10.547  70.783  1.00  0.00    -0.378 A  
HETATM   13  C   UNL     1     -11.919  11.299  69.764  1.00  0.00    -0.431 A  
HETATM   14  C   UNL     1     -11.903  12.695  69.849  1.00  0.00    -0.364 A  
HETATM   15  C   UNL     1     -12.525  13.354  70.922  1.00  0.00    -0.439 A  
HETATM   16  C   UNL     1     -12.436  14.849  71.090  1.00  0.00    -0.327 C  
HETATM   17  C   UNL     1     -13.209  12.590  71.878  1.00  0.00    -0.495 A  
HETATM   18  F   UNL     1     -13.649  15.460  71.009  1.00  0.00    -0.477 F  
HETATM   19  F   UNL     1     -11.646  15.456  70.162  1.00  0.00    -0.244 F  
HETATM   20  C   UNL     1     -13.187  11.197  71.813  1.00  0.00    -0.486 A  
HETATM   21  F   UNL     1     -11.922  15.207  72.301  1.00  0.00    -0.367 F  
ENDBRANCH  10  12
ENDBRANCH   3   8
TORSDOF 2
ENDMDL
MODEL       28
REMARK 921   NORMALIZED FREE ENERGY PREDICTED BY IDOCK:   -5.92 KCAL/MOL
REMARK 922        TOTAL FREE ENERGY PREDICTED BY IDOCK:   -7.21 KCAL/MOL
REMARK 923 INTER-LIGAND FREE ENERGY PREDICTED BY IDOCK:   -6.66 KCAL/MOL
REMARK 924 INTRA-LIGAND FREE ENERGY PREDICTED BY IDOCK:   -0.54 KCAL/MOL
REMARK 927      BINDING AFFINITY PREDICTED BY RF-SCORE:    0.00 PKD
ROOT
HETATM    1  C   UNL     1     -12.127  14.640  65.678  1.00  0.00    -0.212 C  
HETATM    2  C   UNL     1     -12.114  13.283  66.333  1.00  0.00    -0.394 C  
HETATM    3  C   UNL     1     -11.903  13.109  67.658  1.00  0.00    -0.405 C  
HETATM    4  O   UNL     1     -12.350  12.202  65.483  1.00  0.00    -0.548 OA 
HETATM    5  N   UNL     1     -11.550  15.229  69.108  1.00  0.00    -0.312 NA 
HETATM    6  C   UNL     1     -11.702  14.254  68.494  1.00  0.00    -0.341 C  
HETATM    7  H   UNL     1     -12.342  11.346  65.896  1.00  0.00     0.000 HD 
ENDROOT
BRANCH   3   8
HETATM    8  C   UNL     1     -11.850  11.790  68.369  1.00  0.00    -0.282 C  
HETATM    9  O   UNL     1     -11.961  10.754  67.716  1.00  0.00    -0.470 OA 
HETATM   10  N   UNL     1     -11.604  11.826  69.728  1.00  0.00    -0.395 N  
HETATM   11  H   UNL     1     -11.530  12.734  70.186  1.00  0.00     0.000 HD 
BRANCH  10  12
HETATM   12  C   UNL     1     -11.452  10.666  70.507  1.00  0.00    -0.317 A  
HETATM   13  C   UNL     1     -10.287   9.913  70.372  1.00  0.00    -0.322 A  
HETATM   14  C   UNL     1     -10.187   8.666  70.997  1.00  0.00    -0.278 A  
HETATM   15  C   UNL     1     -11.224   8.189  71.814  1.00  0.00    -0.329 A  
HETATM   16  C   UNL     1     -11.185   6.808  72.417  1.00  0.00    -0.264 C  
HETATM   17  C   UNL     1     -12.339   9.010  72.037  1.00  0.00    -0.455 A  
HETATM   18  F   UNL     1     -11.154   6.829  73.777  1.00  0.00    -0.239 F  
HETATM   19  F   UNL     1     -10.107   6.073  72.027  1.00  0.00    -0.194 F  
HETATM   20  C   UNL     1     -12.455  10.233  71.379  1.00  0.00    -0.528 A  
HETATM   21  F   UNL     1     -12.277   6.063  72.083  1.00  0.00    -0.376 F  
ENDBRANCH  10  12
ENDBRANCH   3   8
TORSDOF 2
ENDMDL
MODEL       29
REMARK 921   NORMALIZED FREE ENERGY PREDICTED BY IDOCK:   -5.92 KCAL/MOL
REMARK 922        TOTAL FREE ENERGY PREDICTED BY IDOCK:   -7.20 KCAL/MOL
REMARK 923 INTER-LIGAND FREE ENERGY PREDICTED BY IDOCK:   -6.73 KCAL/MOL
REMARK 924 INTRA-LIGAND FREE ENERGY PREDICTED BY IDOCK:   -0.47 KCAL/MOL
REMARK 927      BINDING AFFINITY PREDICTED BY RF-SCORE:    0.00 PKD
ROOT
HETATM    1  C   UNL     1      -9.687  15.369  65.821  1.00  0.00    -0.385 C  
HETATM    2  C   UNL     1     -10.092  14.011  66.335  1.00  0.00    -0.294 C  
HETATM    3  C   UNL     1     -10.879  13.843  67.422  1.00  0.00    -0.291 C  
HETATM    4  O   UNL     1      -9.611  12.924  65.605  1.00  0.00    -0.443 OA 
HETATM    5  N   UNL     1     -11.743  15.971  68.623  1.00  0.00    -0.350 NA 
HETATM    6  C   UNL     1     -11.376  14.993  68.115  1.00  0.00    -0.330 C  
HETATM    7  H   UNL     1      -9.865  12.067  65.930  1.00  0.00     0.000 HD 
ENDROOT
BRANCH   3   8
HETATM    8  C   UNL     1     -11.295  12.525  68.003  1.00  0.00    -0.289 C  
HETATM    9  O   UNL     1     -11.935  11.739  67.306  1.00  0.00    -0.618 OA 
HETATM   10  N   UNL     1     -10.864  12.248  69.286  1.00  0.00    -0.435 N  
HETATM   11  H   UNL     1     -10.341  12.964  69.790  1.00  0.00     0.000 HD 
BRANCH  10  12
HETATM   12  C   UNL     1     -11.114  11.022  69.927  1.00  0.00    -0.205 A  
HETATM   13  C   UNL     1     -10.412   9.891  69.515  1.00  0.00    -0.261 A  
HETATM   14  C   UNL     1     -10.767   8.631  70.008  1.00  0.00    -0.233 A  
HETATM   15  C   UNL     1     -11.785   8.498  70.967  1.00  0.00    -0.310 A  
HETATM   16  C   UNL     1     -12.254   7.147  71.440  1.00  0.00    -0.362 C  
HETATM   17  C   UNL     1     -12.401   9.657  71.462  1.00  0.00    -0.477 A  
HETATM   18  F   UNL     1     -12.029   6.946  72.767  1.00  0.00    -0.193 F  
HETATM   19  F   UNL     1     -11.658   6.106  70.795  1.00  0.00    -0.379 F  
HETATM   20  C   UNL     1     -12.074  10.907  70.937  1.00  0.00    -0.455 A  
HETATM   21  F   UNL     1     -13.595   6.969  71.261  1.00  0.00    -0.424 F  
ENDBRANCH  10  12
ENDBRANCH   3   8
TORSDOF 2
ENDMDL
MODEL       30
REMARK 921   NORMALIZED FREE ENERGY PREDICTED BY IDOCK:   -5.91 KCAL/MOL
REMARK 922        TOTAL FREE ENERGY PREDICTED BY IDOCK:   -7.20 KCAL/MOL
REMARK 923 INTER-LIGAND FREE ENERGY PREDICTED BY IDOCK:   -6.65 KCAL/MOL
REMARK 924 INTRA-LIGAND FREE ENERGY PREDICTED BY IDOCK:   -0.55 KCAL/MOL
REMARK 927      BINDING AFFINITY PREDICTED BY RF-SCORE:    0.00 PKD
ROOT
HETATM    1  C   UNL     1     -10.785  17.095  68.162  1.00  0.00    -0.366 C  
HETATM    2  C   UNL     1     -11.075  15.620  68.046  1.00  0.00    -0.335 C  
HETATM    3  C   UNL     1     -11.476  14.866  69.094  1.00  0.00    -0.324 C  
HETATM    4  O   UNL     1     -10.915  15.075  66.771  1.00  0.00    -0.315 OA 
HETATM    5  N   UNL     1     -11.790  16.050  71.378  1.00  0.00    -0.457 NA 
HETATM    6  C   UNL     1     -11.660  15.481  70.374  1.00  0.00    -0.337 C  
HETATM    7  H   UNL     1     -11.097  14.145  66.697  1.00  0.00     0.000 HD 
ENDROOT
BRANCH   3   8
HETATM    8  C   UNL     1     -11.753  13.393  69.055  1.00  0.00    -0.323 C  
HETATM    9  O   UNL     1     -12.005  12.860  67.975  1.00  0.00    -0.346 OA 
HETATM   10  N   UNL     1     -11.634  12.706  70.248  1.00  0.00    -0.538 N  
HETATM   11  H   UNL     1     -11.425  13.234  71.095  1.00  0.00     0.000 HD 
BRANCH  10  12
HETATM   12  C   UNL     1     -11.789  11.313  70.345  1.00  0.00    -0.350 A  
HETATM   13  C   UNL     1     -12.938  10.803  70.947  1.00  0.00    -0.385 A  
HETATM   14  C   UNL     1     -13.036   9.435  71.219  1.00  0.00    -0.373 A  
HETATM   15  C   UNL     1     -12.012   8.554  70.832  1.00  0.00    -0.204 A  
HETATM   16  C   UNL     1     -12.046   7.093  71.201  1.00  0.00    -0.358 C  
HETATM   17  C   UNL     1     -10.916   9.063  70.121  1.00  0.00    -0.256 A  
HETATM   18  F   UNL     1     -12.113   6.278  70.113  1.00  0.00    -0.433 F  
HETATM   19  F   UNL     1     -13.102   6.754  71.991  1.00  0.00    -0.356 F  
HETATM   20  C   UNL     1     -10.802  10.433  69.890  1.00  0.00    -0.353 A  
HETATM   21  F   UNL     1     -10.934   6.703  71.887  1.00  0.00    -0.244 F  
ENDBRANCH  10  12
ENDBRANCH   3   8
TORSDOF 2
ENDMDL
MODEL       31
REMARK 921   NORMALIZED FREE ENERGY PREDICTED BY IDOCK:   -5.85 KCAL/MOL
REMARK 922        TOTAL FREE ENERGY PREDICTED BY IDOCK:   -7.13 KCAL/MOL
REMARK 923 INTER-LIGAND FREE ENERGY PREDICTED BY IDOCK:   -6.61 KCAL/MOL
REMARK 924 INTRA-LIGAND FREE ENERGY PREDICTED BY IDOCK:   -0.52 KCAL/MOL
REMARK 927      BINDING AFFINITY PREDICTED BY RF-SCORE:    0.00 PKD
ROOT
HETATM    1  C   UNL     1     -10.664   7.687  73.105  1.00  0.00    -0.445 C  
HETATM    2  C   UNL     1     -10.259   8.631  72.003  1.00  0.00    -0.337 C  
HETATM    3  C   UNL     1     -11.153   9.228  71.182  1.00  0.00    -0.411 C  
HETATM    4  O   UNL     1      -8.888   8.867  71.887  1.00  0.00    -0.342 OA 
HETATM    5  N   UNL     1     -13.666   8.735  71.579  1.00  0.00    -0.363 NA 
HETATM    6  C   UNL     1     -12.551   8.981  71.366  1.00  0.00    -0.311 C  
HETATM    7  H   UNL     1      -8.632   9.463  71.191  1.00  0.00     0.000 HD 
ENDROOT
BRANCH   3   8
HETATM    8  C   UNL     1     -10.818  10.153  70.051  1.00  0.00    -0.307 C  
HETATM    9  O   UNL     1      -9.650  10.240  69.674  1.00  0.00    -0.215 OA 
HETATM   10  N   UNL     1     -11.876  10.806  69.448  1.00  0.00    -0.393 N  
HETATM   11  H   UNL     1     -12.811  10.676  69.832  1.00  0.00     0.000 HD 
BRANCH  10  12
HETATM   12  C   UNL     1     -11.719  11.642  68.329  1.00  0.00    -0.304 A  
HETATM   13  C   UNL     1     -11.369  11.073  67.106  1.00  0.00    -0.214 A  
HETATM   14  C   UNL     1     -11.032  11.894  66.025  1.00  0.00    -0.355 A  
HETATM   15  C   UNL     1     -11.105  13.292  66.138  1.00  0.00    -0.300 A  
HETATM   16  C   UNL     1     -10.653  14.199  65.023  1.00  0.00    -0.419 C  
HETATM   17  C   UNL     1     -11.574  13.849  67.336  1.00  0.00    -0.398 A  
HETATM   18  F   UNL     1     -11.665  14.953  64.515  1.00  0.00    -0.384 F  
HETATM   19  F   UNL     1     -10.110  13.535  63.965  1.00  0.00    -0.386 F  
HETATM   20  C   UNL     1     -11.867  13.030  68.425  1.00  0.00    -0.370 A  
HETATM   21  F   UNL     1      -9.699  15.086  65.428  1.00  0.00    -0.352 F  
ENDBRANCH  10  12
ENDBRANCH   3   8
TORSDOF 2
ENDMDL
MODEL       32
REMARK 921   NORMALIZED FREE ENERGY PREDICTED BY IDOCK:   -5.84 KCAL/MOL
REMARK 922        TOTAL FREE ENERGY PREDICTED BY IDOCK:   -7.11 KCAL/MOL
REMARK 923 INTER-LIGAND FREE ENERGY PREDICTED BY IDOCK:   -6.61 KCAL/MOL
REMARK 924 INTRA-LIGAND FREE ENERGY PREDICTED BY IDOCK:   -0.50 KCAL/MOL
REMARK 927      BINDING AFFINITY PREDICTED BY RF-SCORE:    0.00 PKD
ROOT
HETATM    1  C   UNL     1     -12.944  10.365  71.747  1.00  0.00    -0.580 C  
HETATM    2  C   UNL     1     -12.244  11.267  70.762  1.00  0.00    -0.380 C  
HETATM    3  C   UNL     1     -12.357  12.614  70.793  1.00  0.00    -0.372 C  
HETATM    4  O   UNL     1     -11.452  10.621  69.813  1.00  0.00    -0.254 OA 
HETATM    5  N   UNL     1     -13.815  13.658  72.665  1.00  0.00    -0.754 NA 
HETATM    6  C   UNL     1     -13.154  13.231  71.810  1.00  0.00    -0.379 C  
HETATM    7  H   UNL     1     -11.011  11.189  69.192  1.00  0.00     0.000 HD 
ENDROOT
BRANCH   3   8
HETATM    8  C   UNL     1     -11.714  13.567  69.830  1.00  0.00    -0.271 C  
HETATM    9  O   UNL     1     -11.989  13.485  68.634  1.00  0.00    -0.345 OA 
HETATM   10  N   UNL     1     -10.893  14.537  70.371  1.00  0.00    -0.474 N  
HETATM   11  H   UNL     1     -10.719  14.524  71.376  1.00  0.00     0.000 HD 
BRANCH  10  12
HETATM   12  C   UNL     1     -10.286  15.541  69.597  1.00  0.00    -0.286 A  
HETATM   13  C   UNL     1      -8.924  15.446  69.317  1.00  0.00    -0.261 A  
HETATM   14  C   UNL     1      -8.260  16.514  68.707  1.00  0.00    -0.248 A  
HETATM   15  C   UNL     1      -8.965  17.664  68.313  1.00  0.00    -0.276 A  
HETATM   16  C   UNL     1      -8.258  18.868  67.745  1.00  0.00    -0.270 C  
HETATM   17  C   UNL     1     -10.355  17.697  68.492  1.00  0.00    -0.370 A  
HETATM   18  F   UNL     1      -8.623  19.135  66.462  1.00  0.00    -0.274 F  
HETATM   19  F   UNL     1      -6.902  18.750  67.735  1.00  0.00    -0.205 F  
HETATM   20  C   UNL     1     -11.007  16.648  69.139  1.00  0.00    -0.276 A  
HETATM   21  F   UNL     1      -8.523  20.006  68.449  1.00  0.00    -0.339 F  
ENDBRANCH  10  12
ENDBRANCH   3   8
TORSDOF 2
ENDMDL
MODEL       33
REMARK 921   NORMALIZED FREE ENERGY PREDICTED BY IDOCK:   -5.83 KCAL/MOL
REMARK 922        TOTAL FREE ENERGY PREDICTED BY IDOCK:   -7.11 KCAL/MOL
REMARK 923 INTER-LIGAND FREE ENERGY PREDICTED BY IDOCK:   -6.47 KCAL/MOL
REMARK 924 INTRA-LIGAND FREE ENERGY PREDICTED BY IDOCK:   -0.63 KCAL/MOL
REMARK 927      BINDING AFFINITY PREDICTED BY RF-SCORE:    0.00 PKD
ROOT
HETATM    1  C   UNL     1     -11.590   5.392  72.773  1.00  0.00    -0.293 C  
HETATM    2  C   UNL     1     -11.045   6.681  72.214  1.00  0.00    -0.258 C  
HETATM    3  C   UNL     1     -11.837   7.663  71.729  1.00  0.00    -0.324 C  
HETATM    4  O   UNL     1      -9.655   6.808  72.242  1.00  0.00    -0.147 OA 
HETATM    5  N   UNL     1     -14.401   7.295  71.816  1.00  0.00    -0.431 NA 
HETATM    6  C   UNL     1     -13.259   7.499  71.757  1.00  0.00    -0.316 C  
HETATM    7  H   UNL     1      -9.311   7.621  71.889  1.00  0.00     0.000 HD 
ENDROOT
BRANCH   3   8
HETATM    8  C   UNL     1     -11.362   8.955  71.134  1.00  0.00    -0.291 C  
HETATM    9  O   UNL     1     -10.178   9.267  71.249  1.00  0.00    -0.303 OA 
HETATM   10  N   UNL     1     -12.290   9.689  70.421  1.00  0.00    -0.482 N  
HETATM   11  H   UNL     1     -13.252   9.353  70.383  1.00  0.00     0.000 HD 
BRANCH  10  12
HETATM   12  C   UNL     1     -11.966  10.879  69.746  1.00  0.00    -0.351 A  
HETATM   13  C   UNL     1     -12.106  12.093  70.416  1.00  0.00    -0.395 A  
HETATM   14  C   UNL     1     -11.965  13.296  69.717  1.00  0.00    -0.391 A  
HETATM   15  C   UNL     1     -11.620  13.297  68.355  1.00  0.00    -0.372 A  
HETATM   16  C   UNL     1     -11.560  14.573  67.556  1.00  0.00    -0.381 C  
HETATM   17  C   UNL     1     -11.365  12.071  67.723  1.00  0.00    -0.370 A  
HETATM   18  F   UNL     1     -10.311  14.841  67.086  1.00  0.00    -0.247 F  
HETATM   19  F   UNL     1     -11.944  15.675  68.258  1.00  0.00    -0.354 F  
HETATM   20  C   UNL     1     -11.548  10.873  68.412  1.00  0.00    -0.346 A  
HETATM   21  F   UNL     1     -12.368  14.537  66.458  1.00  0.00    -0.421 F  
ENDBRANCH  10  12
ENDBRANCH   3   8
TORSDOF 2
ENDMDL
MODEL       34
REMARK 921   NORMALIZED FREE ENERGY PREDICTED BY IDOCK:   -5.83 KCAL/MOL
REMARK 922        TOTAL FREE ENERGY PREDICTED BY IDOCK:   -7.10 KCAL/MOL
REMARK 923 INTER-LIGAND FREE ENERGY PREDICTED BY IDOCK:   -6.78 KCAL/MOL
REMARK 924 INTRA-LIGAND FREE ENERGY PREDICTED BY IDOCK:   -0.32 KCAL/MOL
REMARK 927      BINDING AFFINITY PREDICTED BY RF-SCORE:    0.00 PKD
ROOT
HETATM    1  C   UNL     1     -12.566  15.910  73.629  1.00  0.00    -0.708 C  
HETATM    2  C   UNL     1     -12.185  15.748  72.179  1.00  0.00    -0.464 C  
HETATM    3  C   UNL     1     -12.518  14.657  71.451  1.00  0.00    -0.410 C  
HETATM    4  O   UNL     1     -11.472  16.810  71.622  1.00  0.00    -0.490 OA 
HETATM    5  N   UNL     1     -13.904  12.806  72.620  1.00  0.00    -0.408 NA 
HETATM    6  C   UNL     1     -13.282  13.611  72.060  1.00  0.00    -0.434 C  
HETATM    7  H   UNL     1     -11.232  16.708  70.708  1.00  0.00     0.000 HD 
ENDROOT
BRANCH   3   8
HETATM    8  C   UNL     1     -12.148  14.419  70.018  1.00  0.00    -0.343 C  
HETATM    9  O   UNL     1     -11.508  15.278  69.414  1.00  0.00    -0.274 OA 
HETATM   10  N   UNL     1     -12.500  13.195  69.481  1.00  0.00    -0.009 N  
HETATM   11  H   UNL     1     -13.036  12.546  70.057  1.00  0.00     0.000 HD 
BRANCH  10  12
HETATM   12  C   UNL     1     -12.151  12.806  68.176  1.00  0.00    -0.108 A  
HETATM   13  C   UNL     1     -11.500  11.588  67.988  1.00  0.00    -0.381 A  
HETATM   14  C   UNL     1     -10.984  11.260  66.731  1.00  0.00    -0.339 A  
HETATM   15  C   UNL     1     -11.170  12.118  65.634  1.00  0.00    -0.381 A  
HETATM   16  C   UNL     1     -10.539  11.836  64.295  1.00  0.00    -0.335 C  
HETATM   17  C   UNL     1     -11.930  13.283  65.810  1.00  0.00    -0.463 A  
HETATM   18  F   UNL     1     -11.459  11.630  63.313  1.00  0.00    -0.462 F  
HETATM   19  F   UNL     1      -9.732  10.740  64.291  1.00  0.00    -0.238 F  
HETATM   20  C   UNL     1     -12.406  13.628  67.074  1.00  0.00    -0.277 A  
HETATM   21  F   UNL     1      -9.759  12.867  63.860  1.00  0.00    -0.254 F  
ENDBRANCH  10  12
ENDBRANCH   3   8
TORSDOF 2
ENDMDL
MODEL       35
REMARK 921   NORMALIZED FREE ENERGY PREDICTED BY IDOCK:   -5.81 KCAL/MOL
REMARK 922        TOTAL FREE ENERGY PREDICTED BY IDOCK:   -7.08 KCAL/MOL
REMARK 923 INTER-LIGAND FREE ENERGY PREDICTED BY IDOCK:   -6.50 KCAL/MOL
REMARK 924 INTRA-LIGAND FREE ENERGY PREDICTED BY IDOCK:   -0.58 KCAL/MOL
REMARK 927      BINDING AFFINITY PREDICTED BY RF-SCORE:    0.00 PKD
ROOT
HETATM    1  C   UNL     1     -10.632  19.680  65.686  1.00  0.00    -0.462 C  
HETATM    2  C   UNL     1     -10.548  18.304  66.296  1.00  0.00    -0.296 C  
HETATM    3  C   UNL     1     -10.325  18.099  67.614  1.00  0.00    -0.411 C  
HETATM    4  O   UNL     1     -10.730  17.242  65.410  1.00  0.00    -0.583 OA 
HETATM    5  N   UNL     1     -10.079  20.184  69.133  1.00  0.00    -0.210 NA 
HETATM    6  C   UNL     1     -10.182  19.224  68.488  1.00  0.00    -0.383 C  
HETATM    7  H   UNL     1     -10.676  16.374  65.795  1.00  0.00     0.000 HD 
ENDROOT
BRANCH   3   8
HETATM    8  C   UNL     1     -10.202  16.761  68.281  1.00  0.00    -0.295 C  
HETATM    9  O   UNL     1      -9.278  16.569  69.070  1.00  0.00    -0.257 OA 
HETATM   10  N   UNL     1     -11.194  15.839  68.011  1.00  0.00    -0.349 N  
HETATM   11  H   UNL     1     -11.919  16.086  67.338  1.00  0.00     0.000 HD 
BRANCH  10  12
HETATM   12  C   UNL     1     -11.248  14.575  68.624  1.00  0.00    -0.261 A  
HETATM   13  C   UNL     1     -10.673  13.485  67.972  1.00  0.00    -0.263 A  
HETATM   14  C   UNL     1     -10.868  12.193  68.469  1.00  0.00    -0.267 A  
HETATM   15  C   UNL     1     -11.586  11.983  69.658  1.00  0.00    -0.371 A  
HETATM   16  C   UNL     1     -11.895  10.597  70.161  1.00  0.00    -0.337 C  
HETATM   17  C   UNL     1     -12.056  13.098  70.367  1.00  0.00    -0.392 A  
HETATM   18  F   UNL     1     -11.316  10.332  71.364  1.00  0.00    -0.400 F  
HETATM   19  F   UNL     1     -11.486   9.607  69.320  1.00  0.00    -0.181 F  
HETATM   20  C   UNL     1     -11.897  14.381  69.847  1.00  0.00    -0.382 A  
HETATM   21  F   UNL     1     -13.232  10.395  70.341  1.00  0.00    -0.402 F  
ENDBRANCH  10  12
ENDBRANCH   3   8
TORSDOF 2
ENDMDL
MODEL       36
REMARK 921   NORMALIZED FREE ENERGY PREDICTED BY IDOCK:   -5.79 KCAL/MOL
REMARK 922        TOTAL FREE ENERGY PREDICTED BY IDOCK:   -7.06 KCAL/MOL
REMARK 923 INTER-LIGAND FREE ENERGY PREDICTED BY IDOCK:   -6.48 KCAL/MOL
REMARK 924 INTRA-LIGAND FREE ENERGY PREDICTED BY IDOCK:   -0.58 KCAL/MOL
REMARK 927      BINDING AFFINITY PREDICTED BY RF-SCORE:    0.00 PKD
ROOT
HETATM    1  C   UNL     1      -8.897   8.870  65.247  1.00  0.00    -0.227 C  
HETATM    2  C   UNL     1      -9.749   9.657  66.211  1.00  0.00    -0.240 C  
HETATM    3  C   UNL     1     -10.356  10.817  65.874  1.00  0.00    -0.302 C  
HETATM    4  O   UNL     1      -9.886   9.101  67.483  1.00  0.00    -0.159 OA 
HETATM    5  N   UNL     1     -10.053  11.675  63.448  1.00  0.00    -0.410 NA 
HETATM    6  C   UNL     1     -10.213  11.327  64.544  1.00  0.00    -0.314 C  
HETATM    7  H   UNL     1     -10.423   9.596  68.091  1.00  0.00     0.000 HD 
ENDROOT
BRANCH   3   8
HETATM    8  C   UNL     1     -11.192  11.662  66.789  1.00  0.00    -0.308 C  
HETATM    9  O   UNL     1     -12.316  12.004  66.426  1.00  0.00    -0.403 OA 
HETATM   10  N   UNL     1     -10.658  11.948  68.031  1.00  0.00    -0.200 N  
HETATM   11  H   UNL     1      -9.714  11.625  68.242  1.00  0.00     0.000 HD 
BRANCH  10  12
HETATM   12  C   UNL     1     -11.360  12.663  69.016  1.00  0.00    -0.292 A  
HETATM   13  C   UNL     1     -11.237  14.051  69.058  1.00  0.00    -0.311 A  
HETATM   14  C   UNL     1     -11.776  14.768  70.131  1.00  0.00    -0.352 A  
HETATM   15  C   UNL     1     -12.499  14.110  71.140  1.00  0.00    -0.445 A  
HETATM   16  C   UNL     1     -13.003  14.844  72.356  1.00  0.00    -0.352 C  
HETATM   17  C   UNL     1     -12.717  12.730  71.023  1.00  0.00    -0.331 A  
HETATM   18  F   UNL     1     -14.361  14.844  72.444  1.00  0.00    -0.503 F  
HETATM   19  F   UNL     1     -12.622  16.150  72.403  1.00  0.00    -0.466 F  
HETATM   20  C   UNL     1     -12.143  12.013  69.975  1.00  0.00    -0.355 A  
HETATM   21  F   UNL     1     -12.557  14.289  73.520  1.00  0.00    -0.513 F  
ENDBRANCH  10  12
ENDBRANCH   3   8
TORSDOF 2
ENDMDL
MODEL       37
REMARK 921   NORMALIZED FREE ENERGY PREDICTED BY IDOCK:   -5.78 KCAL/MOL
REMARK 922        TOTAL FREE ENERGY PREDICTED BY IDOCK:   -7.05 KCAL/MOL
REMARK 923 INTER-LIGAND FREE ENERGY PREDICTED BY IDOCK:   -6.44 KCAL/MOL
REMARK 924 INTRA-LIGAND FREE ENERGY PREDICTED BY IDOCK:   -0.62 KCAL/MOL
REMARK 927      BINDING AFFINITY PREDICTED BY RF-SCORE:    0.00 PKD
ROOT
HETATM    1  C   UNL     1     -12.555   8.360  72.309  1.00  0.00    -0.401 C  
HETATM    2  C   UNL     1     -12.645   9.760  71.758  1.00  0.00    -0.416 C  
HETATM    3  C   UNL     1     -11.950  10.167  70.671  1.00  0.00    -0.423 C  
HETATM    4  O   UNL     1     -13.511  10.618  72.436  1.00  0.00    -0.603 OA 
HETATM    5  N   UNL     1     -10.438   8.425  69.488  1.00  0.00    -0.223 NA 
HETATM    6  C   UNL     1     -11.102   9.236  69.989  1.00  0.00    -0.205 C  
HETATM    7  H   UNL     1     -13.568  11.501  72.089  1.00  0.00     0.000 HD 
ENDROOT
BRANCH   3   8
HETATM    8  C   UNL     1     -11.971  11.548  70.088  1.00  0.00    -0.369 C  
HETATM    9  O   UNL     1     -12.524  12.452  70.712  1.00  0.00    -0.349 OA 
HETATM   10  N   UNL     1     -11.293  11.730  68.898  1.00  0.00    -0.242 N  
HETATM   11  H   UNL     1     -10.867  10.919  68.451  1.00  0.00     0.000 HD 
BRANCH  10  12
HETATM   12  C   UNL     1     -11.164  12.985  68.278  1.00  0.00    -0.275 A  
HETATM   13  C   UNL     1     -11.985  13.287  67.192  1.00  0.00    -0.400 A  
HETATM   14  C   UNL     1     -11.756  14.448  66.447  1.00  0.00    -0.397 A  
HETATM   15  C   UNL     1     -10.747  15.350  66.819  1.00  0.00    -0.310 A  
HETATM   16  C   UNL     1     -10.415  16.555  65.977  1.00  0.00    -0.310 C  
HETATM   17  C   UNL     1     -10.008  15.094  67.983  1.00  0.00    -0.221 A  
HETATM   18  F   UNL     1     -10.643  17.729  66.627  1.00  0.00    -0.336 F  
HETATM   19  F   UNL     1     -11.124  16.623  64.817  1.00  0.00    -0.444 F  
HETATM   20  C   UNL     1     -10.209  13.915  68.699  1.00  0.00    -0.218 A  
HETATM   21  F   UNL     1      -9.102  16.587  65.608  1.00  0.00    -0.293 F  
ENDBRANCH  10  12
ENDBRANCH   3   8
TORSDOF 2
ENDMDL
MODEL       38
REMARK 921   NORMALIZED FREE ENERGY PREDICTED BY IDOCK:   -5.76 KCAL/MOL
REMARK 922        TOTAL FREE ENERGY PREDICTED BY IDOCK:   -7.03 KCAL/MOL
REMARK 923 INTER-LIGAND FREE ENERGY PREDICTED BY IDOCK:   -6.60 KCAL/MOL
REMARK 924 INTRA-LIGAND FREE ENERGY PREDICTED BY IDOCK:   -0.43 KCAL/MOL
REMARK 927      BINDING AFFINITY PREDICTED BY RF-SCORE:    0.00 PKD
ROOT
HETATM    1  C   UNL     1     -11.535  15.859  69.115  1.00  0.00    -0.377 C  
HETATM    2  C   UNL     1     -11.579  14.397  69.479  1.00  0.00    -0.304 C  
HETATM    3  C   UNL     1     -11.733  13.416  68.560  1.00  0.00    -0.392 C  
HETATM    4  O   UNL     1     -11.436  14.110  70.837  1.00  0.00    -0.516 OA 
HETATM    5  N   UNL     1     -11.915  14.117  66.071  1.00  0.00    -0.396 NA 
HETATM    6  C   UNL     1     -11.839  13.761  67.174  1.00  0.00    -0.406 C  
HETATM    7  H   UNL     1     -11.465  13.188  71.066  1.00  0.00     0.000 HD 
ENDROOT
BRANCH   3   8
HETATM    8  C   UNL     1     -11.814  11.948  68.854  1.00  0.00    -0.307 C  
HETATM    9  O   UNL     1     -12.278  11.192  68.002  1.00  0.00    -0.584 OA 
HETATM   10  N   UNL     1     -11.287  11.526  70.059  1.00  0.00    -0.492 N  
HETATM   11  H   UNL     1     -10.927  12.228  70.706  1.00  0.00     0.000 HD 
BRANCH  10  12
HETATM   12  C   UNL     1     -11.226  10.173  70.433  1.00  0.00    -0.330 A  
HETATM   13  C   UNL     1     -12.265   9.634  71.188  1.00  0.00    -0.437 A  
HETATM   14  C   UNL     1     -12.145   8.348  71.724  1.00  0.00    -0.379 A  
HETATM   15  C   UNL     1     -11.012   7.563  71.456  1.00  0.00    -0.256 A  
HETATM   16  C   UNL     1     -10.812   6.216  72.100  1.00  0.00    -0.247 C  
HETATM   17  C   UNL     1     -10.027   8.072  70.596  1.00  0.00    -0.198 A  
HETATM   18  F   UNL     1     -10.786   5.199  71.197  1.00  0.00    -0.297 F  
HETATM   19  F   UNL     1     -11.780   5.894  73.002  1.00  0.00    -0.259 F  
HETATM   20  C   UNL     1     -10.130   9.370  70.098  1.00  0.00    -0.273 A  
HETATM   21  F   UNL     1      -9.634   6.135  72.783  1.00  0.00    -0.154 F  
ENDBRANCH  10  12
ENDBRANCH   3   8
TORSDOF 2
ENDMDL
MODEL       39
REMARK 921   NORMALIZED FREE ENERGY PREDICTED BY IDOCK:   -5.75 KCAL/MOL
REMARK 922        TOTAL FREE ENERGY PREDICTED BY IDOCK:   -7.02 KCAL/MOL
REMARK 923 INTER-LIGAND FREE ENERGY PREDICTED BY IDOCK:   -6.48 KCAL/MOL
REMARK 924 INTRA-LIGAND FREE ENERGY PREDICTED BY IDOCK:   -0.53 KCAL/MOL
REMARK 927      BINDING AFFINITY PREDICTED BY RF-SCORE:    0.00 PKD
ROOT
HETATM    1  C   UNL     1     -13.758  15.473  72.309  1.00  0.00    -0.633 C  
HETATM    2  C   UNL     1     -13.477  14.026  71.994  1.00  0.00    -0.439 C  
HETATM    3  C   UNL     1     -12.626  13.640  71.016  1.00  0.00    -0.441 C  
HETATM    4  O   UNL     1     -14.145  13.097  72.793  1.00  0.00    -0.737 OA 
HETATM    5  N   UNL     1     -11.415  15.495  69.672  1.00  0.00    -0.303 NA 
HETATM    6  C   UNL     1     -11.938  14.634  70.249  1.00  0.00    -0.308 C  
HETATM    7  H   UNL     1     -13.968  12.184  72.594  1.00  0.00     0.000 HD 
ENDROOT
BRANCH   3   8
HETATM    8  C   UNL     1     -12.323  12.223  70.633  1.00  0.00    -0.286 C  
HETATM    9  O   UNL     1     -13.103  11.332  70.967  1.00  0.00    -0.263 OA 
HETATM   10  N   UNL     1     -11.201  12.016  69.854  1.00  0.00    -0.493 N  
HETATM   11  H   UNL     1     -10.609  12.817  69.629  1.00  0.00     0.000 HD 
BRANCH  10  12
HETATM   12  C   UNL     1     -10.838  10.753  69.358  1.00  0.00    -0.244 A  
HETATM   13  C   UNL     1     -10.953  10.507  67.991  1.00  0.00    -0.345 A  
HETATM   14  C   UNL     1     -10.772   9.211  67.497  1.00  0.00    -0.255 A  
HETATM   15  C   UNL     1     -10.410   8.161  68.356  1.00  0.00    -0.236 A  
HETATM   16  C   UNL     1     -10.307   6.740  67.867  1.00  0.00    -0.194 C  
HETATM   17  C   UNL     1     -10.180   8.446  69.710  1.00  0.00    -0.207 A  
HETATM   18  F   UNL     1      -9.046   6.239  67.970  1.00  0.00    -0.116 F  
HETATM   19  F   UNL     1     -10.670   6.583  66.565  1.00  0.00    -0.300 F  
HETATM   20  C   UNL     1     -10.403   9.730  70.206  1.00  0.00    -0.348 A  
HETATM   21  F   UNL     1     -11.102   5.887  68.575  1.00  0.00    -0.336 F  
ENDBRANCH  10  12
ENDBRANCH   3   8
TORSDOF 2
ENDMDL
MODEL       40
REMARK 921   NORMALIZED FREE ENERGY PREDICTED BY IDOCK:   -5.75 KCAL/MOL
REMARK 922        TOTAL FREE ENERGY PREDICTED BY IDOCK:   -7.02 KCAL/MOL
REMARK 923 INTER-LIGAND FREE ENERGY PREDICTED BY IDOCK:   -6.47 KCAL/MOL
REMARK 924 INTRA-LIGAND FREE ENERGY PREDICTED BY IDOCK:   -0.55 KCAL/MOL
REMARK 927      BINDING AFFINITY PREDICTED BY RF-SCORE:    0.00 PKD
ROOT
HETATM    1  C   UNL     1      -9.935   9.773  66.230  1.00  0.00    -0.331 C  
HETATM    2  C   UNL     1      -9.967  11.280  66.191  1.00  0.00    -0.228 C  
HETATM    3  C   UNL     1     -10.723  12.020  67.033  1.00  0.00    -0.280 C  
HETATM    4  O   UNL     1      -9.149  11.874  65.229  1.00  0.00    -0.421 OA 
HETATM    5  N   UNL     1     -12.133  10.760  68.806  1.00  0.00    -0.436 NA 
HETATM    6  C   UNL     1     -11.518  11.363  68.026  1.00  0.00    -0.307 C  
HETATM    7  H   UNL     1      -9.169  12.824  65.204  1.00  0.00     0.000 HD 
ENDROOT
BRANCH   3   8
HETATM    8  C   UNL     1     -10.824  13.515  67.030  1.00  0.00    -0.282 C  
HETATM    9  O   UNL     1     -11.925  14.040  66.865  1.00  0.00    -0.407 OA 
HETATM   10  N   UNL     1      -9.663  14.217  67.288  1.00  0.00    -0.230 N  
HETATM   11  H   UNL     1      -8.795  13.696  67.408  1.00  0.00     0.000 HD 
BRANCH  10  12
HETATM   12  C   UNL     1      -9.625  15.618  67.392  1.00  0.00    -0.217 A  
HETATM   13  C   UNL     1      -9.944  16.213  68.612  1.00  0.00    -0.228 A  
HETATM   14  C   UNL     1     -10.089  17.601  68.695  1.00  0.00    -0.377 A  
HETATM   15  C   UNL     1      -9.853  18.414  67.575  1.00  0.00    -0.327 A  
HETATM   16  C   UNL     1     -10.099  19.900  67.611  1.00  0.00    -0.427 C  
HETATM   17  C   UNL     1      -9.416  17.813  66.385  1.00  0.00    -0.277 A  
HETATM   18  F   UNL     1      -8.963  20.626  67.421  1.00  0.00    -0.429 F  
HETATM   19  F   UNL     1     -10.633  20.337  68.785  1.00  0.00    -0.519 F  
HETATM   20  C   UNL     1      -9.314  16.426  66.294  1.00  0.00    -0.348 A  
HETATM   21  F   UNL     1     -10.964  20.308  66.639  1.00  0.00    -0.400 F  
ENDBRANCH  10  12
ENDBRANCH   3   8
TORSDOF 2
ENDMDL
MODEL       41
REMARK 921   NORMALIZED FREE ENERGY PREDICTED BY IDOCK:   -5.72 KCAL/MOL
REMARK 922        TOTAL FREE ENERGY PREDICTED BY IDOCK:   -6.99 KCAL/MOL
REMARK 923 INTER-LIGAND FREE ENERGY PREDICTED BY IDOCK:   -6.48 KCAL/MOL
REMARK 924 INTRA-LIGAND FREE ENERGY PREDICTED BY IDOCK:   -0.50 KCAL/MOL
REMARK 927      BINDING AFFINITY PREDICTED BY RF-SCORE:    0.00 PKD
ROOT
HETATM    1  C   UNL     1      -9.944  10.350  63.898  1.00  0.00    -0.269 C  
HETATM    2  C   UNL     1     -10.002  11.785  64.356  1.00  0.00    -0.251 C  
HETATM    3  C   UNL     1     -10.334  12.140  65.618  1.00  0.00    -0.289 C  
HETATM    4  O   UNL     1      -9.674  12.737  63.390  1.00  0.00    -0.601 OA 
HETATM    5  N   UNL     1     -10.848  10.242  67.306  1.00  0.00    -0.273 NA 
HETATM    6  C   UNL     1     -10.627  11.122  66.581  1.00  0.00    -0.264 C  
HETATM    7  H   UNL     1      -9.710  13.642  63.678  1.00  0.00     0.000 HD 
ENDROOT
BRANCH   3   8
HETATM    8  C   UNL     1     -10.438  13.545  66.131  1.00  0.00    -0.296 C  
HETATM    9  O   UNL     1     -11.185  13.781  67.079  1.00  0.00    -0.296 OA 
HETATM   10  N   UNL     1      -9.619  14.485  65.537  1.00  0.00    -0.535 N  
HETATM   11  H   UNL     1      -9.035  14.197  64.752  1.00  0.00     0.000 HD 
BRANCH  10  12
HETATM   12  C   UNL     1      -9.556  15.822  65.967  1.00  0.00    -0.353 A  
HETATM   13  C   UNL     1      -8.558  16.194  66.866  1.00  0.00    -0.253 A  
HETATM   14  C   UNL     1      -8.580  17.466  67.446  1.00  0.00    -0.221 A  
HETATM   15  C   UNL     1      -9.563  18.401  67.084  1.00  0.00    -0.299 A  
HETATM   16  C   UNL     1      -9.669  19.741  67.766  1.00  0.00    -0.378 C  
HETATM   17  C   UNL     1     -10.490  18.055  66.090  1.00  0.00    -0.336 A  
HETATM   18  F   UNL     1      -9.455  20.782  66.917  1.00  0.00    -0.497 F  
HETATM   19  F   UNL     1      -8.787  19.903  68.791  1.00  0.00    -0.339 F  
HETATM   20  C   UNL     1     -10.491  16.772  65.545  1.00  0.00    -0.254 A  
HETATM   21  F   UNL     1     -10.903  19.953  68.307  1.00  0.00    -0.479 F  
ENDBRANCH  10  12
ENDBRANCH   3   8
TORSDOF 2
ENDMDL
MODEL       42
REMARK 921   NORMALIZED FREE ENERGY PREDICTED BY IDOCK:   -5.71 KCAL/MOL
REMARK 922        TOTAL FREE ENERGY PREDICTED BY IDOCK:   -6.97 KCAL/MOL
REMARK 923 INTER-LIGAND FREE ENERGY PREDICTED BY IDOCK:   -6.37 KCAL/MOL
REMARK 924 INTRA-LIGAND FREE ENERGY PREDICTED BY IDOCK:   -0.59 KCAL/MOL
REMARK 927      BINDING AFFINITY PREDICTED BY RF-SCORE:    0.00 PKD
ROOT
HETATM    1  C   UNL     1     -10.311  18.617  66.344  1.00  0.00    -0.472 C  
HETATM    2  C   UNL     1     -10.009  17.217  66.812  1.00  0.00    -0.291 C  
HETATM    3  C   UNL     1     -10.364  16.116  66.112  1.00  0.00    -0.350 C  
HETATM    4  O   UNL     1      -9.318  17.124  68.021  1.00  0.00    -0.243 OA 
HETATM    5  N   UNL     1     -11.581  16.468  63.851  1.00  0.00    -1.071 NA 
HETATM    6  C   UNL     1     -11.039  16.266  64.859  1.00  0.00    -0.290 C  
HETATM    7  H   UNL     1      -9.127  16.241  68.317  1.00  0.00     0.000 HD 
ENDROOT
BRANCH   3   8
HETATM    8  C   UNL     1     -10.120  14.697  66.532  1.00  0.00    -0.279 C  
HETATM    9  O   UNL     1      -9.162  14.445  67.261  1.00  0.00    -0.193 OA 
HETATM   10  N   UNL     1     -11.048  13.760  66.122  1.00  0.00    -0.295 N  
HETATM   11  H   UNL     1     -11.810  14.061  65.514  1.00  0.00     0.000 HD 
BRANCH  10  12
HETATM   12  C   UNL     1     -10.988  12.408  66.504  1.00  0.00    -0.272 A  
HETATM   13  C   UNL     1     -11.600  12.017  67.694  1.00  0.00    -0.392 A  
HETATM   14  C   UNL     1     -11.403  10.724  68.187  1.00  0.00    -0.377 A  
HETATM   15  C   UNL     1     -10.647   9.788  67.463  1.00  0.00    -0.335 A  
HETATM   16  C   UNL     1     -10.337   8.422  68.018  1.00  0.00    -0.215 C  
HETATM   17  C   UNL     1     -10.137  10.158  66.210  1.00  0.00    -0.303 A  
HETATM   18  F   UNL     1     -10.876   7.418  67.275  1.00  0.00    -0.334 F  
HETATM   19  F   UNL     1     -10.789   8.234  69.289  1.00  0.00    -0.225 F  
HETATM   20  C   UNL     1     -10.298  11.461  65.741  1.00  0.00    -0.304 A  
HETATM   21  F   UNL     1      -8.997   8.170  68.064  1.00  0.00    -0.132 F  
ENDBRANCH  10  12
ENDBRANCH   3   8
TORSDOF 2
ENDMDL
MODEL       43
REMARK 921   NORMALIZED FREE ENERGY PREDICTED BY IDOCK:   -5.70 KCAL/MOL
REMARK 922        TOTAL FREE ENERGY PREDICTED BY IDOCK:   -6.96 KCAL/MOL
REMARK 923 INTER-LIGAND FREE ENERGY PREDICTED BY IDOCK:   -6.40 KCAL/MOL
REMARK 924 INTRA-LIGAND FREE ENERGY PREDICTED BY IDOCK:   -0.56 KCAL/MOL
REMARK 927      BINDING AFFINITY PREDICTED BY RF-SCORE:    0.00 PKD
ROOT
HETATM    1  C   UNL     1     -10.588   8.991  66.901  1.00  0.00    -0.243 C  
HETATM    2  C   UNL     1     -10.862  10.462  67.081  1.00  0.00    -0.238 C  
HETATM    3  C   UNL     1     -10.331  11.411  66.277  1.00  0.00    -0.287 C  
HETATM    4  O   UNL     1     -11.720  10.790  68.132  1.00  0.00    -0.619 OA 
HETATM    5  N   UNL     1      -8.813  10.626  64.328  1.00  0.00    -0.182 NA 
HETATM    6  C   UNL     1      -9.486  11.020  65.189  1.00  0.00    -0.228 C  
HETATM    7  H   UNL     1     -11.892  11.718  68.245  1.00  0.00     0.000 HD 
ENDROOT
BRANCH   3   8
HETATM    8  C   UNL     1     -10.538  12.890  66.416  1.00  0.00    -0.271 C  
HETATM    9  O   UNL     1     -11.375  13.304  67.216  1.00  0.00    -0.288 OA 
HETATM   10  N   UNL     1      -9.708  13.706  65.671  1.00  0.00    -0.494 N  
HETATM   11  H   UNL     1      -9.045  13.272  65.030  1.00  0.00     0.000 HD 
BRANCH  10  12
HETATM   12  C   UNL     1      -9.738  15.108  65.760  1.00  0.00    -0.344 A  
HETATM   13  C   UNL     1      -8.707  15.764  66.431  1.00  0.00    -0.372 A  
HETATM   14  C   UNL     1      -8.803  17.134  66.689  1.00  0.00    -0.279 A  
HETATM   15  C   UNL     1      -9.900  17.876  66.221  1.00  0.00    -0.307 A  
HETATM   16  C   UNL     1     -10.076  19.331  66.570  1.00  0.00    -0.415 C  
HETATM   17  C   UNL     1     -10.871  17.228  65.444  1.00  0.00    -0.024 A  
HETATM   18  F   UNL     1     -10.038  20.142  65.478  1.00  0.00    -0.502 F  
HETATM   19  F   UNL     1      -9.130  19.806  67.426  1.00  0.00    -0.336 F  
HETATM   20  C   UNL     1     -10.794  15.853  65.225  1.00  0.00    -0.401 A  
HETATM   21  F   UNL     1     -11.274  19.580  67.174  1.00  0.00    -0.572 F  
ENDBRANCH  10  12
ENDBRANCH   3   8
TORSDOF 2
ENDMDL
MODEL       44
REMARK 921   NORMALIZED FREE ENERGY PREDICTED BY IDOCK:   -5.70 KCAL/MOL
REMARK 922        TOTAL FREE ENERGY PREDICTED BY IDOCK:   -6.96 KCAL/MOL
REMARK 923 INTER-LIGAND FREE ENERGY PREDICTED BY IDOCK:   -6.36 KCAL/MOL
REMARK 924 INTRA-LIGAND FREE ENERGY PREDICTED BY IDOCK:   -0.60 KCAL/MOL
REMARK 927      BINDING AFFINITY PREDICTED BY RF-SCORE:    0.00 PKD
ROOT
HETATM    1  C   UNL     1     -10.540   8.906  67.528  1.00  0.00    -0.307 C  
HETATM    2  C   UNL     1     -11.030  10.328  67.622  1.00  0.00    -0.294 C  
HETATM    3  C   UNL     1     -10.449  11.350  66.954  1.00  0.00    -0.278 C  
HETATM    4  O   UNL     1     -12.142  10.528  68.440  1.00  0.00    -0.804 OA 
HETATM    5  N   UNL     1      -8.433  10.794  65.422  1.00  0.00    -0.161 NA 
HETATM    6  C   UNL     1      -9.331  11.086  66.098  1.00  0.00    -0.191 C  
HETATM    7  H   UNL     1     -12.451  11.425  68.500  1.00  0.00     0.000 HD 
ENDROOT
BRANCH   3   8
HETATM    8  C   UNL     1     -10.865  12.789  67.024  1.00  0.00    -0.257 C  
HETATM    9  O   UNL     1     -11.924  13.079  67.579  1.00  0.00    -0.357 OA 
HETATM   10  N   UNL     1      -9.981  13.717  66.511  1.00  0.00    -0.281 N  
HETATM   11  H   UNL     1      -9.127  13.383  66.064  1.00  0.00     0.000 HD 
BRANCH  10  12
HETATM   12  C   UNL     1     -10.205  15.103  66.578  1.00  0.00    -0.276 A  
HETATM   13  C   UNL     1     -10.649  15.770  65.437  1.00  0.00    -0.441 A  
HETATM   14  C   UNL     1     -10.707  17.167  65.424  1.00  0.00    -0.097 A  
HETATM   15  C   UNL     1     -10.383  17.908  66.572  1.00  0.00    -0.362 A  
HETATM   16  C   UNL     1     -10.341  19.414  66.554  1.00  0.00    -0.469 C  
HETATM   17  C   UNL     1     -10.053  17.220  67.748  1.00  0.00    -0.311 A  
HETATM   18  F   UNL     1     -11.262  19.976  67.384  1.00  0.00    -0.398 F  
HETATM   19  F   UNL     1     -10.565  19.953  65.324  1.00  0.00    -0.504 F  
HETATM   20  C   UNL     1      -9.955  15.829  67.746  1.00  0.00    -0.227 A  
HETATM   21  F   UNL     1      -9.134  19.906  66.956  1.00  0.00    -0.343 F  
ENDBRANCH  10  12
ENDBRANCH   3   8
TORSDOF 2
ENDMDL
MODEL       45
REMARK 921   NORMALIZED FREE ENERGY PREDICTED BY IDOCK:   -5.70 KCAL/MOL
REMARK 922        TOTAL FREE ENERGY PREDICTED BY IDOCK:   -6.95 KCAL/MOL
REMARK 923 INTER-LIGAND FREE ENERGY PREDICTED BY IDOCK:   -6.57 KCAL/MOL
REMARK 924 INTRA-LIGAND FREE ENERGY PREDICTED BY IDOCK:   -0.38 KCAL/MOL
REMARK 927      BINDING AFFINITY PREDICTED BY RF-SCORE:    0.00 PKD
ROOT
HETATM    1  C   UNL     1     -11.191   7.791  72.842  1.00  0.00    -0.434 C  
HETATM    2  C   UNL     1     -11.186   8.574  71.554  1.00  0.00    -0.279 C  
HETATM    3  C   UNL     1     -10.057   9.074  71.003  1.00  0.00    -0.352 C  
HETATM    4  O   UNL     1     -12.432   8.743  70.948  1.00  0.00    -0.481 OA 
HETATM    5  N   UNL     1      -7.817   8.610  72.222  1.00  0.00    -0.338 NA 
HETATM    6  C   UNL     1      -8.798   8.841  71.645  1.00  0.00    -0.208 C  
HETATM    7  H   UNL     1     -12.429   9.237  70.136  1.00  0.00     0.000 HD 
ENDROOT
BRANCH   3   8
HETATM    8  C   UNL     1      -9.983   9.883  69.743  1.00  0.00    -0.243 C  
HETATM    9  O   UNL     1      -8.964  10.529  69.506  1.00  0.00    -0.145 OA 
HETATM   10  N   UNL     1     -11.060   9.791  68.882  1.00  0.00    -0.421 N  
HETATM   11  H   UNL     1     -11.865   9.233  69.166  1.00  0.00     0.000 HD 
BRANCH  10  12
HETATM   12  C   UNL     1     -11.094  10.433  67.632  1.00  0.00    -0.293 A  
HETATM   13  C   UNL     1     -10.438   9.843  66.553  1.00  0.00    -0.213 A  
HETATM   14  C   UNL     1     -10.304  10.543  65.350  1.00  0.00    -0.292 A  
HETATM   15  C   UNL     1     -10.880  11.814  65.194  1.00  0.00    -0.351 A  
HETATM   16  C   UNL     1     -10.666  12.631  63.945  1.00  0.00    -0.431 C  
HETATM   17  C   UNL     1     -11.639  12.345  66.246  1.00  0.00    -0.449 A  
HETATM   18  F   UNL     1     -11.821  12.865  63.266  1.00  0.00    -0.531 F  
HETATM   19  F   UNL     1      -9.815  12.052  63.054  1.00  0.00    -0.400 F  
HETATM   20  C   UNL     1     -11.735  11.663  67.459  1.00  0.00    -0.288 A  
HETATM   21  F   UNL     1     -10.138  13.860  64.212  1.00  0.00    -0.419 F  
ENDBRANCH  10  12
ENDBRANCH   3   8
TORSDOF 2
ENDMDL
MODEL       46
REMARK 921   NORMALIZED FREE ENERGY PREDICTED BY IDOCK:   -5.67 KCAL/MOL
REMARK 922        TOTAL FREE ENERGY PREDICTED BY IDOCK:   -6.93 KCAL/MOL
REMARK 923 INTER-LIGAND FREE ENERGY PREDICTED BY IDOCK:   -6.44 KCAL/MOL
REMARK 924 INTRA-LIGAND FREE ENERGY PREDICTED BY IDOCK:   -0.49 KCAL/MOL
REMARK 927      BINDING AFFINITY PREDICTED BY RF-SCORE:    0.00 PKD
ROOT
HETATM    1  C   UNL     1      -5.854  21.185  68.543  1.00  0.00    -0.303 C  
HETATM    2  C   UNL     1      -6.982  20.413  67.907  1.00  0.00    -0.299 C  
HETATM    3  C   UNL     1      -7.274  19.134  68.238  1.00  0.00    -0.305 C  
HETATM    4  O   UNL     1      -7.726  21.110  66.955  1.00  0.00    -0.626 OA 
HETATM    5  N   UNL     1      -5.835  18.008  70.077  1.00  0.00    -0.239 NA 
HETATM    6  C   UNL     1      -6.502  18.475  69.248  1.00  0.00    -0.258 C  
HETATM    7  H   UNL     1      -8.437  20.623  66.554  1.00  0.00     0.000 HD 
ENDROOT
BRANCH   3   8
HETATM    8  C   UNL     1      -8.360  18.300  67.627  1.00  0.00    -0.247 C  
HETATM    9  O   UNL     1      -9.218  18.848  66.936  1.00  0.00    -0.286 OA 
HETATM   10  N   UNL     1      -8.283  16.936  67.828  1.00  0.00    -0.187 N  
HETATM   11  H   UNL     1      -7.537  16.571  68.420  1.00  0.00     0.000 HD 
BRANCH  10  12
HETATM   12  C   UNL     1      -9.187  16.027  67.252  1.00  0.00    -0.205 A  
HETATM   13  C   UNL     1      -9.177  15.851  65.869  1.00  0.00    -0.332 A  
HETATM   14  C   UNL     1     -10.180  15.095  65.254  1.00  0.00    -0.400 A  
HETATM   15  C   UNL     1     -11.165  14.453  66.022  1.00  0.00    -0.333 A  
HETATM   16  C   UNL     1     -12.311  13.716  65.380  1.00  0.00    -0.476 C  
HETATM   17  C   UNL     1     -11.093  14.539  67.420  1.00  0.00    -0.320 A  
HETATM   18  F   UNL     1     -12.308  12.386  65.667  1.00  0.00    -0.485 F  
HETATM   19  F   UNL     1     -12.328  13.808  64.022  1.00  0.00    -0.452 F  
HETATM   20  C   UNL     1     -10.118  15.329  68.027  1.00  0.00    -0.229 A  
HETATM   21  F   UNL     1     -13.526  14.180  65.794  1.00  0.00    -0.455 F  
ENDBRANCH  10  12
ENDBRANCH   3   8
TORSDOF 2
ENDMDL
MODEL       47
REMARK 921   NORMALIZED FREE ENERGY PREDICTED BY IDOCK:   -5.66 KCAL/MOL
REMARK 922        TOTAL FREE ENERGY PREDICTED BY IDOCK:   -6.92 KCAL/MOL
REMARK 923 INTER-LIGAND FREE ENERGY PREDICTED BY IDOCK:   -6.35 KCAL/MOL
REMARK 924 INTRA-LIGAND FREE ENERGY PREDICTED BY IDOCK:   -0.56 KCAL/MOL
REMARK 927      BINDING AFFINITY PREDICTED BY RF-SCORE:    0.00 PKD
ROOT
HETATM    1  C   UNL     1      -9.097   9.484  64.545  1.00  0.00    -0.250 C  
HETATM    2  C   UNL     1      -9.535  10.914  64.728  1.00  0.00    -0.238 C  
HETATM    3  C   UNL     1     -10.198  11.343  65.826  1.00  0.00    -0.295 C  
HETATM    4  O   UNL     1      -9.199  11.784  63.690  1.00  0.00    -0.489 OA 
HETATM    5  N   UNL     1     -10.684   9.611  67.692  1.00  0.00    -0.279 NA 
HETATM    6  C   UNL     1     -10.488  10.418  66.880  1.00  0.00    -0.240 C  
HETATM    7  H   UNL     1      -9.475  12.686  63.806  1.00  0.00     0.000 HD 
ENDROOT
BRANCH   3   8
HETATM    8  C   UNL     1     -10.687  12.741  66.060  1.00  0.00    -0.272 C  
HETATM    9  O   UNL     1     -11.853  12.916  66.410  1.00  0.00    -0.381 OA 
HETATM   10  N   UNL     1      -9.757  13.754  65.932  1.00  0.00    -0.459 N  
HETATM   11  H   UNL     1      -8.812  13.514  65.633  1.00  0.00     0.000 HD 
BRANCH  10  12
HETATM   12  C   UNL     1     -10.055  15.102  66.197  1.00  0.00    -0.295 A  
HETATM   13  C   UNL     1     -10.595  15.885  65.179  1.00  0.00    -0.421 A  
HETATM   14  C   UNL     1     -10.733  17.265  65.358  1.00  0.00    -0.074 A  
HETATM   15  C   UNL     1     -10.392  17.866  66.581  1.00  0.00    -0.362 A  
HETATM   16  C   UNL     1     -10.436  19.361  66.766  1.00  0.00    -0.467 C  
HETATM   17  C   UNL     1      -9.962  17.050  67.637  1.00  0.00    -0.280 A  
HETATM   18  F   UNL     1     -11.342  19.748  67.704  1.00  0.00    -0.411 F  
HETATM   19  F   UNL     1     -10.753  20.043  65.631  1.00  0.00    -0.561 F  
HETATM   20  C   UNL     1      -9.786  15.681  67.441  1.00  0.00    -0.225 A  
HETATM   21  F   UNL     1      -9.238  19.870  67.177  1.00  0.00    -0.356 F  
ENDBRANCH  10  12
ENDBRANCH   3   8
TORSDOF 2
ENDMDL
MODEL       48
REMARK 921   NORMALIZED FREE ENERGY PREDICTED BY IDOCK:   -5.54 KCAL/MOL
REMARK 922        TOTAL FREE ENERGY PREDICTED BY IDOCK:   -6.78 KCAL/MOL
REMARK 923 INTER-LIGAND FREE ENERGY PREDICTED BY IDOCK:   -6.30 KCAL/MOL
REMARK 924 INTRA-LIGAND FREE ENERGY PREDICTED BY IDOCK:   -0.48 KCAL/MOL
REMARK 927      BINDING AFFINITY PREDICTED BY RF-SCORE:    0.00 PKD
ROOT
HETATM    1  C   UNL     1      -9.875   9.517  65.664  1.00  0.00    -0.343 C  
HETATM    2  C   UNL     1      -9.689  10.992  65.416  1.00  0.00    -0.232 C  
HETATM    3  C   UNL     1     -10.394  11.941  66.073  1.00  0.00    -0.268 C  
HETATM    4  O   UNL     1      -8.723  11.324  64.466  1.00  0.00    -0.377 OA 
HETATM    5  N   UNL     1     -12.101  11.153  67.858  1.00  0.00    -0.516 NA 
HETATM    6  C   UNL     1     -11.348  11.548  67.066  1.00  0.00    -0.269 C  
HETATM    7  H   UNL     1      -8.606  12.255  64.309  1.00  0.00     0.000 HD 
ENDROOT
BRANCH   3   8
HETATM    8  C   UNL     1     -10.281  13.420  65.856  1.00  0.00    -0.299 C  
HETATM    9  O   UNL     1     -10.695  13.904  64.803  1.00  0.00    -0.382 OA 
HETATM   10  N   UNL     1      -9.771  14.164  66.902  1.00  0.00    -0.260 N  
HETATM   11  H   UNL     1      -9.448  13.675  67.736  1.00  0.00     0.000 HD 
BRANCH  10  12
HETATM   12  C   UNL     1      -9.679  15.566  66.868  1.00  0.00    -0.233 A  
HETATM   13  C   UNL     1      -8.543  16.154  66.313  1.00  0.00    -0.373 A  
HETATM   14  C   UNL     1      -8.344  17.533  66.428  1.00  0.00    -0.297 A  
HETATM   15  C   UNL     1      -9.310  18.347  67.042  1.00  0.00    -0.281 A  
HETATM   16  C   UNL     1      -9.076  19.819  67.267  1.00  0.00    -0.326 C  
HETATM   17  C   UNL     1     -10.503  17.760  67.488  1.00  0.00    -0.376 A  
HETATM   18  F   UNL     1      -9.957  20.602  66.586  1.00  0.00    -0.562 F  
HETATM   19  F   UNL     1      -7.835  20.237  66.895  1.00  0.00    -0.305 F  
HETATM   20  C   UNL     1     -10.679  16.379  67.411  1.00  0.00    -0.278 A  
HETATM   21  F   UNL     1      -9.205  20.172  68.578  1.00  0.00    -0.319 F  
ENDBRANCH  10  12
ENDBRANCH   3   8
TORSDOF 2
ENDMDL
MODEL       49
REMARK 921   NORMALIZED FREE ENERGY PREDICTED BY IDOCK:   -5.53 KCAL/MOL
REMARK 922        TOTAL FREE ENERGY PREDICTED BY IDOCK:   -6.77 KCAL/MOL
REMARK 923 INTER-LIGAND FREE ENERGY PREDICTED BY IDOCK:   -6.15 KCAL/MOL
REMARK 924 INTRA-LIGAND FREE ENERGY PREDICTED BY IDOCK:   -0.62 KCAL/MOL
REMARK 927      BINDING AFFINITY PREDICTED BY RF-SCORE:    0.00 PKD
ROOT
HETATM    1  C   UNL     1     -10.604  16.239  65.378  1.00  0.00    -0.371 C  
HETATM    2  C   UNL     1     -10.199  15.151  66.340  1.00  0.00    -0.281 C  
HETATM    3  C   UNL     1     -10.958  14.056  66.571  1.00  0.00    -0.306 C  
HETATM    4  O   UNL     1      -8.971  15.337  66.976  1.00  0.00    -0.204 OA 
HETATM    5  N   UNL     1     -13.179  13.832  65.253  1.00  0.00    -0.702 NA 
HETATM    6  C   UNL     1     -12.194  13.894  65.865  1.00  0.00    -0.467 C  
HETATM    7  H   UNL     1      -8.716  14.652  67.583  1.00  0.00     0.000 HD 
ENDROOT
BRANCH   3   8
HETATM    8  C   UNL     1     -10.631  12.953  67.532  1.00  0.00    -0.226 C  
HETATM    9  O   UNL     1      -9.545  12.966  68.111  1.00  0.00    -0.214 OA 
HETATM   10  N   UNL     1     -11.618  12.014  67.760  1.00  0.00    -0.328 N  
HETATM   11  H   UNL     1     -12.487  12.081  67.230  1.00  0.00     0.000 HD 
BRANCH  10  12
HETATM   12  C   UNL     1     -11.479  10.971  68.692  1.00  0.00    -0.308 A  
HETATM   13  C   UNL     1     -12.022  11.127  69.966  1.00  0.00    -0.447 A  
HETATM   14  C   UNL     1     -11.744  10.188  70.963  1.00  0.00    -0.470 A  
HETATM   15  C   UNL     1     -10.974   9.048  70.679  1.00  0.00    -0.308 A  
HETATM   16  C   UNL     1     -10.577   8.073  71.757  1.00  0.00    -0.238 C  
HETATM   17  C   UNL     1     -10.534   8.842  69.363  1.00  0.00    -0.228 A  
HETATM   18  F   UNL     1     -11.097   6.831  71.560  1.00  0.00    -0.253 F  
HETATM   19  F   UNL     1     -10.967   8.452  73.006  1.00  0.00    -0.387 F  
HETATM   20  C   UNL     1     -10.776   9.802  68.382  1.00  0.00    -0.262 A  
HETATM   21  F   UNL     1      -9.226   7.900  71.831  1.00  0.00    -0.151 F  
ENDBRANCH  10  12
ENDBRANCH   3   8
TORSDOF 2
ENDMDL
MODEL       50
REMARK 921   NORMALIZED FREE ENERGY PREDICTED BY IDOCK:   -5.51 KCAL/MOL
REMARK 922        TOTAL FREE ENERGY PREDICTED BY IDOCK:   -6.74 KCAL/MOL
REMARK 923 INTER-LIGAND FREE ENERGY PREDICTED BY IDOCK:   -6.20 KCAL/MOL
REMARK 924 INTRA-LIGAND FREE ENERGY PREDICTED BY IDOCK:   -0.55 KCAL/MOL
REMARK 927      BINDING AFFINITY PREDICTED BY RF-SCORE:    0.00 PKD
ROOT
HETATM    1  C   UNL     1     -10.605  19.928  65.678  1.00  0.00    -0.431 C  
HETATM    2  C   UNL     1     -10.521  18.492  66.128  1.00  0.00    -0.413 C  
HETATM    3  C   UNL     1     -10.260  18.138  67.407  1.00  0.00    -0.383 C  
HETATM    4  O   UNL     1     -10.748  17.537  65.136  1.00  0.00    -0.673 OA 
HETATM    5  N   UNL     1      -9.933  20.038  69.139  1.00  0.00    -0.268 NA 
HETATM    6  C   UNL     1     -10.071  19.157  68.395  1.00  0.00    -0.418 C  
HETATM    7  H   UNL     1     -10.695  16.631  65.419  1.00  0.00     0.000 HD 
ENDROOT
BRANCH   3   8
HETATM    8  C   UNL     1     -10.135  16.733  67.915  1.00  0.00    -0.284 C  
HETATM    9  O   UNL     1      -9.389  16.505  68.867  1.00  0.00    -0.243 OA 
HETATM   10  N   UNL     1     -10.935  15.781  67.314  1.00  0.00    -0.297 N  
HETATM   11  H   UNL     1     -11.520  16.062  66.527  1.00  0.00     0.000 HD 
BRANCH  10  12
HETATM   12  C   UNL     1     -10.979  14.442  67.739  1.00  0.00    -0.274 A  
HETATM   13  C   UNL     1     -11.855  14.088  68.763  1.00  0.00    -0.396 A  
HETATM   14  C   UNL     1     -11.791  12.810  69.326  1.00  0.00    -0.358 A  
HETATM   15  C   UNL     1     -10.894  11.851  68.826  1.00  0.00    -0.270 A  
HETATM   16  C   UNL     1     -10.736  10.502  69.477  1.00  0.00    -0.255 C  
HETATM   17  C   UNL     1     -10.103  12.182  67.717  1.00  0.00    -0.203 A  
HETATM   18  F   UNL     1     -11.095   9.477  68.657  1.00  0.00    -0.226 F  
HETATM   19  F   UNL     1     -11.474  10.353  70.612  1.00  0.00    -0.332 F  
HETATM   20  C   UNL     1     -10.138  13.471  67.186  1.00  0.00    -0.245 A  
HETATM   21  F   UNL     1      -9.446  10.248  69.843  1.00  0.00    -0.230 F  
ENDBRANCH  10  12
ENDBRANCH   3   8
TORSDOF 2
ENDMDL
MODEL       51
REMARK 921   NORMALIZED FREE ENERGY PREDICTED BY IDOCK:   -5.48 KCAL/MOL
REMARK 922        TOTAL FREE ENERGY PREDICTED BY IDOCK:   -6.71 KCAL/MOL
REMARK 923 INTER-LIGAND FREE ENERGY PREDICTED BY IDOCK:   -6.10 KCAL/MOL
REMARK 924 INTRA-LIGAND FREE ENERGY PREDICTED BY IDOCK:   -0.61 KCAL/MOL
REMARK 927      BINDING AFFINITY PREDICTED BY RF-SCORE:    0.00 PKD
ROOT
HETATM    1  C   UNL     1     -12.599  15.297  70.304  1.00  0.00    -0.388 C  
HETATM    2  C   UNL     1     -12.117  13.895  70.032  1.00  0.00    -0.345 C  
HETATM    3  C   UNL     1     -12.504  12.830  70.770  1.00  0.00    -0.357 C  
HETATM    4  O   UNL     1     -11.248  13.759  68.949  1.00  0.00    -0.248 OA 
HETATM    5  N   UNL     1     -14.179  13.249  72.703  1.00  0.00    -0.618 NA 
HETATM    6  C   UNL     1     -13.427  13.018  71.848  1.00  0.00    -0.408 C  
HETATM    7  H   UNL     1     -10.944  12.875  68.777  1.00  0.00     0.000 HD 
ENDROOT
BRANCH   3   8
HETATM    8  C   UNL     1     -12.043  11.417  70.572  1.00  0.00    -0.394 C  
HETATM    9  O   UNL     1     -11.479  11.113  69.522  1.00  0.00    -0.249 OA 
HETATM   10  N   UNL     1     -12.223  10.550  71.632  1.00  0.00    -0.281 N  
HETATM   11  H   UNL     1     -12.706  10.891  72.464  1.00  0.00     0.000 HD 
BRANCH  10  12
HETATM   12  C   UNL     1     -11.771   9.220  71.616  1.00  0.00    -0.392 A  
HETATM   13  C   UNL     1     -10.436   8.958  71.922  1.00  0.00    -0.415 A  
HETATM   14  C   UNL     1      -9.918   7.672  71.739  1.00  0.00    -0.208 A  
HETATM   15  C   UNL     1     -10.745   6.621  71.310  1.00  0.00    -0.269 A  
HETATM   16  C   UNL     1     -10.191   5.252  71.010  1.00  0.00    -0.229 C  
HETATM   17  C   UNL     1     -12.112   6.871  71.122  1.00  0.00    -0.428 A  
HETATM   18  F   UNL     1     -10.690   4.291  71.834  1.00  0.00    -0.182 F  
HETATM   19  F   UNL     1      -8.836   5.175  71.119  1.00  0.00    -0.124 F  
HETATM   20  C   UNL     1     -12.616   8.163  71.264  1.00  0.00    -0.243 A  
HETATM   21  F   UNL     1     -10.481   4.840  69.743  1.00  0.00    -0.326 F  
ENDBRANCH  10  12
ENDBRANCH   3   8
TORSDOF 2
ENDMDL
MODEL       52
REMARK 921   NORMALIZED FREE ENERGY PREDICTED BY IDOCK:   -5.47 KCAL/MOL
REMARK 922        TOTAL FREE ENERGY PREDICTED BY IDOCK:   -6.70 KCAL/MOL
REMARK 923 INTER-LIGAND FREE ENERGY PREDICTED BY IDOCK:   -6.09 KCAL/MOL
REMARK 924 INTRA-LIGAND FREE ENERGY PREDICTED BY IDOCK:   -0.61 KCAL/MOL
REMARK 927      BINDING AFFINITY PREDICTED BY RF-SCORE:    0.00 PKD
ROOT
HETATM    1  C   UNL     1     -10.477  18.663  66.282  1.00  0.00    -0.468 C  
HETATM    2  C   UNL     1      -9.968  17.308  66.704  1.00  0.00    -0.294 C  
HETATM    3  C   UNL     1     -10.267  16.171  66.035  1.00  0.00    -0.374 C  
HETATM    4  O   UNL     1      -9.146  17.299  67.832  1.00  0.00    -0.232 OA 
HETATM    5  N   UNL     1     -11.749  16.374  63.919  1.00  0.00    -1.024 NA 
HETATM    6  C   UNL     1     -11.084  16.239  64.862  1.00  0.00    -0.290 C  
HETATM    7  H   UNL     1      -8.825  16.445  68.098  1.00  0.00     0.000 HD 
ENDROOT
BRANCH   3   8
HETATM    8  C   UNL     1      -9.819  14.792  66.415  1.00  0.00    -0.280 C  
HETATM    9  O   UNL     1      -8.843  14.661  67.152  1.00  0.00    -0.197 OA 
HETATM   10  N   UNL     1     -10.590  13.741  65.957  1.00  0.00    -0.286 N  
HETATM   11  H   UNL     1     -11.379  13.945  65.345  1.00  0.00     0.000 HD 
BRANCH  10  12
HETATM   12  C   UNL     1     -10.333  12.401  66.298  1.00  0.00    -0.244 A  
HETATM   13  C   UNL     1      -9.467  11.656  65.499  1.00  0.00    -0.215 A  
HETATM   14  C   UNL     1      -9.335  10.280  65.708  1.00  0.00    -0.233 A  
HETATM   15  C   UNL     1     -10.018   9.646  66.759  1.00  0.00    -0.289 A  
HETATM   16  C   UNL     1      -9.972   8.152  66.944  1.00  0.00    -0.273 C  
HETATM   17  C   UNL     1     -10.793  10.428  67.628  1.00  0.00    -0.361 A  
HETATM   18  F   UNL     1      -9.392   7.785  68.119  1.00  0.00    -0.143 F  
HETATM   19  F   UNL     1      -9.284   7.502  65.965  1.00  0.00    -0.195 F  
HETATM   20  C   UNL     1     -10.956  11.792  67.392  1.00  0.00    -0.314 A  
HETATM   21  F   UNL     1     -11.215   7.590  66.954  1.00  0.00    -0.380 F  
ENDBRANCH  10  12
ENDBRANCH   3   8
TORSDOF 2
ENDMDL
MODEL       53
REMARK 921   NORMALIZED FREE ENERGY PREDICTED BY IDOCK:   -5.45 KCAL/MOL
REMARK 922        TOTAL FREE ENERGY PREDICTED BY IDOCK:   -6.68 KCAL/MOL
REMARK 923 INTER-LIGAND FREE ENERGY PREDICTED BY IDOCK:   -6.05 KCAL/MOL
REMARK 924 INTRA-LIGAND FREE ENERGY PREDICTED BY IDOCK:   -0.62 KCAL/MOL
REMARK 927      BINDING AFFINITY PREDICTED BY RF-SCORE:    0.00 PKD
ROOT
HETATM    1  C   UNL     1     -10.601  15.388  65.124  1.00  0.00    -0.458 C  
HETATM    2  C   UNL     1     -10.048  14.228  65.913  1.00  0.00    -0.326 C  
HETATM    3  C   UNL     1     -10.728  13.074  66.096  1.00  0.00    -0.288 C  
HETATM    4  O   UNL     1      -8.768  14.415  66.438  1.00  0.00    -0.461 OA 
HETATM    5  N   UNL     1     -13.064  12.867  64.993  1.00  0.00    -0.773 NA 
HETATM    6  C   UNL     1     -12.023  12.919  65.505  1.00  0.00    -0.436 C  
HETATM    7  H   UNL     1      -8.419  13.684  66.936  1.00  0.00     0.000 HD 
ENDROOT
BRANCH   3   8
HETATM    8  C   UNL     1     -10.251  11.895  66.890  1.00  0.00    -0.208 C  
HETATM    9  O   UNL     1      -9.097  11.889  67.317  1.00  0.00    -0.169 OA 
HETATM   10  N   UNL     1     -11.179  10.907  67.154  1.00  0.00    -0.255 N  
HETATM   11  H   UNL     1     -12.113  10.996  66.754  1.00  0.00     0.000 HD 
BRANCH  10  12
HETATM   12  C   UNL     1     -10.893   9.784  67.950  1.00  0.00    -0.242 A  
HETATM   13  C   UNL     1     -10.521   8.594  67.328  1.00  0.00    -0.360 A  
HETATM   14  C   UNL     1     -10.408   7.420  68.079  1.00  0.00    -0.247 A  
HETATM   15  C   UNL     1     -10.601   7.438  69.470  1.00  0.00    -0.244 A  
HETATM   16  C   UNL     1     -10.583   6.172  70.287  1.00  0.00    -0.258 C  
HETATM   17  C   UNL     1     -10.857   8.665  70.100  1.00  0.00    -0.242 A  
HETATM   18  F   UNL     1      -9.572   6.149  71.198  1.00  0.00    -0.173 F  
HETATM   19  F   UNL     1     -10.443   5.042  69.540  1.00  0.00    -0.305 F  
HETATM   20  C   UNL     1     -11.012   9.825  69.343  1.00  0.00    -0.241 A  
HETATM   21  F   UNL     1     -11.730   5.998  71.004  1.00  0.00    -0.363 F  
ENDBRANCH  10  12
ENDBRANCH   3   8
TORSDOF 2
ENDMDL
MODEL       54
REMARK 921   NORMALIZED FREE ENERGY PREDICTED BY IDOCK:   -5.41 KCAL/MOL
REMARK 922        TOTAL FREE ENERGY PREDICTED BY IDOCK:   -6.63 KCAL/MOL
REMARK 923 INTER-LIGAND FREE ENERGY PREDICTED BY IDOCK:   -6.11 KCAL/MOL
REMARK 924 INTRA-LIGAND FREE ENERGY PREDICTED BY IDOCK:   -0.52 KCAL/MOL
REMARK 927      BINDING AFFINITY PREDICTED BY RF-SCORE:    0.00 PKD
ROOT
HETATM    1  C   UNL     1     -11.285   7.202  72.549  1.00  0.00    -0.327 C  
HETATM    2  C   UNL     1     -11.365   8.010  71.279  1.00  0.00    -0.264 C  
HETATM    3  C   UNL     1     -10.327   8.738  70.806  1.00  0.00    -0.264 C  
HETATM    4  O   UNL     1     -12.584   7.949  70.604  1.00  0.00    -0.499 OA 
HETATM    5  N   UNL     1      -8.110   8.685  72.147  1.00  0.00    -0.333 NA 
HETATM    6  C   UNL     1      -9.085   8.737  71.518  1.00  0.00    -0.252 C  
HETATM    7  H   UNL     1     -12.635   8.459  69.803  1.00  0.00     0.000 HD 
ENDROOT
BRANCH   3   8
HETATM    8  C   UNL     1     -10.347   9.584  69.569  1.00  0.00    -0.217 C  
HETATM    9  O   UNL     1     -10.446   9.037  68.472  1.00  0.00    -0.211 OA 
HETATM   10  N   UNL     1     -10.322  10.953  69.752  1.00  0.00    -0.449 N  
HETATM   11  H   UNL     1     -10.234  11.316  70.701  1.00  0.00     0.000 HD 
BRANCH  10  12
HETATM   12  C   UNL     1     -10.412  11.867  68.688  1.00  0.00    -0.212 A  
HETATM   13  C   UNL     1     -11.673  12.282  68.261  1.00  0.00    -0.392 A  
HETATM   14  C   UNL     1     -11.799  13.045  67.096  1.00  0.00    -0.431 A  
HETATM   15  C   UNL     1     -10.661  13.456  66.383  1.00  0.00    -0.285 A  
HETATM   16  C   UNL     1     -10.772  14.193  65.073  1.00  0.00    -0.416 C  
HETATM   17  C   UNL     1      -9.394  13.133  66.890  1.00  0.00    -0.246 A  
HETATM   18  F   UNL     1     -10.250  15.448  65.130  1.00  0.00    -0.359 F  
HETATM   19  F   UNL     1     -12.054  14.338  64.636  1.00  0.00    -0.377 F  
HETATM   20  C   UNL     1      -9.273  12.336  68.027  1.00  0.00    -0.195 A  
HETATM   21  F   UNL     1     -10.109  13.561  64.063  1.00  0.00    -0.386 F  
ENDBRANCH  10  12
ENDBRANCH   3   8
TORSDOF 2
ENDMDL
MODEL       55
REMARK 921   NORMALIZED FREE ENERGY PREDICTED BY IDOCK:   -5.37 KCAL/MOL
REMARK 922        TOTAL FREE ENERGY PREDICTED BY IDOCK:   -6.59 KCAL/MOL
REMARK 923 INTER-LIGAND FREE ENERGY PREDICTED BY IDOCK:   -6.01 KCAL/MOL
REMARK 924 INTRA-LIGAND FREE ENERGY PREDICTED BY IDOCK:   -0.58 KCAL/MOL
REMARK 927      BINDING AFFINITY PREDICTED BY RF-SCORE:    0.00 PKD
ROOT
HETATM    1  C   UNL     1     -11.526  15.800  68.521  1.00  0.00    -0.381 C  
HETATM    2  C   UNL     1     -11.471  14.297  68.426  1.00  0.00    -0.301 C  
HETATM    3  C   UNL     1     -11.889  13.483  69.422  1.00  0.00    -0.389 C  
HETATM    4  O   UNL     1     -10.970  13.788  67.227  1.00  0.00    -0.284 OA 
HETATM    5  N   UNL     1     -12.857  14.591  71.555  1.00  0.00    -0.317 NA 
HETATM    6  C   UNL     1     -12.429  14.055  70.618  1.00  0.00    -0.365 C  
HETATM    7  H   UNL     1     -10.935  12.840  67.167  1.00  0.00     0.000 HD 
ENDROOT
BRANCH   3   8
HETATM    8  C   UNL     1     -11.837  11.984  69.405  1.00  0.00    -0.324 C  
HETATM    9  O   UNL     1     -12.179  11.385  68.387  1.00  0.00    -0.571 OA 
HETATM   10  N   UNL     1     -11.333  11.368  70.534  1.00  0.00    -0.367 N  
HETATM   11  H   UNL     1     -11.078  11.947  71.334  1.00  0.00     0.000 HD 
BRANCH  10  12
HETATM   12  C   UNL     1     -11.154   9.977  70.629  1.00  0.00    -0.335 A  
HETATM   13  C   UNL     1     -12.144   9.210  71.241  1.00  0.00    -0.392 A  
HETATM   14  C   UNL     1     -11.914   7.858  71.509  1.00  0.00    -0.333 A  
HETATM   15  C   UNL     1     -10.716   7.242  71.109  1.00  0.00    -0.244 A  
HETATM   16  C   UNL     1     -10.402   5.814  71.472  1.00  0.00    -0.220 C  
HETATM   17  C   UNL     1      -9.779   7.995  70.387  1.00  0.00    -0.178 A  
HETATM   18  F   UNL     1     -10.287   5.007  70.383  1.00  0.00    -0.303 F  
HETATM   19  F   UNL     1     -11.339   5.236  72.273  1.00  0.00    -0.289 F  
HETATM   20  C   UNL     1      -9.993   9.354  70.159  1.00  0.00    -0.269 A  
HETATM   21  F   UNL     1      -9.221   5.697  72.146  1.00  0.00    -0.144 F  
ENDBRANCH  10  12
ENDBRANCH   3   8
TORSDOF 2
ENDMDL
MODEL       56
REMARK 921   NORMALIZED FREE ENERGY PREDICTED BY IDOCK:   -5.37 KCAL/MOL
REMARK 922        TOTAL FREE ENERGY PREDICTED BY IDOCK:   -6.59 KCAL/MOL
REMARK 923 INTER-LIGAND FREE ENERGY PREDICTED BY IDOCK:   -6.21 KCAL/MOL
REMARK 924 INTRA-LIGAND FREE ENERGY PREDICTED BY IDOCK:   -0.37 KCAL/MOL
REMARK 927      BINDING AFFINITY PREDICTED BY RF-SCORE:    0.00 PKD
ROOT
HETATM    1  C   UNL     1     -11.617  11.309  67.912  1.00  0.00    -0.330 C  
HETATM    2  C   UNL     1     -11.033  12.693  67.785  1.00  0.00    -0.234 C  
HETATM    3  C   UNL     1     -11.259  13.490  66.716  1.00  0.00    -0.327 C  
HETATM    4  O   UNL     1     -10.245  13.113  68.857  1.00  0.00    -0.409 OA 
HETATM    5  N   UNL     1     -12.803  12.582  64.843  1.00  0.00    -0.800 NA 
HETATM    6  C   UNL     1     -12.105  13.026  65.658  1.00  0.00    -0.454 C  
HETATM    7  H   UNL     1      -9.876  13.985  68.777  1.00  0.00     0.000 HD 
ENDROOT
BRANCH   3   8
HETATM    8  C   UNL     1     -10.688  14.861  66.513  1.00  0.00    -0.309 C  
HETATM    9  O   UNL     1     -11.195  15.602  65.672  1.00  0.00    -0.238 OA 
HETATM   10  N   UNL     1      -9.654  15.234  67.349  1.00  0.00    -0.207 N  
HETATM   11  H   UNL     1      -9.295  14.550  68.015  1.00  0.00     0.000 HD 
BRANCH  10  12
HETATM   12  C   UNL     1      -9.075  16.514  67.324  1.00  0.00    -0.204 A  
HETATM   13  C   UNL     1      -8.044  16.770  66.421  1.00  0.00    -0.355 A  
HETATM   14  C   UNL     1      -7.332  17.971  66.497  1.00  0.00    -0.273 A  
HETATM   15  C   UNL     1      -7.686  18.955  67.433  1.00  0.00    -0.247 A  
HETATM   16  C   UNL     1      -6.874  20.214  67.602  1.00  0.00    -0.255 C  
HETATM   17  C   UNL     1      -8.801  18.735  68.255  1.00  0.00    -0.363 A  
HETATM   18  F   UNL     1      -7.578  21.338  67.298  1.00  0.00    -0.411 F  
HETATM   19  F   UNL     1      -5.754  20.249  66.829  1.00  0.00    -0.173 F  
HETATM   20  C   UNL     1      -9.481  17.519  68.207  1.00  0.00    -0.296 A  
HETATM   21  F   UNL     1      -6.440  20.385  68.884  1.00  0.00    -0.329 F  
ENDBRANCH  10  12
ENDBRANCH   3   8
TORSDOF 2
ENDMDL
MODEL       57
REMARK 921   NORMALIZED FREE ENERGY PREDICTED BY IDOCK:   -5.32 KCAL/MOL
REMARK 922        TOTAL FREE ENERGY PREDICTED BY IDOCK:   -6.53 KCAL/MOL
REMARK 923 INTER-LIGAND FREE ENERGY PREDICTED BY IDOCK:   -5.99 KCAL/MOL
REMARK 924 INTRA-LIGAND FREE ENERGY PREDICTED BY IDOCK:   -0.54 KCAL/MOL
REMARK 927      BINDING AFFINITY PREDICTED BY RF-SCORE:    0.00 PKD
ROOT
HETATM    1  C   UNL     1     -12.036  12.921  63.538  1.00  0.00    -0.633 C  
HETATM    2  C   UNL     1     -11.642  12.334  64.869  1.00  0.00    -0.342 C  
HETATM    3  C   UNL     1     -10.579  11.512  65.022  1.00  0.00    -0.354 C  
HETATM    4  O   UNL     1     -12.443  12.705  65.950  1.00  0.00    -0.584 OA 
HETATM    5  N   UNL     1      -9.157  10.979  62.923  1.00  0.00    -0.301 NA 
HETATM    6  C   UNL     1      -9.768  11.191  63.887  1.00  0.00    -0.286 C  
HETATM    7  H   UNL     1     -12.194  12.335  66.789  1.00  0.00     0.000 HD 
ENDROOT
BRANCH   3   8
HETATM    8  C   UNL     1     -10.149  10.872  66.308  1.00  0.00    -0.233 C  
HETATM    9  O   UNL     1      -8.953  10.849  66.594  1.00  0.00    -0.156 OA 
HETATM   10  N   UNL     1     -11.152  10.404  67.135  1.00  0.00    -0.199 N  
HETATM   11  H   UNL     1     -12.117  10.462  66.812  1.00  0.00     0.000 HD 
BRANCH  10  12
HETATM   12  C   UNL     1     -10.900   9.852  68.403  1.00  0.00    -0.221 A  
HETATM   13  C   UNL     1     -10.521   8.513  68.491  1.00  0.00    -0.205 A  
HETATM   14  C   UNL     1     -10.440   7.892  69.742  1.00  0.00    -0.233 A  
HETATM   15  C   UNL     1     -10.674   8.621  70.919  1.00  0.00    -0.269 A  
HETATM   16  C   UNL     1     -10.691   7.954  72.271  1.00  0.00    -0.283 C  
HETATM   17  C   UNL     1     -10.937   9.995  70.822  1.00  0.00    -0.375 A  
HETATM   18  F   UNL     1      -9.708   8.408  73.094  1.00  0.00    -0.325 F  
HETATM   19  F   UNL     1     -10.541   6.602  72.214  1.00  0.00    -0.210 F  
HETATM   20  C   UNL     1     -11.059  10.601  69.572  1.00  0.00    -0.328 A  
HETATM   21  F   UNL     1     -11.861   8.165  72.940  1.00  0.00    -0.452 F  
ENDBRANCH  10  12
ENDBRANCH   3   8
TORSDOF 2
ENDMDL
MODEL       58
REMARK 921   NORMALIZED FREE ENERGY PREDICTED BY IDOCK:   -5.32 KCAL/MOL
REMARK 922        TOTAL FREE ENERGY PREDICTED BY IDOCK:   -6.53 KCAL/MOL
REMARK 923 INTER-LIGAND FREE ENERGY PREDICTED BY IDOCK:   -5.97 KCAL/MOL
REMARK 924 INTRA-LIGAND FREE ENERGY PREDICTED BY IDOCK:   -0.56 KCAL/MOL
REMARK 927      BINDING AFFINITY PREDICTED BY RF-SCORE:    0.00 PKD
ROOT
HETATM    1  C   UNL     1     -13.398  15.181  71.141  1.00  0.00    -0.535 C  
HETATM    2  C   UNL     1     -13.103  13.736  71.450  1.00  0.00    -0.337 C  
HETATM    3  C   UNL     1     -12.437  12.924  70.598  1.00  0.00    -0.333 C  
HETATM    4  O   UNL     1     -13.551  13.284  72.692  1.00  0.00    -0.626 OA 
HETATM    5  N   UNL     1     -11.614  13.943  68.362  1.00  0.00    -0.311 NA 
HETATM    6  C   UNL     1     -11.967  13.447  69.351  1.00  0.00    -0.315 C  
HETATM    7  H   UNL     1     -13.365  12.373  72.888  1.00  0.00     0.000 HD 
ENDROOT
BRANCH   3   8
HETATM    8  C   UNL     1     -12.135  11.474  70.830  1.00  0.00    -0.309 C  
HETATM    9  O   UNL     1     -12.972  10.771  71.394  1.00  0.00    -0.390 OA 
HETATM   10  N   UNL     1     -10.942  10.999  70.321  1.00  0.00    -0.441 N  
HETATM   11  H   UNL     1     -10.307  11.658  69.871  1.00  0.00     0.000 HD 
BRANCH  10  12
HETATM   12  C   UNL     1     -10.564   9.647  70.397  1.00  0.00    -0.295 A  
HETATM   13  C   UNL     1     -10.735   8.836  69.276  1.00  0.00    -0.166 A  
HETATM   14  C   UNL     1     -10.539   7.456  69.378  1.00  0.00    -0.231 A  
HETATM   15  C   UNL     1     -10.106   6.880  70.584  1.00  0.00    -0.208 A  
HETATM   16  C   UNL     1      -9.983   5.388  70.748  1.00  0.00    -0.204 C  
HETATM   17  C   UNL     1      -9.822   7.722  71.669  1.00  0.00    -0.201 A  
HETATM   18  F   UNL     1      -8.704   4.989  70.987  1.00  0.00    -0.116 F  
HETATM   19  F   UNL     1     -10.400   4.682  69.661  1.00  0.00    -0.310 F  
HETATM   20  C   UNL     1     -10.061   9.093  71.577  1.00  0.00    -0.381 A  
HETATM   21  F   UNL     1     -10.718   4.917  71.796  1.00  0.00    -0.264 F  
ENDBRANCH  10  12
ENDBRANCH   3   8
TORSDOF 2
ENDMDL
MODEL       59
REMARK 921   NORMALIZED FREE ENERGY PREDICTED BY IDOCK:   -5.29 KCAL/MOL
REMARK 922        TOTAL FREE ENERGY PREDICTED BY IDOCK:   -6.50 KCAL/MOL
REMARK 923 INTER-LIGAND FREE ENERGY PREDICTED BY IDOCK:   -5.86 KCAL/MOL
REMARK 924 INTRA-LIGAND FREE ENERGY PREDICTED BY IDOCK:   -0.64 KCAL/MOL
REMARK 927      BINDING AFFINITY PREDICTED BY RF-SCORE:    0.00 PKD
ROOT
HETATM    1  C   UNL     1     -10.489  19.291  66.621  1.00  0.00    -0.541 C  
HETATM    2  C   UNL     1     -10.372  18.038  67.450  1.00  0.00    -0.382 C  
HETATM    3  C   UNL     1     -10.539  16.798  66.934  1.00  0.00    -0.219 C  
HETATM    4  O   UNL     1     -10.061  18.234  68.796  1.00  0.00    -0.378 OA 
HETATM    5  N   UNL     1     -11.044  16.608  64.399  1.00  0.00    -1.019 NA 
HETATM    6  C   UNL     1     -10.821  16.649  65.538  1.00  0.00    -0.163 C  
HETATM    7  H   UNL     1      -9.987  17.444  69.319  1.00  0.00     0.000 HD 
ENDROOT
BRANCH   3   8
HETATM    8  C   UNL     1     -10.465  15.515  67.705  1.00  0.00    -0.279 C  
HETATM    9  O   UNL     1     -10.577  15.544  68.929  1.00  0.00    -0.224 OA 
HETATM   10  N   UNL     1     -10.341  14.353  66.967  1.00  0.00    -0.262 N  
HETATM   11  H   UNL     1     -10.250  14.427  65.954  1.00  0.00     0.000 HD 
BRANCH  10  12
HETATM   12  C   UNL     1     -10.337  13.075  67.551  1.00  0.00    -0.224 A  
HETATM   13  C   UNL     1      -9.122  12.520  67.948  1.00  0.00    -0.199 A  
HETATM   14  C   UNL     1      -9.066  11.185  68.363  1.00  0.00    -0.168 A  
HETATM   15  C   UNL     1     -10.236  10.412  68.446  1.00  0.00    -0.186 A  
HETATM   16  C   UNL     1     -10.191   8.947  68.794  1.00  0.00    -0.206 C  
HETATM   17  C   UNL     1     -11.467  11.018  68.158  1.00  0.00    -0.374 A  
HETATM   18  F   UNL     1     -10.836   8.663  69.958  1.00  0.00    -0.224 F  
HETATM   19  F   UNL     1      -8.928   8.457  68.933  1.00  0.00    -0.142 F  
HETATM   20  C   UNL     1     -11.514  12.336  67.704  1.00  0.00    -0.401 A  
HETATM   21  F   UNL     1     -10.784   8.168  67.843  1.00  0.00    -0.272 F  
ENDBRANCH  10  12
ENDBRANCH   3   8
TORSDOF 2
ENDMDL
MODEL       60
REMARK 921   NORMALIZED FREE ENERGY PREDICTED BY IDOCK:   -5.28 KCAL/MOL
REMARK 922        TOTAL FREE ENERGY PREDICTED BY IDOCK:   -6.49 KCAL/MOL
REMARK 923 INTER-LIGAND FREE ENERGY PREDICTED BY IDOCK:   -6.00 KCAL/MOL
REMARK 924 INTRA-LIGAND FREE ENERGY PREDICTED BY IDOCK:   -0.49 KCAL/MOL
REMARK 927      BINDING AFFINITY PREDICTED BY RF-SCORE:    0.00 PKD
ROOT
HETATM    1  C   UNL     1     -10.754  14.962  65.152  1.00  0.00    -0.429 C  
HETATM    2  C   UNL     1     -10.394  13.810  66.054  1.00  0.00    -0.308 C  
HETATM    3  C   UNL     1     -11.117  12.668  66.111  1.00  0.00    -0.327 C  
HETATM    4  O   UNL     1      -9.245  13.987  66.825  1.00  0.00    -0.258 OA 
HETATM    5  N   UNL     1     -13.184  12.475  64.560  1.00  0.00    -0.779 NA 
HETATM    6  C   UNL     1     -12.268  12.521  65.271  1.00  0.00    -0.433 C  
HETATM    7  H   UNL     1      -9.017  13.260  67.394  1.00  0.00     0.000 HD 
ENDROOT
BRANCH   3   8
HETATM    8  C   UNL     1     -10.832  11.498  67.003  1.00  0.00    -0.273 C  
HETATM    9  O   UNL     1     -10.689  10.384  66.502  1.00  0.00    -0.184 OA 
HETATM   10  N   UNL     1     -10.678  11.766  68.350  1.00  0.00    -0.209 N  
HETATM   11  H   UNL     1     -10.821  12.721  68.676  1.00  0.00     0.000 HD 
BRANCH  10  12
HETATM   12  C   UNL     1     -10.333  10.779  69.290  1.00  0.00    -0.205 A  
HETATM   13  C   UNL     1     -11.287  10.375  70.223  1.00  0.00    -0.406 A  
HETATM   14  C   UNL     1     -10.918   9.533  71.276  1.00  0.00    -0.440 A  
HETATM   15  C   UNL     1      -9.609   9.034  71.371  1.00  0.00    -0.356 A  
HETATM   16  C   UNL     1      -9.161   8.207  72.548  1.00  0.00    -0.235 C  
HETATM   17  C   UNL     1      -8.691   9.353  70.359  1.00  0.00    -0.278 A  
HETATM   18  F   UNL     1      -8.799   6.944  72.196  1.00  0.00    -0.130 F  
HETATM   19  F   UNL     1     -10.111   8.072  73.513  1.00  0.00    -0.381 F  
HETATM   20  C   UNL     1      -9.050  10.227  69.334  1.00  0.00    -0.203 A  
HETATM   21  F   UNL     1      -8.074   8.742  73.176  1.00  0.00    -0.165 F  
ENDBRANCH  10  12
ENDBRANCH   3   8
TORSDOF 2
ENDMDL
MODEL       61
REMARK 921   NORMALIZED FREE ENERGY PREDICTED BY IDOCK:   -5.27 KCAL/MOL
REMARK 922        TOTAL FREE ENERGY PREDICTED BY IDOCK:   -6.48 KCAL/MOL
REMARK 923 INTER-LIGAND FREE ENERGY PREDICTED BY IDOCK:   -5.96 KCAL/MOL
REMARK 924 INTRA-LIGAND FREE ENERGY PREDICTED BY IDOCK:   -0.52 KCAL/MOL
REMARK 927      BINDING AFFINITY PREDICTED BY RF-SCORE:    0.00 PKD
ROOT
HETATM    1  C   UNL     1      -7.321  20.229  66.314  1.00  0.00    -0.286 C  
HETATM    2  C   UNL     1      -7.847  18.820  66.214  1.00  0.00    -0.272 C  
HETATM    3  C   UNL     1      -8.998  18.423  66.803  1.00  0.00    -0.291 C  
HETATM    4  O   UNL     1      -7.073  17.942  65.456  1.00  0.00    -0.487 OA 
HETATM    5  N   UNL     1     -10.352  20.199  68.118  1.00  0.00    -0.362 NA 
HETATM    6  C   UNL     1      -9.776  19.373  67.540  1.00  0.00    -0.335 C  
HETATM    7  H   UNL     1      -7.404  17.053  65.393  1.00  0.00     0.000 HD 
ENDROOT
BRANCH   3   8
HETATM    8  C   UNL     1      -9.564  17.035  66.767  1.00  0.00    -0.264 C  
HETATM    9  O   UNL     1      -9.752  16.493  65.679  1.00  0.00    -0.513 OA 
HETATM   10  N   UNL     1      -9.775  16.419  67.986  1.00  0.00    -0.232 N  
HETATM   11  H   UNL     1      -9.594  16.949  68.838  1.00  0.00     0.000 HD 
BRANCH  10  12
HETATM   12  C   UNL     1     -10.227  15.093  68.102  1.00  0.00    -0.227 A  
HETATM   13  C   UNL     1     -11.549  14.863  68.478  1.00  0.00    -0.347 A  
HETATM   14  C   UNL     1     -11.974  13.565  68.776  1.00  0.00    -0.374 A  
HETATM   15  C   UNL     1     -11.098  12.475  68.638  1.00  0.00    -0.305 A  
HETATM   16  C   UNL     1     -11.500  11.082  69.047  1.00  0.00    -0.299 C  
HETATM   17  C   UNL     1      -9.806  12.707  68.144  1.00  0.00    -0.226 A  
HETATM   18  F   UNL     1     -11.523  10.213  68.000  1.00  0.00    -0.330 F  
HETATM   19  F   UNL     1     -12.734  11.015  69.619  1.00  0.00    -0.320 F  
HETATM   20  C   UNL     1      -9.373  14.007  67.890  1.00  0.00    -0.206 A  
HETATM   21  F   UNL     1     -10.643  10.539  69.958  1.00  0.00    -0.287 F  
ENDBRANCH  10  12
ENDBRANCH   3   8
TORSDOF 2
ENDMDL
MODEL       62
REMARK 921   NORMALIZED FREE ENERGY PREDICTED BY IDOCK:   -5.25 KCAL/MOL
REMARK 922        TOTAL FREE ENERGY PREDICTED BY IDOCK:   -6.45 KCAL/MOL
REMARK 923 INTER-LIGAND FREE ENERGY PREDICTED BY IDOCK:   -5.95 KCAL/MOL
REMARK 924 INTRA-LIGAND FREE ENERGY PREDICTED BY IDOCK:   -0.51 KCAL/MOL
REMARK 927      BINDING AFFINITY PREDICTED BY RF-SCORE:    0.00 PKD
ROOT
HETATM    1  C   UNL     1     -12.801  14.511  70.652  1.00  0.00    -0.399 C  
HETATM    2  C   UNL     1     -12.869  13.189  71.373  1.00  0.00    -0.311 C  
HETATM    3  C   UNL     1     -12.386  12.040  70.846  1.00  0.00    -0.384 C  
HETATM    4  O   UNL     1     -13.455  13.223  72.639  1.00  0.00    -0.560 OA 
HETATM    5  N   UNL     1     -11.266  12.164  68.513  1.00  0.00    -0.238 NA 
HETATM    6  C   UNL     1     -11.761  12.065  69.558  1.00  0.00    -0.342 C  
HETATM    7  H   UNL     1     -13.498  12.390  73.093  1.00  0.00     0.000 HD 
ENDROOT
BRANCH   3   8
HETATM    8  C   UNL     1     -12.446  10.690  71.494  1.00  0.00    -0.366 C  
HETATM    9  O   UNL     1     -13.472  10.354  72.084  1.00  0.00    -0.396 OA 
HETATM   10  N   UNL     1     -11.348   9.869  71.323  1.00  0.00    -0.368 N  
HETATM   11  H   UNL     1     -10.539  10.236  70.822  1.00  0.00     0.000 HD 
BRANCH  10  12
HETATM   12  C   UNL     1     -11.297   8.551  71.808  1.00  0.00    -0.307 A  
HETATM   13  C   UNL     1     -10.455   8.260  72.880  1.00  0.00    -0.231 A  
HETATM   14  C   UNL     1     -10.249   6.931  73.265  1.00  0.00    -0.286 A  
HETATM   15  C   UNL     1     -10.933   5.886  72.623  1.00  0.00    -0.305 A  
HETATM   16  C   UNL     1     -10.655   4.441  72.950  1.00  0.00    -0.193 C  
HETATM   17  C   UNL     1     -11.867   6.202  71.626  1.00  0.00    -0.241 A  
HETATM   18  F   UNL     1     -11.736   3.803  73.474  1.00  0.00    -0.320 F  
HETATM   19  F   UNL     1      -9.645   4.269  73.847  1.00  0.00    -0.110 F  
HETATM   20  C   UNL     1     -12.038   7.524  71.216  1.00  0.00    -0.351 A  
HETATM   21  F   UNL     1     -10.296   3.718  71.851  1.00  0.00    -0.243 F  
ENDBRANCH  10  12
ENDBRANCH   3   8
TORSDOF 2
ENDMDL
MODEL       63
REMARK 921   NORMALIZED FREE ENERGY PREDICTED BY IDOCK:   -5.22 KCAL/MOL
REMARK 922        TOTAL FREE ENERGY PREDICTED BY IDOCK:   -6.43 KCAL/MOL
REMARK 923 INTER-LIGAND FREE ENERGY PREDICTED BY IDOCK:   -6.32 KCAL/MOL
REMARK 924 INTRA-LIGAND FREE ENERGY PREDICTED BY IDOCK:   -0.11 KCAL/MOL
REMARK 927      BINDING AFFINITY PREDICTED BY RF-SCORE:    0.00 PKD
ROOT
HETATM    1  C   UNL     1     -11.460   5.737  72.631  1.00  0.00    -0.337 C  
HETATM    2  C   UNL     1     -11.739   7.128  72.123  1.00  0.00    -0.284 C  
HETATM    3  C   UNL     1     -11.552   7.490  70.833  1.00  0.00    -0.309 C  
HETATM    4  O   UNL     1     -12.220   8.030  73.073  1.00  0.00    -0.659 OA 
HETATM    5  N   UNL     1     -10.718   5.673  69.183  1.00  0.00    -0.276 NA 
HETATM    6  C   UNL     1     -11.091   6.516  69.889  1.00  0.00    -0.371 C  
HETATM    7  H   UNL     1     -12.396   8.907  72.753  1.00  0.00     0.000 HD 
ENDROOT
BRANCH   3   8
HETATM    8  C   UNL     1     -11.781   8.859  70.268  1.00  0.00     0.045 C  
HETATM    9  O   UNL     1     -12.570   9.615  70.833  1.00  0.00    -0.288 OA 
HETATM   10  N   UNL     1     -11.024   9.212  69.168  1.00  0.00    -0.424 N  
HETATM   11  H   UNL     1     -10.397   8.516  68.764  1.00  0.00     0.000 HD 
BRANCH  10  12
HETATM   12  C   UNL     1     -11.078  10.489  68.582  1.00  0.00    -0.267 A  
HETATM   13  C   UNL     1     -11.147  11.608  69.409  1.00  0.00    -0.268 A  
HETATM   14  C   UNL     1     -11.383  12.871  68.857  1.00  0.00    -0.335 A  
HETATM   15  C   UNL     1     -11.486  13.036  67.466  1.00  0.00    -0.375 A  
HETATM   16  C   UNL     1     -11.838  14.366  66.852  1.00  0.00    -0.410 C  
HETATM   17  C   UNL     1     -11.295  11.920  66.638  1.00  0.00    -0.400 A  
HETATM   18  F   UNL     1     -10.844  14.862  66.067  1.00  0.00    -0.298 F  
HETATM   19  F   UNL     1     -12.114  15.334  67.769  1.00  0.00    -0.306 F  
HETATM   20  C   UNL     1     -11.104  10.656  67.194  1.00  0.00    -0.267 A  
HETATM   21  F   UNL     1     -12.940  14.294  66.051  1.00  0.00    -0.491 F  
ENDBRANCH  10  12
ENDBRANCH   3   8
TORSDOF 2
ENDMDL
MODEL       64
REMARK 921   NORMALIZED FREE ENERGY PREDICTED BY IDOCK:   -5.21 KCAL/MOL
REMARK 922        TOTAL FREE ENERGY PREDICTED BY IDOCK:   -6.41 KCAL/MOL
REMARK 923 INTER-LIGAND FREE ENERGY PREDICTED BY IDOCK:   -6.02 KCAL/MOL
REMARK 924 INTRA-LIGAND FREE ENERGY PREDICTED BY IDOCK:   -0.40 KCAL/MOL
REMARK 927      BINDING AFFINITY PREDICTED BY RF-SCORE:    0.00 PKD
ROOT
HETATM    1  C   UNL     1     -12.066  16.460  72.209  1.00  0.00    -0.462 C  
HETATM    2  C   UNL     1     -11.603  15.598  71.063  1.00  0.00    -0.392 C  
HETATM    3  C   UNL     1     -12.154  14.395  70.782  1.00  0.00    -0.408 C  
HETATM    4  O   UNL     1     -10.569  16.128  70.291  1.00  0.00    -0.265 OA 
HETATM    5  N   UNL     1     -14.114  13.589  72.274  1.00  0.00    -0.599 NA 
HETATM    6  C   UNL     1     -13.238  13.912  71.583  1.00  0.00    -0.370 C  
HETATM    7  H   UNL     1     -10.277  15.583  69.568  1.00  0.00     0.000 HD 
ENDROOT
BRANCH   3   8
HETATM    8  C   UNL     1     -11.725  13.475  69.678  1.00  0.00    -0.314 C  
HETATM    9  O   UNL     1     -12.118  12.309  69.684  1.00  0.00    -0.279 OA 
HETATM   10  N   UNL     1     -10.958  14.028  68.671  1.00  0.00    -0.254 N  
HETATM   11  H   UNL     1     -10.676  15.005  68.754  1.00  0.00     0.000 HD 
BRANCH  10  12
HETATM   12  C   UNL     1     -10.550  13.304  67.537  1.00  0.00    -0.246 A  
HETATM   13  C   UNL     1     -11.344  13.343  66.392  1.00  0.00    -0.338 A  
HETATM   14  C   UNL     1     -11.059  12.495  65.317  1.00  0.00    -0.332 A  
HETATM   15  C   UNL     1      -9.940  11.646  65.351  1.00  0.00    -0.287 A  
HETATM   16  C   UNL     1      -9.668  10.653  64.252  1.00  0.00    -0.314 C  
HETATM   17  C   UNL     1      -9.082  11.705  66.459  1.00  0.00    -0.200 A  
HETATM   18  F   UNL     1      -8.502  10.902  63.595  1.00  0.00    -0.151 F  
HETATM   19  F   UNL     1     -10.638  10.616  63.297  1.00  0.00    -0.306 F  
HETATM   20  C   UNL     1      -9.393  12.520  67.547  1.00  0.00    -0.187 A  
HETATM   21  F   UNL     1      -9.563   9.375  64.718  1.00  0.00    -0.314 F  
ENDBRANCH  10  12
ENDBRANCH   3   8
TORSDOF 2
ENDMDL
MODEL       65
REMARK 921   NORMALIZED FREE ENERGY PREDICTED BY IDOCK:   -5.20 KCAL/MOL
REMARK 922        TOTAL FREE ENERGY PREDICTED BY IDOCK:   -6.40 KCAL/MOL
REMARK 923 INTER-LIGAND FREE ENERGY PREDICTED BY IDOCK:   -6.03 KCAL/MOL
REMARK 924 INTRA-LIGAND FREE ENERGY PREDICTED BY IDOCK:   -0.37 KCAL/MOL
REMARK 927      BINDING AFFINITY PREDICTED BY RF-SCORE:    0.00 PKD
ROOT
HETATM    1  C   UNL     1      -9.267   9.648  63.268  1.00  0.00    -0.132 C  
HETATM    2  C   UNL     1      -9.506  10.679  64.341  1.00  0.00    -0.269 C  
HETATM    3  C   UNL     1      -9.648  10.360  65.647  1.00  0.00    -0.281 C  
HETATM    4  O   UNL     1      -9.557  12.003  63.902  1.00  0.00    -0.510 OA 
HETATM    5  N   UNL     1      -9.456   7.859  66.302  1.00  0.00    -0.181 NA 
HETATM    6  C   UNL     1      -9.550   8.989  66.051  1.00  0.00    -0.272 C  
HETATM    7  H   UNL     1      -9.708  12.653  64.578  1.00  0.00     0.000 HD 
ENDROOT
BRANCH   3   8
HETATM    8  C   UNL     1      -9.915  11.329  66.760  1.00  0.00    -0.206 C  
HETATM    9  O   UNL     1      -9.033  12.122  67.086  1.00  0.00    -0.176 OA 
HETATM   10  N   UNL     1     -11.183  11.312  67.308  1.00  0.00    -0.305 N  
HETATM   11  H   UNL     1     -11.848  10.614  66.976  1.00  0.00     0.000 HD 
BRANCH  10  12
HETATM   12  C   UNL     1     -11.596  12.215  68.303  1.00  0.00    -0.325 A  
HETATM   13  C   UNL     1     -11.723  13.564  67.978  1.00  0.00    -0.394 A  
HETATM   14  C   UNL     1     -11.956  14.506  68.985  1.00  0.00    -0.334 A  
HETATM   15  C   UNL     1     -12.129  14.100  70.318  1.00  0.00    -0.412 A  
HETATM   16  C   UNL     1     -12.282  15.100  71.435  1.00  0.00    -0.339 C  
HETATM   17  C   UNL     1     -12.118  12.729  70.613  1.00  0.00    -0.316 A  
HETATM   18  F   UNL     1     -13.490  15.015  72.055  1.00  0.00    -0.356 F  
HETATM   19  F   UNL     1     -12.156  16.394  71.030  1.00  0.00    -0.377 F  
HETATM   20  C   UNL     1     -11.843  11.797  69.614  1.00  0.00    -0.407 A  
HETATM   21  F   UNL     1     -11.350  14.931  72.416  1.00  0.00    -0.437 F  
ENDBRANCH  10  12
ENDBRANCH   3   8
TORSDOF 2
ENDMDL
MODEL       66
REMARK 921   NORMALIZED FREE ENERGY PREDICTED BY IDOCK:   -5.08 KCAL/MOL
REMARK 922        TOTAL FREE ENERGY PREDICTED BY IDOCK:   -6.27 KCAL/MOL
REMARK 923 INTER-LIGAND FREE ENERGY PREDICTED BY IDOCK:   -5.89 KCAL/MOL
REMARK 924 INTRA-LIGAND FREE ENERGY PREDICTED BY IDOCK:   -0.38 KCAL/MOL
REMARK 927      BINDING AFFINITY PREDICTED BY RF-SCORE:    0.00 PKD
ROOT
HETATM    1  C   UNL     1      -6.478  20.569  69.153  1.00  0.00    -0.189 C  
HETATM    2  C   UNL     1      -7.023  19.188  68.894  1.00  0.00    -0.336 C  
HETATM    3  C   UNL     1      -8.153  18.966  68.185  1.00  0.00    -0.333 C  
HETATM    4  O   UNL     1      -6.274  18.137  69.424  1.00  0.00    -0.238 OA 
HETATM    5  N   UNL     1      -9.387  21.027  67.211  1.00  0.00    -0.217 NA 
HETATM    6  C   UNL     1      -8.866  20.078  67.631  1.00  0.00    -0.328 C  
HETATM    7  H   UNL     1      -6.618  17.266  69.261  1.00  0.00     0.000 HD 
ENDROOT
BRANCH   3   8
HETATM    8  C   UNL     1      -8.765  17.625  67.915  1.00  0.00    -0.245 C  
HETATM    9  O   UNL     1      -9.329  17.028  68.831  1.00  0.00    -0.265 OA 
HETATM   10  N   UNL     1      -8.715  17.170  66.611  1.00  0.00    -0.237 N  
HETATM   11  H   UNL     1      -8.221  17.732  65.918  1.00  0.00     0.000 HD 
BRANCH  10  12
HETATM   12  C   UNL     1      -9.314  15.968  66.198  1.00  0.00    -0.342 A  
HETATM   13  C   UNL     1     -10.467  16.023  65.417  1.00  0.00    -0.415 A  
HETATM   14  C   UNL     1     -11.182  14.853  65.144  1.00  0.00    -0.389 A  
HETATM   15  C   UNL     1     -10.716  13.607  65.596  1.00  0.00    -0.283 A  
HETATM   16  C   UNL     1     -11.518  12.346  65.403  1.00  0.00    -0.358 C  
HETATM   17  C   UNL     1      -9.492  13.552  66.279  1.00  0.00    -0.199 A  
HETATM   18  F   UNL     1     -10.884  11.437  64.613  1.00  0.00    -0.347 F  
HETATM   19  F   UNL     1     -12.737  12.556  64.833  1.00  0.00    -0.530 F  
HETATM   20  C   UNL     1      -8.804  14.725  66.586  1.00  0.00    -0.262 A  
HETATM   21  F   UNL     1     -11.768  11.703  66.579  1.00  0.00    -0.379 F  
ENDBRANCH  10  12
ENDBRANCH   3   8
TORSDOF 2
ENDMDL
MODEL       67
REMARK 921   NORMALIZED FREE ENERGY PREDICTED BY IDOCK:   -5.04 KCAL/MOL
REMARK 922        TOTAL FREE ENERGY PREDICTED BY IDOCK:   -6.22 KCAL/MOL
REMARK 923 INTER-LIGAND FREE ENERGY PREDICTED BY IDOCK:   -5.59 KCAL/MOL
REMARK 924 INTRA-LIGAND FREE ENERGY PREDICTED BY IDOCK:   -0.63 KCAL/MOL
REMARK 927      BINDING AFFINITY PREDICTED BY RF-SCORE:    0.00 PKD
ROOT
HETATM    1  C   UNL     1     -10.167  19.721  65.955  1.00  0.00    -0.600 C  
HETATM    2  C   UNL     1     -10.372  18.229  65.907  1.00  0.00    -0.284 C  
HETATM    3  C   UNL     1      -9.932  17.395  66.877  1.00  0.00    -0.300 C  
HETATM    4  O   UNL     1     -11.065  17.753  64.793  1.00  0.00    -0.852 OA 
HETATM    5  N   UNL     1      -8.724  18.450  68.913  1.00  0.00    -0.206 NA 
HETATM    6  C   UNL     1      -9.258  17.937  68.018  1.00  0.00    -0.267 C  
HETATM    7  H   UNL     1     -11.194  16.812  64.762  1.00  0.00     0.000 HD 
ENDROOT
BRANCH   3   8
HETATM    8  C   UNL     1     -10.077  15.903  66.878  1.00  0.00    -0.266 C  
HETATM    9  O   UNL     1     -10.141  15.307  65.804  1.00  0.00    -0.304 OA 
HETATM   10  N   UNL     1     -10.058  15.278  68.110  1.00  0.00    -0.227 N  
HETATM   11  H   UNL     1     -10.006  15.856  68.949  1.00  0.00     0.000 HD 
BRANCH  10  12
HETATM   12  C   UNL     1     -10.107  13.881  68.258  1.00  0.00    -0.241 A  
HETATM   13  C   UNL     1      -8.913  13.164  68.284  1.00  0.00    -0.175 A  
HETATM   14  C   UNL     1      -8.937  11.766  68.249  1.00  0.00    -0.180 A  
HETATM   15  C   UNL     1     -10.157  11.071  68.253  1.00  0.00    -0.191 A  
HETATM   16  C   UNL     1     -10.213   9.571  68.115  1.00  0.00    -0.193 C  
HETATM   17  C   UNL     1     -11.350  11.802  68.348  1.00  0.00    -0.328 A  
HETATM   18  F   UNL     1     -10.739   8.962  69.212  1.00  0.00    -0.225 F  
HETATM   19  F   UNL     1      -8.995   8.996  67.912  1.00  0.00    -0.130 F  
HETATM   20  C   UNL     1     -11.323  13.196  68.339  1.00  0.00    -0.324 A  
HETATM   21  F   UNL     1     -10.986   9.174  67.064  1.00  0.00    -0.298 F  
ENDBRANCH  10  12
ENDBRANCH   3   8
TORSDOF 2
ENDMDL
MODEL       68
REMARK 921   NORMALIZED FREE ENERGY PREDICTED BY IDOCK:   -5.04 KCAL/MOL
REMARK 922        TOTAL FREE ENERGY PREDICTED BY IDOCK:   -6.22 KCAL/MOL
REMARK 923 INTER-LIGAND FREE ENERGY PREDICTED BY IDOCK:   -6.05 KCAL/MOL
REMARK 924 INTRA-LIGAND FREE ENERGY PREDICTED BY IDOCK:   -0.17 KCAL/MOL
REMARK 927      BINDING AFFINITY PREDICTED BY RF-SCORE:    0.00 PKD
ROOT
HETATM    1  C   UNL     1     -11.384   5.050  73.229  1.00  0.00    -0.393 C  
HETATM    2  C   UNL     1     -11.489   6.143  72.197  1.00  0.00    -0.311 C  
HETATM    3  C   UNL     1     -10.912   6.059  70.977  1.00  0.00    -0.350 C  
HETATM    4  O   UNL     1     -12.240   7.257  72.575  1.00  0.00    -0.502 OA 
HETATM    5  N   UNL     1      -9.609   3.891  70.409  1.00  0.00    -0.186 NA 
HETATM    6  C   UNL     1     -10.182   4.879  70.624  1.00  0.00    -0.211 C  
HETATM    7  H   UNL     1     -12.307   7.946  71.925  1.00  0.00     0.000 HD 
ENDROOT
BRANCH   3   8
HETATM    8  C   UNL     1     -10.953   7.118  69.916  1.00  0.00    -0.253 C  
HETATM    9  O   UNL     1     -11.215   6.795  68.758  1.00  0.00    -0.195 OA 
HETATM   10  N   UNL     1     -10.759   8.421  70.331  1.00  0.00    -0.228 N  
HETATM   11  H   UNL     1     -10.543   8.593  71.313  1.00  0.00     0.000 HD 
BRANCH  10  12
HETATM   12  C   UNL     1     -10.847   9.521  69.460  1.00  0.00    -0.222 A  
HETATM   13  C   UNL     1     -11.555  10.649  69.869  1.00  0.00    -0.396 A  
HETATM   14  C   UNL     1     -11.810  11.680  68.959  1.00  0.00    -0.391 A  
HETATM   15  C   UNL     1     -11.304  11.622  67.650  1.00  0.00    -0.362 A  
HETATM   16  C   UNL     1     -11.647  12.669  66.623  1.00  0.00    -0.381 C  
HETATM   17  C   UNL     1     -10.493  10.537  67.288  1.00  0.00    -0.300 A  
HETATM   18  F   UNL     1     -10.558  13.363  66.195  1.00  0.00    -0.279 F  
HETATM   19  F   UNL     1     -12.536  13.600  67.068  1.00  0.00    -0.395 F  
HETATM   20  C   UNL     1     -10.276   9.491  68.184  1.00  0.00    -0.231 A  
HETATM   21  F   UNL     1     -12.208  12.134  65.501  1.00  0.00    -0.461 F  
ENDBRANCH  10  12
ENDBRANCH   3   8
TORSDOF 2
ENDMDL
MODEL       69
REMARK 921   NORMALIZED FREE ENERGY PREDICTED BY IDOCK:   -5.03 KCAL/MOL
REMARK 922        TOTAL FREE ENERGY PREDICTED BY IDOCK:   -6.22 KCAL/MOL
REMARK 923 INTER-LIGAND FREE ENERGY PREDICTED BY IDOCK:   -6.03 KCAL/MOL
REMARK 924 INTRA-LIGAND FREE ENERGY PREDICTED BY IDOCK:   -0.19 KCAL/MOL
REMARK 927      BINDING AFFINITY PREDICTED BY RF-SCORE:    0.00 PKD
ROOT
HETATM    1  C   UNL     1     -13.505  13.134  72.316  1.00  0.00    -0.665 C  
HETATM    2  C   UNL     1     -12.607  12.741  71.171  1.00  0.00    -0.271 C  
HETATM    3  C   UNL     1     -12.328  11.453  70.867  1.00  0.00    -0.483 C  
HETATM    4  O   UNL     1     -12.086  13.798  70.425  1.00  0.00    -0.322 OA 
HETATM    5  N   UNL     1     -13.433   9.608  72.312  1.00  0.00    -0.442 NA 
HETATM    6  C   UNL     1     -12.917  10.403  71.642  1.00  0.00    -0.475 C  
HETATM    7  H   UNL     1     -11.520  13.550  69.702  1.00  0.00     0.000 HD 
ENDROOT
BRANCH   3   8
HETATM    8  C   UNL     1     -11.424  10.993  69.763  1.00  0.00    -0.311 C  
HETATM    9  O   UNL     1     -10.351  10.464  70.049  1.00  0.00    -0.235 OA 
HETATM   10  N   UNL     1     -11.897  11.133  68.473  1.00  0.00    -0.302 N  
HETATM   11  H   UNL     1     -12.799  11.589  68.331  1.00  0.00     0.000 HD 
BRANCH  10  12
HETATM   12  C   UNL     1     -11.192  10.676  67.346  1.00  0.00    -0.205 A  
HETATM   13  C   UNL     1     -10.765   9.350  67.311  1.00  0.00    -0.258 A  
HETATM   14  C   UNL     1      -9.911   8.918  66.292  1.00  0.00    -0.355 A  
HETATM   15  C   UNL     1      -9.527   9.792  65.261  1.00  0.00    -0.343 A  
HETATM   16  C   UNL     1      -8.530   9.383  64.208  1.00  0.00    -0.187 C  
HETATM   17  C   UNL     1     -10.059  11.090  65.244  1.00  0.00    -0.332 A  
HETATM   18  F   UNL     1      -9.064   9.367  62.957  1.00  0.00    -0.251 F  
HETATM   19  F   UNL     1      -8.002   8.144  64.408  1.00  0.00    -0.118 F  
HETATM   20  C   UNL     1     -10.876  11.529  66.284  1.00  0.00    -0.333 A  
HETATM   21  F   UNL     1      -7.463  10.230  64.144  1.00  0.00    -0.138 F  
ENDBRANCH  10  12
ENDBRANCH   3   8
TORSDOF 2
ENDMDL
MODEL       70
REMARK 921   NORMALIZED FREE ENERGY PREDICTED BY IDOCK:   -5.02 KCAL/MOL
REMARK 922        TOTAL FREE ENERGY PREDICTED BY IDOCK:   -6.20 KCAL/MOL
REMARK 923 INTER-LIGAND FREE ENERGY PREDICTED BY IDOCK:   -5.60 KCAL/MOL
REMARK 924 INTRA-LIGAND FREE ENERGY PREDICTED BY IDOCK:   -0.60 KCAL/MOL
REMARK 927      BINDING AFFINITY PREDICTED BY RF-SCORE:    0.00 PKD
ROOT
HETATM    1  C   UNL     1     -10.471  13.288  64.686  1.00  0.00    -0.420 C  
HETATM    2  C   UNL     1     -11.061  12.559  65.866  1.00  0.00    -0.299 C  
HETATM    3  C   UNL     1     -10.425  11.545  66.495  1.00  0.00    -0.284 C  
HETATM    4  O   UNL     1     -12.313  13.010  66.285  1.00  0.00    -0.429 OA 
HETATM    5  N   UNL     1      -8.074  10.879  65.631  1.00  0.00    -0.111 NA 
HETATM    6  C   UNL     1      -9.125  11.145  66.048  1.00  0.00    -0.203 C  
HETATM    7  H   UNL     1     -12.686  12.550  67.030  1.00  0.00     0.000 HD 
ENDROOT
BRANCH   3   8
HETATM    8  C   UNL     1     -10.964  10.760  67.653  1.00  0.00    -0.306 C  
HETATM    9  O   UNL     1     -12.155  10.863  67.943  1.00  0.00    -0.527 OA 
HETATM   10  N   UNL     1     -10.085   9.904  68.286  1.00  0.00    -0.155 N  
HETATM   11  H   UNL     1      -9.113   9.888  67.979  1.00  0.00     0.000 HD 
BRANCH  10  12
HETATM   12  C   UNL     1     -10.472   9.052  69.335  1.00  0.00    -0.222 A  
HETATM   13  C   UNL     1     -10.584   9.575  70.622  1.00  0.00    -0.374 A  
HETATM   14  C   UNL     1     -10.789   8.719  71.708  1.00  0.00    -0.416 A  
HETATM   15  C   UNL     1     -10.949   7.337  71.511  1.00  0.00    -0.259 A  
HETATM   16  C   UNL     1     -11.072   6.383  72.670  1.00  0.00    -0.261 C  
HETATM   17  C   UNL     1     -10.954   6.839  70.200  1.00  0.00    -0.340 A  
HETATM   18  F   UNL     1     -12.272   5.742  72.699  1.00  0.00    -0.318 F  
HETATM   19  F   UNL     1     -10.933   6.979  73.886  1.00  0.00    -0.340 F  
HETATM   20  C   UNL     1     -10.706   7.689  69.123  1.00  0.00    -0.153 A  
HETATM   21  F   UNL     1     -10.128   5.398  72.635  1.00  0.00    -0.182 F  
ENDBRANCH  10  12
ENDBRANCH   3   8
TORSDOF 2
ENDMDL
MODEL       71
REMARK 921   NORMALIZED FREE ENERGY PREDICTED BY IDOCK:   -5.00 KCAL/MOL
REMARK 922        TOTAL FREE ENERGY PREDICTED BY IDOCK:   -6.17 KCAL/MOL
REMARK 923 INTER-LIGAND FREE ENERGY PREDICTED BY IDOCK:   -5.61 KCAL/MOL
REMARK 924 INTRA-LIGAND FREE ENERGY PREDICTED BY IDOCK:   -0.56 KCAL/MOL
REMARK 927      BINDING AFFINITY PREDICTED BY RF-SCORE:    0.00 PKD
ROOT
HETATM    1  C   UNL     1     -11.523  14.309  67.545  1.00  0.00    -0.368 C  
HETATM    2  C   UNL     1     -11.836  13.281  68.601  1.00  0.00    -0.345 C  
HETATM    3  C   UNL     1     -11.643  11.955  68.415  1.00  0.00    -0.376 C  
HETATM    4  O   UNL     1     -12.330  13.786  69.804  1.00  0.00    -0.319 OA 
HETATM    5  N   UNL     1     -10.652  11.190  66.145  1.00  0.00    -0.260 NA 
HETATM    6  C   UNL     1     -11.098  11.490  67.174  1.00  0.00    -0.297 C  
HETATM    7  H   UNL     1     -12.527  13.137  70.471  1.00  0.00     0.000 HD 
ENDROOT
BRANCH   3   8
HETATM    8  C   UNL     1     -11.958  10.878  69.409  1.00  0.00    -0.322 C  
HETATM    9  O   UNL     1     -13.083  10.832  69.905  1.00  0.00    -0.075 OA 
HETATM   10  N   UNL     1     -10.965   9.949  69.655  1.00  0.00    -0.243 N  
HETATM   11  H   UNL     1     -10.061  10.071  69.200  1.00  0.00     0.000 HD 
BRANCH  10  12
HETATM   12  C   UNL     1     -11.148   8.844  70.504  1.00  0.00    -0.251 A  
HETATM   13  C   UNL     1     -10.942   9.004  71.873  1.00  0.00    -0.423 A  
HETATM   14  C   UNL     1     -10.940   7.887  72.714  1.00  0.00    -0.456 A  
HETATM   15  C   UNL     1     -11.208   6.606  72.203  1.00  0.00    -0.299 A  
HETATM   16  C   UNL     1     -11.114   5.375  73.067  1.00  0.00    -0.313 C  
HETATM   17  C   UNL     1     -11.531   6.475  70.845  1.00  0.00    -0.408 A  
HETATM   18  F   UNL     1     -12.307   4.735  73.203  1.00  0.00    -0.330 F  
HETATM   19  F   UNL     1     -10.676   5.628  74.332  1.00  0.00    -0.275 F  
HETATM   20  C   UNL     1     -11.490   7.584  70.002  1.00  0.00    -0.049 A  
HETATM   21  F   UNL     1     -10.252   4.447  72.560  1.00  0.00    -0.204 F  
ENDBRANCH  10  12
ENDBRANCH   3   8
TORSDOF 2
ENDMDL
MODEL       72
REMARK 921   NORMALIZED FREE ENERGY PREDICTED BY IDOCK:   -5.00 KCAL/MOL
REMARK 922        TOTAL FREE ENERGY PREDICTED BY IDOCK:   -6.17 KCAL/MOL
REMARK 923 INTER-LIGAND FREE ENERGY PREDICTED BY IDOCK:   -5.57 KCAL/MOL
REMARK 924 INTRA-LIGAND FREE ENERGY PREDICTED BY IDOCK:   -0.60 KCAL/MOL
REMARK 927      BINDING AFFINITY PREDICTED BY RF-SCORE:    0.00 PKD
ROOT
HETATM    1  C   UNL     1     -11.059   6.019  71.244  1.00  0.00    -0.337 C  
HETATM    2  C   UNL     1     -11.149   6.964  70.073  1.00  0.00    -0.299 C  
HETATM    3  C   UNL     1     -10.531   8.167  70.051  1.00  0.00    -0.231 C  
HETATM    4  O   UNL     1     -11.906   6.512  68.992  1.00  0.00    -0.523 OA 
HETATM    5  N   UNL     1      -9.106   8.825  72.114  1.00  0.00    -0.383 NA 
HETATM    6  C   UNL     1      -9.735   8.569  71.172  1.00  0.00    -0.201 C  
HETATM    7  H   UNL     1     -11.963   7.107  68.253  1.00  0.00     0.000 HD 
ENDROOT
BRANCH   3   8
HETATM    8  C   UNL     1     -10.601   9.165  68.935  1.00  0.00    -0.191 C  
HETATM    9  O   UNL     1     -10.887   8.778  67.803  1.00  0.00    -0.167 OA 
HETATM   10  N   UNL     1     -10.404  10.490  69.273  1.00  0.00    -0.217 N  
HETATM   11  H   UNL     1     -10.167  10.717  70.238  1.00  0.00     0.000 HD 
BRANCH  10  12
HETATM   12  C   UNL     1     -10.517  11.539  68.344  1.00  0.00    -0.207 A  
HETATM   13  C   UNL     1      -9.398  11.900  67.596  1.00  0.00    -0.183 A  
HETATM   14  C   UNL     1      -9.431  13.050  66.801  1.00  0.00    -0.250 A  
HETATM   15  C   UNL     1     -10.604  13.814  66.696  1.00  0.00    -0.274 A  
HETATM   16  C   UNL     1     -10.637  15.110  65.927  1.00  0.00    -0.337 C  
HETATM   17  C   UNL     1     -11.758  13.374  67.360  1.00  0.00    -0.415 A  
HETATM   18  F   UNL     1     -11.482  15.067  64.861  1.00  0.00    -0.356 F  
HETATM   19  F   UNL     1      -9.425  15.482  65.432  1.00  0.00    -0.327 F  
HETATM   20  C   UNL     1     -11.710  12.251  68.185  1.00  0.00    -0.408 A  
HETATM   21  F   UNL     1     -11.059  16.158  66.692  1.00  0.00    -0.264 F  
ENDBRANCH  10  12
ENDBRANCH   3   8
TORSDOF 2
ENDMDL
MODEL       73
REMARK 921   NORMALIZED FREE ENERGY PREDICTED BY IDOCK:   -4.99 KCAL/MOL
REMARK 922        TOTAL FREE ENERGY PREDICTED BY IDOCK:   -6.17 KCAL/MOL
REMARK 923 INTER-LIGAND FREE ENERGY PREDICTED BY IDOCK:   -5.72 KCAL/MOL
REMARK 924 INTRA-LIGAND FREE ENERGY PREDICTED BY IDOCK:   -0.45 KCAL/MOL
REMARK 927      BINDING AFFINITY PREDICTED BY RF-SCORE:    0.00 PKD
ROOT
HETATM    1  C   UNL     1      -9.170  17.603  66.224  1.00  0.00    -0.212 C  
HETATM    2  C   UNL     1      -9.242  16.104  66.356  1.00  0.00    -0.300 C  
HETATM    3  C   UNL     1     -10.142  15.350  65.685  1.00  0.00    -0.406 C  
HETATM    4  O   UNL     1      -8.302  15.530  67.214  1.00  0.00    -0.164 OA 
HETATM    5  N   UNL     1     -11.772  16.569  64.079  1.00  0.00    -1.064 NA 
HETATM    6  C   UNL     1     -11.062  15.984  64.789  1.00  0.00    -0.365 C  
HETATM    7  H   UNL     1      -8.348  14.584  67.297  1.00  0.00     0.000 HD 
ENDROOT
BRANCH   3   8
HETATM    8  C   UNL     1     -10.288  13.862  65.791  1.00  0.00    -0.316 C  
HETATM    9  O   UNL     1     -10.753  13.237  64.839  1.00  0.00    -0.313 OA 
HETATM   10  N   UNL     1      -9.815  13.272  66.947  1.00  0.00    -0.241 N  
HETATM   11  H   UNL     1      -9.448  13.872  67.686  1.00  0.00     0.000 HD 
BRANCH  10  12
HETATM   12  C   UNL     1      -9.816  11.881  67.149  1.00  0.00    -0.194 A  
HETATM   13  C   UNL     1      -8.781  11.120  66.608  1.00  0.00    -0.166 A  
HETATM   14  C   UNL     1      -8.851   9.724  66.640  1.00  0.00    -0.153 A  
HETATM   15  C   UNL     1      -9.925   9.075  67.270  1.00  0.00    -0.275 A  
HETATM   16  C   UNL     1     -10.075   7.576  67.231  1.00  0.00    -0.231 C  
HETATM   17  C   UNL     1     -10.898   9.852  67.915  1.00  0.00    -0.312 A  
HETATM   18  F   UNL     1     -10.004   7.008  68.466  1.00  0.00    -0.144 F  
HETATM   19  F   UNL     1      -9.131   6.952  66.475  1.00  0.00    -0.135 F  
HETATM   20  C   UNL     1     -10.848  11.244  67.845  1.00  0.00    -0.278 A  
HETATM   21  F   UNL     1     -11.276   7.187  66.714  1.00  0.00    -0.446 F  
ENDBRANCH  10  12
ENDBRANCH   3   8
TORSDOF 2
ENDMDL
MODEL       74
REMARK 921   NORMALIZED FREE ENERGY PREDICTED BY IDOCK:   -4.95 KCAL/MOL
REMARK 922        TOTAL FREE ENERGY PREDICTED BY IDOCK:   -6.13 KCAL/MOL
REMARK 923 INTER-LIGAND FREE ENERGY PREDICTED BY IDOCK:   -5.75 KCAL/MOL
REMARK 924 INTRA-LIGAND FREE ENERGY PREDICTED BY IDOCK:   -0.38 KCAL/MOL
REMARK 927      BINDING AFFINITY PREDICTED BY RF-SCORE:    0.00 PKD
ROOT
HETATM    1  C   UNL     1     -11.693   5.715  72.496  1.00  0.00    -0.255 C  
HETATM    2  C   UNL     1     -11.669   7.147  72.027  1.00  0.00    -0.289 C  
HETATM    3  C   UNL     1     -11.224   7.512  70.803  1.00  0.00    -0.287 C  
HETATM    4  O   UNL     1     -12.154   8.085  72.939  1.00  0.00    -0.619 OA 
HETATM    5  N   UNL     1     -10.422   5.635  69.206  1.00  0.00    -0.269 NA 
HETATM    6  C   UNL     1     -10.770   6.506  69.891  1.00  0.00    -0.257 C  
HETATM    7  H   UNL     1     -12.139   8.989  72.644  1.00  0.00     0.000 HD 
ENDROOT
BRANCH   3   8
HETATM    8  C   UNL     1     -11.146   8.916  70.285  1.00  0.00    -0.228 C  
HETATM    9  O   UNL     1     -10.819   9.820  71.053  1.00  0.00    -0.326 OA 
HETATM   10  N   UNL     1     -11.386   9.095  68.936  1.00  0.00    -0.322 N  
HETATM   11  H   UNL     1     -11.656   8.286  68.378  1.00  0.00     0.000 HD 
BRANCH  10  12
HETATM   12  C   UNL     1     -11.273  10.343  68.300  1.00  0.00    -0.267 A  
HETATM   13  C   UNL     1     -10.350  10.491  67.266  1.00  0.00    -0.275 A  
HETATM   14  C   UNL     1     -10.089  11.760  66.739  1.00  0.00    -0.235 A  
HETATM   15  C   UNL     1     -10.796  12.884  67.197  1.00  0.00    -0.278 A  
HETATM   16  C   UNL     1     -10.466  14.274  66.718  1.00  0.00    -0.273 C  
HETATM   17  C   UNL     1     -11.806  12.703  68.153  1.00  0.00    -0.366 A  
HETATM   18  F   UNL     1     -11.493  14.856  66.042  1.00  0.00    -0.346 F  
HETATM   19  F   UNL     1      -9.390  14.323  65.884  1.00  0.00    -0.277 F  
HETATM   20  C   UNL     1     -12.034  11.444  68.706  1.00  0.00    -0.353 A  
HETATM   21  F   UNL     1     -10.172  15.122  67.745  1.00  0.00    -0.229 F  
ENDBRANCH  10  12
ENDBRANCH   3   8
TORSDOF 2
ENDMDL
MODEL       75
REMARK 921   NORMALIZED FREE ENERGY PREDICTED BY IDOCK:   -4.95 KCAL/MOL
REMARK 922        TOTAL FREE ENERGY PREDICTED BY IDOCK:   -6.12 KCAL/MOL
REMARK 923 INTER-LIGAND FREE ENERGY PREDICTED BY IDOCK:   -5.89 KCAL/MOL
REMARK 924 INTRA-LIGAND FREE ENERGY PREDICTED BY IDOCK:   -0.24 KCAL/MOL
REMARK 927      BINDING AFFINITY PREDICTED BY RF-SCORE:    0.00 PKD
ROOT
HETATM    1  C   UNL     1      -9.414   3.256  65.939  1.00  0.00    -0.087 C  
HETATM    2  C   UNL     1     -10.138   4.578  65.948  1.00  0.00    -0.258 C  
HETATM    3  C   UNL     1      -9.588   5.713  66.436  1.00  0.00    -0.175 C  
HETATM    4  O   UNL     1     -11.422   4.564  65.401  1.00  0.00    -0.985 OA 
HETATM    5  N   UNL     1      -7.167   5.580  67.351  1.00  0.00    -0.074 NA 
HETATM    6  C   UNL     1      -8.253   5.682  66.952  1.00  0.00    -0.105 C  
HETATM    7  H   UNL     1     -11.879   5.397  65.407  1.00  0.00     0.000 HD 
ENDROOT
BRANCH   3   8
HETATM    8  C   UNL     1     -10.260   7.052  66.501  1.00  0.00    -0.057 C  
HETATM    9  O   UNL     1     -11.399   7.128  66.960  1.00  0.00    -0.153 OA 
HETATM   10  N   UNL     1      -9.514   8.142  66.097  1.00  0.00    -0.372 N  
HETATM   11  H   UNL     1      -8.578   7.981  65.725  1.00  0.00     0.000 HD 
BRANCH  10  12
HETATM   12  C   UNL     1      -9.988   9.463  66.176  1.00  0.00    -0.281 A  
HETATM   13  C   UNL     1     -10.517   9.918  67.382  1.00  0.00    -0.325 A  
HETATM   14  C   UNL     1     -11.157  11.160  67.439  1.00  0.00    -0.370 A  
HETATM   15  C   UNL     1     -11.217  11.987  66.306  1.00  0.00    -0.394 A  
HETATM   16  C   UNL     1     -11.985  13.283  66.314  1.00  0.00    -0.417 C  
HETATM   17  C   UNL     1     -10.576  11.569  65.131  1.00  0.00    -0.350 A  
HETATM   18  F   UNL     1     -11.188  14.369  66.119  1.00  0.00    -0.312 F  
HETATM   19  F   UNL     1     -12.657  13.513  67.476  1.00  0.00    -0.263 F  
HETATM   20  C   UNL     1      -9.977  10.312  65.065  1.00  0.00    -0.393 A  
HETATM   21  F   UNL     1     -12.928  13.336  65.329  1.00  0.00    -0.517 F  
ENDBRANCH  10  12
ENDBRANCH   3   8
TORSDOF 2
ENDMDL
MODEL       76
REMARK 921   NORMALIZED FREE ENERGY PREDICTED BY IDOCK:   -4.93 KCAL/MOL
REMARK 922        TOTAL FREE ENERGY PREDICTED BY IDOCK:   -6.10 KCAL/MOL
REMARK 923 INTER-LIGAND FREE ENERGY PREDICTED BY IDOCK:   -5.60 KCAL/MOL
REMARK 924 INTRA-LIGAND FREE ENERGY PREDICTED BY IDOCK:   -0.49 KCAL/MOL
REMARK 927      BINDING AFFINITY PREDICTED BY RF-SCORE:    0.00 PKD
ROOT
HETATM    1  C   UNL     1     -10.155  19.825  69.160  1.00  0.00    -0.372 C  
HETATM    2  C   UNL     1      -9.972  18.494  68.477  1.00  0.00    -0.384 C  
HETATM    3  C   UNL     1      -9.297  18.352  67.314  1.00  0.00    -0.271 C  
HETATM    4  O   UNL     1     -10.535  17.399  69.134  1.00  0.00    -0.341 OA 
HETATM    5  N   UNL     1      -8.253  20.478  66.262  1.00  0.00    -0.012 NA 
HETATM    6  C   UNL     1      -8.706  19.502  66.699  1.00  0.00    -0.342 C  
HETATM    7  H   UNL     1     -10.420  16.559  68.704  1.00  0.00     0.000 HD 
ENDROOT
BRANCH   3   8
HETATM    8  C   UNL     1      -9.102  17.066  66.568  1.00  0.00    -0.264 C  
HETATM    9  O   UNL     1      -8.097  16.924  65.874  1.00  0.00    -0.453 OA 
HETATM   10  N   UNL     1     -10.049  16.081  66.770  1.00  0.00    -0.260 N  
HETATM   11  H   UNL     1     -10.853  16.292  67.361  1.00  0.00     0.000 HD 
BRANCH  10  12
HETATM   12  C   UNL     1      -9.953  14.801  66.198  1.00  0.00    -0.304 A  
HETATM   13  C   UNL     1     -10.554  14.568  64.962  1.00  0.00    -0.458 A  
HETATM   14  C   UNL     1     -10.630  13.267  64.456  1.00  0.00    -0.437 A  
HETATM   15  C   UNL     1     -10.047  12.194  65.151  1.00  0.00    -0.288 A  
HETATM   16  C   UNL     1     -10.200  10.771  64.679  1.00  0.00    -0.350 C  
HETATM   17  C   UNL     1      -9.341  12.459  66.333  1.00  0.00    -0.219 A  
HETATM   18  F   UNL     1      -9.012  10.199  64.341  1.00  0.00    -0.174 F  
HETATM   19  F   UNL     1     -11.005  10.641  63.589  1.00  0.00    -0.221 F  
HETATM   20  C   UNL     1      -9.305  13.751  66.856  1.00  0.00    -0.267 A  
HETATM   21  F   UNL     1     -10.742   9.962  65.634  1.00  0.00    -0.187 F  
ENDBRANCH  10  12
ENDBRANCH   3   8
TORSDOF 2
ENDMDL
MODEL       77
REMARK 921   NORMALIZED FREE ENERGY PREDICTED BY IDOCK:   -4.90 KCAL/MOL
REMARK 922        TOTAL FREE ENERGY PREDICTED BY IDOCK:   -6.07 KCAL/MOL
REMARK 923 INTER-LIGAND FREE ENERGY PREDICTED BY IDOCK:   -5.48 KCAL/MOL
REMARK 924 INTRA-LIGAND FREE ENERGY PREDICTED BY IDOCK:   -0.58 KCAL/MOL
REMARK 927      BINDING AFFINITY PREDICTED BY RF-SCORE:    0.00 PKD
ROOT
HETATM    1  C   UNL     1      -7.949   8.059  63.958  1.00  0.00    -0.134 C  
HETATM    2  C   UNL     1      -8.253   8.668  65.302  1.00  0.00    -0.147 C  
HETATM    3  C   UNL     1      -9.023   9.770  65.452  1.00  0.00    -0.229 C  
HETATM    4  O   UNL     1      -7.697   8.010  66.400  1.00  0.00    -0.089 OA 
HETATM    5  N   UNL     1     -10.036  10.829  63.315  1.00  0.00    -0.332 NA 
HETATM    6  C   UNL     1      -9.600  10.387  64.296  1.00  0.00    -0.318 C  
HETATM    7  H   UNL     1      -7.888   8.394  67.248  1.00  0.00     0.000 HD 
ENDROOT
BRANCH   3   8
HETATM    8  C   UNL     1      -9.341  10.443  66.753  1.00  0.00    -0.156 C  
HETATM    9  O   UNL     1      -8.443  10.607  67.577  1.00  0.00    -0.121 OA 
HETATM   10  N   UNL     1     -10.633  10.905  66.914  1.00  0.00    -0.250 N  
HETATM   11  H   UNL     1     -11.313  10.718  66.177  1.00  0.00     0.000 HD 
BRANCH  10  12
HETATM   12  C   UNL     1     -11.052  11.621  68.049  1.00  0.00    -0.242 A  
HETATM   13  C   UNL     1     -11.523  10.916  69.155  1.00  0.00    -0.373 A  
HETATM   14  C   UNL     1     -12.111  11.603  70.221  1.00  0.00    -0.443 A  
HETATM   15  C   UNL     1     -12.175  13.006  70.221  1.00  0.00    -0.368 A  
HETATM   16  C   UNL     1     -12.891  13.764  71.309  1.00  0.00    -0.357 C  
HETATM   17  C   UNL     1     -11.590  13.708  69.158  1.00  0.00    -0.356 A  
HETATM   18  F   UNL     1     -12.058  14.566  72.027  1.00  0.00    -0.373 F  
HETATM   19  F   UNL     1     -13.515  12.962  72.214  1.00  0.00    -0.558 F  
HETATM   20  C   UNL     1     -11.043  13.019  68.076  1.00  0.00    -0.288 A  
HETATM   21  F   UNL     1     -13.862  14.587  70.817  1.00  0.00    -0.350 F  
ENDBRANCH  10  12
ENDBRANCH   3   8
TORSDOF 2
ENDMDL
MODEL       78
REMARK 921   NORMALIZED FREE ENERGY PREDICTED BY IDOCK:   -4.90 KCAL/MOL
REMARK 922        TOTAL FREE ENERGY PREDICTED BY IDOCK:   -6.06 KCAL/MOL
REMARK 923 INTER-LIGAND FREE ENERGY PREDICTED BY IDOCK:   -5.60 KCAL/MOL
REMARK 924 INTRA-LIGAND FREE ENERGY PREDICTED BY IDOCK:   -0.47 KCAL/MOL
REMARK 927      BINDING AFFINITY PREDICTED BY RF-SCORE:    0.00 PKD
ROOT
HETATM    1  C   UNL     1     -10.092   7.944  69.188  1.00  0.00    -0.197 C  
HETATM    2  C   UNL     1     -10.135   9.274  68.480  1.00  0.00    -0.190 C  
HETATM    3  C   UNL     1     -10.814  10.340  68.963  1.00  0.00    -0.265 C  
HETATM    4  O   UNL     1      -9.413   9.345  67.289  1.00  0.00    -0.129 OA 
HETATM    5  N   UNL     1     -12.047  10.058  71.225  1.00  0.00    -0.367 NA 
HETATM    6  C   UNL     1     -11.510  10.226  70.209  1.00  0.00    -0.317 C  
HETATM    7  H   UNL     1      -9.440  10.183  66.842  1.00  0.00     0.000 HD 
ENDROOT
BRANCH   3   8
HETATM    8  C   UNL     1     -10.922  11.679  68.298  1.00  0.00    -0.226 C  
HETATM    9  O   UNL     1     -11.980  11.994  67.756  1.00  0.00    -0.538 OA 
HETATM   10  N   UNL     1      -9.827  12.515  68.402  1.00  0.00    -0.282 N  
HETATM   11  H   UNL     1      -8.990  12.165  68.868  1.00  0.00     0.000 HD 
BRANCH  10  12
HETATM   12  C   UNL     1      -9.816  13.826  67.895  1.00  0.00    -0.232 A  
HETATM   13  C   UNL     1     -10.317  14.859  68.686  1.00  0.00    -0.237 A  
HETATM   14  C   UNL     1     -10.485  16.136  68.142  1.00  0.00    -0.279 A  
HETATM   15  C   UNL     1     -10.092  16.409  66.821  1.00  0.00    -0.287 A  
HETATM   16  C   UNL     1     -10.353  17.747  66.180  1.00  0.00    -0.340 C  
HETATM   17  C   UNL     1      -9.479  15.391  66.076  1.00  0.00    -0.381 A  
HETATM   18  F   UNL     1      -9.208  18.401  65.845  1.00  0.00    -0.228 F  
HETATM   19  F   UNL     1     -11.059  18.603  66.970  1.00  0.00    -0.406 F  
HETATM   20  C   UNL     1      -9.353  14.108  66.606  1.00  0.00    -0.299 A  
HETATM   21  F   UNL     1     -11.069  17.640  65.024  1.00  0.00    -0.396 F  
ENDBRANCH  10  12
ENDBRANCH   3   8
TORSDOF 2
ENDMDL
MODEL       79
REMARK 921   NORMALIZED FREE ENERGY PREDICTED BY IDOCK:   -4.89 KCAL/MOL
REMARK 922        TOTAL FREE ENERGY PREDICTED BY IDOCK:   -6.06 KCAL/MOL
REMARK 923 INTER-LIGAND FREE ENERGY PREDICTED BY IDOCK:   -5.56 KCAL/MOL
REMARK 924 INTRA-LIGAND FREE ENERGY PREDICTED BY IDOCK:   -0.50 KCAL/MOL
REMARK 927      BINDING AFFINITY PREDICTED BY RF-SCORE:    0.00 PKD
ROOT
HETATM    1  C   UNL     1     -11.150  16.380  68.127  1.00  0.00    -0.320 C  
HETATM    2  C   UNL     1     -11.498  14.998  68.617  1.00  0.00    -0.311 C  
HETATM    3  C   UNL     1     -10.866  13.884  68.182  1.00  0.00    -0.262 C  
HETATM    4  O   UNL     1     -12.515  14.937  69.571  1.00  0.00    -0.539 OA 
HETATM    5  N   UNL     1      -8.952  14.181  66.461  1.00  0.00    -0.171 NA 
HETATM    6  C   UNL     1      -9.804  14.004  67.230  1.00  0.00    -0.242 C  
HETATM    7  H   UNL     1     -12.735  14.065  69.880  1.00  0.00     0.000 HD 
ENDROOT
BRANCH   3   8
HETATM    8  C   UNL     1     -11.180  12.480  68.606  1.00  0.00    -0.278 C  
HETATM    9  O   UNL     1     -12.286  12.009  68.344  1.00  0.00    -0.373 OA 
HETATM   10  N   UNL     1     -10.161  11.772  69.213  1.00  0.00    -0.416 N  
HETATM   11  H   UNL     1      -9.277  12.248  69.394  1.00  0.00     0.000 HD 
BRANCH  10  12
HETATM   12  C   UNL     1     -10.289  10.425  69.592  1.00  0.00    -0.226 A  
HETATM   13  C   UNL     1     -10.136   9.435  68.623  1.00  0.00    -0.208 A  
HETATM   14  C   UNL     1     -10.434   8.104  68.931  1.00  0.00    -0.202 A  
HETATM   15  C   UNL     1     -10.825   7.740  70.231  1.00  0.00    -0.252 A  
HETATM   16  C   UNL     1     -11.247   6.333  70.564  1.00  0.00    -0.354 C  
HETATM   17  C   UNL     1     -10.859   8.728  71.226  1.00  0.00    -0.347 A  
HETATM   18  F   UNL     1     -10.424   5.738  71.470  1.00  0.00    -0.244 F  
HETATM   19  F   UNL     1     -11.282   5.503  69.485  1.00  0.00    -0.394 F  
HETATM   20  C   UNL     1     -10.603  10.060  70.905  1.00  0.00    -0.125 A  
HETATM   21  F   UNL     1     -12.496   6.280  71.109  1.00  0.00    -0.291 F  
ENDBRANCH  10  12
ENDBRANCH   3   8
TORSDOF 2
ENDMDL
MODEL       80
REMARK 921   NORMALIZED FREE ENERGY PREDICTED BY IDOCK:   -4.89 KCAL/MOL
REMARK 922        TOTAL FREE ENERGY PREDICTED BY IDOCK:   -6.06 KCAL/MOL
REMARK 923 INTER-LIGAND FREE ENERGY PREDICTED BY IDOCK:   -5.56 KCAL/MOL
REMARK 924 INTRA-LIGAND FREE ENERGY PREDICTED BY IDOCK:   -0.49 KCAL/MOL
REMARK 927      BINDING AFFINITY PREDICTED BY RF-SCORE:    0.00 PKD
ROOT
HETATM    1  C   UNL     1     -10.166   5.217  67.014  1.00  0.00    -0.265 C  
HETATM    2  C   UNL     1     -10.014   6.714  66.943  1.00  0.00    -0.180 C  
HETATM    3  C   UNL     1     -10.356   7.536  67.962  1.00  0.00    -0.254 C  
HETATM    4  O   UNL     1      -9.479   7.208  65.753  1.00  0.00    -0.390 OA 
HETATM    5  N   UNL     1     -11.271   6.449  70.129  1.00  0.00    -0.359 NA 
HETATM    6  C   UNL     1     -10.867   6.976  69.177  1.00  0.00    -0.195 C  
HETATM    7  H   UNL     1      -9.384   8.153  65.708  1.00  0.00     0.000 HD 
ENDROOT
BRANCH   3   8
HETATM    8  C   UNL     1     -10.258   9.032  67.948  1.00  0.00    -0.221 C  
HETATM    9  O   UNL     1      -9.190   9.559  67.641  1.00  0.00    -0.125 OA 
HETATM   10  N   UNL     1     -11.418   9.733  68.217  1.00  0.00    -0.479 N  
HETATM   11  H   UNL     1     -12.257   9.210  68.466  1.00  0.00     0.000 HD 
BRANCH  10  12
HETATM   12  C   UNL     1     -11.492  11.135  68.164  1.00  0.00    -0.303 A  
HETATM   13  C   UNL     1     -11.492  11.763  66.919  1.00  0.00    -0.364 A  
HETATM   14  C   UNL     1     -11.384  13.155  66.840  1.00  0.00    -0.355 A  
HETATM   15  C   UNL     1     -11.339  13.937  68.005  1.00  0.00    -0.317 A  
HETATM   16  C   UNL     1     -11.121  15.427  67.948  1.00  0.00    -0.323 C  
HETATM   17  C   UNL     1     -11.460  13.302  69.249  1.00  0.00    -0.345 A  
HETATM   18  F   UNL     1     -12.179  16.132  68.435  1.00  0.00    -0.209 F  
HETATM   19  F   UNL     1     -10.901  15.900  66.690  1.00  0.00    -0.316 F  
HETATM   20  C   UNL     1     -11.525  11.912  69.326  1.00  0.00    -0.366 A  
HETATM   21  F   UNL     1     -10.043  15.825  68.684  1.00  0.00    -0.198 F  
ENDBRANCH  10  12
ENDBRANCH   3   8
TORSDOF 2
ENDMDL
MODEL       81
REMARK 921   NORMALIZED FREE ENERGY PREDICTED BY IDOCK:   -4.86 KCAL/MOL
REMARK 922        TOTAL FREE ENERGY PREDICTED BY IDOCK:   -6.03 KCAL/MOL
REMARK 923 INTER-LIGAND FREE ENERGY PREDICTED BY IDOCK:   -5.44 KCAL/MOL
REMARK 924 INTRA-LIGAND FREE ENERGY PREDICTED BY IDOCK:   -0.59 KCAL/MOL
REMARK 927      BINDING AFFINITY PREDICTED BY RF-SCORE:    0.00 PKD
ROOT
HETATM    1  C   UNL     1      -9.602  20.681  67.176  1.00  0.00    -0.534 C  
HETATM    2  C   UNL     1      -9.922  19.256  67.546  1.00  0.00    -0.365 C  
HETATM    3  C   UNL     1      -9.211  18.201  67.087  1.00  0.00    -0.256 C  
HETATM    4  O   UNL     1     -11.001  19.088  68.415  1.00  0.00    -0.215 OA 
HETATM    5  N   UNL     1      -7.194  18.693  65.536  1.00  0.00    -0.525 NA 
HETATM    6  C   UNL     1      -8.090  18.429  66.226  1.00  0.00    -0.221 C  
HETATM    7  H   UNL     1     -11.203  18.189  68.649  1.00  0.00     0.000 HD 
ENDROOT
BRANCH   3   8
HETATM    8  C   UNL     1      -9.491  16.760  67.392  1.00  0.00    -0.236 C  
HETATM    9  O   UNL     1     -10.040  16.469  68.453  1.00  0.00    -0.236 OA 
HETATM   10  N   UNL     1      -9.170  15.843  66.409  1.00  0.00    -0.279 N  
HETATM   11  H   UNL     1      -8.712  16.178  65.561  1.00  0.00     0.000 HD 
BRANCH  10  12
HETATM   12  C   UNL     1      -9.447  14.470  66.526  1.00  0.00    -0.289 A  
HETATM   13  C   UNL     1      -8.501  13.641  67.126  1.00  0.00    -0.186 A  
HETATM   14  C   UNL     1      -8.669  12.253  67.094  1.00  0.00    -0.193 A  
HETATM   15  C   UNL     1      -9.817  11.684  66.519  1.00  0.00    -0.228 A  
HETATM   16  C   UNL     1      -9.976  10.192  66.383  1.00  0.00    -0.234 C  
HETATM   17  C   UNL     1     -10.817  12.535  66.026  1.00  0.00    -0.309 A  
HETATM   18  F   UNL     1     -11.027   9.707  67.099  1.00  0.00    -0.321 F  
HETATM   19  F   UNL     1      -8.885   9.487  66.791  1.00  0.00    -0.126 F  
HETATM   20  C   UNL     1     -10.627  13.916  66.021  1.00  0.00    -0.293 A  
HETATM   21  F   UNL     1     -10.199   9.808  65.093  1.00  0.00    -0.390 F  
ENDBRANCH  10  12
ENDBRANCH   3   8
TORSDOF 2
ENDMDL
MODEL       82
REMARK 921   NORMALIZED FREE ENERGY PREDICTED BY IDOCK:   -4.84 KCAL/MOL
REMARK 922        TOTAL FREE ENERGY PREDICTED BY IDOCK:   -6.00 KCAL/MOL
REMARK 923 INTER-LIGAND FREE ENERGY PREDICTED BY IDOCK:   -5.47 KCAL/MOL
REMARK 924 INTRA-LIGAND FREE ENERGY PREDICTED BY IDOCK:   -0.53 KCAL/MOL
REMARK 927      BINDING AFFINITY PREDICTED BY RF-SCORE:    0.00 PKD
ROOT
HETATM    1  C   UNL     1     -12.207  14.433  64.586  1.00  0.00    -0.479 C  
HETATM    2  C   UNL     1     -12.025  13.135  65.330  1.00  0.00    -0.406 C  
HETATM    3  C   UNL     1     -11.784  13.079  66.660  1.00  0.00    -0.438 C  
HETATM    4  O   UNL     1     -12.137  11.979  64.558  1.00  0.00    -0.328 OA 
HETATM    5  N   UNL     1     -11.675  15.320  67.959  1.00  0.00    -0.314 NA 
HETATM    6  C   UNL     1     -11.714  14.294  67.414  1.00  0.00    -0.394 C  
HETATM    7  H   UNL     1     -12.023  11.160  65.027  1.00  0.00     0.000 HD 
ENDROOT
BRANCH   3   8
HETATM    8  C   UNL     1     -11.566  11.828  67.456  1.00  0.00    -0.291 C  
HETATM    9  O   UNL     1     -12.358  11.543  68.352  1.00  0.00    -0.461 OA 
HETATM   10  N   UNL     1     -10.507  11.026  67.076  1.00  0.00    -0.228 N  
HETATM   11  H   UNL     1      -9.898  11.347  66.322  1.00  0.00     0.000 HD 
BRANCH  10  12
HETATM   12  C   UNL     1     -10.230   9.788  67.681  1.00  0.00    -0.213 A  
HETATM   13  C   UNL     1     -10.630   8.619  67.037  1.00  0.00    -0.293 A  
HETATM   14  C   UNL     1     -10.530   7.390  67.697  1.00  0.00    -0.310 A  
HETATM   15  C   UNL     1      -9.970   7.311  68.982  1.00  0.00    -0.177 A  
HETATM   16  C   UNL     1      -9.942   6.017  69.754  1.00  0.00    -0.175 C  
HETATM   17  C   UNL     1      -9.462   8.478  69.570  1.00  0.00    -0.165 A  
HETATM   18  F   UNL     1      -8.677   5.583  70.009  1.00  0.00    -0.118 F  
HETATM   19  F   UNL     1     -10.571   4.989  69.120  1.00  0.00    -0.274 F  
HETATM   20  C   UNL     1      -9.602   9.708  68.928  1.00  0.00    -0.161 A  
HETATM   21  F   UNL     1     -10.548   6.123  70.971  1.00  0.00    -0.246 F  
ENDBRANCH  10  12
ENDBRANCH   3   8
TORSDOF 2
ENDMDL
MODEL       83
REMARK 921   NORMALIZED FREE ENERGY PREDICTED BY IDOCK:   -4.82 KCAL/MOL
REMARK 922        TOTAL FREE ENERGY PREDICTED BY IDOCK:   -5.98 KCAL/MOL
REMARK 923 INTER-LIGAND FREE ENERGY PREDICTED BY IDOCK:   -5.39 KCAL/MOL
REMARK 924 INTRA-LIGAND FREE ENERGY PREDICTED BY IDOCK:   -0.59 KCAL/MOL
REMARK 927      BINDING AFFINITY PREDICTED BY RF-SCORE:    0.00 PKD
ROOT
HETATM    1  C   UNL     1     -10.241   5.634  66.920  1.00  0.00    -0.272 C  
HETATM    2  C   UNL     1     -10.645   6.943  67.549  1.00  0.00    -0.281 C  
HETATM    3  C   UNL     1     -10.206   8.140  67.099  1.00  0.00    -0.366 C  
HETATM    4  O   UNL     1     -11.523   6.845  68.629  1.00  0.00    -0.525 OA 
HETATM    5  N   UNL     1      -8.633   8.149  65.039  1.00  0.00    -0.105 NA 
HETATM    6  C   UNL     1      -9.334   8.189  65.964  1.00  0.00    -0.117 C  
HETATM    7  H   UNL     1     -11.778   7.670  69.026  1.00  0.00     0.000 HD 
ENDROOT
BRANCH   3   8
HETATM    8  C   UNL     1     -10.544   9.474  67.694  1.00  0.00    -0.269 C  
HETATM    9  O   UNL     1     -10.877   9.535  68.877  1.00  0.00    -0.215 OA 
HETATM   10  N   UNL     1     -10.390  10.577  66.876  1.00  0.00    -0.229 N  
HETATM   11  H   UNL     1     -10.113  10.428  65.905  1.00  0.00     0.000 HD 
BRANCH  10  12
HETATM   12  C   UNL     1     -10.596  11.893  67.322  1.00  0.00    -0.228 A  
HETATM   13  C   UNL     1      -9.605  12.510  68.083  1.00  0.00    -0.215 A  
HETATM   14  C   UNL     1      -9.858  13.745  68.689  1.00  0.00    -0.158 A  
HETATM   15  C   UNL     1     -11.080  14.406  68.485  1.00  0.00    -0.270 A  
HETATM   16  C   UNL     1     -11.416  15.687  69.204  1.00  0.00    -0.359 C  
HETATM   17  C   UNL     1     -12.022  13.830  67.621  1.00  0.00    -0.392 A  
HETATM   18  F   UNL     1     -11.583  16.738  68.356  1.00  0.00    -0.292 F  
HETATM   19  F   UNL     1     -10.467  16.073  70.102  1.00  0.00    -0.276 F  
HETATM   20  C   UNL     1     -11.785  12.579  67.053  1.00  0.00    -0.437 A  
HETATM   21  F   UNL     1     -12.577  15.597  69.914  1.00  0.00    -0.382 F  
ENDBRANCH  10  12
ENDBRANCH   3   8
TORSDOF 2
ENDMDL
MODEL       84
REMARK 921   NORMALIZED FREE ENERGY PREDICTED BY IDOCK:   -4.81 KCAL/MOL
REMARK 922        TOTAL FREE ENERGY PREDICTED BY IDOCK:   -5.96 KCAL/MOL
REMARK 923 INTER-LIGAND FREE ENERGY PREDICTED BY IDOCK:   -5.50 KCAL/MOL
REMARK 924 INTRA-LIGAND FREE ENERGY PREDICTED BY IDOCK:   -0.46 KCAL/MOL
REMARK 927      BINDING AFFINITY PREDICTED BY RF-SCORE:    0.00 PKD
ROOT
HETATM    1  C   UNL     1      -9.286   4.089  69.582  1.00  0.00    -0.243 C  
HETATM    2  C   UNL     1      -9.727   5.061  68.518  1.00  0.00    -0.154 C  
HETATM    3  C   UNL     1      -9.834   6.391  68.738  1.00  0.00    -0.152 C  
HETATM    4  O   UNL     1     -10.009   4.501  67.271  1.00  0.00    -0.188 OA 
HETATM    5  N   UNL     1      -9.206   7.276  71.092  1.00  0.00    -0.156 NA 
HETATM    6  C   UNL     1      -9.498   6.921  70.025  1.00  0.00    -0.158 C  
HETATM    7  H   UNL     1     -10.287   5.114  66.600  1.00  0.00     0.000 HD 
ENDROOT
BRANCH   3   8
HETATM    8  C   UNL     1     -10.293   7.408  67.736  1.00  0.00    -0.213 C  
HETATM    9  O   UNL     1     -11.114   7.079  66.882  1.00  0.00    -0.359 OA 
HETATM   10  N   UNL     1      -9.804   8.692  67.886  1.00  0.00    -0.166 N  
HETATM   11  H   UNL     1      -9.121   8.871  68.622  1.00  0.00     0.000 HD 
BRANCH  10  12
HETATM   12  C   UNL     1     -10.206   9.762  67.068  1.00  0.00    -0.229 A  
HETATM   13  C   UNL     1     -10.919  10.815  67.638  1.00  0.00    -0.365 A  
HETATM   14  C   UNL     1     -11.485  11.798  66.821  1.00  0.00    -0.352 A  
HETATM   15  C   UNL     1     -11.289  11.773  65.430  1.00  0.00    -0.284 A  
HETATM   16  C   UNL     1     -11.968  12.762  64.519  1.00  0.00    -0.393 C  
HETATM   17  C   UNL     1     -10.469  10.776  64.882  1.00  0.00    -0.324 A  
HETATM   18  F   UNL     1     -11.087  13.561  63.859  1.00  0.00    -0.373 F  
HETATM   19  F   UNL     1     -12.827  13.599  65.164  1.00  0.00    -0.455 F  
HETATM   20  C   UNL     1      -9.943   9.773  65.695  1.00  0.00    -0.352 A  
HETATM   21  F   UNL     1     -12.710  12.152  63.550  1.00  0.00    -0.586 F  
ENDBRANCH  10  12
ENDBRANCH   3   8
TORSDOF 2
ENDMDL
MODEL       85
REMARK 921   NORMALIZED FREE ENERGY PREDICTED BY IDOCK:   -4.77 KCAL/MOL
REMARK 922        TOTAL FREE ENERGY PREDICTED BY IDOCK:   -5.92 KCAL/MOL
REMARK 923 INTER-LIGAND FREE ENERGY PREDICTED BY IDOCK:   -5.33 KCAL/MOL
REMARK 924 INTRA-LIGAND FREE ENERGY PREDICTED BY IDOCK:   -0.59 KCAL/MOL
REMARK 927      BINDING AFFINITY PREDICTED BY RF-SCORE:    0.00 PKD
ROOT
HETATM    1  C   UNL     1     -10.512   7.220  68.073  1.00  0.00    -0.249 C  
HETATM    2  C   UNL     1     -10.423   8.611  67.501  1.00  0.00    -0.266 C  
HETATM    3  C   UNL     1     -10.412   9.722  68.272  1.00  0.00    -0.255 C  
HETATM    4  O   UNL     1     -10.337   8.685  66.110  1.00  0.00    -0.382 OA 
HETATM    5  N   UNL     1     -10.508   9.405  70.842  1.00  0.00    -0.288 NA 
HETATM    6  C   UNL     1     -10.465   9.591  69.697  1.00  0.00    -0.223 C  
HETATM    7  H   UNL     1     -10.281   9.562  65.749  1.00  0.00     0.000 HD 
ENDROOT
BRANCH   3   8
HETATM    8  C   UNL     1     -10.354  11.134  67.769  1.00  0.00    -0.187 C  
HETATM    9  O   UNL     1     -10.491  11.346  66.565  1.00  0.00    -0.231 OA 
HETATM   10  N   UNL     1     -10.218  12.127  68.719  1.00  0.00    -0.381 N  
HETATM   11  H   UNL     1     -10.106  11.855  69.696  1.00  0.00     0.000 HD 
BRANCH  10  12
HETATM   12  C   UNL     1     -10.227  13.496  68.400  1.00  0.00    -0.245 A  
HETATM   13  C   UNL     1      -9.070  14.073  67.879  1.00  0.00    -0.188 A  
HETATM   14  C   UNL     1      -8.993  15.461  67.723  1.00  0.00    -0.173 A  
HETATM   15  C   UNL     1     -10.095  16.278  68.024  1.00  0.00    -0.245 A  
HETATM   16  C   UNL     1     -10.005  17.781  67.959  1.00  0.00    -0.333 C  
HETATM   17  C   UNL     1     -11.292  15.672  68.433  1.00  0.00    -0.365 A  
HETATM   18  F   UNL     1     -10.835  18.317  67.023  1.00  0.00    -0.392 F  
HETATM   19  F   UNL     1      -8.758  18.241  67.665  1.00  0.00    -0.247 F  
HETATM   20  C   UNL     1     -11.352  14.293  68.629  1.00  0.00    -0.302 A  
HETATM   21  F   UNL     1     -10.347  18.374  69.139  1.00  0.00    -0.377 F  
ENDBRANCH  10  12
ENDBRANCH   3   8
TORSDOF 2
ENDMDL
MODEL       86
REMARK 921   NORMALIZED FREE ENERGY PREDICTED BY IDOCK:   -4.74 KCAL/MOL
REMARK 922        TOTAL FREE ENERGY PREDICTED BY IDOCK:   -5.88 KCAL/MOL
REMARK 923 INTER-LIGAND FREE ENERGY PREDICTED BY IDOCK:   -5.31 KCAL/MOL
REMARK 924 INTRA-LIGAND FREE ENERGY PREDICTED BY IDOCK:   -0.58 KCAL/MOL
REMARK 927      BINDING AFFINITY PREDICTED BY RF-SCORE:    0.00 PKD
ROOT
HETATM    1  C   UNL     1     -10.470   4.638  71.641  1.00  0.00    -0.123 C  
HETATM    2  C   UNL     1     -10.451   5.973  70.942  1.00  0.00    -0.236 C  
HETATM    3  C   UNL     1     -10.387   7.149  71.607  1.00  0.00    -0.215 C  
HETATM    4  O   UNL     1     -10.489   5.922  69.548  1.00  0.00    -0.221 OA 
HETATM    5  N   UNL     1     -10.253   7.062  74.194  1.00  0.00    -0.312 NA 
HETATM    6  C   UNL     1     -10.313   7.146  73.037  1.00  0.00    -0.271 C  
HETATM    7  H   UNL     1     -10.477   6.764  69.107  1.00  0.00     0.000 HD 
ENDROOT
BRANCH   3   8
HETATM    8  C   UNL     1     -10.393   8.510  70.978  1.00  0.00    -0.209 C  
HETATM    9  O   UNL     1      -9.476   9.289  71.230  1.00  0.00    -0.262 OA 
HETATM   10  N   UNL     1     -11.413   8.777  70.085  1.00  0.00    -0.454 N  
HETATM   11  H   UNL     1     -12.134   8.070  69.943  1.00  0.00     0.000 HD 
BRANCH  10  12
HETATM   12  C   UNL     1     -11.501   9.981  69.364  1.00  0.00    -0.083 A  
HETATM   13  C   UNL     1     -10.974  10.034  68.075  1.00  0.00    -0.296 A  
HETATM   14  C   UNL     1     -10.886  11.259  67.407  1.00  0.00    -0.311 A  
HETATM   15  C   UNL     1     -11.383  12.433  67.997  1.00  0.00    -0.340 A  
HETATM   16  C   UNL     1     -11.211  13.780  67.343  1.00  0.00    -0.310 C  
HETATM   17  C   UNL     1     -12.018  12.345  69.244  1.00  0.00    -0.308 A  
HETATM   18  F   UNL     1     -12.397  14.357  67.009  1.00  0.00    -0.435 F  
HETATM   19  F   UNL     1     -10.475  13.741  66.198  1.00  0.00    -0.278 F  
HETATM   20  C   UNL     1     -12.066  11.130  69.925  1.00  0.00    -0.418 A  
HETATM   21  F   UNL     1     -10.579  14.676  68.155  1.00  0.00    -0.227 F  
ENDBRANCH  10  12
ENDBRANCH   3   8
TORSDOF 2
ENDMDL
MODEL       87
REMARK 921   NORMALIZED FREE ENERGY PREDICTED BY IDOCK:   -4.73 KCAL/MOL
REMARK 922        TOTAL FREE ENERGY PREDICTED BY IDOCK:   -5.88 KCAL/MOL
REMARK 923 INTER-LIGAND FREE ENERGY PREDICTED BY IDOCK:   -5.34 KCAL/MOL
REMARK 924 INTRA-LIGAND FREE ENERGY PREDICTED BY IDOCK:   -0.54 KCAL/MOL
REMARK 927      BINDING AFFINITY PREDICTED BY RF-SCORE:    0.00 PKD
ROOT
HETATM    1  C   UNL     1      -9.717   4.149  67.000  1.00  0.00    -0.230 C  
HETATM    2  C   UNL     1      -9.670   5.654  66.927  1.00  0.00    -0.148 C  
HETATM    3  C   UNL     1      -9.673   6.442  68.026  1.00  0.00    -0.122 C  
HETATM    4  O   UNL     1      -9.608   6.192  65.641  1.00  0.00    -0.378 OA 
HETATM    5  N   UNL     1      -9.721   5.279  70.341  1.00  0.00    -0.180 NA 
HETATM    6  C   UNL     1      -9.701   5.840  69.325  1.00  0.00    -0.144 C  
HETATM    7  H   UNL     1      -9.579   7.141  65.595  1.00  0.00     0.000 HD 
ENDROOT
BRANCH   3   8
HETATM    8  C   UNL     1      -9.657   7.942  68.025  1.00  0.00    -0.151 C  
HETATM    9  O   UNL     1      -8.665   8.529  68.453  1.00  0.00    -0.140 OA 
HETATM   10  N   UNL     1     -10.752   8.575  67.469  1.00  0.00    -0.479 N  
HETATM   11  H   UNL     1     -11.532   8.004  67.144  1.00  0.00     0.000 HD 
BRANCH  10  12
HETATM   12  C   UNL     1     -10.838   9.971  67.332  1.00  0.00    -0.249 A  
HETATM   13  C   UNL     1     -11.370  10.720  68.380  1.00  0.00    -0.367 A  
HETATM   14  C   UNL     1     -11.633  12.081  68.201  1.00  0.00    -0.403 A  
HETATM   15  C   UNL     1     -11.306  12.722  66.994  1.00  0.00    -0.364 A  
HETATM   16  C   UNL     1     -11.670  14.162  66.740  1.00  0.00    -0.410 C  
HETATM   17  C   UNL     1     -10.661  11.983  65.992  1.00  0.00    -0.317 A  
HETATM   18  F   UNL     1     -10.579  14.957  66.570  1.00  0.00    -0.282 F  
HETATM   19  F   UNL     1     -12.396  14.727  67.744  1.00  0.00    -0.297 F  
HETATM   20  C   UNL     1     -10.440  10.616  66.157  1.00  0.00    -0.260 A  
HETATM   21  F   UNL     1     -12.420  14.318  65.612  1.00  0.00    -0.413 F  
ENDBRANCH  10  12
ENDBRANCH   3   8
TORSDOF 2
ENDMDL
MODEL       88
REMARK 921   NORMALIZED FREE ENERGY PREDICTED BY IDOCK:   -4.71 KCAL/MOL
REMARK 922        TOTAL FREE ENERGY PREDICTED BY IDOCK:   -5.86 KCAL/MOL
REMARK 923 INTER-LIGAND FREE ENERGY PREDICTED BY IDOCK:   -5.67 KCAL/MOL
REMARK 924 INTRA-LIGAND FREE ENERGY PREDICTED BY IDOCK:   -0.19 KCAL/MOL
REMARK 927      BINDING AFFINITY PREDICTED BY RF-SCORE:    0.00 PKD
ROOT
HETATM    1  C   UNL     1      -8.941   3.765  66.143  1.00  0.00    -0.135 C  
HETATM    2  C   UNL     1      -9.785   5.014  66.119  1.00  0.00    -0.183 C  
HETATM    3  C   UNL     1      -9.298   6.235  66.437  1.00  0.00    -0.176 C  
HETATM    4  O   UNL     1     -11.112   4.834  65.729  1.00  0.00    -0.803 OA 
HETATM    5  N   UNL     1      -6.791   6.402  67.073  1.00  0.00    -0.064 NA 
HETATM    6  C   UNL     1      -7.918   6.371  66.796  1.00  0.00    -0.109 C  
HETATM    7  H   UNL     1     -11.645   5.622  65.713  1.00  0.00     0.000 HD 
ENDROOT
BRANCH   3   8
HETATM    8  C   UNL     1     -10.086   7.510  66.462  1.00  0.00    -0.124 C  
HETATM    9  O   UNL     1     -11.107   7.569  67.145  1.00  0.00    -0.216 OA 
HETATM   10  N   UNL     1      -9.564   8.576  65.756  1.00  0.00    -0.453 N  
HETATM   11  H   UNL     1      -8.712   8.432  65.214  1.00  0.00     0.000 HD 
BRANCH  10  12
HETATM   12  C   UNL     1     -10.154   9.852  65.753  1.00  0.00    -0.247 A  
HETATM   13  C   UNL     1     -10.275  10.536  64.544  1.00  0.00    -0.355 A  
HETATM   14  C   UNL     1     -10.690  11.871  64.537  1.00  0.00    -0.361 A  
HETATM   15  C   UNL     1     -11.052  12.516  65.731  1.00  0.00    -0.343 A  
HETATM   16  C   UNL     1     -11.406  13.980  65.763  1.00  0.00    -0.312 C  
HETATM   17  C   UNL     1     -11.040  11.780  66.925  1.00  0.00    -0.361 A  
HETATM   18  F   UNL     1     -12.691  14.201  66.151  1.00  0.00    -0.492 F  
HETATM   19  F   UNL     1     -11.263  14.602  64.560  1.00  0.00    -0.366 F  
HETATM   20  C   UNL     1     -10.585  10.462  66.935  1.00  0.00    -0.293 A  
HETATM   21  F   UNL     1     -10.630  14.684  66.636  1.00  0.00    -0.274 F  
ENDBRANCH  10  12
ENDBRANCH   3   8
TORSDOF 2
ENDMDL
MODEL       89
REMARK 921   NORMALIZED FREE ENERGY PREDICTED BY IDOCK:   -4.70 KCAL/MOL
REMARK 922        TOTAL FREE ENERGY PREDICTED BY IDOCK:   -5.84 KCAL/MOL
REMARK 923 INTER-LIGAND FREE ENERGY PREDICTED BY IDOCK:   -5.29 KCAL/MOL
REMARK 924 INTRA-LIGAND FREE ENERGY PREDICTED BY IDOCK:   -0.55 KCAL/MOL
REMARK 927      BINDING AFFINITY PREDICTED BY RF-SCORE:    0.00 PKD
ROOT
HETATM    1  C   UNL     1     -10.257  16.296  65.529  1.00  0.00    -0.326 C  
HETATM    2  C   UNL     1     -10.325  15.009  66.310  1.00  0.00    -0.296 C  
HETATM    3  C   UNL     1     -11.156  13.994  65.981  1.00  0.00    -0.303 C  
HETATM    4  O   UNL     1      -9.458  14.920  67.400  1.00  0.00    -0.201 OA 
HETATM    5  N   UNL     1     -12.653  14.295  63.887  1.00  0.00    -0.787 NA 
HETATM    6  C   UNL     1     -12.001  14.121  64.832  1.00  0.00    -0.417 C  
HETATM    7  H   UNL     1      -9.501  14.109  67.893  1.00  0.00     0.000 HD 
ENDROOT
BRANCH   3   8
HETATM    8  C   UNL     1     -11.295  12.702  66.729  1.00  0.00    -0.320 C  
HETATM    9  O   UNL     1     -12.405  12.365  67.139  1.00  0.00    -0.380 OA 
HETATM   10  N   UNL     1     -10.157  11.928  66.848  1.00  0.00    -0.206 N  
HETATM   11  H   UNL     1      -9.279  12.292  66.479  1.00  0.00     0.000 HD 
BRANCH  10  12
HETATM   12  C   UNL     1     -10.157  10.660  67.454  1.00  0.00    -0.194 A  
HETATM   13  C   UNL     1     -10.021  10.575  68.839  1.00  0.00    -0.213 A  
HETATM   14  C   UNL     1      -9.837   9.330  69.447  1.00  0.00    -0.177 A  
HETATM   15  C   UNL     1      -9.852   8.151  68.684  1.00  0.00    -0.191 A  
HETATM   16  C   UNL     1      -9.557   6.807  69.299  1.00  0.00    -0.144 C  
HETATM   17  C   UNL     1     -10.109   8.241  67.308  1.00  0.00    -0.315 A  
HETATM   18  F   UNL     1     -10.616   5.955  69.233  1.00  0.00    -0.245 F  
HETATM   19  F   UNL     1      -9.208   6.873  70.613  1.00  0.00    -0.155 F  
HETATM   20  C   UNL     1     -10.249   9.487  66.699  1.00  0.00    -0.310 A  
HETATM   21  F   UNL     1      -8.526   6.165  68.678  1.00  0.00    -0.111 F  
ENDBRANCH  10  12
ENDBRANCH   3   8
TORSDOF 2
ENDMDL
MODEL       90
REMARK 921   NORMALIZED FREE ENERGY PREDICTED BY IDOCK:   -4.70 KCAL/MOL
REMARK 922        TOTAL FREE ENERGY PREDICTED BY IDOCK:   -5.84 KCAL/MOL
REMARK 923 INTER-LIGAND FREE ENERGY PREDICTED BY IDOCK:   -5.21 KCAL/MOL
REMARK 924 INTRA-LIGAND FREE ENERGY PREDICTED BY IDOCK:   -0.63 KCAL/MOL
REMARK 927      BINDING AFFINITY PREDICTED BY RF-SCORE:    0.00 PKD
ROOT
HETATM    1  C   UNL     1      -6.930   7.879  72.319  1.00  0.00    -0.076 C  
HETATM    2  C   UNL     1      -7.357   9.005  71.412  1.00  0.00    -0.036 C  
HETATM    3  C   UNL     1      -8.528   8.998  70.736  1.00  0.00    -0.238 C  
HETATM    4  O   UNL     1      -6.466  10.074  71.322  1.00  0.00    -0.319 OA 
HETATM    5  N   UNL     1     -10.100   6.965  71.071  1.00  0.00    -0.193 NA 
HETATM    6  C   UNL     1      -9.425   7.893  70.892  1.00  0.00    -0.156 C  
HETATM    7  H   UNL     1      -6.735  10.785  70.750  1.00  0.00     0.000 HD 
ENDROOT
BRANCH   3   8
HETATM    8  C   UNL     1      -9.001  10.068  69.799  1.00  0.00    -0.185 C  
HETATM    9  O   UNL     1      -8.190  10.884  69.363  1.00  0.00    -0.091 OA 
HETATM   10  N   UNL     1     -10.330  10.024  69.425  1.00  0.00    -0.211 N  
HETATM   11  H   UNL     1     -10.931   9.313  69.842  1.00  0.00     0.000 HD 
BRANCH  10  12
HETATM   12  C   UNL     1     -10.892  10.915  68.494  1.00  0.00    -0.220 A  
HETATM   13  C   UNL     1     -10.740  10.654  67.134  1.00  0.00    -0.327 A  
HETATM   14  C   UNL     1     -11.129  11.611  66.191  1.00  0.00    -0.335 A  
HETATM   15  C   UNL     1     -11.733  12.812  66.598  1.00  0.00    -0.459 A  
HETATM   16  C   UNL     1     -12.070  13.900  65.612  1.00  0.00    -0.421 C  
HETATM   17  C   UNL     1     -11.989  13.010  67.962  1.00  0.00    -0.335 A  
HETATM   18  F   UNL     1     -13.407  14.145  65.535  1.00  0.00    -0.531 F  
HETATM   19  F   UNL     1     -11.663  13.630  64.341  1.00  0.00    -0.358 F  
HETATM   20  C   UNL     1     -11.562  12.073  68.902  1.00  0.00    -0.377 A  
HETATM   21  F   UNL     1     -11.494  15.093  65.936  1.00  0.00    -0.340 F  
ENDBRANCH  10  12
ENDBRANCH   3   8
TORSDOF 2
ENDMDL
MODEL       91
REMARK 921   NORMALIZED FREE ENERGY PREDICTED BY IDOCK:   -4.66 KCAL/MOL
REMARK 922        TOTAL FREE ENERGY PREDICTED BY IDOCK:   -5.80 KCAL/MOL
REMARK 923 INTER-LIGAND FREE ENERGY PREDICTED BY IDOCK:   -5.23 KCAL/MOL
REMARK 924 INTRA-LIGAND FREE ENERGY PREDICTED BY IDOCK:   -0.57 KCAL/MOL
REMARK 927      BINDING AFFINITY PREDICTED BY RF-SCORE:    0.00 PKD
ROOT
HETATM    1  C   UNL     1      -6.463   9.589  66.883  1.00  0.00    -0.067 C  
HETATM    2  C   UNL     1      -7.301  10.832  66.730  1.00  0.00    -0.129 C  
HETATM    3  C   UNL     1      -7.750  11.549  67.785  1.00  0.00    -0.124 C  
HETATM    4  O   UNL     1      -7.578  11.211  65.416  1.00  0.00    -0.356 OA 
HETATM    5  N   UNL     1      -7.086  10.744  70.157  1.00  0.00    -0.180 NA 
HETATM    6  C   UNL     1      -7.407  11.137  69.113  1.00  0.00    -0.115 C  
HETATM    7  H   UNL     1      -8.108  11.995  65.319  1.00  0.00     0.000 HD 
ENDROOT
BRANCH   3   8
HETATM    8  C   UNL     1      -8.610  12.775  67.705  1.00  0.00    -0.181 C  
HETATM    9  O   UNL     1      -9.649  12.821  68.361  1.00  0.00    -0.220 OA 
HETATM   10  N   UNL     1      -8.132  13.820  66.938  1.00  0.00    -0.389 N  
HETATM   11  H   UNL     1      -7.260  13.689  66.425  1.00  0.00     0.000 HD 
BRANCH  10  12
HETATM   12  C   UNL     1      -8.793  15.056  66.835  1.00  0.00    -0.258 A  
HETATM   13  C   UNL     1      -9.750  15.227  65.836  1.00  0.00    -0.390 A  
HETATM   14  C   UNL     1     -10.290  16.494  65.597  1.00  0.00    -0.342 A  
HETATM   15  C   UNL     1      -9.927  17.590  66.397  1.00  0.00    -0.330 A  
HETATM   16  C   UNL     1     -10.417  18.983  66.098  1.00  0.00    -0.467 C  
HETATM   17  C   UNL     1      -9.054  17.379  67.474  1.00  0.00    -0.232 A  
HETATM   18  F   UNL     1     -11.194  19.492  67.093  1.00  0.00    -0.572 F  
HETATM   19  F   UNL     1     -11.158  19.069  64.959  1.00  0.00    -0.289 F  
HETATM   20  C   UNL     1      -8.485  16.124  67.683  1.00  0.00    -0.178 A  
HETATM   21  F   UNL     1      -9.394  19.872  65.937  1.00  0.00    -0.407 F  
ENDBRANCH  10  12
ENDBRANCH   3   8
TORSDOF 2
ENDMDL
MODEL       92
REMARK 921   NORMALIZED FREE ENERGY PREDICTED BY IDOCK:   -4.63 KCAL/MOL
REMARK 922        TOTAL FREE ENERGY PREDICTED BY IDOCK:   -5.77 KCAL/MOL
REMARK 923 INTER-LIGAND FREE ENERGY PREDICTED BY IDOCK:   -5.42 KCAL/MOL
REMARK 924 INTRA-LIGAND FREE ENERGY PREDICTED BY IDOCK:   -0.35 KCAL/MOL
REMARK 927      BINDING AFFINITY PREDICTED BY RF-SCORE:    0.00 PKD
ROOT
HETATM    1  C   UNL     1     -10.305  17.401  65.671  1.00  0.00    -0.161 C  
HETATM    2  C   UNL     1     -10.496  16.167  66.516  1.00  0.00    -0.297 C  
HETATM    3  C   UNL     1      -9.882  15.993  67.708  1.00  0.00    -0.231 C  
HETATM    4  O   UNL     1     -11.365  15.210  65.993  1.00  0.00    -0.318 OA 
HETATM    5  N   UNL     1      -8.352  17.901  68.565  1.00  0.00    -0.302 NA 
HETATM    6  C   UNL     1      -9.027  17.022  68.217  1.00  0.00    -0.242 C  
HETATM    7  H   UNL     1     -11.485  14.431  66.526  1.00  0.00     0.000 HD 
ENDROOT
BRANCH   3   8
HETATM    8  C   UNL     1     -10.004  14.782  68.584  1.00  0.00    -0.232 C  
HETATM    9  O   UNL     1      -9.685  14.866  69.769  1.00  0.00    -0.056 OA 
HETATM   10  N   UNL     1     -10.543  13.649  68.006  1.00  0.00    -0.244 N  
HETATM   11  H   UNL     1     -10.774  13.671  67.013  1.00  0.00     0.000 HD 
BRANCH  10  12
HETATM   12  C   UNL     1     -10.786  12.467  68.727  1.00  0.00    -0.226 A  
HETATM   13  C   UNL     1     -11.905  12.400  69.555  1.00  0.00    -0.368 A  
HETATM   14  C   UNL     1     -12.073  11.312  70.416  1.00  0.00    -0.474 A  
HETATM   15  C   UNL     1     -11.157  10.247  70.410  1.00  0.00    -0.391 A  
HETATM   16  C   UNL     1     -11.259   9.111  71.395  1.00  0.00    -0.349 C  
HETATM   17  C   UNL     1     -10.101  10.270  69.487  1.00  0.00    -0.260 A  
HETATM   18  F   UNL     1     -11.488   7.912  70.794  1.00  0.00    -0.269 F  
HETATM   19  F   UNL     1     -12.255   9.270  72.310  1.00  0.00    -0.423 F  
HETATM   20  C   UNL     1      -9.913  11.376  68.661  1.00  0.00    -0.209 A  
HETATM   21  F   UNL     1     -10.116   8.948  72.122  1.00  0.00    -0.368 F  
ENDBRANCH  10  12
ENDBRANCH   3   8
TORSDOF 2
ENDMDL
MODEL       93
REMARK 921   NORMALIZED FREE ENERGY PREDICTED BY IDOCK:   -4.63 KCAL/MOL
REMARK 922        TOTAL FREE ENERGY PREDICTED BY IDOCK:   -5.76 KCAL/MOL
REMARK 923 INTER-LIGAND FREE ENERGY PREDICTED BY IDOCK:   -5.22 KCAL/MOL
REMARK 924 INTRA-LIGAND FREE ENERGY PREDICTED BY IDOCK:   -0.54 KCAL/MOL
REMARK 927      BINDING AFFINITY PREDICTED BY RF-SCORE:    0.00 PKD
ROOT
HETATM    1  C   UNL     1     -10.168   3.185  63.664  1.00  0.00    -0.198 C  
HETATM    2  C   UNL     1     -10.311   4.059  64.883  1.00  0.00    -0.183 C  
HETATM    3  C   UNL     1      -9.264   4.400  65.669  1.00  0.00    -0.148 C  
HETATM    4  O   UNL     1     -11.603   4.514  65.149  1.00  0.00    -1.102 OA 
HETATM    5  N   UNL     1      -6.919   3.526  64.994  1.00  0.00    -0.055 NA 
HETATM    6  C   UNL     1      -7.951   3.937  65.332  1.00  0.00    -0.093 C  
HETATM    7  H   UNL     1     -11.693   5.065  65.919  1.00  0.00     0.000 HD 
ENDROOT
BRANCH   3   8
HETATM    8  C   UNL     1      -9.339   5.239  66.909  1.00  0.00    -0.127 C  
HETATM    9  O   UNL     1      -8.848   6.367  66.898  1.00  0.00    -0.115 OA 
HETATM   10  N   UNL     1     -10.029   4.705  67.980  1.00  0.00    -0.106 N  
HETATM   11  H   UNL     1     -10.398   3.758  67.898  1.00  0.00     0.000 HD 
BRANCH  10  12
HETATM   12  C   UNL     1     -10.245   5.410  69.177  1.00  0.00    -0.232 A  
HETATM   13  C   UNL     1     -11.362   6.236  69.280  1.00  0.00    -0.411 A  
HETATM   14  C   UNL     1     -11.504   7.082  70.384  1.00  0.00    -0.355 A  
HETATM   15  C   UNL     1     -10.563   7.064  71.427  1.00  0.00    -0.236 A  
HETATM   16  C   UNL     1     -10.639   8.034  72.577  1.00  0.00    -0.329 C  
HETATM   17  C   UNL     1      -9.508   6.142  71.367  1.00  0.00    -0.170 A  
HETATM   18  F   UNL     1     -10.839   7.417  73.773  1.00  0.00    -0.414 F  
HETATM   19  F   UNL     1     -11.639   8.950  72.454  1.00  0.00    -0.425 F  
HETATM   20  C   UNL     1      -9.346   5.330  70.245  1.00  0.00    -0.207 A  
HETATM   21  F   UNL     1      -9.493   8.760  72.722  1.00  0.00    -0.316 F  
ENDBRANCH  10  12
ENDBRANCH   3   8
TORSDOF 2
ENDMDL
MODEL       94
REMARK 921   NORMALIZED FREE ENERGY PREDICTED BY IDOCK:   -4.63 KCAL/MOL
REMARK 922        TOTAL FREE ENERGY PREDICTED BY IDOCK:   -5.76 KCAL/MOL
REMARK 923 INTER-LIGAND FREE ENERGY PREDICTED BY IDOCK:   -5.30 KCAL/MOL
REMARK 924 INTRA-LIGAND FREE ENERGY PREDICTED BY IDOCK:   -0.46 KCAL/MOL
REMARK 927      BINDING AFFINITY PREDICTED BY RF-SCORE:    0.00 PKD
ROOT
HETATM    1  C   UNL     1      -8.327   9.187  62.361  1.00  0.00    -0.183 C  
HETATM    2  C   UNL     1      -9.168  10.182  63.118  1.00  0.00    -0.289 C  
HETATM    3  C   UNL     1      -9.026  10.405  64.445  1.00  0.00    -0.247 C  
HETATM    4  O   UNL     1     -10.106  10.880  62.356  1.00  0.00    -0.645 OA 
HETATM    5  N   UNL     1      -7.188   9.074  65.697  1.00  0.00    -0.084 NA 
HETATM    6  C   UNL     1      -8.023   9.689  65.174  1.00  0.00    -0.120 C  
HETATM    7  H   UNL     1     -10.637  11.507  62.834  1.00  0.00     0.000 HD 
ENDROOT
BRANCH   3   8
HETATM    8  C   UNL     1      -9.845  11.356  65.264  1.00  0.00    -0.248 C  
HETATM    9  O   UNL     1     -11.072  11.293  65.205  1.00  0.00    -0.197 OA 
HETATM   10  N   UNL     1      -9.153  12.211  66.100  1.00  0.00    -0.380 N  
HETATM   11  H   UNL     1      -8.134  12.195  66.078  1.00  0.00     0.000 HD 
BRANCH  10  12
HETATM   12  C   UNL     1      -9.793  13.101  66.980  1.00  0.00    -0.244 A  
HETATM   13  C   UNL     1      -9.675  14.472  66.755  1.00  0.00    -0.269 A  
HETATM   14  C   UNL     1     -10.146  15.378  67.710  1.00  0.00    -0.227 A  
HETATM   15  C   UNL     1     -10.798  14.924  68.869  1.00  0.00    -0.253 A  
HETATM   16  C   UNL     1     -11.225  15.873  69.958  1.00  0.00    -0.353 C  
HETATM   17  C   UNL     1     -11.016  13.548  69.024  1.00  0.00    -0.264 A  
HETATM   18  F   UNL     1     -12.574  15.899  70.133  1.00  0.00    -0.395 F  
HETATM   19  F   UNL     1     -10.849  17.163  69.737  1.00  0.00    -0.304 F  
HETATM   20  C   UNL     1     -10.507  12.645  68.092  1.00  0.00    -0.239 A  
HETATM   21  F   UNL     1     -10.701  15.541  71.173  1.00  0.00    -0.358 F  
ENDBRANCH  10  12
ENDBRANCH   3   8
TORSDOF 2
ENDMDL
MODEL       95
REMARK 921   NORMALIZED FREE ENERGY PREDICTED BY IDOCK:   -4.59 KCAL/MOL
REMARK 922        TOTAL FREE ENERGY PREDICTED BY IDOCK:   -5.72 KCAL/MOL
REMARK 923 INTER-LIGAND FREE ENERGY PREDICTED BY IDOCK:   -5.09 KCAL/MOL
REMARK 924 INTRA-LIGAND FREE ENERGY PREDICTED BY IDOCK:   -0.63 KCAL/MOL
REMARK 927      BINDING AFFINITY PREDICTED BY RF-SCORE:    0.00 PKD
ROOT
HETATM    1  C   UNL     1     -13.939  14.343  72.225  1.00  0.00    -0.610 C  
HETATM    2  C   UNL     1     -13.134  14.126  70.970  1.00  0.00    -0.302 C  
HETATM    3  C   UNL     1     -12.628  12.921  70.621  1.00  0.00    -0.256 C  
HETATM    4  O   UNL     1     -12.950  15.255  70.171  1.00  0.00    -0.636 OA 
HETATM    5  N   UNL     1     -13.120  10.912  72.182  1.00  0.00    -0.381 NA 
HETATM    6  C   UNL     1     -12.875  11.785  71.457  1.00  0.00    -0.345 C  
HETATM    7  H   UNL     1     -12.442  15.119  69.379  1.00  0.00     0.000 HD 
ENDROOT
BRANCH   3   8
HETATM    8  C   UNL     1     -11.796  12.642  69.405  1.00  0.00    -0.296 C  
HETATM    9  O   UNL     1     -11.780  13.464  68.490  1.00  0.00    -0.313 OA 
HETATM   10  N   UNL     1     -11.035  11.490  69.424  1.00  0.00    -0.386 N  
HETATM   11  H   UNL     1     -11.117  10.864  70.226  1.00  0.00     0.000 HD 
BRANCH  10  12
HETATM   12  C   UNL     1     -10.152  11.141  68.388  1.00  0.00    -0.184 A  
HETATM   13  C   UNL     1     -10.619  10.345  67.344  1.00  0.00    -0.321 A  
HETATM   14  C   UNL     1      -9.722   9.836  66.399  1.00  0.00    -0.275 A  
HETATM   15  C   UNL     1      -8.359  10.171  66.453  1.00  0.00    -0.125 A  
HETATM   16  C   UNL     1      -7.357   9.559  65.509  1.00  0.00    -0.094 C  
HETATM   17  C   UNL     1      -7.923  11.069  67.438  1.00  0.00    -0.119 A  
HETATM   18  F   UNL     1      -6.766  10.479  64.699  1.00  0.00    -0.128 F  
HETATM   19  F   UNL     1      -7.890   8.617  64.682  1.00  0.00    -0.102 F  
HETATM   20  C   UNL     1      -8.812  11.540  68.403  1.00  0.00    -0.163 A  
HETATM   21  F   UNL     1      -6.337   8.935  66.166  1.00  0.00    -0.059 F  
ENDBRANCH  10  12
ENDBRANCH   3   8
TORSDOF 2
ENDMDL
MODEL       96
REMARK 921   NORMALIZED FREE ENERGY PREDICTED BY IDOCK:   -4.53 KCAL/MOL
REMARK 922        TOTAL FREE ENERGY PREDICTED BY IDOCK:   -5.66 KCAL/MOL
REMARK 923 INTER-LIGAND FREE ENERGY PREDICTED BY IDOCK:   -5.02 KCAL/MOL
REMARK 924 INTRA-LIGAND FREE ENERGY PREDICTED BY IDOCK:   -0.64 KCAL/MOL
REMARK 927      BINDING AFFINITY PREDICTED BY RF-SCORE:    0.00 PKD
ROOT
HETATM    1  C   UNL     1     -13.408  15.435  71.851  1.00  0.00    -0.554 C  
HETATM    2  C   UNL     1     -12.706  15.033  70.579  1.00  0.00    -0.357 C  
HETATM    3  C   UNL     1     -12.372  13.753  70.299  1.00  0.00    -0.407 C  
HETATM    4  O   UNL     1     -12.431  16.073  69.690  1.00  0.00    -0.405 OA 
HETATM    5  N   UNL     1     -13.019  11.934  72.028  1.00  0.00    -0.352 NA 
HETATM    6  C   UNL     1     -12.710  12.718  71.229  1.00  0.00    -0.269 C  
HETATM    7  H   UNL     1     -11.988  15.819  68.888  1.00  0.00     0.000 HD 
ENDROOT
BRANCH   3   8
HETATM    8  C   UNL     1     -11.650  13.288  69.070  1.00  0.00    -0.312 C  
HETATM    9  O   UNL     1     -11.481  14.077  68.141  1.00  0.00    -0.274 OA 
HETATM   10  N   UNL     1     -11.152  12.000  69.092  1.00  0.00    -0.318 N  
HETATM   11  H   UNL     1     -11.346  11.416  69.905  1.00  0.00     0.000 HD 
BRANCH  10  12
HETATM   12  C   UNL     1     -10.390  11.458  68.042  1.00  0.00    -0.184 A  
HETATM   13  C   UNL     1      -9.007  11.636  68.052  1.00  0.00    -0.176 A  
HETATM   14  C   UNL     1      -8.249  11.267  66.937  1.00  0.00    -0.153 A  
HETATM   15  C   UNL     1      -8.856  10.657  65.827  1.00  0.00    -0.198 A  
HETATM   16  C   UNL     1      -8.079  10.342  64.575  1.00  0.00    -0.150 C  
HETATM   17  C   UNL     1     -10.229  10.375  65.880  1.00  0.00    -0.302 A  
HETATM   18  F   UNL     1      -8.024   9.007  64.313  1.00  0.00    -0.115 F  
HETATM   19  F   UNL     1      -6.788  10.773  64.611  1.00  0.00    -0.035 F  
HETATM   20  C   UNL     1     -10.990  10.783  66.975  1.00  0.00    -0.292 A  
HETATM   21  F   UNL     1      -8.627  10.914  63.465  1.00  0.00    -0.167 F  
ENDBRANCH  10  12
ENDBRANCH   3   8
TORSDOF 2
ENDMDL
MODEL       97
REMARK 921   NORMALIZED FREE ENERGY PREDICTED BY IDOCK:   -4.52 KCAL/MOL
REMARK 922        TOTAL FREE ENERGY PREDICTED BY IDOCK:   -5.64 KCAL/MOL
REMARK 923 INTER-LIGAND FREE ENERGY PREDICTED BY IDOCK:   -5.16 KCAL/MOL
REMARK 924 INTRA-LIGAND FREE ENERGY PREDICTED BY IDOCK:   -0.48 KCAL/MOL
REMARK 927      BINDING AFFINITY PREDICTED BY RF-SCORE:    0.00 PKD
ROOT
HETATM    1  C   UNL     1     -12.385  15.090  64.142  1.00  0.00    -0.167 C  
HETATM    2  C   UNL     1     -11.922  13.898  64.940  1.00  0.00    -0.395 C  
HETATM    3  C   UNL     1     -10.714  13.844  65.545  1.00  0.00    -0.306 C  
HETATM    4  O   UNL     1     -12.833  12.845  65.029  1.00  0.00    -0.699 OA 
HETATM    5  N   UNL     1      -9.171  15.916  65.337  1.00  0.00    -0.185 NA 
HETATM    6  C   UNL     1      -9.831  14.967  65.453  1.00  0.00    -0.277 C  
HETATM    7  H   UNL     1     -12.541  12.093  65.532  1.00  0.00     0.000 HD 
ENDROOT
BRANCH   3   8
HETATM    8  C   UNL     1     -10.181  12.683  66.328  1.00  0.00    -0.251 C  
HETATM    9  O   UNL     1      -8.964  12.519  66.402  1.00  0.00    -0.179 OA 
HETATM   10  N   UNL     1     -11.108  11.897  66.985  1.00  0.00    -0.284 N  
HETATM   11  H   UNL     1     -12.099  12.106  66.862  1.00  0.00     0.000 HD 
BRANCH  10  12
HETATM   12  C   UNL     1     -10.747  10.823  67.816  1.00  0.00    -0.251 A  
HETATM   13  C   UNL     1     -10.433   9.596  67.234  1.00  0.00    -0.323 A  
HETATM   14  C   UNL     1     -10.247   8.469  68.040  1.00  0.00    -0.264 A  
HETATM   15  C   UNL     1     -10.309   8.571  69.440  1.00  0.00    -0.218 A  
HETATM   16  C   UNL     1     -10.211   7.356  70.325  1.00  0.00    -0.200 C  
HETATM   17  C   UNL     1     -10.506   9.834  70.016  1.00  0.00    -0.314 A  
HETATM   18  F   UNL     1      -9.119   7.383  71.137  1.00  0.00    -0.144 F  
HETATM   19  F   UNL     1     -10.141   6.183  69.638  1.00  0.00    -0.176 F  
HETATM   20  C   UNL     1     -10.734  10.948  69.209  1.00  0.00    -0.271 A  
HETATM   21  F   UNL     1     -11.286   7.230  71.156  1.00  0.00    -0.253 F  
ENDBRANCH  10  12
ENDBRANCH   3   8
TORSDOF 2
ENDMDL
MODEL       98
REMARK 921   NORMALIZED FREE ENERGY PREDICTED BY IDOCK:   -4.51 KCAL/MOL
REMARK 922        TOTAL FREE ENERGY PREDICTED BY IDOCK:   -5.63 KCAL/MOL
REMARK 923 INTER-LIGAND FREE ENERGY PREDICTED BY IDOCK:   -5.27 KCAL/MOL
REMARK 924 INTRA-LIGAND FREE ENERGY PREDICTED BY IDOCK:   -0.36 KCAL/MOL
REMARK 927      BINDING AFFINITY PREDICTED BY RF-SCORE:    0.00 PKD
ROOT
HETATM    1  C   UNL     1      -6.752  20.566  65.586  1.00  0.00    -0.255 C  
HETATM    2  C   UNL     1      -7.344  19.196  65.796  1.00  0.00    -0.218 C  
HETATM    3  C   UNL     1      -8.483  18.988  66.495  1.00  0.00    -0.320 C  
HETATM    4  O   UNL     1      -6.645  18.142  65.206  1.00  0.00    -0.396 OA 
HETATM    5  N   UNL     1      -9.695  21.063  67.466  1.00  0.00    -0.267 NA 
HETATM    6  C   UNL     1      -9.183  20.107  67.050  1.00  0.00    -0.380 C  
HETATM    7  H   UNL     1      -7.018  17.278  65.339  1.00  0.00     0.000 HD 
ENDROOT
BRANCH   3   8
HETATM    8  C   UNL     1      -9.110  17.653  66.766  1.00  0.00    -0.260 C  
HETATM    9  O   UNL     1     -10.067  17.587  67.535  1.00  0.00    -0.301 OA 
HETATM   10  N   UNL     1      -8.604  16.576  66.065  1.00  0.00    -0.286 N  
HETATM   11  H   UNL     1      -7.804  16.726  65.450  1.00  0.00     0.000 HD 
BRANCH  10  12
HETATM   12  C   UNL     1      -9.144  15.282  66.161  1.00  0.00    -0.279 A  
HETATM   13  C   UNL     1      -8.618  14.400  67.103  1.00  0.00    -0.237 A  
HETATM   14  C   UNL     1      -9.011  13.058  67.098  1.00  0.00    -0.223 A  
HETATM   15  C   UNL     1      -9.981  12.599  66.193  1.00  0.00    -0.269 A  
HETATM   16  C   UNL     1     -10.348  11.140  66.100  1.00  0.00    -0.250 C  
HETATM   17  C   UNL     1     -10.589  13.522  65.330  1.00  0.00    -0.313 A  
HETATM   18  F   UNL     1     -11.647  10.903  66.430  1.00  0.00    -0.100 F  
HETATM   19  F   UNL     1      -9.602  10.337  66.907  1.00  0.00    -0.177 F  
HETATM   20  C   UNL     1     -10.165  14.850  65.308  1.00  0.00    -0.404 A  
HETATM   21  F   UNL     1     -10.190  10.643  64.840  1.00  0.00    -0.331 F  
ENDBRANCH  10  12
ENDBRANCH   3   8
TORSDOF 2
ENDMDL
MODEL       99
REMARK 921   NORMALIZED FREE ENERGY PREDICTED BY IDOCK:   -4.49 KCAL/MOL
REMARK 922        TOTAL FREE ENERGY PREDICTED BY IDOCK:   -5.61 KCAL/MOL
REMARK 923 INTER-LIGAND FREE ENERGY PREDICTED BY IDOCK:   -4.98 KCAL/MOL
REMARK 924 INTRA-LIGAND FREE ENERGY PREDICTED BY IDOCK:   -0.63 KCAL/MOL
REMARK 927      BINDING AFFINITY PREDICTED BY RF-SCORE:    0.00 PKD
ROOT
HETATM    1  C   UNL     1     -13.592  12.629  72.327  1.00  0.00    -0.508 C  
HETATM    2  C   UNL     1     -12.612  12.209  71.261  1.00  0.00    -0.238 C  
HETATM    3  C   UNL     1     -12.427  10.919  70.901  1.00  0.00    -0.507 C  
HETATM    4  O   UNL     1     -11.908  13.247  70.649  1.00  0.00    -0.518 OA 
HETATM    5  N   UNL     1     -13.867   9.121  72.089  1.00  0.00    -0.448 NA 
HETATM    6  C   UNL     1     -13.202   9.894  71.534  1.00  0.00    -0.408 C  
HETATM    7  H   UNL     1     -11.290  12.983  69.977  1.00  0.00     0.000 HD 
ENDROOT
BRANCH   3   8
HETATM    8  C   UNL     1     -11.453  10.430  69.872  1.00  0.00    -0.297 C  
HETATM    9  O   UNL     1     -10.834  11.251  69.196  1.00  0.00    -0.212 OA 
HETATM   10  N   UNL     1     -11.260   9.064  69.799  1.00  0.00    -0.423 N  
HETATM   11  H   UNL     1     -11.822   8.459  70.397  1.00  0.00     0.000 HD 
BRANCH  10  12
HETATM   12  C   UNL     1     -10.322   8.471  68.936  1.00  0.00    -0.210 A  
HETATM   13  C   UNL     1     -10.711   8.147  67.637  1.00  0.00    -0.203 A  
HETATM   14  C   UNL     1      -9.860   7.397  66.820  1.00  0.00    -0.290 A  
HETATM   15  C   UNL     1      -8.584   7.019  67.271  1.00  0.00    -0.121 A  
HETATM   16  C   UNL     1      -7.688   6.128  66.450  1.00  0.00    -0.102 C  
HETATM   17  C   UNL     1      -8.159   7.454  68.534  1.00  0.00    -0.125 A  
HETATM   18  F   UNL     1      -6.534   6.744  66.076  1.00  0.00    -0.043 F  
HETATM   19  F   UNL     1      -8.267   5.681  65.301  1.00  0.00    -0.108 F  
HETATM   20  C   UNL     1      -9.026   8.165  69.363  1.00  0.00    -0.147 A  
HETATM   21  F   UNL     1      -7.306   5.007  67.128  1.00  0.00    -0.075 F  
ENDBRANCH  10  12
ENDBRANCH   3   8
TORSDOF 2
ENDMDL
MODEL      100
REMARK 921   NORMALIZED FREE ENERGY PREDICTED BY IDOCK:   -4.44 KCAL/MOL
REMARK 922        TOTAL FREE ENERGY PREDICTED BY IDOCK:   -5.55 KCAL/MOL
REMARK 923 INTER-LIGAND FREE ENERGY PREDICTED BY IDOCK:   -4.92 KCAL/MOL
REMARK 924 INTRA-LIGAND FREE ENERGY PREDICTED BY IDOCK:   -0.63 KCAL/MOL
REMARK 927      BINDING AFFINITY PREDICTED BY RF-SCORE:    0.00 PKD
ROOT
HETATM    1  C   UNL     1     -12.250  13.993  64.155  1.00  0.00    -0.433 C  
HETATM    2  C   UNL     1     -11.915  13.612  65.574  1.00  0.00    -0.384 C  
HETATM    3  C   UNL     1     -11.221  12.494  65.889  1.00  0.00    -0.356 C  
HETATM    4  O   UNL     1     -12.356  14.500  66.556  1.00  0.00    -0.420 OA 
HETATM    5  N   UNL     1     -10.416  10.988  63.940  1.00  0.00    -0.371 NA 
HETATM    6  C   UNL     1     -10.759  11.634  64.842  1.00  0.00    -0.296 C  
HETATM    7  H   UNL     1     -12.144  14.259  67.451  1.00  0.00     0.000 HD 
ENDROOT
BRANCH   3   8
HETATM    8  C   UNL     1     -10.879  12.041  67.277  1.00  0.00    -0.246 C  
HETATM    9  O   UNL     1     -11.191  12.750  68.232  1.00  0.00    -0.237 OA 
HETATM   10  N   UNL     1     -10.285  10.799  67.396  1.00  0.00    -0.195 N  
HETATM   11  H   UNL     1     -10.058  10.284  66.546  1.00  0.00     0.000 HD 
BRANCH  10  12
HETATM   12  C   UNL     1      -9.979  10.215  68.637  1.00  0.00    -0.170 A  
HETATM   13  C   UNL     1      -8.706  10.399  69.174  1.00  0.00    -0.173 A  
HETATM   14  C   UNL     1      -8.318   9.685  70.312  1.00  0.00    -0.216 A  
HETATM   15  C   UNL     1      -9.222   8.830  70.963  1.00  0.00    -0.278 A  
HETATM   16  C   UNL     1      -8.801   7.975  72.130  1.00  0.00    -0.159 C  
HETATM   17  C   UNL     1     -10.537   8.746  70.483  1.00  0.00    -0.252 A  
HETATM   18  F   UNL     1      -9.458   8.292  73.278  1.00  0.00    -0.318 F  
HETATM   19  F   UNL     1      -7.473   8.062  72.419  1.00  0.00    -0.086 F  
HETATM   20  C   UNL     1     -10.908   9.425  69.323  1.00  0.00    -0.190 A  
HETATM   21  F   UNL     1      -9.043   6.649  71.918  1.00  0.00    -0.143 F  
ENDBRANCH  10  12
ENDBRANCH   3   8
TORSDOF 2
ENDMDL
MODEL      101
REMARK 921   NORMALIZED FREE ENERGY PREDICTED BY IDOCK:   -4.43 KCAL/MOL
REMARK 922        TOTAL FREE ENERGY PREDICTED BY IDOCK:   -5.54 KCAL/MOL
REMARK 923 INTER-LIGAND FREE ENERGY PREDICTED BY IDOCK:   -5.00 KCAL/MOL
REMARK 924 INTRA-LIGAND FREE ENERGY PREDICTED BY IDOCK:   -0.54 KCAL/MOL
REMARK 927      BINDING AFFINITY PREDICTED BY RF-SCORE:    0.00 PKD
ROOT
HETATM    1  C   UNL     1     -10.603  16.441  68.272  1.00  0.00    -0.318 C  
HETATM    2  C   UNL     1     -10.643  14.938  68.174  1.00  0.00    -0.244 C  
HETATM    3  C   UNL     1     -11.318  14.162  69.053  1.00  0.00    -0.310 C  
HETATM    4  O   UNL     1      -9.945  14.387  67.099  1.00  0.00    -0.247 OA 
HETATM    5  N   UNL     1     -12.621  15.350  70.952  1.00  0.00    -0.406 NA 
HETATM    6  C   UNL     1     -12.049  14.779  70.118  1.00  0.00    -0.327 C  
HETATM    7  H   UNL     1      -9.969  13.439  67.036  1.00  0.00     0.000 HD 
ENDROOT
BRANCH   3   8
HETATM    8  C   UNL     1     -11.376  12.664  69.030  1.00  0.00    -0.292 C  
HETATM    9  O   UNL     1     -12.472  12.109  68.987  1.00  0.00     0.039 OA 
HETATM   10  N   UNL     1     -10.168  11.996  68.988  1.00  0.00    -0.420 N  
HETATM   11  H   UNL     1      -9.307  12.542  69.033  1.00  0.00     0.000 HD 
BRANCH  10  12
HETATM   12  C   UNL     1     -10.072  10.597  68.887  1.00  0.00    -0.202 A  
HETATM   13  C   UNL     1     -10.257   9.998  67.642  1.00  0.00    -0.249 A  
HETATM   14  C   UNL     1     -10.346   8.606  67.545  1.00  0.00    -0.336 A  
HETATM   15  C   UNL     1     -10.186   7.796  68.682  1.00  0.00    -0.217 A  
HETATM   16  C   UNL     1     -10.376   6.303  68.622  1.00  0.00    -0.206 C  
HETATM   17  C   UNL     1      -9.881   8.407  69.907  1.00  0.00    -0.186 A  
HETATM   18  F   UNL     1      -9.238   5.616  68.914  1.00  0.00    -0.115 F  
HETATM   19  F   UNL     1     -10.785   5.853  67.404  1.00  0.00    -0.229 F  
HETATM   20  C   UNL     1      -9.835   9.797  70.009  1.00  0.00    -0.295 A  
HETATM   21  F   UNL     1     -11.312   5.861  69.510  1.00  0.00    -0.441 F  
ENDBRANCH  10  12
ENDBRANCH   3   8
TORSDOF 2
ENDMDL
MODEL      102
REMARK 921   NORMALIZED FREE ENERGY PREDICTED BY IDOCK:   -4.35 KCAL/MOL
REMARK 922        TOTAL FREE ENERGY PREDICTED BY IDOCK:   -5.45 KCAL/MOL
REMARK 923 INTER-LIGAND FREE ENERGY PREDICTED BY IDOCK:   -4.87 KCAL/MOL
REMARK 924 INTRA-LIGAND FREE ENERGY PREDICTED BY IDOCK:   -0.58 KCAL/MOL
REMARK 927      BINDING AFFINITY PREDICTED BY RF-SCORE:    0.00 PKD
ROOT
HETATM    1  C   UNL     1      -8.230  16.322  68.362  1.00  0.00    -0.185 C  
HETATM    2  C   UNL     1      -8.647  14.921  68.728  1.00  0.00    -0.177 C  
HETATM    3  C   UNL     1      -9.636  14.258  68.086  1.00  0.00    -0.218 C  
HETATM    4  O   UNL     1      -7.932  14.334  69.773  1.00  0.00    -0.285 OA 
HETATM    5  N   UNL     1     -10.816  15.468  66.121  1.00  0.00    -0.317 NA 
HETATM    6  C   UNL     1     -10.315  14.891  66.995  1.00  0.00    -0.264 C  
HETATM    7  H   UNL     1      -8.195  13.450  70.003  1.00  0.00     0.000 HD 
ENDROOT
BRANCH   3   8
HETATM    8  C   UNL     1     -10.119  12.878  68.415  1.00  0.00    -0.227 C  
HETATM    9  O   UNL     1     -11.327  12.679  68.534  1.00  0.00    -0.252 OA 
HETATM   10  N   UNL     1      -9.161  11.886  68.495  1.00  0.00    -0.319 N  
HETATM   11  H   UNL     1      -8.180  12.146  68.386  1.00  0.00     0.000 HD 
BRANCH  10  12
HETATM   12  C   UNL     1      -9.476  10.535  68.720  1.00  0.00    -0.180 A  
HETATM   13  C   UNL     1      -9.682   9.700  67.623  1.00  0.00    -0.182 A  
HETATM   14  C   UNL     1     -10.171   8.404  67.815  1.00  0.00    -0.283 A  
HETATM   15  C   UNL     1     -10.398   7.909  69.110  1.00  0.00    -0.225 A  
HETATM   16  C   UNL     1     -11.017   6.555  69.341  1.00  0.00    -0.337 C  
HETATM   17  C   UNL     1     -10.073   8.718  70.208  1.00  0.00    -0.214 A  
HETATM   18  F   UNL     1     -10.181   5.697  69.986  1.00  0.00    -0.230 F  
HETATM   19  F   UNL     1     -11.393   5.924  68.194  1.00  0.00    -0.334 F  
HETATM   20  C   UNL     1      -9.627  10.024  70.013  1.00  0.00    -0.205 A  
HETATM   21  F   UNL     1     -12.143   6.621  70.109  1.00  0.00    -0.441 F  
ENDBRANCH  10  12
ENDBRANCH   3   8
TORSDOF 2
ENDMDL
MODEL      103
REMARK 921   NORMALIZED FREE ENERGY PREDICTED BY IDOCK:   -4.33 KCAL/MOL
REMARK 922        TOTAL FREE ENERGY PREDICTED BY IDOCK:   -5.43 KCAL/MOL
REMARK 923 INTER-LIGAND FREE ENERGY PREDICTED BY IDOCK:   -4.85 KCAL/MOL
REMARK 924 INTRA-LIGAND FREE ENERGY PREDICTED BY IDOCK:   -0.58 KCAL/MOL
REMARK 927      BINDING AFFINITY PREDICTED BY RF-SCORE:    0.00 PKD
ROOT
HETATM    1  C   UNL     1     -10.208   4.791  66.712  1.00  0.00    -0.253 C  
HETATM    2  C   UNL     1     -10.417   6.282  66.785  1.00  0.00    -0.244 C  
HETATM    3  C   UNL     1      -9.516   7.173  66.313  1.00  0.00    -0.125 C  
HETATM    4  O   UNL     1     -11.618   6.693  67.364  1.00  0.00    -0.727 OA 
HETATM    5  N   UNL     1      -7.367   6.240  65.205  1.00  0.00    -0.074 NA 
HETATM    6  C   UNL     1      -8.315   6.699  65.695  1.00  0.00    -0.144 C  
HETATM    7  H   UNL     1     -11.750   7.633  67.411  1.00  0.00     0.000 HD 
ENDROOT
BRANCH   3   8
HETATM    8  C   UNL     1      -9.647   8.665  66.379  1.00  0.00    -0.247 C  
HETATM    9  O   UNL     1      -9.625   9.315  65.335  1.00  0.00    -0.259 OA 
HETATM   10  N   UNL     1      -9.857   9.216  67.628  1.00  0.00    -0.163 N  
HETATM   11  H   UNL     1      -9.856   8.598  68.440  1.00  0.00     0.000 HD 
BRANCH  10  12
HETATM   12  C   UNL     1     -10.074  10.590  67.830  1.00  0.00    -0.176 A  
HETATM   13  C   UNL     1     -11.381  11.075  67.822  1.00  0.00    -0.365 A  
HETATM   14  C   UNL     1     -11.614  12.453  67.840  1.00  0.00    -0.415 A  
HETATM   15  C   UNL     1     -10.544  13.359  67.932  1.00  0.00    -0.253 A  
HETATM   16  C   UNL     1     -10.761  14.848  67.852  1.00  0.00    -0.265 C  
HETATM   17  C   UNL     1      -9.242  12.855  68.060  1.00  0.00    -0.212 A  
HETATM   18  F   UNL     1     -10.404  15.493  68.996  1.00  0.00    -0.202 F  
HETATM   19  F   UNL     1     -12.054  15.200  67.609  1.00  0.00    -0.324 F  
HETATM   20  C   UNL     1      -9.010  11.482  67.999  1.00  0.00    -0.170 A  
HETATM   21  F   UNL     1     -10.030  15.428  66.857  1.00  0.00    -0.232 F  
ENDBRANCH  10  12
ENDBRANCH   3   8
TORSDOF 2
ENDMDL
MODEL      104
REMARK 921   NORMALIZED FREE ENERGY PREDICTED BY IDOCK:   -4.32 KCAL/MOL
REMARK 922        TOTAL FREE ENERGY PREDICTED BY IDOCK:   -5.42 KCAL/MOL
REMARK 923 INTER-LIGAND FREE ENERGY PREDICTED BY IDOCK:   -4.86 KCAL/MOL
REMARK 924 INTRA-LIGAND FREE ENERGY PREDICTED BY IDOCK:   -0.56 KCAL/MOL
REMARK 927      BINDING AFFINITY PREDICTED BY RF-SCORE:    0.00 PKD
ROOT
HETATM    1  C   UNL     1     -10.685  15.949  65.176  1.00  0.00    -0.449 C  
HETATM    2  C   UNL     1     -10.087  14.593  65.450  1.00  0.00    -0.372 C  
HETATM    3  C   UNL     1     -10.589  13.450  64.929  1.00  0.00    -0.398 C  
HETATM    4  O   UNL     1      -8.960  14.588  66.273  1.00  0.00    -0.473 OA 
HETATM    5  N   UNL     1     -12.645  13.643  63.364  1.00  0.00    -0.781 NA 
HETATM    6  C   UNL     1     -11.726  13.513  64.061  1.00  0.00    -0.395 C  
HETATM    7  H   UNL     1      -8.583  13.733  66.446  1.00  0.00     0.000 HD 
ENDROOT
BRANCH   3   8
HETATM    8  C   UNL     1     -10.062  12.070  65.183  1.00  0.00    -0.266 C  
HETATM    9  O   UNL     1      -9.767  11.357  64.225  1.00  0.00    -0.234 OA 
HETATM   10  N   UNL     1      -9.874  11.709  66.503  1.00  0.00    -0.200 N  
HETATM   11  H   UNL     1     -10.152  12.365  67.232  1.00  0.00     0.000 HD 
BRANCH  10  12
HETATM   12  C   UNL     1      -9.315  10.477  66.885  1.00  0.00    -0.159 A  
HETATM   13  C   UNL     1     -10.164   9.452  67.300  1.00  0.00    -0.308 A  
HETATM   14  C   UNL     1      -9.630   8.285  67.854  1.00  0.00    -0.176 A  
HETATM   15  C   UNL     1      -8.239   8.104  67.939  1.00  0.00    -0.129 A  
HETATM   16  C   UNL     1      -7.639   6.902  68.621  1.00  0.00    -0.105 C  
HETATM   17  C   UNL     1      -7.397   9.091  67.409  1.00  0.00    -0.084 A  
HETATM   18  F   UNL     1      -6.919   6.120  67.772  1.00  0.00    -0.062 F  
HETATM   19  F   UNL     1      -8.563   6.082  69.195  1.00  0.00    -0.113 F  
HETATM   20  C   UNL     1      -7.932  10.272  66.897  1.00  0.00    -0.112 A  
HETATM   21  F   UNL     1      -6.781   7.247  69.624  1.00  0.00    -0.040 F  
ENDBRANCH  10  12
ENDBRANCH   3   8
TORSDOF 2
ENDMDL
MODEL      105
REMARK 921   NORMALIZED FREE ENERGY PREDICTED BY IDOCK:   -4.31 KCAL/MOL
REMARK 922        TOTAL FREE ENERGY PREDICTED BY IDOCK:   -5.41 KCAL/MOL
REMARK 923 INTER-LIGAND FREE ENERGY PREDICTED BY IDOCK:   -4.87 KCAL/MOL
REMARK 924 INTRA-LIGAND FREE ENERGY PREDICTED BY IDOCK:   -0.54 KCAL/MOL
REMARK 927      BINDING AFFINITY PREDICTED BY RF-SCORE:    0.00 PKD
ROOT
HETATM    1  C   UNL     1     -10.855  16.840  65.045  1.00  0.00    -0.131 C  
HETATM    2  C   UNL     1     -10.140  15.619  65.565  1.00  0.00    -0.362 C  
HETATM    3  C   UNL     1     -10.526  14.359  65.261  1.00  0.00    -0.410 C  
HETATM    4  O   UNL     1      -9.034  15.870  66.377  1.00  0.00    -0.266 OA 
HETATM    5  N   UNL     1     -12.560  14.070  63.682  1.00  0.00    -0.792 NA 
HETATM    6  C   UNL     1     -11.646  14.155  64.393  1.00  0.00    -0.362 C  
HETATM    7  H   UNL     1      -8.583  15.100  66.705  1.00  0.00     0.000 HD 
ENDROOT
BRANCH   3   8
HETATM    8  C   UNL     1      -9.879  13.103  65.764  1.00  0.00    -0.203 C  
HETATM    9  O   UNL     1      -9.366  13.101  66.882  1.00  0.00    -0.232 OA 
HETATM   10  N   UNL     1      -9.967  11.990  64.950  1.00  0.00    -0.330 N  
HETATM   11  H   UNL     1     -10.408  12.088  64.036  1.00  0.00     0.000 HD 
BRANCH  10  12
HETATM   12  C   UNL     1      -9.475  10.729  65.327  1.00  0.00    -0.218 A  
HETATM   13  C   UNL     1      -8.335  10.234  64.695  1.00  0.00    -0.169 A  
HETATM   14  C   UNL     1      -7.930   8.914  64.919  1.00  0.00    -0.129 A  
HETATM   15  C   UNL     1      -8.624   8.097  65.827  1.00  0.00    -0.175 A  
HETATM   16  C   UNL     1      -8.270   6.644  66.011  1.00  0.00    -0.128 C  
HETATM   17  C   UNL     1      -9.697   8.645  66.545  1.00  0.00    -0.325 A  
HETATM   18  F   UNL     1      -7.836   6.364  67.271  1.00  0.00    -0.098 F  
HETATM   19  F   UNL     1      -7.291   6.209  65.171  1.00  0.00    -0.063 F  
HETATM   20  C   UNL     1     -10.124   9.947  66.287  1.00  0.00    -0.311 A  
HETATM   21  F   UNL     1      -9.333   5.817  65.794  1.00  0.00    -0.169 F  
ENDBRANCH  10  12
ENDBRANCH   3   8
TORSDOF 2
ENDMDL
MODEL      106
REMARK 921   NORMALIZED FREE ENERGY PREDICTED BY IDOCK:   -4.29 KCAL/MOL
REMARK 922        TOTAL FREE ENERGY PREDICTED BY IDOCK:   -5.38 KCAL/MOL
REMARK 923 INTER-LIGAND FREE ENERGY PREDICTED BY IDOCK:   -4.81 KCAL/MOL
REMARK 924 INTRA-LIGAND FREE ENERGY PREDICTED BY IDOCK:   -0.57 KCAL/MOL
REMARK 927      BINDING AFFINITY PREDICTED BY RF-SCORE:    0.00 PKD
ROOT
HETATM    1  C   UNL     1      -8.299   4.473  72.398  1.00  0.00    -0.110 C  
HETATM    2  C   UNL     1      -8.789   5.356  71.279  1.00  0.00    -0.130 C  
HETATM    3  C   UNL     1     -10.044   5.858  71.235  1.00  0.00    -0.245 C  
HETATM    4  O   UNL     1      -7.852   5.641  70.285  1.00  0.00    -0.093 OA 
HETATM    5  N   UNL     1     -11.637   5.288  73.199  1.00  0.00    -0.261 NA 
HETATM    6  C   UNL     1     -10.956   5.566  72.300  1.00  0.00    -0.239 C  
HETATM    7  H   UNL     1      -8.161   6.197  69.578  1.00  0.00     0.000 HD 
ENDROOT
BRANCH   3   8
HETATM    8  C   UNL     1     -10.604   6.716  70.141  1.00  0.00    -0.221 C  
HETATM    9  O   UNL     1     -11.713   6.451  69.681  1.00  0.00    -0.389 OA 
HETATM   10  N   UNL     1      -9.851   7.811  69.764  1.00  0.00    -0.177 N  
HETATM   11  H   UNL     1      -8.939   7.949  70.199  1.00  0.00     0.000 HD 
BRANCH  10  12
HETATM   12  C   UNL     1     -10.287   8.744  68.807  1.00  0.00    -0.213 A  
HETATM   13  C   UNL     1      -9.988   8.522  67.464  1.00  0.00    -0.258 A  
HETATM   14  C   UNL     1     -10.249   9.517  66.517  1.00  0.00    -0.307 A  
HETATM   15  C   UNL     1     -10.873  10.718  66.894  1.00  0.00    -0.288 A  
HETATM   16  C   UNL     1     -11.075  11.845  65.914  1.00  0.00    -0.316 C  
HETATM   17  C   UNL     1     -11.277  10.879  68.227  1.00  0.00    -0.347 A  
HETATM   18  F   UNL     1     -12.389  12.122  65.696  1.00  0.00    -0.435 F  
HETATM   19  F   UNL     1     -10.532  11.606  64.688  1.00  0.00    -0.283 F  
HETATM   20  C   UNL     1     -10.976   9.904  69.177  1.00  0.00    -0.233 A  
HETATM   21  F   UNL     1     -10.516  13.013  66.342  1.00  0.00    -0.263 F  
ENDBRANCH  10  12
ENDBRANCH   3   8
TORSDOF 2
ENDMDL
MODEL      107
REMARK 921   NORMALIZED FREE ENERGY PREDICTED BY IDOCK:   -4.27 KCAL/MOL
REMARK 922        TOTAL FREE ENERGY PREDICTED BY IDOCK:   -5.36 KCAL/MOL
REMARK 923 INTER-LIGAND FREE ENERGY PREDICTED BY IDOCK:   -4.73 KCAL/MOL
REMARK 924 INTRA-LIGAND FREE ENERGY PREDICTED BY IDOCK:   -0.63 KCAL/MOL
REMARK 927      BINDING AFFINITY PREDICTED BY RF-SCORE:    0.00 PKD
ROOT
HETATM    1  C   UNL     1     -13.037  12.436  71.626  1.00  0.00    -0.408 C  
HETATM    2  C   UNL     1     -12.219  11.560  70.712  1.00  0.00    -0.363 C  
HETATM    3  C   UNL     1     -12.250  10.209  70.768  1.00  0.00    -0.434 C  
HETATM    4  O   UNL     1     -11.428  12.235  69.781  1.00  0.00    -0.432 OA 
HETATM    5  N   UNL     1     -13.826   9.113  72.509  1.00  0.00    -0.467 NA 
HETATM    6  C   UNL     1     -13.106   9.564  71.717  1.00  0.00    -0.418 C  
HETATM    7  H   UNL     1     -10.912  11.683  69.205  1.00  0.00     0.000 HD 
ENDROOT
BRANCH   3   8
HETATM    8  C   UNL     1     -11.443   9.281  69.911  1.00  0.00     0.021 C  
HETATM    9  O   UNL     1     -10.842   9.734  68.939  1.00  0.00    -0.220 OA 
HETATM   10  N   UNL     1     -11.372   7.963  70.319  1.00  0.00    -0.428 N  
HETATM   11  H   UNL     1     -11.910   7.676  71.137  1.00  0.00     0.000 HD 
BRANCH  10  12
HETATM   12  C   UNL     1     -10.592   7.000  69.657  1.00  0.00    -0.234 A  
HETATM   13  C   UNL     1      -9.253   6.853  70.017  1.00  0.00    -0.155 A  
HETATM   14  C   UNL     1      -8.412   6.035  69.257  1.00  0.00    -0.115 A  
HETATM   15  C   UNL     1      -8.915   5.304  68.168  1.00  0.00    -0.115 A  
HETATM   16  C   UNL     1      -8.012   4.495  67.274  1.00  0.00    -0.101 C  
HETATM   17  C   UNL     1     -10.288   5.368  67.890  1.00  0.00    -0.222 A  
HETATM   18  F   UNL     1      -8.290   3.163  67.312  1.00  0.00    -0.080 F  
HETATM   19  F   UNL     1      -6.691   4.613  67.581  1.00  0.00    -0.045 F  
HETATM   20  C   UNL     1     -11.116   6.218  68.623  1.00  0.00    -0.409 A  
HETATM   21  F   UNL     1      -8.117   4.857  65.963  1.00  0.00    -0.103 F  
ENDBRANCH  10  12
ENDBRANCH   3   8
TORSDOF 2
ENDMDL
MODEL      108
REMARK 921   NORMALIZED FREE ENERGY PREDICTED BY IDOCK:   -4.26 KCAL/MOL
REMARK 922        TOTAL FREE ENERGY PREDICTED BY IDOCK:   -5.36 KCAL/MOL
REMARK 923 INTER-LIGAND FREE ENERGY PREDICTED BY IDOCK:   -4.79 KCAL/MOL
REMARK 924 INTRA-LIGAND FREE ENERGY PREDICTED BY IDOCK:   -0.57 KCAL/MOL
REMARK 927      BINDING AFFINITY PREDICTED BY RF-SCORE:    0.00 PKD
ROOT
HETATM    1  C   UNL     1     -12.295  13.740  65.549  1.00  0.00    -0.507 C  
HETATM    2  C   UNL     1     -11.814  12.576  66.377  1.00  0.00    -0.381 C  
HETATM    3  C   UNL     1     -10.997  11.616  65.888  1.00  0.00    -0.334 C  
HETATM    4  O   UNL     1     -12.257  12.556  67.700  1.00  0.00    -0.401 OA 
HETATM    5  N   UNL     1     -10.211  11.842  63.429  1.00  0.00    -0.447 NA 
HETATM    6  C   UNL     1     -10.541  11.703  64.534  1.00  0.00    -0.318 C  
HETATM    7  H   UNL     1     -11.954  11.821  68.222  1.00  0.00     0.000 HD 
ENDROOT
BRANCH   3   8
HETATM    8  C   UNL     1     -10.504  10.420  66.646  1.00  0.00    -0.215 C  
HETATM    9  O   UNL     1     -10.339  10.507  67.861  1.00  0.00    -0.173 OA 
HETATM   10  N   UNL     1     -10.331   9.255  65.923  1.00  0.00    -0.211 N  
HETATM   11  H   UNL     1     -10.488   9.278  64.916  1.00  0.00     0.000 HD 
BRANCH  10  12
HETATM   12  C   UNL     1      -9.949   8.039  66.515  1.00  0.00    -0.213 A  
HETATM   13  C   UNL     1      -8.606   7.667  66.484  1.00  0.00    -0.142 A  
HETATM   14  C   UNL     1      -8.227   6.387  66.902  1.00  0.00    -0.110 A  
HETATM   15  C   UNL     1      -9.177   5.491  67.417  1.00  0.00    -0.110 A  
HETATM   16  C   UNL     1      -8.813   4.075  67.781  1.00  0.00    -0.115 C  
HETATM   17  C   UNL     1     -10.505   5.921  67.555  1.00  0.00    -0.306 A  
HETATM   18  F   UNL     1      -8.975   3.814  69.107  1.00  0.00    -0.115 F  
HETATM   19  F   UNL     1      -7.523   3.751  67.489  1.00  0.00    -0.064 F  
HETATM   20  C   UNL     1     -10.888   7.181  67.097  1.00  0.00    -0.403 A  
HETATM   21  F   UNL     1      -9.579   3.155  67.127  1.00  0.00    -0.221 F  
ENDBRANCH  10  12
ENDBRANCH   3   8
TORSDOF 2
ENDMDL
MODEL      109
REMARK 921   NORMALIZED FREE ENERGY PREDICTED BY IDOCK:   -4.24 KCAL/MOL
REMARK 922        TOTAL FREE ENERGY PREDICTED BY IDOCK:   -5.33 KCAL/MOL
REMARK 923 INTER-LIGAND FREE ENERGY PREDICTED BY IDOCK:   -4.75 KCAL/MOL
REMARK 924 INTRA-LIGAND FREE ENERGY PREDICTED BY IDOCK:   -0.58 KCAL/MOL
REMARK 927      BINDING AFFINITY PREDICTED BY RF-SCORE:    0.00 PKD
ROOT
HETATM    1  C   UNL     1      -9.728  11.335  63.023  1.00  0.00    -0.389 C  
HETATM    2  C   UNL     1      -9.655  10.312  64.128  1.00  0.00    -0.315 C  
HETATM    3  C   UNL     1     -10.185  10.518  65.355  1.00  0.00    -0.340 C  
HETATM    4  O   UNL     1      -9.013   9.118  63.800  1.00  0.00    -0.417 OA 
HETATM    5  N   UNL     1     -11.406  12.765  65.776  1.00  0.00    -0.307 NA 
HETATM    6  C   UNL     1     -10.867  11.747  65.630  1.00  0.00    -0.292 C  
HETATM    7  H   UNL     1      -8.966   8.473  64.497  1.00  0.00     0.000 HD 
ENDROOT
BRANCH   3   8
HETATM    8  C   UNL     1     -10.125   9.559  66.505  1.00  0.00    -0.256 C  
HETATM    9  O   UNL     1      -9.933   8.365  66.279  1.00  0.00    -0.245 OA 
HETATM   10  N   UNL     1     -10.221  10.100  67.772  1.00  0.00    -0.180 N  
HETATM   11  H   UNL     1     -10.385  11.103  67.863  1.00  0.00     0.000 HD 
BRANCH  10  12
HETATM   12  C   UNL     1     -10.104   9.331  68.943  1.00  0.00    -0.195 A  
HETATM   13  C   UNL     1     -11.259   8.987  69.642  1.00  0.00     0.007 A  
HETATM   14  C   UNL     1     -11.160   8.380  70.898  1.00  0.00    -0.289 A  
HETATM   15  C   UNL     1      -9.906   8.052  71.438  1.00  0.00    -0.213 A  
HETATM   16  C   UNL     1      -9.767   7.491  72.829  1.00  0.00    -0.187 C  
HETATM   17  C   UNL     1      -8.757   8.295  70.671  1.00  0.00    -0.144 A  
HETATM   18  F   UNL     1      -9.246   6.233  72.839  1.00  0.00    -0.136 F  
HETATM   19  F   UNL     1     -10.945   7.416  73.508  1.00  0.00    -0.400 F  
HETATM   20  C   UNL     1      -8.857   8.939  69.439  1.00  0.00    -0.143 A  
HETATM   21  F   UNL     1      -8.939   8.240  73.613  1.00  0.00    -0.311 F  
ENDBRANCH  10  12
ENDBRANCH   3   8
TORSDOF 2
ENDMDL
MODEL      110
REMARK 921   NORMALIZED FREE ENERGY PREDICTED BY IDOCK:   -4.21 KCAL/MOL
REMARK 922        TOTAL FREE ENERGY PREDICTED BY IDOCK:   -5.29 KCAL/MOL
REMARK 923 INTER-LIGAND FREE ENERGY PREDICTED BY IDOCK:   -4.91 KCAL/MOL
REMARK 924 INTRA-LIGAND FREE ENERGY PREDICTED BY IDOCK:   -0.38 KCAL/MOL
REMARK 927      BINDING AFFINITY PREDICTED BY RF-SCORE:    0.00 PKD
ROOT
HETATM    1  C   UNL     1     -12.284  14.417  64.295  1.00  0.00    -0.450 C  
HETATM    2  C   UNL     1     -11.685  13.155  64.861  1.00  0.00    -0.340 C  
HETATM    3  C   UNL     1     -11.381  13.010  66.171  1.00  0.00    -0.349 C  
HETATM    4  O   UNL     1     -11.474  12.125  63.943  1.00  0.00    -0.371 OA 
HETATM    5  N   UNL     1     -11.901  14.995  67.753  1.00  0.00    -0.287 NA 
HETATM    6  C   UNL     1     -11.651  14.084  67.079  1.00  0.00    -0.371 C  
HETATM    7  H   UNL     1     -11.097  11.329  64.299  1.00  0.00     0.000 HD 
ENDROOT
BRANCH   3   8
HETATM    8  C   UNL     1     -10.760  11.796  66.794  1.00  0.00    -0.253 C  
HETATM    9  O   UNL     1      -9.645  11.436  66.420  1.00  0.00    -0.195 OA 
HETATM   10  N   UNL     1     -11.466  11.192  67.816  1.00  0.00    -0.294 N  
HETATM   11  H   UNL     1     -12.388  11.558  68.055  1.00  0.00     0.000 HD 
BRANCH  10  12
HETATM   12  C   UNL     1     -10.971  10.094  68.541  1.00  0.00    -0.232 A  
HETATM   13  C   UNL     1     -10.710  10.248  69.901  1.00  0.00    -0.344 A  
HETATM   14  C   UNL     1     -10.051   9.234  70.604  1.00  0.00    -0.339 A  
HETATM   15  C   UNL     1      -9.705   8.030  69.969  1.00  0.00    -0.173 A  
HETATM   16  C   UNL     1      -8.908   6.965  70.675  1.00  0.00    -0.150 C  
HETATM   17  C   UNL     1     -10.081   7.842  68.631  1.00  0.00    -0.211 A  
HETATM   18  F   UNL     1      -9.599   5.801  70.820  1.00  0.00    -0.172 F  
HETATM   19  F   UNL     1      -8.507   7.322  71.926  1.00  0.00    -0.106 F  
HETATM   20  C   UNL     1     -10.699   8.870  67.922  1.00  0.00    -0.185 A  
HETATM   21  F   UNL     1      -7.767   6.637  70.004  1.00  0.00    -0.091 F  
ENDBRANCH  10  12
ENDBRANCH   3   8
TORSDOF 2
ENDMDL
MODEL      111
REMARK 921   NORMALIZED FREE ENERGY PREDICTED BY IDOCK:   -4.18 KCAL/MOL
REMARK 922        TOTAL FREE ENERGY PREDICTED BY IDOCK:   -5.26 KCAL/MOL
REMARK 923 INTER-LIGAND FREE ENERGY PREDICTED BY IDOCK:   -4.71 KCAL/MOL
REMARK 924 INTRA-LIGAND FREE ENERGY PREDICTED BY IDOCK:   -0.55 KCAL/MOL
REMARK 927      BINDING AFFINITY PREDICTED BY RF-SCORE:    0.00 PKD
ROOT
HETATM    1  C   UNL     1      -6.168   8.925  66.321  1.00  0.00    -0.064 C  
HETATM    2  C   UNL     1      -6.897   9.703  67.386  1.00  0.00    -0.083 C  
HETATM    3  C   UNL     1      -8.163  10.153  67.230  1.00  0.00    -0.117 C  
HETATM    4  O   UNL     1      -6.184   9.922  68.566  1.00  0.00    -0.049 OA 
HETATM    5  N   UNL     1      -9.369   9.600  65.004  1.00  0.00    -0.256 NA 
HETATM    6  C   UNL     1      -8.865   9.870  66.014  1.00  0.00    -0.146 C  
HETATM    7  H   UNL     1      -6.643  10.412  69.238  1.00  0.00     0.000 HD 
ENDROOT
BRANCH   3   8
HETATM    8  C   UNL     1      -8.936  10.954  68.234  1.00  0.00    -0.150 C  
HETATM    9  O   UNL     1      -8.671  10.831  69.429  1.00  0.00    -0.095 OA 
HETATM   10  N   UNL     1      -9.865  11.846  67.735  1.00  0.00    -0.180 N  
HETATM   11  H   UNL     1     -10.020  11.876  66.728  1.00  0.00     0.000 HD 
BRANCH  10  12
HETATM   12  C   UNL     1     -10.605  12.715  68.555  1.00  0.00    -0.243 A  
HETATM   13  C   UNL     1     -10.222  14.052  68.639  1.00  0.00    -0.233 A  
HETATM   14  C   UNL     1     -10.825  14.894  69.579  1.00  0.00    -0.272 A  
HETATM   15  C   UNL     1     -11.863  14.422  70.400  1.00  0.00    -0.381 A  
HETATM   16  C   UNL     1     -12.460  15.277  71.487  1.00  0.00    -0.361 C  
HETATM   17  C   UNL     1     -12.320  13.109  70.222  1.00  0.00    -0.319 A  
HETATM   18  F   UNL     1     -13.778  15.546  71.280  1.00  0.00    -0.508 F  
HETATM   19  F   UNL     1     -11.847  16.484  71.632  1.00  0.00    -0.479 F  
HETATM   20  C   UNL     1     -11.688  12.260  69.314  1.00  0.00    -0.388 A  
HETATM   21  F   UNL     1     -12.392  14.683  72.713  1.00  0.00    -0.388 F  
ENDBRANCH  10  12
ENDBRANCH   3   8
TORSDOF 2
ENDMDL
MODEL      112
REMARK 921   NORMALIZED FREE ENERGY PREDICTED BY IDOCK:   -4.18 KCAL/MOL
REMARK 922        TOTAL FREE ENERGY PREDICTED BY IDOCK:   -5.26 KCAL/MOL
REMARK 923 INTER-LIGAND FREE ENERGY PREDICTED BY IDOCK:   -4.90 KCAL/MOL
REMARK 924 INTRA-LIGAND FREE ENERGY PREDICTED BY IDOCK:   -0.36 KCAL/MOL
REMARK 927      BINDING AFFINITY PREDICTED BY RF-SCORE:    0.00 PKD
ROOT
HETATM    1  C   UNL     1      -5.345  19.627  65.161  1.00  0.00    -0.193 C  
HETATM    2  C   UNL     1      -6.450  18.948  65.928  1.00  0.00    -0.230 C  
HETATM    3  C   UNL     1      -6.809  19.317  67.179  1.00  0.00    -0.206 C  
HETATM    4  O   UNL     1      -7.099  17.911  65.257  1.00  0.00    -0.346 OA 
HETATM    5  N   UNL     1      -5.548  21.309  68.255  1.00  0.00    -0.307 NA 
HETATM    6  C   UNL     1      -6.136  20.412  67.810  1.00  0.00    -0.239 C  
HETATM    7  H   UNL     1      -7.795  17.482  65.741  1.00  0.00     0.000 HD 
ENDROOT
BRANCH   3   8
HETATM    8  C   UNL     1      -7.877  18.668  68.008  1.00  0.00    -0.271 C  
HETATM    9  O   UNL     1      -8.363  19.291  68.951  1.00  0.00    -0.360 OA 
HETATM   10  N   UNL     1      -8.300  17.416  67.607  1.00  0.00    -0.209 N  
HETATM   11  H   UNL     1      -7.834  16.974  66.815  1.00  0.00     0.000 HD 
BRANCH  10  12
HETATM   12  C   UNL     1      -9.344  16.723  68.243  1.00  0.00    -0.230 A  
HETATM   13  C   UNL     1      -9.083  16.060  69.441  1.00  0.00    -0.189 A  
HETATM   14  C   UNL     1     -10.050  15.219  69.998  1.00  0.00    -0.178 A  
HETATM   15  C   UNL     1     -11.313  15.083  69.399  1.00  0.00    -0.314 A  
HETATM   16  C   UNL     1     -12.336  14.109  69.922  1.00  0.00    -0.327 C  
HETATM   17  C   UNL     1     -11.605  15.848  68.260  1.00  0.00    -0.274 A  
HETATM   18  F   UNL     1     -13.464  14.722  70.373  1.00  0.00    -0.306 F  
HETATM   19  F   UNL     1     -11.884  13.345  70.955  1.00  0.00    -0.349 F  
HETATM   20  C   UNL     1     -10.624  16.653  67.683  1.00  0.00    -0.321 A  
HETATM   21  F   UNL     1     -12.751  13.226  68.968  1.00  0.00    -0.048 F  
ENDBRANCH  10  12
ENDBRANCH   3   8
TORSDOF 2
ENDMDL
MODEL      113
REMARK 921   NORMALIZED FREE ENERGY PREDICTED BY IDOCK:   -4.17 KCAL/MOL
REMARK 922        TOTAL FREE ENERGY PREDICTED BY IDOCK:   -5.25 KCAL/MOL
REMARK 923 INTER-LIGAND FREE ENERGY PREDICTED BY IDOCK:   -4.92 KCAL/MOL
REMARK 924 INTRA-LIGAND FREE ENERGY PREDICTED BY IDOCK:   -0.34 KCAL/MOL
REMARK 927      BINDING AFFINITY PREDICTED BY RF-SCORE:    0.00 PKD
ROOT
HETATM    1  C   UNL     1     -11.610  16.017  64.121  1.00  0.00    -0.007 C  
HETATM    2  C   UNL     1     -11.339  14.689  64.779  1.00  0.00    -0.396 C  
HETATM    3  C   UNL     1     -10.270  14.471  65.578  1.00  0.00    -0.394 C  
HETATM    4  O   UNL     1     -12.276  13.688  64.522  1.00  0.00    -0.410 OA 
HETATM    5  N   UNL     1      -8.662  16.458  66.007  1.00  0.00    -0.427 NA 
HETATM    6  C   UNL     1      -9.356  15.542  65.840  1.00  0.00    -0.319 C  
HETATM    7  H   UNL     1     -12.105  12.850  64.936  1.00  0.00     0.000 HD 
ENDROOT
BRANCH   3   8
HETATM    8  C   UNL     1      -9.925  13.170  66.240  1.00  0.00    -0.285 C  
HETATM    9  O   UNL     1      -8.990  13.135  67.038  1.00  0.00    -0.219 OA 
HETATM   10  N   UNL     1     -10.740  12.092  65.954  1.00  0.00    -0.257 N  
HETATM   11  H   UNL     1     -11.490  12.215  65.274  1.00  0.00     0.000 HD 
BRANCH  10  12
HETATM   12  C   UNL     1     -10.582  10.834  66.560  1.00  0.00    -0.218 A  
HETATM   13  C   UNL     1     -11.172  10.605  67.802  1.00  0.00    -0.383 A  
HETATM   14  C   UNL     1     -10.883   9.432  68.506  1.00  0.00    -0.149 A  
HETATM   15  C   UNL     1     -10.052   8.447  67.947  1.00  0.00    -0.254 A  
HETATM   16  C   UNL     1      -9.645   7.222  68.724  1.00  0.00    -0.142 C  
HETATM   17  C   UNL     1      -9.561   8.637  66.647  1.00  0.00    -0.285 A  
HETATM   18  F   UNL     1     -10.100   6.069  68.164  1.00  0.00    -0.128 F  
HETATM   19  F   UNL     1     -10.092   7.218  70.010  1.00  0.00    -0.183 F  
HETATM   20  C   UNL     1      -9.816   9.826  65.965  1.00  0.00    -0.342 A  
HETATM   21  F   UNL     1      -8.290   7.084  68.806  1.00  0.00    -0.117 F  
ENDBRANCH  10  12
ENDBRANCH   3   8
TORSDOF 2
ENDMDL
MODEL      114
REMARK 921   NORMALIZED FREE ENERGY PREDICTED BY IDOCK:   -4.16 KCAL/MOL
REMARK 922        TOTAL FREE ENERGY PREDICTED BY IDOCK:   -5.24 KCAL/MOL
REMARK 923 INTER-LIGAND FREE ENERGY PREDICTED BY IDOCK:   -4.79 KCAL/MOL
REMARK 924 INTRA-LIGAND FREE ENERGY PREDICTED BY IDOCK:   -0.45 KCAL/MOL
REMARK 927      BINDING AFFINITY PREDICTED BY RF-SCORE:    0.00 PKD
ROOT
HETATM    1  C   UNL     1     -10.594  17.926  67.982  1.00  0.00    -0.366 C  
HETATM    2  C   UNL     1     -10.822  16.466  67.686  1.00  0.00    -0.280 C  
HETATM    3  C   UNL     1     -11.173  15.570  68.636  1.00  0.00    -0.326 C  
HETATM    4  O   UNL     1     -10.661  16.091  66.351  1.00  0.00    -0.308 OA 
HETATM    5  N   UNL     1     -11.499  16.446  71.054  1.00  0.00    -0.317 NA 
HETATM    6  C   UNL     1     -11.362  16.012  69.985  1.00  0.00    -0.352 C  
HETATM    7  H   UNL     1     -10.804  15.170  66.164  1.00  0.00     0.000 HD 
ENDROOT
BRANCH   3   8
HETATM    8  C   UNL     1     -11.387  14.102  68.417  1.00  0.00    -0.287 C  
HETATM    9  O   UNL     1     -12.534  13.679  68.277  1.00  0.00    -0.080 OA 
HETATM   10  N   UNL     1     -10.255  13.318  68.314  1.00  0.00    -0.246 N  
HETATM   11  H   UNL     1      -9.344  13.756  68.449  1.00  0.00     0.000 HD 
BRANCH  10  12
HETATM   12  C   UNL     1     -10.303  11.941  68.033  1.00  0.00    -0.196 A  
HETATM   13  C   UNL     1     -10.336  11.037  69.093  1.00  0.00    -0.210 A  
HETATM   14  C   UNL     1     -10.202   9.668  68.847  1.00  0.00    -0.214 A  
HETATM   15  C   UNL     1     -10.099   9.183  67.532  1.00  0.00    -0.284 A  
HETATM   16  C   UNL     1      -9.854   7.724  67.245  1.00  0.00    -0.189 C  
HETATM   17  C   UNL     1     -10.187  10.093  66.469  1.00  0.00    -0.288 A  
HETATM   18  F   UNL     1     -10.879   7.143  66.564  1.00  0.00    -0.336 F  
HETATM   19  F   UNL     1      -9.670   6.971  68.364  1.00  0.00    -0.138 F  
HETATM   20  C   UNL     1     -10.278  11.462  66.720  1.00  0.00    -0.258 A  
HETATM   21  F   UNL     1      -8.742   7.524  66.481  1.00  0.00    -0.116 F  
ENDBRANCH  10  12
ENDBRANCH   3   8
TORSDOF 2
ENDMDL
MODEL      115
REMARK 921   NORMALIZED FREE ENERGY PREDICTED BY IDOCK:   -4.13 KCAL/MOL
REMARK 922        TOTAL FREE ENERGY PREDICTED BY IDOCK:   -5.21 KCAL/MOL
REMARK 923 INTER-LIGAND FREE ENERGY PREDICTED BY IDOCK:   -4.58 KCAL/MOL
REMARK 924 INTRA-LIGAND FREE ENERGY PREDICTED BY IDOCK:   -0.63 KCAL/MOL
REMARK 927      BINDING AFFINITY PREDICTED BY RF-SCORE:    0.00 PKD
ROOT
HETATM    1  C   UNL     1      -9.392   3.258  65.988  1.00  0.00    -0.124 C  
HETATM    2  C   UNL     1     -10.047   4.588  66.254  1.00  0.00    -0.254 C  
HETATM    3  C   UNL     1      -9.417   5.603  66.889  1.00  0.00    -0.142 C  
HETATM    4  O   UNL     1     -11.356   4.718  65.788  1.00  0.00    -0.818 OA 
HETATM    5  N   UNL     1      -6.963   5.219  67.629  1.00  0.00    -0.064 NA 
HETATM    6  C   UNL     1      -8.061   5.431  67.316  1.00  0.00    -0.101 C  
HETATM    7  H   UNL     1     -11.770   5.557  65.957  1.00  0.00     0.000 HD 
ENDROOT
BRANCH   3   8
HETATM    8  C   UNL     1     -10.017   6.938  67.212  1.00  0.00    -0.172 C  
HETATM    9  O   UNL     1     -11.165   7.183  66.843  1.00  0.00    -0.243 OA 
HETATM   10  N   UNL     1      -9.251   7.795  67.977  1.00  0.00    -0.138 N  
HETATM   11  H   UNL     1      -8.306   7.508  68.234  1.00  0.00     0.000 HD 
BRANCH  10  12
HETATM   12  C   UNL     1      -9.715   9.046  68.419  1.00  0.00    -0.156 A  
HETATM   13  C   UNL     1     -10.419   9.119  69.619  1.00  0.00    -0.230 A  
HETATM   14  C   UNL     1     -11.045  10.313  69.990  1.00  0.00    -0.373 A  
HETATM   15  C   UNL     1     -10.918  11.465  69.197  1.00  0.00    -0.289 A  
HETATM   16  C   UNL     1     -11.662  12.734  69.521  1.00  0.00    -0.318 C  
HETATM   17  C   UNL     1     -10.108  11.410  68.054  1.00  0.00    -0.193 A  
HETATM   18  F   UNL     1     -10.831  13.771  69.811  1.00  0.00    -0.160 F  
HETATM   19  F   UNL     1     -12.504  12.617  70.586  1.00  0.00    -0.396 F  
HETATM   20  C   UNL     1      -9.521  10.207  67.664  1.00  0.00    -0.166 A  
HETATM   21  F   UNL     1     -12.439  13.161  68.485  1.00  0.00    -0.240 F  
ENDBRANCH  10  12
ENDBRANCH   3   8
TORSDOF 2
ENDMDL
MODEL      116
REMARK 921   NORMALIZED FREE ENERGY PREDICTED BY IDOCK:   -4.12 KCAL/MOL
REMARK 922        TOTAL FREE ENERGY PREDICTED BY IDOCK:   -5.20 KCAL/MOL
REMARK 923 INTER-LIGAND FREE ENERGY PREDICTED BY IDOCK:   -4.57 KCAL/MOL
REMARK 924 INTRA-LIGAND FREE ENERGY PREDICTED BY IDOCK:   -0.63 KCAL/MOL
REMARK 927      BINDING AFFINITY PREDICTED BY RF-SCORE:    0.00 PKD
ROOT
HETATM    1  C   UNL     1      -9.390  10.342  62.688  1.00  0.00    -0.335 C  
HETATM    2  C   UNL     1      -9.902  10.408  64.104  1.00  0.00    -0.313 C  
HETATM    3  C   UNL     1      -9.446   9.599  65.087  1.00  0.00    -0.332 C  
HETATM    4  O   UNL     1     -10.877  11.376  64.346  1.00  0.00    -0.335 OA 
HETATM    5  N   UNL     1      -7.583   7.902  64.484  1.00  0.00    -0.103 NA 
HETATM    6  C   UNL     1      -8.418   8.646  64.795  1.00  0.00    -0.149 C  
HETATM    7  H   UNL     1     -11.200  11.418  65.239  1.00  0.00     0.000 HD 
ENDROOT
BRANCH   3   8
HETATM    8  C   UNL     1      -9.930   9.592  66.506  1.00  0.00    -0.246 C  
HETATM    9  O   UNL     1     -10.846  10.347  66.830  1.00  0.00    -0.236 OA 
HETATM   10  N   UNL     1      -9.350   8.670  67.356  1.00  0.00    -0.141 N  
HETATM   11  H   UNL     1      -8.592   8.088  67.000  1.00  0.00     0.000 HD 
BRANCH  10  12
HETATM   12  C   UNL     1      -9.757   8.500  68.690  1.00  0.00    -0.164 A  
HETATM   13  C   UNL     1      -9.072   9.178  69.697  1.00  0.00    -0.163 A  
HETATM   14  C   UNL     1      -9.338   8.889  71.039  1.00  0.00    -0.313 A  
HETATM   15  C   UNL     1     -10.337   7.966  71.389  1.00  0.00    -0.234 A  
HETATM   16  C   UNL     1     -10.574   7.563  72.821  1.00  0.00    -0.313 C  
HETATM   17  C   UNL     1     -11.101   7.380  70.369  1.00  0.00    -0.284 A  
HETATM   18  F   UNL     1     -11.812   7.912  73.267  1.00  0.00    -0.319 F  
HETATM   19  F   UNL     1      -9.689   8.114  73.697  1.00  0.00    -0.333 F  
HETATM   20  C   UNL     1     -10.804   7.638  69.031  1.00  0.00    -0.059 A  
HETATM   21  F   UNL     1     -10.481   6.215  73.005  1.00  0.00    -0.193 F  
ENDBRANCH  10  12
ENDBRANCH   3   8
TORSDOF 2
ENDMDL
MODEL      117
REMARK 921   NORMALIZED FREE ENERGY PREDICTED BY IDOCK:   -4.11 KCAL/MOL
REMARK 922        TOTAL FREE ENERGY PREDICTED BY IDOCK:   -5.18 KCAL/MOL
REMARK 923 INTER-LIGAND FREE ENERGY PREDICTED BY IDOCK:   -4.67 KCAL/MOL
REMARK 924 INTRA-LIGAND FREE ENERGY PREDICTED BY IDOCK:   -0.51 KCAL/MOL
REMARK 927      BINDING AFFINITY PREDICTED BY RF-SCORE:    0.00 PKD
ROOT
HETATM    1  C   UNL     1     -12.258  12.820  63.398  1.00  0.00    -0.594 C  
HETATM    2  C   UNL     1     -11.800  12.243  64.713  1.00  0.00    -0.364 C  
HETATM    3  C   UNL     1     -10.766  11.377  64.814  1.00  0.00    -0.362 C  
HETATM    4  O   UNL     1     -12.506  12.674  65.837  1.00  0.00    -0.584 OA 
HETATM    5  N   UNL     1      -9.517  10.735  62.635  1.00  0.00    -0.306 NA 
HETATM    6  C   UNL     1     -10.050  10.995  63.634  1.00  0.00    -0.371 C  
HETATM    7  H   UNL     1     -12.217  12.310  66.666  1.00  0.00     0.000 HD 
ENDROOT
BRANCH   3   8
HETATM    8  C   UNL     1     -10.276  10.745  66.082  1.00  0.00    -0.250 C  
HETATM    9  O   UNL     1     -10.178  11.436  67.095  1.00  0.00    -0.195 OA 
HETATM   10  N   UNL     1     -10.030   9.387  66.044  1.00  0.00    -0.300 N  
HETATM   11  H   UNL     1     -10.134   8.897  65.156  1.00  0.00     0.000 HD 
BRANCH  10  12
HETATM   12  C   UNL     1      -9.641   8.650  67.176  1.00  0.00    -0.173 A  
HETATM   13  C   UNL     1      -8.326   8.750  67.628  1.00  0.00    -0.114 A  
HETATM   14  C   UNL     1      -7.867   7.897  68.635  1.00  0.00    -0.119 A  
HETATM   15  C   UNL     1      -8.735   6.978  69.246  1.00  0.00    -0.136 A  
HETATM   16  C   UNL     1      -8.243   5.980  70.262  1.00  0.00    -0.119 C  
HETATM   17  C   UNL     1     -10.085   6.969  68.866  1.00  0.00    -0.174 A  
HETATM   18  F   UNL     1      -8.801   6.160  71.490  1.00  0.00    -0.132 F  
HETATM   19  F   UNL     1      -6.895   6.015  70.453  1.00  0.00    -0.046 F  
HETATM   20  C   UNL     1     -10.530   7.792  67.832  1.00  0.00    -0.263 A  
HETATM   21  F   UNL     1      -8.530   4.694  69.910  1.00  0.00    -0.071 F  
ENDBRANCH  10  12
ENDBRANCH   3   8
TORSDOF 2
ENDMDL
MODEL      118
REMARK 921   NORMALIZED FREE ENERGY PREDICTED BY IDOCK:   -4.09 KCAL/MOL
REMARK 922        TOTAL FREE ENERGY PREDICTED BY IDOCK:   -5.17 KCAL/MOL
REMARK 923 INTER-LIGAND FREE ENERGY PREDICTED BY IDOCK:   -4.57 KCAL/MOL
REMARK 924 INTRA-LIGAND FREE ENERGY PREDICTED BY IDOCK:   -0.59 KCAL/MOL
REMARK 927      BINDING AFFINITY PREDICTED BY RF-SCORE:    0.00 PKD
ROOT
HETATM    1  C   UNL     1     -10.349  15.937  65.157  1.00  0.00    -0.284 C  
HETATM    2  C   UNL     1     -10.406  14.986  66.325  1.00  0.00    -0.296 C  
HETATM    3  C   UNL     1     -10.391  13.642  66.178  1.00  0.00    -0.297 C  
HETATM    4  O   UNL     1     -10.461  15.584  67.584  1.00  0.00    -0.267 OA 
HETATM    5  N   UNL     1     -10.215  12.696  63.771  1.00  0.00    -0.369 NA 
HETATM    6  C   UNL     1     -10.296  13.078  64.865  1.00  0.00    -0.324 C  
HETATM    7  H   UNL     1     -10.497  14.984  68.321  1.00  0.00     0.000 HD 
ENDROOT
BRANCH   3   8
HETATM    8  C   UNL     1     -10.473  12.641  67.291  1.00  0.00    -0.228 C  
HETATM    9  O   UNL     1     -11.274  12.828  68.206  1.00  0.00    -0.237 OA 
HETATM   10  N   UNL     1      -9.677  11.518  67.176  1.00  0.00    -0.183 N  
HETATM   11  H   UNL     1      -9.039  11.451  66.383  1.00  0.00     0.000 HD 
BRANCH  10  12
HETATM   12  C   UNL     1      -9.708  10.462  68.104  1.00  0.00    -0.151 A  
HETATM   13  C   UNL     1     -10.564   9.387  67.874  1.00  0.00    -0.293 A  
HETATM   14  C   UNL     1     -10.747   8.416  68.864  1.00  0.00    -0.095 A  
HETATM   15  C   UNL     1     -10.027   8.477  70.068  1.00  0.00    -0.191 A  
HETATM   16  C   UNL     1     -10.278   7.502  71.189  1.00  0.00    -0.193 C  
HETATM   17  C   UNL     1      -9.080   9.498  70.238  1.00  0.00    -0.296 A  
HETATM   18  F   UNL     1      -9.193   6.730  71.468  1.00  0.00    -0.148 F  
HETATM   19  F   UNL     1     -11.302   6.638  70.942  1.00  0.00    -0.291 F  
HETATM   20  C   UNL     1      -8.932  10.487  69.267  1.00  0.00    -0.148 A  
HETATM   21  F   UNL     1     -10.598   8.126  72.359  1.00  0.00    -0.287 F  
ENDBRANCH  10  12
ENDBRANCH   3   8
TORSDOF 2
ENDMDL
MODEL      119
REMARK 921   NORMALIZED FREE ENERGY PREDICTED BY IDOCK:   -4.08 KCAL/MOL
REMARK 922        TOTAL FREE ENERGY PREDICTED BY IDOCK:   -5.15 KCAL/MOL
REMARK 923 INTER-LIGAND FREE ENERGY PREDICTED BY IDOCK:   -4.61 KCAL/MOL
REMARK 924 INTRA-LIGAND FREE ENERGY PREDICTED BY IDOCK:   -0.54 KCAL/MOL
REMARK 927      BINDING AFFINITY PREDICTED BY RF-SCORE:    0.00 PKD
ROOT
HETATM    1  C   UNL     1      -9.524   3.269  62.736  1.00  0.00    -0.095 C  
HETATM    2  C   UNL     1      -9.729   3.935  64.072  1.00  0.00    -0.167 C  
HETATM    3  C   UNL     1      -8.704   4.374  64.839  1.00  0.00    -0.135 C  
HETATM    4  O   UNL     1     -11.058   4.088  64.470  1.00  0.00    -0.685 OA 
HETATM    5  N   UNL     1      -6.300   4.074  63.920  1.00  0.00    -0.025 NA 
HETATM    6  C   UNL     1      -7.360   4.226  64.369  1.00  0.00    -0.070 C  
HETATM    7  H   UNL     1     -11.187   4.509  65.313  1.00  0.00     0.000 HD 
ENDROOT
BRANCH   3   8
HETATM    8  C   UNL     1      -8.835   5.018  66.186  1.00  0.00    -0.125 C  
HETATM    9  O   UNL     1      -8.044   5.904  66.505  1.00  0.00    -0.101 OA 
HETATM   10  N   UNL     1      -9.900   4.613  66.968  1.00  0.00    -0.198 N  
HETATM   11  H   UNL     1     -10.503   3.867  66.622  1.00  0.00     0.000 HD 
BRANCH  10  12
HETATM   12  C   UNL     1     -10.190   5.185  68.219  1.00  0.00    -0.111 A  
HETATM   13  C   UNL     1      -9.753   4.538  69.373  1.00  0.00    -0.272 A  
HETATM   14  C   UNL     1     -10.179   4.985  70.627  1.00  0.00    -0.306 A  
HETATM   15  C   UNL     1     -10.994   6.123  70.743  1.00  0.00    -0.365 A  
HETATM   16  C   UNL     1     -11.548   6.567  72.072  1.00  0.00    -0.311 C  
HETATM   17  C   UNL     1     -11.328   6.835  69.582  1.00  0.00    -0.326 A  
HETATM   18  F   UNL     1     -11.095   7.794  72.448  1.00  0.00    -0.268 F  
HETATM   19  F   UNL     1     -11.246   5.724  73.098  1.00  0.00    -0.279 F  
HETATM   20  C   UNL     1     -10.937   6.362  68.330  1.00  0.00    -0.396 A  
HETATM   21  F   UNL     1     -12.909   6.662  72.064  1.00  0.00    -0.371 F  
ENDBRANCH  10  12
ENDBRANCH   3   8
TORSDOF 2
ENDMDL
MODEL      120
REMARK 921   NORMALIZED FREE ENERGY PREDICTED BY IDOCK:   -4.06 KCAL/MOL
REMARK 922        TOTAL FREE ENERGY PREDICTED BY IDOCK:   -5.12 KCAL/MOL
REMARK 923 INTER-LIGAND FREE ENERGY PREDICTED BY IDOCK:   -4.50 KCAL/MOL
REMARK 924 INTRA-LIGAND FREE ENERGY PREDICTED BY IDOCK:   -0.62 KCAL/MOL
REMARK 927      BINDING AFFINITY PREDICTED BY RF-SCORE:    0.00 PKD
ROOT
HETATM    1  C   UNL     1      -7.604   2.155  65.824  1.00  0.00    -0.071 C  
HETATM    2  C   UNL     1      -8.669   3.152  66.201  1.00  0.00    -0.130 C  
HETATM    3  C   UNL     1      -8.525   4.030  67.219  1.00  0.00    -0.100 C  
HETATM    4  O   UNL     1      -9.823   3.125  65.416  1.00  0.00    -0.373 OA 
HETATM    5  N   UNL     1      -6.290   3.994  68.531  1.00  0.00    -0.035 NA 
HETATM    6  C   UNL     1      -7.306   4.042  67.971  1.00  0.00    -0.063 C  
HETATM    7  H   UNL     1     -10.495   3.754  65.654  1.00  0.00     0.000 HD 
ENDROOT
BRANCH   3   8
HETATM    8  C   UNL     1      -9.552   5.028  67.665  1.00  0.00    -0.146 C  
HETATM    9  O   UNL     1     -10.538   5.228  66.957  1.00  0.00    -0.244 OA 
HETATM   10  N   UNL     1      -9.353   5.615  68.899  1.00  0.00    -0.118 N  
HETATM   11  H   UNL     1      -8.502   5.390  69.415  1.00  0.00     0.000 HD 
BRANCH  10  12
HETATM   12  C   UNL     1     -10.272   6.508  69.477  1.00  0.00    -0.186 A  
HETATM   13  C   UNL     1     -10.055   7.878  69.343  1.00  0.00    -0.196 A  
HETATM   14  C   UNL     1     -10.848   8.783  70.055  1.00  0.00    -0.231 A  
HETATM   15  C   UNL     1     -11.908   8.330  70.858  1.00  0.00    -0.232 A  
HETATM   16  C   UNL     1     -12.712   9.274  71.712  1.00  0.00    -0.381 C  
HETATM   17  C   UNL     1     -12.190   6.956  70.889  1.00  0.00    -0.404 A  
HETATM   18  F   UNL     1     -14.022   9.327  71.347  1.00  0.00    -0.414 F  
HETATM   19  F   UNL     1     -12.260  10.558  71.681  1.00  0.00    -0.439 F  
HETATM   20  C   UNL     1     -11.371   6.054  70.212  1.00  0.00    -0.336 A  
HETATM   21  F   UNL     1     -12.710   8.917  73.028  1.00  0.00    -0.398 F  
ENDBRANCH  10  12
ENDBRANCH   3   8
TORSDOF 2
ENDMDL
MODEL      121
REMARK 921   NORMALIZED FREE ENERGY PREDICTED BY IDOCK:   -4.05 KCAL/MOL
REMARK 922        TOTAL FREE ENERGY PREDICTED BY IDOCK:   -5.12 KCAL/MOL
REMARK 923 INTER-LIGAND FREE ENERGY PREDICTED BY IDOCK:   -4.57 KCAL/MOL
REMARK 924 INTRA-LIGAND FREE ENERGY PREDICTED BY IDOCK:   -0.55 KCAL/MOL
REMARK 927      BINDING AFFINITY PREDICTED BY RF-SCORE:    0.00 PKD
ROOT
HETATM    1  C   UNL     1      -9.567   2.978  71.738  1.00  0.00    -0.224 C  
HETATM    2  C   UNL     1     -10.069   4.370  71.452  1.00  0.00    -0.140 C  
HETATM    3  C   UNL     1     -10.175   4.870  70.199  1.00  0.00    -0.310 C  
HETATM    4  O   UNL     1     -10.438   5.118  72.571  1.00  0.00    -0.199 OA 
HETATM    5  N   UNL     1      -9.513   3.322  68.228  1.00  0.00    -0.180 NA 
HETATM    6  C   UNL     1      -9.818   4.048  69.082  1.00  0.00    -0.002 C  
HETATM    7  H   UNL     1     -10.754   5.996  72.390  1.00  0.00     0.000 HD 
ENDROOT
BRANCH   3   8
HETATM    8  C   UNL     1     -10.638   6.251  69.846  1.00  0.00    -0.249 C  
HETATM    9  O   UNL     1     -11.707   6.390  69.254  1.00  0.00    -0.277 OA 
HETATM   10  N   UNL     1      -9.850   7.300  70.278  1.00  0.00    -0.179 N  
HETATM   11  H   UNL     1      -8.976   7.088  70.759  1.00  0.00     0.000 HD 
BRANCH  10  12
HETATM   12  C   UNL     1     -10.201   8.648  70.086  1.00  0.00    -0.192 A  
HETATM   13  C   UNL     1     -11.033   9.267  71.016  1.00  0.00    -0.390 A  
HETATM   14  C   UNL     1     -11.541  10.544  70.757  1.00  0.00    -0.432 A  
HETATM   15  C   UNL     1     -11.170  11.240  69.595  1.00  0.00    -0.321 A  
HETATM   16  C   UNL     1     -11.779  12.573  69.244  1.00  0.00    -0.321 C  
HETATM   17  C   UNL     1     -10.238  10.654  68.726  1.00  0.00    -0.204 A  
HETATM   18  F   UNL     1     -10.863  13.579  69.218  1.00  0.00    -0.250 F  
HETATM   19  F   UNL     1     -12.754  12.972  70.107  1.00  0.00    -0.222 F  
HETATM   20  C   UNL     1      -9.767   9.364  68.966  1.00  0.00    -0.166 A  
HETATM   21  F   UNL     1     -12.361  12.570  68.010  1.00  0.00    -0.314 F  
ENDBRANCH  10  12
ENDBRANCH   3   8
TORSDOF 2
ENDMDL
MODEL      122
REMARK 921   NORMALIZED FREE ENERGY PREDICTED BY IDOCK:   -4.04 KCAL/MOL
REMARK 922        TOTAL FREE ENERGY PREDICTED BY IDOCK:   -5.10 KCAL/MOL
REMARK 923 INTER-LIGAND FREE ENERGY PREDICTED BY IDOCK:   -4.51 KCAL/MOL
REMARK 924 INTRA-LIGAND FREE ENERGY PREDICTED BY IDOCK:   -0.60 KCAL/MOL
REMARK 927      BINDING AFFINITY PREDICTED BY RF-SCORE:    0.00 PKD
ROOT
HETATM    1  C   UNL     1     -11.980  15.726  68.628  1.00  0.00    -0.165 C  
HETATM    2  C   UNL     1     -11.188  14.444  68.622  1.00  0.00    -0.259 C  
HETATM    3  C   UNL     1     -11.254  13.545  67.614  1.00  0.00    -0.304 C  
HETATM    4  O   UNL     1     -10.359  14.245  69.727  1.00  0.00    -0.430 OA 
HETATM    5  N   UNL     1     -12.792  14.103  65.604  1.00  0.00    -0.566 NA 
HETATM    6  C   UNL     1     -12.093  13.814  66.485  1.00  0.00    -0.443 C  
HETATM    7  H   UNL     1      -9.859  13.436  69.723  1.00  0.00     0.000 HD 
ENDROOT
BRANCH   3   8
HETATM    8  C   UNL     1     -10.517  12.240  67.557  1.00  0.00    -0.213 C  
HETATM    9  O   UNL     1      -9.451  12.129  68.161  1.00  0.00    -0.194 OA 
HETATM   10  N   UNL     1     -11.132  11.209  66.874  1.00  0.00    -0.280 N  
HETATM   11  H   UNL     1     -12.014  11.396  66.399  1.00  0.00     0.000 HD 
BRANCH  10  12
HETATM   12  C   UNL     1     -10.593   9.912  66.804  1.00  0.00    -0.144 A  
HETATM   13  C   UNL     1     -10.890   9.004  67.818  1.00  0.00    -0.125 A  
HETATM   14  C   UNL     1     -10.228   7.773  67.869  1.00  0.00    -0.259 A  
HETATM   15  C   UNL     1      -9.310   7.413  66.869  1.00  0.00    -0.195 A  
HETATM   16  C   UNL     1      -8.510   6.138  66.953  1.00  0.00    -0.105 C  
HETATM   17  C   UNL     1      -9.110   8.286  65.790  1.00  0.00    -0.169 A  
HETATM   18  F   UNL     1      -8.788   5.275  65.938  1.00  0.00    -0.126 F  
HETATM   19  F   UNL     1      -8.712   5.442  68.106  1.00  0.00    -0.107 F  
HETATM   20  C   UNL     1      -9.739   9.530  65.765  1.00  0.00    -0.357 A  
HETATM   21  F   UNL     1      -7.166   6.362  66.890  1.00  0.00    -0.067 F  
ENDBRANCH  10  12
ENDBRANCH   3   8
TORSDOF 2
ENDMDL
MODEL      123
REMARK 921   NORMALIZED FREE ENERGY PREDICTED BY IDOCK:   -4.02 KCAL/MOL
REMARK 922        TOTAL FREE ENERGY PREDICTED BY IDOCK:   -5.09 KCAL/MOL
REMARK 923 INTER-LIGAND FREE ENERGY PREDICTED BY IDOCK:   -4.52 KCAL/MOL
REMARK 924 INTRA-LIGAND FREE ENERGY PREDICTED BY IDOCK:   -0.57 KCAL/MOL
REMARK 927      BINDING AFFINITY PREDICTED BY RF-SCORE:    0.00 PKD
ROOT
HETATM    1  C   UNL     1      -5.535   9.856  71.384  1.00  0.00    -0.073 C  
HETATM    2  C   UNL     1      -6.458  10.163  70.233  1.00  0.00    -0.128 C  
HETATM    3  C   UNL     1      -6.593  11.403  69.711  1.00  0.00    -0.111 C  
HETATM    4  O   UNL     1      -7.163   9.073  69.721  1.00  0.00    -0.052 OA 
HETATM    5  N   UNL     1      -5.157  13.302  70.735  1.00  0.00    -0.111 NA 
HETATM    6  C   UNL     1      -5.819  12.481  70.249  1.00  0.00    -0.159 C  
HETATM    7  H   UNL     1      -7.745   9.266  68.995  1.00  0.00     0.000 HD 
ENDROOT
BRANCH   3   8
HETATM    8  C   UNL     1      -7.511  11.783  68.589  1.00  0.00    -0.120 C  
HETATM    9  O   UNL     1      -7.091  12.515  67.694  1.00  0.00    -0.111 OA 
HETATM   10  N   UNL     1      -8.772  11.218  68.598  1.00  0.00    -0.210 N  
HETATM   11  H   UNL     1      -9.034  10.625  69.386  1.00  0.00     0.000 HD 
BRANCH  10  12
HETATM   12  C   UNL     1      -9.708  11.423  67.571  1.00  0.00    -0.178 A  
HETATM   13  C   UNL     1      -9.641  10.628  66.428  1.00  0.00    -0.230 A  
HETATM   14  C   UNL     1     -10.440  10.928  65.321  1.00  0.00    -0.299 A  
HETATM   15  C   UNL     1     -11.362  11.987  65.368  1.00  0.00    -0.375 A  
HETATM   16  C   UNL     1     -12.162  12.393  64.158  1.00  0.00    -0.468 C  
HETATM   17  C   UNL     1     -11.504  12.704  66.565  1.00  0.00    -0.409 A  
HETATM   18  F   UNL     1     -13.501  12.231  64.334  1.00  0.00    -0.376 F  
HETATM   19  F   UNL     1     -11.842  11.695  63.033  1.00  0.00    -0.422 F  
HETATM   20  C   UNL     1     -10.676  12.430  67.652  1.00  0.00    -0.248 A  
HETATM   21  F   UNL     1     -11.987  13.707  63.836  1.00  0.00    -0.438 F  
ENDBRANCH  10  12
ENDBRANCH   3   8
TORSDOF 2
ENDMDL
MODEL      124
REMARK 921   NORMALIZED FREE ENERGY PREDICTED BY IDOCK:   -4.01 KCAL/MOL
REMARK 922        TOTAL FREE ENERGY PREDICTED BY IDOCK:   -5.07 KCAL/MOL
REMARK 923 INTER-LIGAND FREE ENERGY PREDICTED BY IDOCK:   -4.59 KCAL/MOL
REMARK 924 INTRA-LIGAND FREE ENERGY PREDICTED BY IDOCK:   -0.48 KCAL/MOL
REMARK 927      BINDING AFFINITY PREDICTED BY RF-SCORE:    0.00 PKD
ROOT
HETATM    1  C   UNL     1      -7.713  20.547  66.853  1.00  0.00    -0.323 C  
HETATM    2  C   UNL     1      -7.844  19.048  66.944  1.00  0.00    -0.245 C  
HETATM    3  C   UNL     1      -8.721  18.437  67.773  1.00  0.00    -0.278 C  
HETATM    4  O   UNL     1      -7.007  18.319  66.099  1.00  0.00    -0.223 OA 
HETATM    5  N   UNL     1     -10.252  19.942  69.225  1.00  0.00    -0.272 NA 
HETATM    6  C   UNL     1      -9.584  19.232  68.594  1.00  0.00    -0.418 C  
HETATM    7  H   UNL     1      -7.089  17.374  66.156  1.00  0.00     0.000 HD 
ENDROOT
BRANCH   3   8
HETATM    8  C   UNL     1      -8.884  16.956  67.934  1.00  0.00    -0.218 C  
HETATM    9  O   UNL     1      -9.238  16.507  69.023  1.00  0.00    -0.257 OA 
HETATM   10  N   UNL     1      -8.689  16.183  66.806  1.00  0.00    -0.215 N  
HETATM   11  H   UNL     1      -8.392  16.643  65.945  1.00  0.00     0.000 HD 
BRANCH  10  12
HETATM   12  C   UNL     1      -8.882  14.791  66.791  1.00  0.00    -0.252 A  
HETATM   13  C   UNL     1     -10.013  14.274  66.161  1.00  0.00    -0.330 A  
HETATM   14  C   UNL     1     -10.323  12.917  66.286  1.00  0.00    -0.278 A  
HETATM   15  C   UNL     1      -9.470  12.049  66.988  1.00  0.00    -0.199 A  
HETATM   16  C   UNL     1      -9.830  10.605  67.223  1.00  0.00    -0.176 C  
HETATM   17  C   UNL     1      -8.274  12.559  67.515  1.00  0.00    -0.175 A  
HETATM   18  F   UNL     1      -8.961   9.743  66.627  1.00  0.00    -0.141 F  
HETATM   19  F   UNL     1     -11.067  10.269  66.764  1.00  0.00    -0.259 F  
HETATM   20  C   UNL     1      -7.990  13.921  67.425  1.00  0.00    -0.184 A  
HETATM   21  F   UNL     1      -9.828  10.276  68.546  1.00  0.00    -0.150 F  
ENDBRANCH  10  12
ENDBRANCH   3   8
TORSDOF 2
ENDMDL
MODEL      125
REMARK 921   NORMALIZED FREE ENERGY PREDICTED BY IDOCK:   -3.98 KCAL/MOL
REMARK 922        TOTAL FREE ENERGY PREDICTED BY IDOCK:   -5.04 KCAL/MOL
REMARK 923 INTER-LIGAND FREE ENERGY PREDICTED BY IDOCK:   -4.54 KCAL/MOL
REMARK 924 INTRA-LIGAND FREE ENERGY PREDICTED BY IDOCK:   -0.50 KCAL/MOL
REMARK 927      BINDING AFFINITY PREDICTED BY RF-SCORE:    0.00 PKD
ROOT
HETATM    1  C   UNL     1      -9.361   3.465  62.886  1.00  0.00    -0.094 C  
HETATM    2  C   UNL     1      -9.688   4.183  64.170  1.00  0.00    -0.139 C  
HETATM    3  C   UNL     1      -8.760   4.843  64.899  1.00  0.00    -0.150 C  
HETATM    4  O   UNL     1     -11.027   4.138  64.559  1.00  0.00    -0.595 OA 
HETATM    5  N   UNL     1      -6.330   4.887  63.997  1.00  0.00    -0.022 NA 
HETATM    6  C   UNL     1      -7.405   4.891  64.437  1.00  0.00    -0.059 C  
HETATM    7  H   UNL     1     -11.234   4.591  65.369  1.00  0.00     0.000 HD 
ENDROOT
BRANCH   3   8
HETATM    8  C   UNL     1      -9.010   5.553  66.195  1.00  0.00    -0.145 C  
HETATM    9  O   UNL     1      -8.103   5.624  67.024  1.00  0.00    -0.102 OA 
HETATM   10  N   UNL     1     -10.246   6.152  66.347  1.00  0.00    -0.400 N  
HETATM   11  H   UNL     1     -10.938   6.036  65.608  1.00  0.00     0.000 HD 
BRANCH  10  12
HETATM   12  C   UNL     1     -10.590   6.915  67.476  1.00  0.00    -0.281 A  
HETATM   13  C   UNL     1     -10.576   8.305  67.381  1.00  0.00    -0.324 A  
HETATM   14  C   UNL     1     -10.738   9.086  68.529  1.00  0.00    -0.140 A  
HETATM   15  C   UNL     1     -10.980   8.485  69.775  1.00  0.00    -0.131 A  
HETATM   16  C   UNL     1     -11.059   9.296  71.042  1.00  0.00    -0.326 C  
HETATM   17  C   UNL     1     -11.112   7.090  69.837  1.00  0.00    -0.301 A  
HETATM   18  F   UNL     1     -12.283   9.233  71.633  1.00  0.00    -0.342 F  
HETATM   19  F   UNL     1     -10.797  10.620  70.860  1.00  0.00    -0.234 F  
HETATM   20  C   UNL     1     -10.907   6.313  68.698  1.00  0.00    -0.401 A  
HETATM   21  F   UNL     1     -10.171   8.873  71.987  1.00  0.00    -0.353 F  
ENDBRANCH  10  12
ENDBRANCH   3   8
TORSDOF 2
ENDMDL
MODEL      126
REMARK 921   NORMALIZED FREE ENERGY PREDICTED BY IDOCK:   -3.95 KCAL/MOL
REMARK 922        TOTAL FREE ENERGY PREDICTED BY IDOCK:   -5.00 KCAL/MOL
REMARK 923 INTER-LIGAND FREE ENERGY PREDICTED BY IDOCK:   -4.83 KCAL/MOL
REMARK 924 INTRA-LIGAND FREE ENERGY PREDICTED BY IDOCK:   -0.17 KCAL/MOL
REMARK 927      BINDING AFFINITY PREDICTED BY RF-SCORE:    0.00 PKD
ROOT
HETATM    1  C   UNL     1     -12.129  14.161  66.240  1.00  0.00    -0.463 C  
HETATM    2  C   UNL     1     -11.927  12.816  66.889  1.00  0.00    -0.310 C  
HETATM    3  C   UNL     1     -11.779  12.659  68.224  1.00  0.00    -0.389 C  
HETATM    4  O   UNL     1     -11.916  11.725  66.019  1.00  0.00    -0.435 OA 
HETATM    5  N   UNL     1     -11.894  14.784  69.705  1.00  0.00    -0.301 NA 
HETATM    6  C   UNL     1     -11.835  13.808  69.078  1.00  0.00    -0.357 C  
HETATM    7  H   UNL     1     -11.789  10.876  66.428  1.00  0.00     0.000 HD 
ENDROOT
BRANCH   3   8
HETATM    8  C   UNL     1     -11.547  11.358  68.930  1.00  0.00    -0.323 C  
HETATM    9  O   UNL     1     -12.074  11.169  70.026  1.00  0.00    -0.309 OA 
HETATM   10  N   UNL     1     -10.800  10.411  68.258  1.00  0.00    -0.235 N  
HETATM   11  H   UNL     1     -10.399  10.658  67.354  1.00  0.00     0.000 HD 
BRANCH  10  12
HETATM   12  C   UNL     1     -10.567   9.120  68.765  1.00  0.00    -0.181 A  
HETATM   13  C   UNL     1     -10.105   8.983  70.073  1.00  0.00    -0.215 A  
HETATM   14  C   UNL     1      -9.696   7.731  70.541  1.00  0.00    -0.175 A  
HETATM   15  C   UNL     1      -9.806   6.591  69.727  1.00  0.00    -0.182 A  
HETATM   16  C   UNL     1      -9.281   5.250  70.170  1.00  0.00    -0.139 C  
HETATM   17  C   UNL     1     -10.385   6.723  68.456  1.00  0.00    -0.210 A  
HETATM   18  F   UNL     1     -10.263   4.316  70.295  1.00  0.00    -0.293 F  
HETATM   19  F   UNL     1      -8.639   5.285  71.370  1.00  0.00    -0.120 F  
HETATM   20  C   UNL     1     -10.752   7.980  67.977  1.00  0.00    -0.112 A  
HETATM   21  F   UNL     1      -8.383   4.726  69.287  1.00  0.00    -0.078 F  
ENDBRANCH  10  12
ENDBRANCH   3   8
TORSDOF 2
ENDMDL
MODEL      127
REMARK 921   NORMALIZED FREE ENERGY PREDICTED BY IDOCK:   -3.94 KCAL/MOL
REMARK 922        TOTAL FREE ENERGY PREDICTED BY IDOCK:   -4.99 KCAL/MOL
REMARK 923 INTER-LIGAND FREE ENERGY PREDICTED BY IDOCK:   -4.44 KCAL/MOL
REMARK 924 INTRA-LIGAND FREE ENERGY PREDICTED BY IDOCK:   -0.55 KCAL/MOL
REMARK 927      BINDING AFFINITY PREDICTED BY RF-SCORE:    0.00 PKD
ROOT
HETATM    1  C   UNL     1      -6.866   2.665  74.446  1.00  0.00    -0.031 C  
HETATM    2  C   UNL     1      -7.552   3.990  74.230  1.00  0.00    -0.075 C  
HETATM    3  C   UNL     1      -8.821   4.093  73.774  1.00  0.00    -0.093 C  
HETATM    4  O   UNL     1      -6.794   5.118  74.547  1.00  0.00    -0.074 OA 
HETATM    5  N   UNL     1     -10.112   1.896  73.299  1.00  0.00    -0.091 NA 
HETATM    6  C   UNL     1      -9.569   2.903  73.498  1.00  0.00    -0.095 C  
HETATM    7  H   UNL     1      -7.227   5.953  74.411  1.00  0.00     0.000 HD 
ENDROOT
BRANCH   3   8
HETATM    8  C   UNL     1      -9.552   5.375  73.511  1.00  0.00    -0.138 C  
HETATM    9  O   UNL     1      -9.539   6.258  74.366  1.00  0.00    -0.188 OA 
HETATM   10  N   UNL     1     -10.147   5.508  72.271  1.00  0.00    -0.178 N  
HETATM   11  H   UNL     1     -10.110   4.719  71.625  1.00  0.00     0.000 HD 
BRANCH  10  12
HETATM   12  C   UNL     1     -10.799   6.683  71.859  1.00  0.00    -0.236 A  
HETATM   13  C   UNL     1     -10.033   7.755  71.405  1.00  0.00    -0.207 A  
HETATM   14  C   UNL     1     -10.639   8.991  71.162  1.00  0.00    -0.361 A  
HETATM   15  C   UNL     1     -12.027   9.150  71.306  1.00  0.00    -0.394 A  
HETATM   16  C   UNL     1     -12.690  10.493  71.147  1.00  0.00    -0.418 C  
HETATM   17  C   UNL     1     -12.802   8.031  71.647  1.00  0.00    -0.350 A  
HETATM   18  F   UNL     1     -13.566  10.527  70.106  1.00  0.00    -0.168 F  
HETATM   19  F   UNL     1     -11.814  11.513  70.935  1.00  0.00    -0.408 F  
HETATM   20  C   UNL     1     -12.190   6.811  71.931  1.00  0.00    -0.377 A  
HETATM   21  F   UNL     1     -13.411  10.852  72.248  1.00  0.00    -0.560 F  
ENDBRANCH  10  12
ENDBRANCH   3   8
TORSDOF 2
ENDMDL
MODEL      128
REMARK 921   NORMALIZED FREE ENERGY PREDICTED BY IDOCK:   -3.94 KCAL/MOL
REMARK 922        TOTAL FREE ENERGY PREDICTED BY IDOCK:   -4.99 KCAL/MOL
REMARK 923 INTER-LIGAND FREE ENERGY PREDICTED BY IDOCK:   -4.44 KCAL/MOL
REMARK 924 INTRA-LIGAND FREE ENERGY PREDICTED BY IDOCK:   -0.55 KCAL/MOL
REMARK 927      BINDING AFFINITY PREDICTED BY RF-SCORE:    0.00 PKD
ROOT
HETATM    1  C   UNL     1     -11.681  13.441  66.395  1.00  0.00    -0.409 C  
HETATM    2  C   UNL     1     -11.197  12.222  67.137  1.00  0.00    -0.307 C  
HETATM    3  C   UNL     1     -10.762  11.105  66.509  1.00  0.00    -0.314 C  
HETATM    4  O   UNL     1     -11.211  12.319  68.529  1.00  0.00    -0.231 OA 
HETATM    5  N   UNL     1     -10.735  11.115  63.918  1.00  0.00    -0.378 NA 
HETATM    6  C   UNL     1     -10.733  11.069  65.078  1.00  0.00    -0.194 C  
HETATM    7  H   UNL     1     -10.906  11.550  68.997  1.00  0.00     0.000 HD 
ENDROOT
BRANCH   3   8
HETATM    8  C   UNL     1     -10.294   9.850  67.183  1.00  0.00    -0.243 C  
HETATM    9  O   UNL     1      -9.139   9.470  67.004  1.00  0.00    -0.132 OA 
HETATM   10  N   UNL     1     -11.190   9.231  68.033  1.00  0.00    -0.459 N  
HETATM   11  H   UNL     1     -12.131   9.617  68.115  1.00  0.00     0.000 HD 
BRANCH  10  12
HETATM   12  C   UNL     1     -10.863   8.092  68.789  1.00  0.00     0.057 A  
HETATM   13  C   UNL     1     -10.481   8.253  70.119  1.00  0.00    -0.225 A  
HETATM   14  C   UNL     1      -9.980   7.164  70.838  1.00  0.00    -0.193 A  
HETATM   15  C   UNL     1      -9.915   5.888  70.253  1.00  0.00    -0.247 A  
HETATM   16  C   UNL     1      -9.287   4.721  70.970  1.00  0.00    -0.148 C  
HETATM   17  C   UNL     1     -10.413   5.716  68.954  1.00  0.00    -0.310 A  
HETATM   18  F   UNL     1     -10.174   3.721  71.223  1.00  0.00    -0.231 F  
HETATM   19  F   UNL     1      -8.738   5.050  72.172  1.00  0.00    -0.122 F  
HETATM   20  C   UNL     1     -10.873   6.812  68.225  1.00  0.00    -0.290 A  
HETATM   21  F   UNL     1      -8.280   4.149  70.251  1.00  0.00    -0.059 F  
ENDBRANCH  10  12
ENDBRANCH   3   8
TORSDOF 2
ENDMDL
MODEL      129
REMARK 921   NORMALIZED FREE ENERGY PREDICTED BY IDOCK:   -3.92 KCAL/MOL
REMARK 922        TOTAL FREE ENERGY PREDICTED BY IDOCK:   -4.97 KCAL/MOL
REMARK 923 INTER-LIGAND FREE ENERGY PREDICTED BY IDOCK:   -4.99 KCAL/MOL
REMARK 924 INTRA-LIGAND FREE ENERGY PREDICTED BY IDOCK:    0.02 KCAL/MOL
REMARK 927      BINDING AFFINITY PREDICTED BY RF-SCORE:    0.00 PKD
ROOT
HETATM    1  C   UNL     1      -9.263   6.837  74.435  1.00  0.00    -0.248 C  
HETATM    2  C   UNL     1      -9.354   7.766  73.252  1.00  0.00    -0.270 C  
HETATM    3  C   UNL     1     -10.264   7.609  72.264  1.00  0.00    -0.268 C  
HETATM    4  O   UNL     1      -8.441   8.821  73.244  1.00  0.00    -0.366 OA 
HETATM    5  N   UNL     1     -11.933   5.636  72.468  1.00  0.00    -0.180 NA 
HETATM    6  C   UNL     1     -11.204   6.530  72.337  1.00  0.00    -0.275 C  
HETATM    7  H   UNL     1      -8.498   9.407  72.498  1.00  0.00     0.000 HD 
ENDROOT
BRANCH   3   8
HETATM    8  C   UNL     1     -10.391   8.476  71.048  1.00  0.00    -0.209 C  
HETATM    9  O   UNL     1     -10.426   9.698  71.185  1.00  0.00    -0.307 OA 
HETATM   10  N   UNL     1     -10.391   7.835  69.824  1.00  0.00    -0.216 N  
HETATM   11  H   UNL     1     -10.364   6.815  69.808  1.00  0.00     0.000 HD 
BRANCH  10  12
HETATM   12  C   UNL     1     -10.427   8.525  68.600  1.00  0.00    -0.169 A  
HETATM   13  C   UNL     1      -9.815   7.954  67.486  1.00  0.00    -0.221 A  
HETATM   14  C   UNL     1      -9.678   8.695  66.308  1.00  0.00    -0.322 A  
HETATM   15  C   UNL     1     -10.211   9.991  66.212  1.00  0.00    -0.285 A  
HETATM   16  C   UNL     1      -9.991  10.847  64.991  1.00  0.00    -0.298 C  
HETATM   17  C   UNL     1     -10.929  10.508  67.300  1.00  0.00    -0.325 A  
HETATM   18  F   UNL     1     -11.150  11.149  64.346  1.00  0.00    -0.403 F  
HETATM   19  F   UNL     1      -9.180  10.273  64.061  1.00  0.00    -0.200 F  
HETATM   20  C   UNL     1     -11.025   9.784  68.487  1.00  0.00    -0.195 A  
HETATM   21  F   UNL     1      -9.413  12.045  65.293  1.00  0.00    -0.228 F  
ENDBRANCH  10  12
ENDBRANCH   3   8
TORSDOF 2
ENDMDL
MODEL      130
REMARK 921   NORMALIZED FREE ENERGY PREDICTED BY IDOCK:   -3.91 KCAL/MOL
REMARK 922        TOTAL FREE ENERGY PREDICTED BY IDOCK:   -4.96 KCAL/MOL
REMARK 923 INTER-LIGAND FREE ENERGY PREDICTED BY IDOCK:   -4.36 KCAL/MOL
REMARK 924 INTRA-LIGAND FREE ENERGY PREDICTED BY IDOCK:   -0.61 KCAL/MOL
REMARK 927      BINDING AFFINITY PREDICTED BY RF-SCORE:    0.00 PKD
ROOT
HETATM    1  C   UNL     1     -12.540  15.169  70.073  1.00  0.00    -0.263 C  
HETATM    2  C   UNL     1     -11.705  14.621  68.944  1.00  0.00    -0.309 C  
HETATM    3  C   UNL     1     -11.452  13.301  68.792  1.00  0.00    -0.346 C  
HETATM    4  O   UNL     1     -11.214  15.569  68.046  1.00  0.00    -0.313 OA 
HETATM    5  N   UNL     1     -12.499  11.669  70.511  1.00  0.00    -0.289 NA 
HETATM    6  C   UNL     1     -12.011  12.366  69.721  1.00  0.00    -0.289 C  
HETATM    7  H   UNL     1     -10.687  15.224  67.334  1.00  0.00     0.000 HD 
ENDROOT
BRANCH   3   8
HETATM    8  C   UNL     1     -10.609  12.693  67.712  1.00  0.00    -0.220 C  
HETATM    9  O   UNL     1      -9.650  13.325  67.274  1.00  0.00    -0.221 OA 
HETATM   10  N   UNL     1     -10.932  11.408  67.322  1.00  0.00    -0.265 N  
HETATM   11  H   UNL     1     -11.750  10.963  67.738  1.00  0.00     0.000 HD 
BRANCH  10  12
HETATM   12  C   UNL     1     -10.183  10.686  66.376  1.00  0.00    -0.234 A  
HETATM   13  C   UNL     1      -9.203   9.803  66.825  1.00  0.00    -0.179 A  
HETATM   14  C   UNL     1      -8.325   9.211  65.912  1.00  0.00    -0.127 A  
HETATM   15  C   UNL     1      -8.461   9.445  64.534  1.00  0.00    -0.189 A  
HETATM   16  C   UNL     1      -7.469   8.901  63.538  1.00  0.00    -0.105 C  
HETATM   17  C   UNL     1      -9.525  10.241  64.086  1.00  0.00    -0.358 A  
HETATM   18  F   UNL     1      -8.030   8.019  62.666  1.00  0.00    -0.122 F  
HETATM   19  F   UNL     1      -6.421   8.248  64.112  1.00  0.00    -0.064 F  
HETATM   20  C   UNL     1     -10.372  10.864  65.002  1.00  0.00    -0.356 A  
HETATM   21  F   UNL     1      -6.914   9.880  62.768  1.00  0.00    -0.105 F  
ENDBRANCH  10  12
ENDBRANCH   3   8
TORSDOF 2
ENDMDL
MODEL      131
REMARK 921   NORMALIZED FREE ENERGY PREDICTED BY IDOCK:   -3.91 KCAL/MOL
REMARK 922        TOTAL FREE ENERGY PREDICTED BY IDOCK:   -4.96 KCAL/MOL
REMARK 923 INTER-LIGAND FREE ENERGY PREDICTED BY IDOCK:   -4.42 KCAL/MOL
REMARK 924 INTRA-LIGAND FREE ENERGY PREDICTED BY IDOCK:   -0.54 KCAL/MOL
REMARK 927      BINDING AFFINITY PREDICTED BY RF-SCORE:    0.00 PKD
ROOT
HETATM    1  C   UNL     1      -8.738   6.003  65.939  1.00  0.00    -0.157 C  
HETATM    2  C   UNL     1      -9.173   7.443  65.852  1.00  0.00     0.031 C  
HETATM    3  C   UNL     1      -9.696   8.116  66.903  1.00  0.00    -0.291 C  
HETATM    4  O   UNL     1      -8.990   8.053  64.611  1.00  0.00    -0.341 OA 
HETATM    5  N   UNL     1      -9.905   6.854  69.157  1.00  0.00    -0.154 NA 
HETATM    6  C   UNL     1      -9.830   7.455  68.166  1.00  0.00    -0.156 C  
HETATM    7  H   UNL     1      -9.264   8.961  64.556  1.00  0.00     0.000 HD 
ENDROOT
BRANCH   3   8
HETATM    8  C   UNL     1     -10.175   9.536  66.879  1.00  0.00    -0.249 C  
HETATM    9  O   UNL     1     -11.172   9.843  67.531  1.00  0.00    -0.196 OA 
HETATM   10  N   UNL     1      -9.408  10.439  66.168  1.00  0.00    -0.166 N  
HETATM   11  H   UNL     1      -8.598  10.092  65.653  1.00  0.00     0.000 HD 
BRANCH  10  12
HETATM   12  C   UNL     1      -9.693  11.814  66.122  1.00  0.00    -0.229 A  
HETATM   13  C   UNL     1     -10.339  12.332  65.001  1.00  0.00    -0.321 A  
HETATM   14  C   UNL     1     -10.473  13.715  64.850  1.00  0.00    -0.426 A  
HETATM   15  C   UNL     1     -10.021  14.592  65.849  1.00  0.00    -0.352 A  
HETATM   16  C   UNL     1     -10.062  16.088  65.666  1.00  0.00    -0.354 C  
HETATM   17  C   UNL     1      -9.481  14.053  67.026  1.00  0.00    -0.253 A  
HETATM   18  F   UNL     1     -10.877  16.704  66.565  1.00  0.00    -0.280 F  
HETATM   19  F   UNL     1     -10.497  16.475  64.436  1.00  0.00     0.002 F  
HETATM   20  C   UNL     1      -9.310  12.676  67.155  1.00  0.00    -0.210 A  
HETATM   21  F   UNL     1      -8.837  16.665  65.821  1.00  0.00    -0.317 F  
ENDBRANCH  10  12
ENDBRANCH   3   8
TORSDOF 2
ENDMDL
MODEL      132
REMARK 921   NORMALIZED FREE ENERGY PREDICTED BY IDOCK:   -3.90 KCAL/MOL
REMARK 922        TOTAL FREE ENERGY PREDICTED BY IDOCK:   -4.95 KCAL/MOL
REMARK 923 INTER-LIGAND FREE ENERGY PREDICTED BY IDOCK:   -4.34 KCAL/MOL
REMARK 924 INTRA-LIGAND FREE ENERGY PREDICTED BY IDOCK:   -0.61 KCAL/MOL
REMARK 927      BINDING AFFINITY PREDICTED BY RF-SCORE:    0.00 PKD
ROOT
HETATM    1  C   UNL     1      -6.323  15.451  67.595  1.00  0.00    -0.177 C  
HETATM    2  C   UNL     1      -7.372  14.369  67.565  1.00  0.00    -0.186 C  
HETATM    3  C   UNL     1      -7.310  13.265  68.344  1.00  0.00    -0.112 C  
HETATM    4  O   UNL     1      -8.432  14.584  66.684  1.00  0.00    -0.415 OA 
HETATM    5  N   UNL     1      -5.307  13.054  69.975  1.00  0.00    -0.094 NA 
HETATM    6  C   UNL     1      -6.218  13.109  69.258  1.00  0.00    -0.102 C  
HETATM    7  H   UNL     1      -9.094  13.902  66.665  1.00  0.00     0.000 HD 
ENDROOT
BRANCH   3   8
HETATM    8  C   UNL     1      -8.300  12.140  68.344  1.00  0.00    -0.143 C  
HETATM    9  O   UNL     1      -9.169  12.107  67.474  1.00  0.00    -0.173 OA 
HETATM   10  N   UNL     1      -8.124  11.157  69.300  1.00  0.00    -0.371 N  
HETATM   11  H   UNL     1      -7.377  11.271  69.984  1.00  0.00     0.000 HD 
BRANCH  10  12
HETATM   12  C   UNL     1      -8.930  10.007  69.369  1.00  0.00    -0.194 A  
HETATM   13  C   UNL     1     -10.165  10.088  70.009  1.00  0.00    -0.306 A  
HETATM   14  C   UNL     1     -10.903   8.925  70.251  1.00  0.00    -0.265 A  
HETATM   15  C   UNL     1     -10.443   7.677  69.797  1.00  0.00    -0.232 A  
HETATM   16  C   UNL     1     -11.167   6.399  70.130  1.00  0.00    -0.390 C  
HETATM   17  C   UNL     1      -9.257   7.627  69.050  1.00  0.00    -0.140 A  
HETATM   18  F   UNL     1     -11.648   5.764  69.027  1.00  0.00    -0.258 F  
HETATM   19  F   UNL     1     -12.233   6.575  70.958  1.00  0.00    -0.397 F  
HETATM   20  C   UNL     1      -8.502   8.782  68.848  1.00  0.00    -0.131 A  
HETATM   21  F   UNL     1     -10.362   5.493  70.756  1.00  0.00    -0.252 F  
ENDBRANCH  10  12
ENDBRANCH   3   8
TORSDOF 2
ENDMDL
MODEL      133
REMARK 921   NORMALIZED FREE ENERGY PREDICTED BY IDOCK:   -3.88 KCAL/MOL
REMARK 922        TOTAL FREE ENERGY PREDICTED BY IDOCK:   -4.93 KCAL/MOL
REMARK 923 INTER-LIGAND FREE ENERGY PREDICTED BY IDOCK:   -4.41 KCAL/MOL
REMARK 924 INTRA-LIGAND FREE ENERGY PREDICTED BY IDOCK:   -0.52 KCAL/MOL
REMARK 927      BINDING AFFINITY PREDICTED BY RF-SCORE:    0.00 PKD
ROOT
HETATM    1  C   UNL     1     -11.967  12.688  65.965  1.00  0.00    -0.478 C  
HETATM    2  C   UNL     1     -11.586  11.961  67.229  1.00  0.00    -0.293 C  
HETATM    3  C   UNL     1     -10.677  10.960  67.254  1.00  0.00    -0.317 C  
HETATM    4  O   UNL     1     -12.225  12.398  68.390  1.00  0.00    -0.231 OA 
HETATM    5  N   UNL     1      -9.531  10.318  65.020  1.00  0.00    -0.232 NA 
HETATM    6  C   UNL     1     -10.022  10.573  66.041  1.00  0.00    -0.237 C  
HETATM    7  H   UNL     1     -11.986  11.939  69.187  1.00  0.00     0.000 HD 
ENDROOT
BRANCH   3   8
HETATM    8  C   UNL     1     -10.274  10.177  68.468  1.00  0.00    -0.174 C  
HETATM    9  O   UNL     1      -9.748  10.765  69.412  1.00  0.00    -0.173 OA 
HETATM   10  N   UNL     1     -10.589   8.832  68.473  1.00  0.00    -0.363 N  
HETATM   11  H   UNL     1     -11.021   8.429  67.641  1.00  0.00     0.000 HD 
BRANCH  10  12
HETATM   12  C   UNL     1     -10.340   7.993  69.573  1.00  0.00    -0.221 A  
HETATM   13  C   UNL     1      -9.218   7.168  69.551  1.00  0.00    -0.149 A  
HETATM   14  C   UNL     1      -9.044   6.199  70.544  1.00  0.00    -0.159 A  
HETATM   15  C   UNL     1      -9.958   6.090  71.605  1.00  0.00    -0.211 A  
HETATM   16  C   UNL     1      -9.850   4.992  72.632  1.00  0.00    -0.159 C  
HETATM   17  C   UNL     1     -11.017   7.005  71.680  1.00  0.00    -0.258 A  
HETATM   18  F   UNL     1      -9.621   5.466  73.886  1.00  0.00    -0.133 F  
HETATM   19  F   UNL     1      -8.850   4.103  72.377  1.00  0.00    -0.102 F  
HETATM   20  C   UNL     1     -11.211   7.942  70.666  1.00  0.00    -0.269 A  
HETATM   21  F   UNL     1     -10.989   4.247  72.720  1.00  0.00    -0.249 F  
ENDBRANCH  10  12
ENDBRANCH   3   8
TORSDOF 2
ENDMDL
MODEL      134
REMARK 921   NORMALIZED FREE ENERGY PREDICTED BY IDOCK:   -3.83 KCAL/MOL
REMARK 922        TOTAL FREE ENERGY PREDICTED BY IDOCK:   -4.87 KCAL/MOL
REMARK 923 INTER-LIGAND FREE ENERGY PREDICTED BY IDOCK:   -4.30 KCAL/MOL
REMARK 924 INTRA-LIGAND FREE ENERGY PREDICTED BY IDOCK:   -0.58 KCAL/MOL
REMARK 927      BINDING AFFINITY PREDICTED BY RF-SCORE:    0.00 PKD
ROOT
HETATM    1  C   UNL     1      -6.127   3.139  68.685  1.00  0.00    -0.028 C  
HETATM    2  C   UNL     1      -7.101   4.255  68.965  1.00  0.00    -0.051 C  
HETATM    3  C   UNL     1      -8.410   4.039  69.225  1.00  0.00    -0.081 C  
HETATM    4  O   UNL     1      -6.560   5.542  68.954  1.00  0.00    -0.047 OA 
HETATM    5  N   UNL     1      -9.238   1.584  69.275  1.00  0.00    -0.102 NA 
HETATM    6  C   UNL     1      -8.909   2.697  69.260  1.00  0.00    -0.096 C  
HETATM    7  H   UNL     1      -7.173   6.246  69.130  1.00  0.00     0.000 HD 
ENDROOT
BRANCH   3   8
HETATM    8  C   UNL     1      -9.436   5.102  69.483  1.00  0.00    -0.146 C  
HETATM    9  O   UNL     1     -10.475   5.103  68.823  1.00  0.00    -0.148 OA 
HETATM   10  N   UNL     1      -9.172   5.984  70.512  1.00  0.00    -0.155 N  
HETATM   11  H   UNL     1      -8.280   5.908  71.002  1.00  0.00     0.000 HD 
BRANCH  10  12
HETATM   12  C   UNL     1     -10.078   6.980  70.915  1.00  0.00    -0.193 A  
HETATM   13  C   UNL     1     -10.991   6.691  71.928  1.00  0.00    -0.277 A  
HETATM   14  C   UNL     1     -12.016   7.596  72.222  1.00  0.00    -0.329 A  
HETATM   15  C   UNL     1     -12.098   8.828  71.552  1.00  0.00    -0.388 A  
HETATM   16  C   UNL     1     -13.247   9.776  71.779  1.00  0.00    -0.436 C  
HETATM   17  C   UNL     1     -11.102   9.157  70.621  1.00  0.00    -0.320 A  
HETATM   18  F   UNL     1     -12.851  10.963  72.315  1.00  0.00    -0.497 F  
HETATM   19  F   UNL     1     -14.202   9.285  72.616  1.00  0.00    -0.467 F  
HETATM   20  C   UNL     1     -10.107   8.235  70.299  1.00  0.00    -0.195 A  
HETATM   21  F   UNL     1     -13.898  10.091  70.623  1.00  0.00    -0.343 F  
ENDBRANCH  10  12
ENDBRANCH   3   8
TORSDOF 2
ENDMDL
MODEL      135
REMARK 921   NORMALIZED FREE ENERGY PREDICTED BY IDOCK:   -3.82 KCAL/MOL
REMARK 922        TOTAL FREE ENERGY PREDICTED BY IDOCK:   -4.86 KCAL/MOL
REMARK 923 INTER-LIGAND FREE ENERGY PREDICTED BY IDOCK:   -4.32 KCAL/MOL
REMARK 924 INTRA-LIGAND FREE ENERGY PREDICTED BY IDOCK:   -0.55 KCAL/MOL
REMARK 927      BINDING AFFINITY PREDICTED BY RF-SCORE:    0.00 PKD
ROOT
HETATM    1  C   UNL     1      -6.684   1.916  71.634  1.00  0.00    -0.019 C  
HETATM    2  C   UNL     1      -7.412   3.178  71.247  1.00  0.00    -0.036 C  
HETATM    3  C   UNL     1      -8.573   3.561  71.825  1.00  0.00    -0.113 C  
HETATM    4  O   UNL     1      -6.801   3.944  70.255  1.00  0.00    -0.033 OA 
HETATM    5  N   UNL     1      -9.538   2.057  73.702  1.00  0.00    -0.078 NA 
HETATM    6  C   UNL     1      -9.141   2.758  72.865  1.00  0.00    -0.086 C  
HETATM    7  H   UNL     1      -7.260   4.740  70.011  1.00  0.00     0.000 HD 
ENDROOT
BRANCH   3   8
HETATM    8  C   UNL     1      -9.362   4.786  71.470  1.00  0.00    -0.147 C  
HETATM    9  O   UNL     1      -9.601   5.022  70.287  1.00  0.00    -0.157 OA 
HETATM   10  N   UNL     1      -9.838   5.545  72.522  1.00  0.00    -0.162 N  
HETATM   11  H   UNL     1      -9.585   5.274  73.472  1.00  0.00     0.000 HD 
BRANCH  10  12
HETATM   12  C   UNL     1     -10.655   6.674  72.340  1.00  0.00    -0.214 A  
HETATM   13  C   UNL     1     -12.012   6.490  72.084  1.00  0.00    -0.334 A  
HETATM   14  C   UNL     1     -12.809   7.580  71.722  1.00  0.00    -0.359 A  
HETATM   15  C   UNL     1     -12.270   8.877  71.677  1.00  0.00    -0.409 A  
HETATM   16  C   UNL     1     -13.080  10.052  71.195  1.00  0.00    -0.386 C  
HETATM   17  C   UNL     1     -10.932   9.065  72.053  1.00  0.00    -0.355 A  
HETATM   18  F   UNL     1     -13.270  10.991  72.161  1.00  0.00    -0.569 F  
HETATM   19  F   UNL     1     -14.321   9.714  70.748  1.00  0.00    -0.182 F  
HETATM   20  C   UNL     1     -10.130   7.970  72.371  1.00  0.00    -0.332 A  
HETATM   21  F   UNL     1     -12.482  10.706  70.157  1.00  0.00    -0.346 F  
ENDBRANCH  10  12
ENDBRANCH   3   8
TORSDOF 2
ENDMDL
MODEL      136
REMARK 921   NORMALIZED FREE ENERGY PREDICTED BY IDOCK:   -3.81 KCAL/MOL
REMARK 922        TOTAL FREE ENERGY PREDICTED BY IDOCK:   -4.85 KCAL/MOL
REMARK 923 INTER-LIGAND FREE ENERGY PREDICTED BY IDOCK:   -4.52 KCAL/MOL
REMARK 924 INTRA-LIGAND FREE ENERGY PREDICTED BY IDOCK:   -0.33 KCAL/MOL
REMARK 927      BINDING AFFINITY PREDICTED BY RF-SCORE:    0.00 PKD
ROOT
HETATM    1  C   UNL     1      -8.492   8.146  64.441  1.00  0.00     0.019 C  
HETATM    2  C   UNL     1      -8.798   9.200  65.474  1.00  0.00    -0.191 C  
HETATM    3  C   UNL     1      -9.067  10.486  65.153  1.00  0.00    -0.227 C  
HETATM    4  O   UNL     1      -8.801   8.761  66.799  1.00  0.00    -0.123 OA 
HETATM    5  N   UNL     1      -9.089  11.119  62.640  1.00  0.00    -0.341 NA 
HETATM    6  C   UNL     1      -9.088  10.877  63.776  1.00  0.00    -0.174 C  
HETATM    7  H   UNL     1      -8.994   9.426  67.450  1.00  0.00     0.000 HD 
ENDROOT
BRANCH   3   8
HETATM    8  C   UNL     1      -9.351  11.589  66.128  1.00  0.00    -0.215 C  
HETATM    9  O   UNL     1      -9.374  11.333  67.331  1.00  0.00    -0.160 OA 
HETATM   10  N   UNL     1      -9.504  12.858  65.603  1.00  0.00    -0.467 N  
HETATM   11  H   UNL     1      -9.474  12.973  64.591  1.00  0.00     0.000 HD 
BRANCH  10  12
HETATM   12  C   UNL     1      -9.697  13.996  66.404  1.00  0.00    -0.296 A  
HETATM   13  C   UNL     1     -10.753  14.856  66.110  1.00  0.00    -0.317 A  
HETATM   14  C   UNL     1     -10.861  16.083  66.772  1.00  0.00    -0.195 A  
HETATM   15  C   UNL     1      -9.950  16.433  67.783  1.00  0.00    -0.248 A  
HETATM   16  C   UNL     1      -9.983  17.788  68.442  1.00  0.00    -0.362 C  
HETATM   17  C   UNL     1      -8.964  15.507  68.152  1.00  0.00    -0.179 A  
HETATM   18  F   UNL     1     -10.257  17.718  69.773  1.00  0.00    -0.129 F  
HETATM   19  F   UNL     1     -10.910  18.631  67.909  1.00  0.00    -0.418 F  
HETATM   20  C   UNL     1      -8.833  14.304  67.460  1.00  0.00    -0.202 A  
HETATM   21  F   UNL     1      -8.791  18.444  68.343  1.00  0.00    -0.291 F  
ENDBRANCH  10  12
ENDBRANCH   3   8
TORSDOF 2
ENDMDL
MODEL      137
REMARK 921   NORMALIZED FREE ENERGY PREDICTED BY IDOCK:   -3.79 KCAL/MOL
REMARK 922        TOTAL FREE ENERGY PREDICTED BY IDOCK:   -4.82 KCAL/MOL
REMARK 923 INTER-LIGAND FREE ENERGY PREDICTED BY IDOCK:   -4.24 KCAL/MOL
REMARK 924 INTRA-LIGAND FREE ENERGY PREDICTED BY IDOCK:   -0.58 KCAL/MOL
REMARK 927      BINDING AFFINITY PREDICTED BY RF-SCORE:    0.00 PKD
ROOT
HETATM    1  C   UNL     1     -11.084   5.229  73.141  1.00  0.00    -0.384 C  
HETATM    2  C   UNL     1     -11.041   5.987  71.839  1.00  0.00    -0.277 C  
HETATM    3  C   UNL     1     -10.514   5.470  70.706  1.00  0.00    -0.330 C  
HETATM    4  O   UNL     1     -11.597   7.266  71.870  1.00  0.00    -0.262 OA 
HETATM    5  N   UNL     1      -9.585   3.053  70.804  1.00  0.00    -0.156 NA 
HETATM    6  C   UNL     1      -9.989   4.138  70.717  1.00  0.00    -0.122 C  
HETATM    7  H   UNL     1     -11.570   7.745  71.049  1.00  0.00     0.000 HD 
ENDROOT
BRANCH   3   8
HETATM    8  C   UNL     1     -10.414   6.177  69.388  1.00  0.00    -0.256 C  
HETATM    9  O   UNL     1     -10.930   5.668  68.394  1.00  0.00    -0.176 OA 
HETATM   10  N   UNL     1      -9.797   7.413  69.391  1.00  0.00    -0.166 N  
HETATM   11  H   UNL     1      -9.393   7.754  70.263  1.00  0.00     0.000 HD 
BRANCH  10  12
HETATM   12  C   UNL     1      -9.700   8.221  68.245  1.00  0.00    -0.158 A  
HETATM   13  C   UNL     1     -10.746   9.092  67.944  1.00  0.00    -0.200 A  
HETATM   14  C   UNL     1     -10.758   9.771  66.722  1.00  0.00    -0.143 A  
HETATM   15  C   UNL     1      -9.692   9.637  65.817  1.00  0.00    -0.350 A  
HETATM   16  C   UNL     1      -9.728  10.279  64.454  1.00  0.00    -0.315 C  
HETATM   17  C   UNL     1      -8.590   8.852  66.185  1.00  0.00    -0.155 A  
HETATM   18  F   UNL     1      -8.749  11.209  64.285  1.00  0.00    -0.119 F  
HETATM   19  F   UNL     1     -10.901  10.912  64.179  1.00  0.00    -0.438 F  
HETATM   20  C   UNL     1      -8.601   8.142  67.384  1.00  0.00    -0.125 A  
HETATM   21  F   UNL     1      -9.554   9.374  63.448  1.00  0.00    -0.109 F  
ENDBRANCH  10  12
ENDBRANCH   3   8
TORSDOF 2
ENDMDL
MODEL      138
REMARK 921   NORMALIZED FREE ENERGY PREDICTED BY IDOCK:   -3.77 KCAL/MOL
REMARK 922        TOTAL FREE ENERGY PREDICTED BY IDOCK:   -4.80 KCAL/MOL
REMARK 923 INTER-LIGAND FREE ENERGY PREDICTED BY IDOCK:   -5.00 KCAL/MOL
REMARK 924 INTRA-LIGAND FREE ENERGY PREDICTED BY IDOCK:    0.19 KCAL/MOL
REMARK 927      BINDING AFFINITY PREDICTED BY RF-SCORE:    0.00 PKD
ROOT
HETATM    1  C   UNL     1      -8.141  19.629  68.200  1.00  0.00    -0.353 C  
HETATM    2  C   UNL     1      -7.997  18.132  68.112  1.00  0.00    -0.283 C  
HETATM    3  C   UNL     1      -8.709  17.375  67.247  1.00  0.00    -0.232 C  
HETATM    4  O   UNL     1      -7.060  17.567  68.979  1.00  0.00    -0.249 OA 
HETATM    5  N   UNL     1     -10.356  18.591  65.658  1.00  0.00    -0.577 NA 
HETATM    6  C   UNL     1      -9.631  18.007  66.353  1.00  0.00    -0.295 C  
HETATM    7  H   UNL     1      -6.969  16.622  68.924  1.00  0.00     0.000 HD 
ENDROOT
BRANCH   3   8
HETATM    8  C   UNL     1      -8.636  15.882  67.127  1.00  0.00    -0.196 C  
HETATM    9  O   UNL     1      -7.555  15.320  67.302  1.00  0.00    -0.188 OA 
HETATM   10  N   UNL     1      -9.824  15.218  66.893  1.00  0.00    -0.231 N  
HETATM   11  H   UNL     1     -10.671  15.769  66.756  1.00  0.00     0.000 HD 
BRANCH  10  12
HETATM   12  C   UNL     1      -9.917  13.817  66.834  1.00  0.00    -0.264 A  
HETATM   13  C   UNL     1      -8.901  13.050  67.400  1.00  0.00    -0.203 A  
HETATM   14  C   UNL     1      -8.877  11.666  67.199  1.00  0.00    -0.172 A  
HETATM   15  C   UNL     1      -9.904  11.028  66.485  1.00  0.00    -0.241 A  
HETATM   16  C   UNL     1      -9.851   9.556  66.169  1.00  0.00    -0.272 C  
HETATM   17  C   UNL     1     -10.983  11.796  66.023  1.00  0.00    -0.355 A  
HETATM   18  F   UNL     1     -10.863   8.856  66.751  1.00  0.00    -0.296 F  
HETATM   19  F   UNL     1      -8.697   8.953  66.570  1.00  0.00    -0.117 F  
HETATM   20  C   UNL     1     -10.982  13.181  66.188  1.00  0.00    -0.299 A  
HETATM   21  F   UNL     1      -9.950   9.306  64.832  1.00  0.00    -0.173 F  
ENDBRANCH  10  12
ENDBRANCH   3   8
TORSDOF 2
ENDMDL
MODEL      139
REMARK 921   NORMALIZED FREE ENERGY PREDICTED BY IDOCK:   -3.76 KCAL/MOL
REMARK 922        TOTAL FREE ENERGY PREDICTED BY IDOCK:   -4.79 KCAL/MOL
REMARK 923 INTER-LIGAND FREE ENERGY PREDICTED BY IDOCK:   -4.49 KCAL/MOL
REMARK 924 INTRA-LIGAND FREE ENERGY PREDICTED BY IDOCK:   -0.30 KCAL/MOL
REMARK 927      BINDING AFFINITY PREDICTED BY RF-SCORE:    0.00 PKD
ROOT
HETATM    1  C   UNL     1     -11.363  14.522  66.137  1.00  0.00    -0.348 C  
HETATM    2  C   UNL     1     -11.005  13.143  65.645  1.00  0.00    -0.277 C  
HETATM    3  C   UNL     1     -10.896  12.075  66.469  1.00  0.00    -0.314 C  
HETATM    4  O   UNL     1     -10.805  13.028  64.269  1.00  0.00    -0.363 OA 
HETATM    5  N   UNL     1     -11.368  12.447  68.990  1.00  0.00    -0.266 NA 
HETATM    6  C   UNL     1     -11.147  12.238  67.869  1.00  0.00    -0.243 C  
HETATM    7  H   UNL     1     -10.579  12.159  63.958  1.00  0.00     0.000 HD 
ENDROOT
BRANCH   3   8
HETATM    8  C   UNL     1     -10.517  10.686  66.052  1.00  0.00    -0.183 C  
HETATM    9  O   UNL     1     -10.165  10.485  64.890  1.00  0.00    -0.328 OA 
HETATM   10  N   UNL     1     -10.522   9.718  67.038  1.00  0.00    -0.239 N  
HETATM   11  H   UNL     1     -10.834   9.978  67.973  1.00  0.00     0.000 HD 
BRANCH  10  12
HETATM   12  C   UNL     1     -10.116   8.392  66.808  1.00  0.00    -0.303 A  
HETATM   13  C   UNL     1      -8.880   8.160  66.207  1.00  0.00    -0.193 A  
HETATM   14  C   UNL     1      -8.531   6.867  65.805  1.00  0.00    -0.150 A  
HETATM   15  C   UNL     1      -9.388   5.783  66.058  1.00  0.00    -0.134 A  
HETATM   16  C   UNL     1      -9.082   4.399  65.547  1.00  0.00    -0.140 C  
HETATM   17  C   UNL     1     -10.574   6.013  66.770  1.00  0.00    -0.359 A  
HETATM   18  F   UNL     1      -8.896   3.498  66.550  1.00  0.00    -0.109 F  
HETATM   19  F   UNL     1      -7.964   4.337  64.772  1.00  0.00    -0.085 F  
HETATM   20  C   UNL     1     -10.939   7.309  67.131  1.00  0.00    -0.285 A  
HETATM   21  F   UNL     1     -10.090   3.894  64.779  1.00  0.00    -0.172 F  
ENDBRANCH  10  12
ENDBRANCH   3   8
TORSDOF 2
ENDMDL
MODEL      140
REMARK 921   NORMALIZED FREE ENERGY PREDICTED BY IDOCK:   -3.75 KCAL/MOL
REMARK 922        TOTAL FREE ENERGY PREDICTED BY IDOCK:   -4.78 KCAL/MOL
REMARK 923 INTER-LIGAND FREE ENERGY PREDICTED BY IDOCK:   -4.28 KCAL/MOL
REMARK 924 INTRA-LIGAND FREE ENERGY PREDICTED BY IDOCK:   -0.50 KCAL/MOL
REMARK 927      BINDING AFFINITY PREDICTED BY RF-SCORE:    0.00 PKD
ROOT
HETATM    1  C   UNL     1      -8.584   4.222  63.337  1.00  0.00    -0.109 C  
HETATM    2  C   UNL     1      -9.152   4.547  64.695  1.00  0.00    -0.151 C  
HETATM    3  C   UNL     1      -8.382   4.690  65.797  1.00  0.00    -0.115 C  
HETATM    4  O   UNL     1     -10.537   4.708  64.744  1.00  0.00    -0.458 OA 
HETATM    5  N   UNL     1      -5.819   4.426  65.518  1.00  0.00    -0.022 NA 
HETATM    6  C   UNL     1      -6.961   4.550  65.687  1.00  0.00    -0.062 C  
HETATM    7  H   UNL     1     -10.895   4.913  65.600  1.00  0.00     0.000 HD 
ENDROOT
BRANCH   3   8
HETATM    8  C   UNL     1      -8.882   4.984  67.180  1.00  0.00    -0.106 C  
HETATM    9  O   UNL     1      -8.669   4.171  68.078  1.00  0.00    -0.094 OA 
HETATM   10  N   UNL     1      -9.500   6.205  67.370  1.00  0.00    -0.114 N  
HETATM   11  H   UNL     1      -9.636   6.813  66.563  1.00  0.00     0.000 HD 
BRANCH  10  12
HETATM   12  C   UNL     1      -9.948   6.645  68.627  1.00  0.00    -0.147 A  
HETATM   13  C   UNL     1     -11.153   6.150  69.125  1.00  0.00    -0.448 A  
HETATM   14  C   UNL     1     -11.710   6.703  70.282  1.00  0.00    -0.432 A  
HETATM   15  C   UNL     1     -11.036   7.712  70.990  1.00  0.00    -0.262 A  
HETATM   16  C   UNL     1     -11.658   8.392  72.181  1.00  0.00    -0.374 C  
HETATM   17  C   UNL     1      -9.769   8.116  70.545  1.00  0.00    -0.181 A  
HETATM   18  F   UNL     1     -10.962   8.181  73.331  1.00  0.00    -0.335 F  
HETATM   19  F   UNL     1     -12.934   7.990  72.434  1.00  0.00    -0.286 F  
HETATM   20  C   UNL     1      -9.236   7.594  69.367  1.00  0.00    -0.149 A  
HETATM   21  F   UNL     1     -11.724   9.747  72.031  1.00  0.00    -0.436 F  
ENDBRANCH  10  12
ENDBRANCH   3   8
TORSDOF 2
ENDMDL
MODEL      141
REMARK 921   NORMALIZED FREE ENERGY PREDICTED BY IDOCK:   -3.72 KCAL/MOL
REMARK 922        TOTAL FREE ENERGY PREDICTED BY IDOCK:   -4.75 KCAL/MOL
REMARK 923 INTER-LIGAND FREE ENERGY PREDICTED BY IDOCK:   -4.17 KCAL/MOL
REMARK 924 INTRA-LIGAND FREE ENERGY PREDICTED BY IDOCK:   -0.58 KCAL/MOL
REMARK 927      BINDING AFFINITY PREDICTED BY RF-SCORE:    0.00 PKD
ROOT
HETATM    1  C   UNL     1     -11.801  15.751  68.494  1.00  0.00    -0.233 C  
HETATM    2  C   UNL     1     -11.395  14.328  68.207  1.00  0.00    -0.289 C  
HETATM    3  C   UNL     1     -10.891  13.935  67.015  1.00  0.00    -0.288 C  
HETATM    4  O   UNL     1     -11.560  13.431  69.262  1.00  0.00    -0.274 OA 
HETATM    5  N   UNL     1     -10.585  15.743  65.183  1.00  0.00    -0.457 NA 
HETATM    6  C   UNL     1     -10.707  14.902  65.975  1.00  0.00    -0.323 C  
HETATM    7  H   UNL     1     -11.305  12.533  69.081  1.00  0.00     0.000 HD 
ENDROOT
BRANCH   3   8
HETATM    8  C   UNL     1     -10.495  12.535  66.653  1.00  0.00    -0.233 C  
HETATM    9  O   UNL     1     -11.294  11.619  66.841  1.00  0.00    -0.320 OA 
HETATM   10  N   UNL     1      -9.260  12.374  66.055  1.00  0.00    -0.425 N  
HETATM   11  H   UNL     1      -8.661  13.192  65.944  1.00  0.00     0.000 HD 
BRANCH  10  12
HETATM   12  C   UNL     1      -8.791  11.131  65.594  1.00  0.00    -0.157 A  
HETATM   13  C   UNL     1      -9.009  10.780  64.263  1.00  0.00    -0.172 A  
HETATM   14  C   UNL     1      -8.716   9.485  63.826  1.00  0.00    -0.237 A  
HETATM   15  C   UNL     1      -8.141   8.547  64.700  1.00  0.00    -0.153 A  
HETATM   16  C   UNL     1      -7.909   7.118  64.283  1.00  0.00    -0.111 C  
HETATM   17  C   UNL     1      -7.816   8.950  66.003  1.00  0.00    -0.102 A  
HETATM   18  F   UNL     1      -6.591   6.780  64.278  1.00  0.00    -0.038 F  
HETATM   19  F   UNL     1      -8.376   6.830  63.037  1.00  0.00    -0.094 F  
HETATM   20  C   UNL     1      -8.149  10.229  66.448  1.00  0.00    -0.123 A  
HETATM   21  F   UNL     1      -8.516   6.227  65.118  1.00  0.00    -0.144 F  
ENDBRANCH  10  12
ENDBRANCH   3   8
TORSDOF 2
ENDMDL
MODEL      142
REMARK 921   NORMALIZED FREE ENERGY PREDICTED BY IDOCK:   -3.72 KCAL/MOL
REMARK 922        TOTAL FREE ENERGY PREDICTED BY IDOCK:   -4.74 KCAL/MOL
REMARK 923 INTER-LIGAND FREE ENERGY PREDICTED BY IDOCK:   -4.20 KCAL/MOL
REMARK 924 INTRA-LIGAND FREE ENERGY PREDICTED BY IDOCK:   -0.54 KCAL/MOL
REMARK 927      BINDING AFFINITY PREDICTED BY RF-SCORE:    0.00 PKD
ROOT
HETATM    1  C   UNL     1      -7.255   6.027  62.567  1.00  0.00    -0.051 C  
HETATM    2  C   UNL     1      -7.553   6.422  63.990  1.00  0.00    -0.099 C  
HETATM    3  C   UNL     1      -8.403   5.730  64.782  1.00  0.00    -0.116 C  
HETATM    4  O   UNL     1      -6.878   7.552  64.454  1.00  0.00    -0.052 OA 
HETATM    5  N   UNL     1      -9.520   3.614  63.786  1.00  0.00    -0.129 NA 
HETATM    6  C   UNL     1      -9.043   4.555  64.270  1.00  0.00    -0.138 C  
HETATM    7  H   UNL     1      -7.066   7.802  65.352  1.00  0.00     0.000 HD 
ENDROOT
BRANCH   3   8
HETATM    8  C   UNL     1      -8.765   6.082  66.193  1.00  0.00    -0.146 C  
HETATM    9  O   UNL     1      -7.890   6.066  67.058  1.00  0.00    -0.100 OA 
HETATM   10  N   UNL     1     -10.070   6.476  66.420  1.00  0.00    -0.406 N  
HETATM   11  H   UNL     1     -10.728   6.454  65.642  1.00  0.00     0.000 HD 
BRANCH  10  12
HETATM   12  C   UNL     1     -10.529   6.908  67.677  1.00  0.00    -0.228 A  
HETATM   13  C   UNL     1     -10.455   8.263  67.993  1.00  0.00    -0.239 A  
HETATM   14  C   UNL     1     -10.734   8.693  69.294  1.00  0.00    -0.151 A  
HETATM   15  C   UNL     1     -11.155   7.779  70.274  1.00  0.00    -0.242 A  
HETATM   16  C   UNL     1     -11.366   8.199  71.706  1.00  0.00    -0.278 C  
HETATM   17  C   UNL     1     -11.341   6.438  69.912  1.00  0.00    -0.500 A  
HETATM   18  F   UNL     1     -12.658   8.056  72.111  1.00  0.00    -0.309 F  
HETATM   19  F   UNL     1     -11.037   9.498  71.949  1.00  0.00    -0.433 F  
HETATM   20  C   UNL     1     -11.020   6.005  68.626  1.00  0.00    -0.361 A  
HETATM   21  F   UNL     1     -10.621   7.463  72.580  1.00  0.00    -0.226 F  
ENDBRANCH  10  12
ENDBRANCH   3   8
TORSDOF 2
ENDMDL
MODEL      143
REMARK 921   NORMALIZED FREE ENERGY PREDICTED BY IDOCK:   -3.68 KCAL/MOL
REMARK 922        TOTAL FREE ENERGY PREDICTED BY IDOCK:   -4.70 KCAL/MOL
REMARK 923 INTER-LIGAND FREE ENERGY PREDICTED BY IDOCK:   -4.25 KCAL/MOL
REMARK 924 INTRA-LIGAND FREE ENERGY PREDICTED BY IDOCK:   -0.45 KCAL/MOL
REMARK 927      BINDING AFFINITY PREDICTED BY RF-SCORE:    0.00 PKD
ROOT
HETATM    1  C   UNL     1      -8.440   5.807  65.026  1.00  0.00    -0.124 C  
HETATM    2  C   UNL     1      -8.450   7.114  65.776  1.00  0.00    -0.146 C  
HETATM    3  C   UNL     1      -9.329   7.385  66.768  1.00  0.00    -0.202 C  
HETATM    4  O   UNL     1      -7.476   8.036  65.390  1.00  0.00    -0.073 OA 
HETATM    5  N   UNL     1     -11.029   5.535  67.406  1.00  0.00    -0.016 NA 
HETATM    6  C   UNL     1     -10.286   6.390  67.150  1.00  0.00    -0.199 C  
HETATM    7  H   UNL     1      -7.482   8.861  65.863  1.00  0.00     0.000 HD 
ENDROOT
BRANCH   3   8
HETATM    8  C   UNL     1      -9.413   8.671  67.533  1.00  0.00    -0.149 C  
HETATM    9  O   UNL     1      -8.517   8.955  68.327  1.00  0.00    -0.127 OA 
HETATM   10  N   UNL     1     -10.478   9.500  67.239  1.00  0.00    -0.261 N  
HETATM   11  H   UNL     1     -11.176   9.178  66.569  1.00  0.00     0.000 HD 
BRANCH  10  12
HETATM   12  C   UNL     1     -10.641  10.769  67.823  1.00  0.00    -0.228 A  
HETATM   13  C   UNL     1     -11.602  10.934  68.819  1.00  0.00    -0.378 A  
HETATM   14  C   UNL     1     -11.909  12.215  69.287  1.00  0.00    -0.370 A  
HETATM   15  C   UNL     1     -11.213  13.338  68.810  1.00  0.00    -0.317 A  
HETATM   16  C   UNL     1     -11.591  14.736  69.223  1.00  0.00    -0.303 C  
HETATM   17  C   UNL     1     -10.167  13.144  67.896  1.00  0.00    -0.233 A  
HETATM   18  F   UNL     1     -10.601  15.368  69.910  1.00  0.00    -0.233 F  
HETATM   19  F   UNL     1     -12.695  14.791  70.018  1.00  0.00    -0.353 F  
HETATM   20  C   UNL     1      -9.892  11.871  67.400  1.00  0.00    -0.192 A  
HETATM   21  F   UNL     1     -11.868  15.537  68.154  1.00  0.00    -0.348 F  
ENDBRANCH  10  12
ENDBRANCH   3   8
TORSDOF 2
ENDMDL
MODEL      144
REMARK 921   NORMALIZED FREE ENERGY PREDICTED BY IDOCK:   -3.67 KCAL/MOL
REMARK 922        TOTAL FREE ENERGY PREDICTED BY IDOCK:   -4.69 KCAL/MOL
REMARK 923 INTER-LIGAND FREE ENERGY PREDICTED BY IDOCK:   -4.19 KCAL/MOL
REMARK 924 INTRA-LIGAND FREE ENERGY PREDICTED BY IDOCK:   -0.50 KCAL/MOL
REMARK 927      BINDING AFFINITY PREDICTED BY RF-SCORE:    0.00 PKD
ROOT
HETATM    1  C   UNL     1     -11.941  15.796  64.665  1.00  0.00     0.015 C  
HETATM    2  C   UNL     1     -11.716  14.374  65.111  1.00  0.00    -0.372 C  
HETATM    3  C   UNL     1     -10.605  13.980  65.773  1.00  0.00    -0.303 C  
HETATM    4  O   UNL     1     -12.744  13.480  64.810  1.00  0.00    -0.639 OA 
HETATM    5  N   UNL     1      -8.823  15.782  66.315  1.00  0.00    -0.330 NA 
HETATM    6  C   UNL     1      -9.595  14.944  66.091  1.00  0.00    -0.310 C  
HETATM    7  H   UNL     1     -12.603  12.583  65.092  1.00  0.00     0.000 HD 
ENDROOT
BRANCH   3   8
HETATM    8  C   UNL     1     -10.305  12.580  66.221  1.00  0.00    -0.250 C  
HETATM    9  O   UNL     1     -11.081  12.020  66.993  1.00  0.00    -0.264 OA 
HETATM   10  N   UNL     1      -9.191  11.977  65.670  1.00  0.00    -0.425 N  
HETATM   11  H   UNL     1      -8.603  12.522  65.041  1.00  0.00     0.000 HD 
BRANCH  10  12
HETATM   12  C   UNL     1      -8.833  10.645  65.939  1.00  0.00    -0.174 A  
HETATM   13  C   UNL     1      -9.074   9.673  64.969  1.00  0.00    -0.284 A  
HETATM   14  C   UNL     1      -8.896   8.321  65.276  1.00  0.00    -0.074 A  
HETATM   15  C   UNL     1      -8.414   7.930  66.536  1.00  0.00    -0.134 A  
HETATM   16  C   UNL     1      -8.308   6.479  66.926  1.00  0.00    -0.113 C  
HETATM   17  C   UNL     1      -8.062   8.924  67.461  1.00  0.00    -0.109 A  
HETATM   18  F   UNL     1      -7.025   6.091  67.164  1.00  0.00    -0.060 F  
HETATM   19  F   UNL     1      -8.792   5.623  65.984  1.00  0.00    -0.127 F  
HETATM   20  C   UNL     1      -8.281  10.269  67.167  1.00  0.00    -0.121 A  
HETATM   21  F   UNL     1      -8.998   6.195  68.068  1.00  0.00    -0.116 F  
ENDBRANCH  10  12
ENDBRANCH   3   8
TORSDOF 2
ENDMDL
MODEL      145
REMARK 921   NORMALIZED FREE ENERGY PREDICTED BY IDOCK:   -3.65 KCAL/MOL
REMARK 922        TOTAL FREE ENERGY PREDICTED BY IDOCK:   -4.67 KCAL/MOL
REMARK 923 INTER-LIGAND FREE ENERGY PREDICTED BY IDOCK:   -4.25 KCAL/MOL
REMARK 924 INTRA-LIGAND FREE ENERGY PREDICTED BY IDOCK:   -0.41 KCAL/MOL
REMARK 927      BINDING AFFINITY PREDICTED BY RF-SCORE:    0.00 PKD
ROOT
HETATM    1  C   UNL     1      -9.603   6.077  71.143  1.00  0.00    -0.195 C  
HETATM    2  C   UNL     1      -9.944   7.043  70.037  1.00  0.00    -0.181 C  
HETATM    3  C   UNL     1      -9.004   7.659  69.285  1.00  0.00    -0.135 C  
HETATM    4  O   UNL     1     -11.307   7.254  69.823  1.00  0.00    -0.448 OA 
HETATM    5  N   UNL     1      -6.520   7.101  69.769  1.00  0.00    -0.038 NA 
HETATM    6  C   UNL     1      -7.620   7.380  69.521  1.00  0.00    -0.099 C  
HETATM    7  H   UNL     1     -11.522   7.863  69.125  1.00  0.00     0.000 HD 
ENDROOT
BRANCH   3   8
HETATM    8  C   UNL     1      -9.272   8.649  68.191  1.00  0.00    -0.137 C  
HETATM    9  O   UNL     1      -9.209   8.278  67.020  1.00  0.00    -0.141 OA 
HETATM   10  N   UNL     1      -9.647   9.920  68.581  1.00  0.00    -0.152 N  
HETATM   11  H   UNL     1      -9.668  10.138  69.577  1.00  0.00     0.000 HD 
BRANCH  10  12
HETATM   12  C   UNL     1     -10.003  10.926  67.666  1.00  0.00    -0.173 A  
HETATM   13  C   UNL     1      -9.116  11.977  67.442  1.00  0.00    -0.178 A  
HETATM   14  C   UNL     1      -9.517  13.078  66.679  1.00  0.00    -0.256 A  
HETATM   15  C   UNL     1     -10.786  13.108  66.078  1.00  0.00    -0.288 A  
HETATM   16  C   UNL     1     -11.279  14.323  65.335  1.00  0.00    -0.329 C  
HETATM   17  C   UNL     1     -11.623  11.991  66.212  1.00  0.00    -0.378 A  
HETATM   18  F   UNL     1     -11.504  14.077  64.016  1.00  0.00    -0.359 F  
HETATM   19  F   UNL     1     -10.419  15.378  65.380  1.00  0.00    -0.303 F  
HETATM   20  C   UNL     1     -11.237  10.914  67.009  1.00  0.00    -0.211 A  
HETATM   21  F   UNL     1     -12.461  14.791  65.830  1.00  0.00    -0.250 F  
ENDBRANCH  10  12
ENDBRANCH   3   8
TORSDOF 2
ENDMDL
MODEL      146
REMARK 921   NORMALIZED FREE ENERGY PREDICTED BY IDOCK:   -3.61 KCAL/MOL
REMARK 922        TOTAL FREE ENERGY PREDICTED BY IDOCK:   -4.63 KCAL/MOL
REMARK 923 INTER-LIGAND FREE ENERGY PREDICTED BY IDOCK:   -4.41 KCAL/MOL
REMARK 924 INTRA-LIGAND FREE ENERGY PREDICTED BY IDOCK:   -0.22 KCAL/MOL
REMARK 927      BINDING AFFINITY PREDICTED BY RF-SCORE:    0.00 PKD
ROOT
HETATM    1  C   UNL     1      -6.330  10.286  69.789  1.00  0.00    -0.071 C  
HETATM    2  C   UNL     1      -6.750  11.427  68.899  1.00  0.00    -0.080 C  
HETATM    3  C   UNL     1      -6.480  12.721  69.187  1.00  0.00    -0.109 C  
HETATM    4  O   UNL     1      -7.431  11.064  67.736  1.00  0.00    -0.091 OA 
HETATM    5  N   UNL     1      -5.145  13.217  71.353  1.00  0.00    -0.161 NA 
HETATM    6  C   UNL     1      -5.746  13.038  70.375  1.00  0.00    -0.169 C  
HETATM    7  H   UNL     1      -7.696  11.784  67.175  1.00  0.00     0.000 HD 
ENDROOT
BRANCH   3   8
HETATM    8  C   UNL     1      -6.891  13.904  68.364  1.00  0.00    -0.101 C  
HETATM    9  O   UNL     1      -6.404  14.052  67.244  1.00  0.00    -0.295 OA 
HETATM   10  N   UNL     1      -7.862  14.728  68.900  1.00  0.00    -0.145 N  
HETATM   11  H   UNL     1      -8.204  14.529  69.840  1.00  0.00     0.000 HD 
BRANCH  10  12
HETATM   12  C   UNL     1      -8.397  15.828  68.208  1.00  0.00    -0.163 A  
HETATM   13  C   UNL     1      -7.532  16.809  67.729  1.00  0.00    -0.176 A  
HETATM   14  C   UNL     1      -8.047  17.996  67.199  1.00  0.00    -0.225 A  
HETATM   15  C   UNL     1      -9.434  18.186  67.084  1.00  0.00    -0.264 A  
HETATM   16  C   UNL     1     -10.016  19.492  66.610  1.00  0.00    -0.407 C  
HETATM   17  C   UNL     1     -10.291  17.141  67.459  1.00  0.00    -0.341 A  
HETATM   18  F   UNL     1     -10.708  19.368  65.445  1.00  0.00    -0.536 F  
HETATM   19  F   UNL     1      -9.082  20.459  66.392  1.00  0.00    -0.370 F  
HETATM   20  C   UNL     1      -9.776  15.977  68.026  1.00  0.00    -0.217 A  
HETATM   21  F   UNL     1     -10.895  20.026  67.506  1.00  0.00    -0.489 F  
ENDBRANCH  10  12
ENDBRANCH   3   8
TORSDOF 2
ENDMDL
MODEL      147
REMARK 921   NORMALIZED FREE ENERGY PREDICTED BY IDOCK:   -3.58 KCAL/MOL
REMARK 922        TOTAL FREE ENERGY PREDICTED BY IDOCK:   -4.60 KCAL/MOL
REMARK 923 INTER-LIGAND FREE ENERGY PREDICTED BY IDOCK:   -4.88 KCAL/MOL
REMARK 924 INTRA-LIGAND FREE ENERGY PREDICTED BY IDOCK:    0.29 KCAL/MOL
REMARK 927      BINDING AFFINITY PREDICTED BY RF-SCORE:    0.00 PKD
ROOT
HETATM    1  C   UNL     1      -8.297  16.524  68.195  1.00  0.00    -0.186 C  
HETATM    2  C   UNL     1      -8.462  15.137  68.761  1.00  0.00    -0.180 C  
HETATM    3  C   UNL     1      -9.134  14.156  68.116  1.00  0.00    -0.193 C  
HETATM    4  O   UNL     1      -7.859  14.917  70.000  1.00  0.00    -0.380 OA 
HETATM    5  N   UNL     1     -10.133  14.712  65.790  1.00  0.00    -0.322 NA 
HETATM    6  C   UNL     1      -9.703  14.422  66.829  1.00  0.00    -0.270 C  
HETATM    7  H   UNL     1      -7.963  14.043  70.357  1.00  0.00     0.000 HD 
ENDROOT
BRANCH   3   8
HETATM    8  C   UNL     1      -9.359  12.767  68.632  1.00  0.00     0.023 C  
HETATM    9  O   UNL     1      -8.415  11.979  68.661  1.00  0.00    -0.121 OA 
HETATM   10  N   UNL     1     -10.621  12.481  69.115  1.00  0.00    -0.438 N  
HETATM   11  H   UNL     1     -11.344  13.197  69.046  1.00  0.00     0.000 HD 
BRANCH  10  12
HETATM   12  C   UNL     1     -10.953  11.246  69.699  1.00  0.00    -0.151 A  
HETATM   13  C   UNL     1     -12.283  10.993  70.031  1.00  0.00    -0.418 A  
HETATM   14  C   UNL     1     -12.613   9.854  70.772  1.00  0.00    -0.324 A  
HETATM   15  C   UNL     1     -11.625   8.923  71.133  1.00  0.00    -0.360 A  
HETATM   16  C   UNL     1     -11.936   7.742  72.015  1.00  0.00    -0.308 C  
HETATM   17  C   UNL     1     -10.310   9.129  70.689  1.00  0.00    -0.306 A  
HETATM   18  F   UNL     1     -11.745   6.551  71.385  1.00  0.00    -0.314 F  
HETATM   19  F   UNL     1     -13.219   7.725  72.472  1.00  0.00    -0.124 F  
HETATM   20  C   UNL     1      -9.977  10.286  69.987  1.00  0.00    -0.123 A  
HETATM   21  F   UNL     1     -11.149   7.702  73.128  1.00  0.00    -0.388 F  
ENDBRANCH  10  12
ENDBRANCH   3   8
TORSDOF 2
ENDMDL
MODEL      148
REMARK 921   NORMALIZED FREE ENERGY PREDICTED BY IDOCK:   -3.58 KCAL/MOL
REMARK 922        TOTAL FREE ENERGY PREDICTED BY IDOCK:   -4.60 KCAL/MOL
REMARK 923 INTER-LIGAND FREE ENERGY PREDICTED BY IDOCK:   -4.14 KCAL/MOL
REMARK 924 INTRA-LIGAND FREE ENERGY PREDICTED BY IDOCK:   -0.45 KCAL/MOL
REMARK 927      BINDING AFFINITY PREDICTED BY RF-SCORE:    0.00 PKD
ROOT
HETATM    1  C   UNL     1      -6.023  15.283  70.078  1.00  0.00    -0.142 C  
HETATM    2  C   UNL     1      -6.412  13.880  69.689  1.00  0.00    -0.108 C  
HETATM    3  C   UNL     1      -6.917  13.569  68.474  1.00  0.00    -0.102 C  
HETATM    4  O   UNL     1      -6.202  12.906  70.665  1.00  0.00    -0.462 OA 
HETATM    5  N   UNL     1      -7.178  15.488  66.751  1.00  0.00    -0.123 NA 
HETATM    6  C   UNL     1      -7.079  14.600  67.493  1.00  0.00    -0.178 C  
HETATM    7  H   UNL     1      -6.447  12.020  70.420  1.00  0.00     0.000 HD 
ENDROOT
BRANCH   3   8
HETATM    8  C   UNL     1      -7.349  12.203  68.031  1.00  0.00    -0.105 C  
HETATM    9  O   UNL     1      -6.724  11.639  67.135  1.00  0.00    -0.116 OA 
HETATM   10  N   UNL     1      -8.400  11.630  68.721  1.00  0.00    -0.325 N  
HETATM   11  H   UNL     1      -8.862  12.177  69.448  1.00  0.00     0.000 HD 
BRANCH  10  12
HETATM   12  C   UNL     1      -8.860  10.327  68.466  1.00  0.00    -0.127 A  
HETATM   13  C   UNL     1      -9.590  10.085  67.304  1.00  0.00    -0.188 A  
HETATM   14  C   UNL     1     -10.211   8.846  67.115  1.00  0.00    -0.339 A  
HETATM   15  C   UNL     1     -10.053   7.815  68.055  1.00  0.00    -0.227 A  
HETATM   16  C   UNL     1     -10.791   6.508  67.925  1.00  0.00    -0.304 C  
HETATM   17  C   UNL     1      -9.218   8.032  69.161  1.00  0.00    -0.151 A  
HETATM   18  F   UNL     1      -9.955   5.447  67.761  1.00  0.00    -0.139 F  
HETATM   19  F   UNL     1     -11.657   6.471  66.875  1.00  0.00    -0.411 F  
HETATM   20  C   UNL     1      -8.636   9.282  69.368  1.00  0.00    -0.142 A  
HETATM   21  F   UNL     1     -11.540   6.220  69.029  1.00  0.00    -0.451 F  
ENDBRANCH  10  12
ENDBRANCH   3   8
TORSDOF 2
ENDMDL
MODEL      149
REMARK 921   NORMALIZED FREE ENERGY PREDICTED BY IDOCK:   -3.56 KCAL/MOL
REMARK 922        TOTAL FREE ENERGY PREDICTED BY IDOCK:   -4.57 KCAL/MOL
REMARK 923 INTER-LIGAND FREE ENERGY PREDICTED BY IDOCK:   -4.00 KCAL/MOL
REMARK 924 INTRA-LIGAND FREE ENERGY PREDICTED BY IDOCK:   -0.57 KCAL/MOL
REMARK 927      BINDING AFFINITY PREDICTED BY RF-SCORE:    0.00 PKD
ROOT
HETATM    1  C   UNL     1      -7.514   3.297  67.786  1.00  0.00    -0.058 C  
HETATM    2  C   UNL     1      -8.294   4.586  67.784  1.00  0.00    -0.099 C  
HETATM    3  C   UNL     1      -9.231   4.879  68.715  1.00  0.00    -0.162 C  
HETATM    4  O   UNL     1      -7.978   5.478  66.758  1.00  0.00    -0.100 OA 
HETATM    5  N   UNL     1      -9.646   3.141  70.592  1.00  0.00    -0.167 NA 
HETATM    6  C   UNL     1      -9.492   3.945  69.768  1.00  0.00    -0.193 C  
HETATM    7  H   UNL     1      -8.470   6.291  66.757  1.00  0.00     0.000 HD 
ENDROOT
BRANCH   3   8
HETATM    8  C   UNL     1     -10.061   6.126  68.756  1.00  0.00    -0.169 C  
HETATM    9  O   UNL     1     -11.249   6.044  69.067  1.00  0.00    -0.367 OA 
HETATM   10  N   UNL     1      -9.408   7.316  68.503  1.00  0.00    -0.141 N  
HETATM   11  H   UNL     1      -8.421   7.286  68.248  1.00  0.00     0.000 HD 
BRANCH  10  12
HETATM   12  C   UNL     1     -10.043   8.568  68.583  1.00  0.00    -0.190 A  
HETATM   13  C   UNL     1     -10.653   9.088  67.443  1.00  0.00    -0.309 A  
HETATM   14  C   UNL     1     -11.132  10.401  67.445  1.00  0.00    -0.297 A  
HETATM   15  C   UNL     1     -11.064  11.186  68.607  1.00  0.00    -0.293 A  
HETATM   16  C   UNL     1     -11.481  12.634  68.609  1.00  0.00    -0.308 C  
HETATM   17  C   UNL     1     -10.557  10.611  69.781  1.00  0.00    -0.233 A  
HETATM   18  F   UNL     1     -12.540  12.876  69.428  1.00  0.00    -0.133 F  
HETATM   19  F   UNL     1     -11.840  13.100  67.381  1.00  0.00    -0.344 F  
HETATM   20  C   UNL     1     -10.041   9.316  69.764  1.00  0.00    -0.218 A  
HETATM   21  F   UNL     1     -10.485  13.462  69.038  1.00  0.00    -0.224 F  
ENDBRANCH  10  12
ENDBRANCH   3   8
TORSDOF 2
ENDMDL
MODEL      150
REMARK 921   NORMALIZED FREE ENERGY PREDICTED BY IDOCK:   -3.52 KCAL/MOL
REMARK 922        TOTAL FREE ENERGY PREDICTED BY IDOCK:   -4.53 KCAL/MOL
REMARK 923 INTER-LIGAND FREE ENERGY PREDICTED BY IDOCK:   -4.52 KCAL/MOL
REMARK 924 INTRA-LIGAND FREE ENERGY PREDICTED BY IDOCK:   -0.01 KCAL/MOL
REMARK 927      BINDING AFFINITY PREDICTED BY RF-SCORE:    0.00 PKD
ROOT
HETATM    1  C   UNL     1     -10.074   9.033  67.179  1.00  0.00    -0.309 C  
HETATM    2  C   UNL     1     -10.298  10.523  67.197  1.00  0.00    -0.235 C  
HETATM    3  C   UNL     1      -9.283  11.418  67.205  1.00  0.00    -0.170 C  
HETATM    4  O   UNL     1     -11.632  10.931  67.190  1.00  0.00    -0.431 OA 
HETATM    5  N   UNL     1      -6.863  10.492  67.146  1.00  0.00    -0.081 NA 
HETATM    6  C   UNL     1      -7.931  10.948  67.175  1.00  0.00    -0.127 C  
HETATM    7  H   UNL     1     -11.774  11.871  67.201  1.00  0.00     0.000 HD 
ENDROOT
BRANCH   3   8
HETATM    8  C   UNL     1      -9.434  12.909  67.251  1.00  0.00    -0.216 C  
HETATM    9  O   UNL     1     -10.553  13.392  67.412  1.00  0.00    -0.248 OA 
HETATM   10  N   UNL     1      -8.272  13.653  67.177  1.00  0.00    -0.337 N  
HETATM   11  H   UNL     1      -7.388  13.164  67.038  1.00  0.00     0.000 HD 
BRANCH  10  12
HETATM   12  C   UNL     1      -8.255  15.054  67.285  1.00  0.00    -0.211 A  
HETATM   13  C   UNL     1      -7.198  15.761  66.715  1.00  0.00    -0.002 A  
HETATM   14  C   UNL     1      -7.062  17.131  66.961  1.00  0.00    -0.225 A  
HETATM   15  C   UNL     1      -8.018  17.820  67.725  1.00  0.00    -0.225 A  
HETATM   16  C   UNL     1      -7.843  19.272  68.087  1.00  0.00    -0.308 C  
HETATM   17  C   UNL     1      -9.141  17.121  68.191  1.00  0.00    -0.247 A  
HETATM   18  F   UNL     1      -8.813  20.067  67.558  1.00  0.00    -0.351 F  
HETATM   19  F   UNL     1      -6.657  19.799  67.674  1.00  0.00    -0.233 F  
HETATM   20  C   UNL     1      -9.251  15.747  67.981  1.00  0.00    -0.188 A  
HETATM   21  F   UNL     1      -7.888  19.482  69.434  1.00  0.00    -0.373 F  
ENDBRANCH  10  12
ENDBRANCH   3   8
TORSDOF 2
ENDMDL
MODEL      151
REMARK 921   NORMALIZED FREE ENERGY PREDICTED BY IDOCK:   -3.49 KCAL/MOL
REMARK 922        TOTAL FREE ENERGY PREDICTED BY IDOCK:   -4.49 KCAL/MOL
REMARK 923 INTER-LIGAND FREE ENERGY PREDICTED BY IDOCK:   -4.45 KCAL/MOL
REMARK 924 INTRA-LIGAND FREE ENERGY PREDICTED BY IDOCK:   -0.04 KCAL/MOL
REMARK 927      BINDING AFFINITY PREDICTED BY RF-SCORE:    0.00 PKD
ROOT
HETATM    1  C   UNL     1      -8.261   2.203  73.205  1.00  0.00    -0.051 C  
HETATM    2  C   UNL     1      -8.748   3.552  72.742  1.00  0.00    -0.086 C  
HETATM    3  C   UNL     1     -10.052   3.909  72.764  1.00  0.00    -0.223 C  
HETATM    4  O   UNL     1      -7.757   4.428  72.297  1.00  0.00    -0.082 OA 
HETATM    5  N   UNL     1     -11.755   2.186  73.687  1.00  0.00    -0.194 NA 
HETATM    6  C   UNL     1     -11.026   2.986  73.265  1.00  0.00    -0.159 C  
HETATM    7  H   UNL     1      -8.064   5.279  72.004  1.00  0.00     0.000 HD 
ENDROOT
BRANCH   3   8
HETATM    8  C   UNL     1     -10.607   5.219  72.293  1.00  0.00    -0.222 C  
HETATM    9  O   UNL     1     -11.781   5.494  72.537  1.00  0.00    -0.272 OA 
HETATM   10  N   UNL     1      -9.726   6.078  71.665  1.00  0.00    -0.159 N  
HETATM   11  H   UNL     1      -8.770   5.761  71.502  1.00  0.00     0.000 HD 
BRANCH  10  12
HETATM   12  C   UNL     1     -10.089   7.368  71.241  1.00  0.00    -0.188 A  
HETATM   13  C   UNL     1     -10.664   8.243  72.161  1.00  0.00    -0.389 A  
HETATM   14  C   UNL     1     -11.197   9.460  71.727  1.00  0.00    -0.359 A  
HETATM   15  C   UNL     1     -11.100   9.844  70.379  1.00  0.00    -0.382 A  
HETATM   16  C   UNL     1     -11.752  11.103  69.868  1.00  0.00    -0.355 C  
HETATM   17  C   UNL     1     -10.413   9.009  69.487  1.00  0.00    -0.223 A  
HETATM   18  F   UNL     1     -10.851  12.007  69.395  1.00  0.00    -0.243 F  
HETATM   19  F   UNL     1     -12.486  11.759  70.808  1.00  0.00    -0.406 F  
HETATM   20  C   UNL     1      -9.921   7.776  69.914  1.00  0.00    -0.191 A  
HETATM   21  F   UNL     1     -12.610  10.862  68.835  1.00  0.00    -0.268 F  
ENDBRANCH  10  12
ENDBRANCH   3   8
TORSDOF 2
ENDMDL
MODEL      152
REMARK 921   NORMALIZED FREE ENERGY PREDICTED BY IDOCK:   -3.41 KCAL/MOL
REMARK 922        TOTAL FREE ENERGY PREDICTED BY IDOCK:   -4.41 KCAL/MOL
REMARK 923 INTER-LIGAND FREE ENERGY PREDICTED BY IDOCK:   -3.84 KCAL/MOL
REMARK 924 INTRA-LIGAND FREE ENERGY PREDICTED BY IDOCK:   -0.57 KCAL/MOL
REMARK 927      BINDING AFFINITY PREDICTED BY RF-SCORE:    0.00 PKD
ROOT
HETATM    1  C   UNL     1      -7.553  14.273  67.380  1.00  0.00    -0.185 C  
HETATM    2  C   UNL     1      -7.997  13.106  68.225  1.00  0.00    -0.148 C  
HETATM    3  C   UNL     1      -9.044  12.317  67.894  1.00  0.00    -0.190 C  
HETATM    4  O   UNL     1      -7.244  12.877  69.377  1.00  0.00    -0.315 OA 
HETATM    5  N   UNL     1     -10.293  12.839  65.683  1.00  0.00    -0.276 NA 
HETATM    6  C   UNL     1      -9.762  12.572  66.681  1.00  0.00    -0.242 C  
HETATM    7  H   UNL     1      -7.524  12.141  69.910  1.00  0.00     0.000 HD 
ENDROOT
BRANCH   3   8
HETATM    8  C   UNL     1      -9.556  11.161  68.700  1.00  0.00    -0.196 C  
HETATM    9  O   UNL     1     -10.770  11.000  68.811  1.00  0.00    -0.180 OA 
HETATM   10  N   UNL     1      -8.610  10.297  69.216  1.00  0.00    -0.163 N  
HETATM   11  H   UNL     1      -7.624  10.514  69.076  1.00  0.00     0.000 HD 
BRANCH  10  12
HETATM   12  C   UNL     1      -8.948   9.131  69.925  1.00  0.00    -0.174 A  
HETATM   13  C   UNL     1      -9.223   7.965  69.213  1.00  0.00    -0.148 A  
HETATM   14  C   UNL     1      -9.734   6.846  69.878  1.00  0.00    -0.165 A  
HETATM   15  C   UNL     1      -9.913   6.860  71.271  1.00  0.00    -0.189 A  
HETATM   16  C   UNL     1     -10.554   5.706  71.997  1.00  0.00    -0.229 C  
HETATM   17  C   UNL     1      -9.520   7.998  71.990  1.00  0.00    -0.257 A  
HETATM   18  F   UNL     1      -9.710   5.106  72.880  1.00  0.00    -0.152 F  
HETATM   19  F   UNL     1     -10.997   4.719  71.170  1.00  0.00    -0.098 F  
HETATM   20  C   UNL     1      -9.051   9.127  71.320  1.00  0.00    -0.232 A  
HETATM   21  F   UNL     1     -11.642   6.089  72.726  1.00  0.00    -0.302 F  
ENDBRANCH  10  12
ENDBRANCH   3   8
TORSDOF 2
ENDMDL
MODEL      153
REMARK 921   NORMALIZED FREE ENERGY PREDICTED BY IDOCK:   -3.38 KCAL/MOL
REMARK 922        TOTAL FREE ENERGY PREDICTED BY IDOCK:   -4.37 KCAL/MOL
REMARK 923 INTER-LIGAND FREE ENERGY PREDICTED BY IDOCK:   -3.90 KCAL/MOL
REMARK 924 INTRA-LIGAND FREE ENERGY PREDICTED BY IDOCK:   -0.47 KCAL/MOL
REMARK 927      BINDING AFFINITY PREDICTED BY RF-SCORE:    0.00 PKD
ROOT
HETATM    1  C   UNL     1     -10.625  19.678  65.669  1.00  0.00    -0.462 C  
HETATM    2  C   UNL     1     -10.474  18.253  66.138  1.00  0.00    -0.383 C  
HETATM    3  C   UNL     1     -10.182  17.928  67.418  1.00  0.00    -0.363 C  
HETATM    4  O   UNL     1     -10.671  17.276  65.162  1.00  0.00    -0.687 OA 
HETATM    5  N   UNL     1      -9.917  19.865  69.120  1.00  0.00    -0.338 NA 
HETATM    6  C   UNL     1     -10.026  18.969  68.389  1.00  0.00    -0.408 C  
HETATM    7  H   UNL     1     -10.576  16.377  65.457  1.00  0.00     0.000 HD 
ENDROOT
BRANCH   3   8
HETATM    8  C   UNL     1      -9.991  16.538  67.944  1.00  0.00    -0.245 C  
HETATM    9  O   UNL     1     -10.907  16.002  68.567  1.00  0.00    -0.271 OA 
HETATM   10  N   UNL     1      -8.800  15.912  67.628  1.00  0.00    -0.173 N  
HETATM   11  H   UNL     1      -8.096  16.438  67.111  1.00  0.00     0.000 HD 
BRANCH  10  12
HETATM   12  C   UNL     1      -8.517  14.584  67.989  1.00  0.00    -0.161 A  
HETATM   13  C   UNL     1      -7.810  14.340  69.164  1.00  0.00     0.018 A  
HETATM   14  C   UNL     1      -7.359  13.049  69.454  1.00  0.00     0.348 A  
HETATM   15  C   UNL     1      -7.669  11.975  68.602  1.00  0.00    -0.099 A  
HETATM   16  C   UNL     1      -7.113  10.595  68.838  1.00  0.00    -0.078 C  
HETATM   17  C   UNL     1      -8.483  12.213  67.485  1.00  0.00    -0.169 A  
HETATM   18  F   UNL     1      -8.082   9.674  69.092  1.00  0.00    -0.086 F  
HETATM   19  F   UNL     1      -6.245  10.527  69.884  1.00  0.00    -0.048 F  
HETATM   20  C   UNL     1      -8.893  13.509  67.177  1.00  0.00    -0.231 A  
HETATM   21  F   UNL     1      -6.426  10.119  67.759  1.00  0.00    -0.059 F  
ENDBRANCH  10  12
ENDBRANCH   3   8
TORSDOF 2
ENDMDL
MODEL      154
REMARK 921   NORMALIZED FREE ENERGY PREDICTED BY IDOCK:   -3.31 KCAL/MOL
REMARK 922        TOTAL FREE ENERGY PREDICTED BY IDOCK:   -4.29 KCAL/MOL
REMARK 923 INTER-LIGAND FREE ENERGY PREDICTED BY IDOCK:   -3.80 KCAL/MOL
REMARK 924 INTRA-LIGAND FREE ENERGY PREDICTED BY IDOCK:   -0.49 KCAL/MOL
REMARK 927      BINDING AFFINITY PREDICTED BY RF-SCORE:    0.00 PKD
ROOT
HETATM    1  C   UNL     1      -8.957  19.307  67.551  1.00  0.00    -0.344 C  
HETATM    2  C   UNL     1      -9.449  17.886  67.649  1.00  0.00    -0.260 C  
HETATM    3  C   UNL     1      -8.773  16.918  68.309  1.00  0.00    -0.235 C  
HETATM    4  O   UNL     1     -10.668  17.627  67.021  1.00  0.00    -0.291 OA 
HETATM    5  N   UNL     1      -6.558  17.583  69.479  1.00  0.00    -0.210 NA 
HETATM    6  C   UNL     1      -7.544  17.243  68.968  1.00  0.00    -0.177 C  
HETATM    7  H   UNL     1     -10.979  16.731  67.082  1.00  0.00     0.000 HD 
ENDROOT
BRANCH   3   8
HETATM    8  C   UNL     1      -9.189  15.482  68.421  1.00  0.00    -0.191 C  
HETATM    9  O   UNL     1     -10.138  15.190  69.147  1.00  0.00    -0.226 OA 
HETATM   10  N   UNL     1      -8.511  14.575  67.631  1.00  0.00    -0.170 N  
HETATM   11  H   UNL     1      -7.733  14.910  67.063  1.00  0.00     0.000 HD 
BRANCH  10  12
HETATM   12  C   UNL     1      -8.845  13.211  67.577  1.00  0.00    -0.199 A  
HETATM   13  C   UNL     1      -9.778  12.783  66.634  1.00  0.00    -0.252 A  
HETATM   14  C   UNL     1     -10.261  11.471  66.676  1.00  0.00    -0.254 A  
HETATM   15  C   UNL     1      -9.767  10.556  67.620  1.00  0.00    -0.187 A  
HETATM   16  C   UNL     1     -10.340   9.169  67.751  1.00  0.00    -0.245 C  
HETATM   17  C   UNL     1      -8.741  10.966  68.485  1.00  0.00    -0.153 A  
HETATM   18  F   UNL     1      -9.433   8.195  67.467  1.00  0.00    -0.150 F  
HETATM   19  F   UNL     1     -11.406   8.939  66.936  1.00  0.00     0.059 F  
HETATM   20  C   UNL     1      -8.293  12.286  68.469  1.00  0.00    -0.084 A  
HETATM   21  F   UNL     1     -10.781   8.905  69.015  1.00  0.00    -0.232 F  
ENDBRANCH  10  12
ENDBRANCH   3   8
TORSDOF 2
ENDMDL
MODEL      155
REMARK 921   NORMALIZED FREE ENERGY PREDICTED BY IDOCK:   -3.28 KCAL/MOL
REMARK 922        TOTAL FREE ENERGY PREDICTED BY IDOCK:   -4.26 KCAL/MOL
REMARK 923 INTER-LIGAND FREE ENERGY PREDICTED BY IDOCK:   -4.07 KCAL/MOL
REMARK 924 INTRA-LIGAND FREE ENERGY PREDICTED BY IDOCK:   -0.18 KCAL/MOL
REMARK 927      BINDING AFFINITY PREDICTED BY RF-SCORE:    0.00 PKD
ROOT
HETATM    1  C   UNL     1      -5.548  11.199  71.285  1.00  0.00     0.104 C  
HETATM    2  C   UNL     1      -6.306  11.556  70.032  1.00  0.00    -0.116 C  
HETATM    3  C   UNL     1      -6.395  12.822  69.564  1.00  0.00    -0.108 C  
HETATM    4  O   UNL     1      -6.908  10.487  69.367  1.00  0.00    -0.064 OA 
HETATM    5  N   UNL     1      -5.161  14.681  70.882  1.00  0.00    -0.124 NA 
HETATM    6  C   UNL     1      -5.729  13.879  70.263  1.00  0.00    -0.139 C  
HETATM    7  H   UNL     1      -7.386  10.712  68.577  1.00  0.00     0.000 HD 
ENDROOT
BRANCH   3   8
HETATM    8  C   UNL     1      -7.153  13.251  68.344  1.00  0.00    -0.107 C  
HETATM    9  O   UNL     1      -6.532  13.683  67.374  1.00  0.00    -0.278 OA 
HETATM   10  N   UNL     1      -8.522  13.062  68.365  1.00  0.00    -0.265 N  
HETATM   11  H   UNL     1      -8.951  12.701  69.216  1.00  0.00     0.000 HD 
BRANCH  10  12
HETATM   12  C   UNL     1      -9.349  13.347  67.264  1.00  0.00    -0.233 A  
HETATM   13  C   UNL     1      -9.256  14.598  66.657  1.00  0.00    -0.291 A  
HETATM   14  C   UNL     1     -10.186  14.971  65.682  1.00  0.00    -0.386 A  
HETATM   15  C   UNL     1     -11.178  14.072  65.257  1.00  0.00    -0.319 A  
HETATM   16  C   UNL     1     -12.252  14.482  64.283  1.00  0.00    -0.415 C  
HETATM   17  C   UNL     1     -11.186  12.774  65.790  1.00  0.00    -0.341 A  
HETATM   18  F   UNL     1     -12.198  13.782  63.117  1.00  0.00    -0.510 F  
HETATM   19  F   UNL     1     -12.200  15.797  63.935  1.00  0.00    -0.403 F  
HETATM   20  C   UNL     1     -10.284  12.420  66.793  1.00  0.00    -0.234 A  
HETATM   21  F   UNL     1     -13.507  14.281  64.776  1.00  0.00     0.160 F  
ENDBRANCH  10  12
ENDBRANCH   3   8
TORSDOF 2
ENDMDL
MODEL      156
REMARK 921   NORMALIZED FREE ENERGY PREDICTED BY IDOCK:   -3.28 KCAL/MOL
REMARK 922        TOTAL FREE ENERGY PREDICTED BY IDOCK:   -4.25 KCAL/MOL
REMARK 923 INTER-LIGAND FREE ENERGY PREDICTED BY IDOCK:   -3.93 KCAL/MOL
REMARK 924 INTRA-LIGAND FREE ENERGY PREDICTED BY IDOCK:   -0.32 KCAL/MOL
REMARK 927      BINDING AFFINITY PREDICTED BY RF-SCORE:    0.00 PKD
ROOT
HETATM    1  C   UNL     1      -9.789  11.623  64.897  1.00  0.00    -0.267 C  
HETATM    2  C   UNL     1      -9.916  10.361  65.711  1.00  0.00    -0.270 C  
HETATM    3  C   UNL     1     -10.044  10.365  67.057  1.00  0.00    -0.264 C  
HETATM    4  O   UNL     1      -9.908   9.172  64.981  1.00  0.00    -0.374 OA 
HETATM    5  N   UNL     1     -10.111  12.664  68.252  1.00  0.00    -0.230 NA 
HETATM    6  C   UNL     1     -10.084  11.615  67.756  1.00  0.00    -0.187 C  
HETATM    7  H   UNL     1      -9.987   8.376  65.494  1.00  0.00     0.000 HD 
ENDROOT
BRANCH   3   8
HETATM    8  C   UNL     1     -10.146   9.150  67.929  1.00  0.00    -0.199 C  
HETATM    9  O   UNL     1     -10.544   8.094  67.439  1.00  0.00    -0.279 OA 
HETATM   10  N   UNL     1      -9.711   9.283  69.233  1.00  0.00    -0.165 N  
HETATM   11  H   UNL     1      -9.401  10.200  69.553  1.00  0.00     0.000 HD 
BRANCH  10  12
HETATM   12  C   UNL     1      -9.677   8.209  70.140  1.00  0.00    -0.175 A  
HETATM   13  C   UNL     1      -8.479   7.911  70.787  1.00  0.00    -0.124 A  
HETATM   14  C   UNL     1      -8.369   6.745  71.551  1.00  0.00    -0.115 A  
HETATM   15  C   UNL     1      -9.476   5.899  71.728  1.00  0.00    -0.168 A  
HETATM   16  C   UNL     1      -9.359   4.588  72.463  1.00  0.00    -0.131 C  
HETATM   17  C   UNL     1     -10.707   6.272  71.170  1.00  0.00    -0.301 A  
HETATM   18  F   UNL     1     -10.115   4.549  73.593  1.00  0.00    -0.150 F  
HETATM   19  F   UNL     1      -8.088   4.291  72.849  1.00  0.00    -0.084 F  
HETATM   20  C   UNL     1     -10.802   7.412  70.374  1.00  0.00    -0.258 A  
HETATM   21  F   UNL     1      -9.769   3.529  71.706  1.00  0.00    -0.189 F  
ENDBRANCH  10  12
ENDBRANCH   3   8
TORSDOF 2
ENDMDL
MODEL      157
REMARK 921   NORMALIZED FREE ENERGY PREDICTED BY IDOCK:   -3.26 KCAL/MOL
REMARK 922        TOTAL FREE ENERGY PREDICTED BY IDOCK:   -4.23 KCAL/MOL
REMARK 923 INTER-LIGAND FREE ENERGY PREDICTED BY IDOCK:   -3.88 KCAL/MOL
REMARK 924 INTRA-LIGAND FREE ENERGY PREDICTED BY IDOCK:   -0.35 KCAL/MOL
REMARK 927      BINDING AFFINITY PREDICTED BY RF-SCORE:    0.00 PKD
ROOT
HETATM    1  C   UNL     1     -10.557   3.806  74.124  1.00  0.00    -0.274 C  
HETATM    2  C   UNL     1     -10.763   5.058  73.310  1.00  0.00    -0.258 C  
HETATM    3  C   UNL     1     -10.501   5.124  71.985  1.00  0.00    -0.278 C  
HETATM    4  O   UNL     1     -11.261   6.156  74.013  1.00  0.00    -0.231 OA 
HETATM    5  N   UNL     1      -9.646   2.973  70.820  1.00  0.00    -0.156 NA 
HETATM    6  C   UNL     1     -10.026   3.958  71.303  1.00  0.00    -0.113 C  
HETATM    7  H   UNL     1     -11.391   6.946  73.500  1.00  0.00     0.000 HD 
ENDROOT
BRANCH   3   8
HETATM    8  C   UNL     1     -10.656   6.341  71.124  1.00  0.00    -0.239 C  
HETATM    9  O   UNL     1     -11.708   6.976  71.169  1.00  0.00    -0.290 OA 
HETATM   10  N   UNL     1      -9.558   6.714  70.373  1.00  0.00    -0.166 N  
HETATM   11  H   UNL     1      -8.728   6.122  70.394  1.00  0.00     0.000 HD 
BRANCH  10  12
HETATM   12  C   UNL     1      -9.535   7.875  69.580  1.00  0.00    -0.160 A  
HETATM   13  C   UNL     1      -8.569   8.847  69.836  1.00  0.00    -0.137 A  
HETATM   14  C   UNL     1      -8.634  10.083  69.186  1.00  0.00    -0.158 A  
HETATM   15  C   UNL     1      -9.628  10.337  68.227  1.00  0.00    -0.151 A  
HETATM   16  C   UNL     1      -9.781  11.692  67.587  1.00  0.00    -0.180 C  
HETATM   17  C   UNL     1     -10.520   9.308  67.892  1.00  0.00    -0.290 A  
HETATM   18  F   UNL     1      -9.567  11.666  66.243  1.00  0.00    -0.203 F  
HETATM   19  F   UNL     1      -8.930  12.631  68.085  1.00  0.00    -0.175 F  
HETATM   20  C   UNL     1     -10.479   8.092  68.572  1.00  0.00    -0.200 A  
HETATM   21  F   UNL     1     -11.033  12.208  67.752  1.00  0.00    -0.219 F  
ENDBRANCH  10  12
ENDBRANCH   3   8
TORSDOF 2
ENDMDL
MODEL      158
REMARK 921   NORMALIZED FREE ENERGY PREDICTED BY IDOCK:   -3.26 KCAL/MOL
REMARK 922        TOTAL FREE ENERGY PREDICTED BY IDOCK:   -4.23 KCAL/MOL
REMARK 923 INTER-LIGAND FREE ENERGY PREDICTED BY IDOCK:   -3.64 KCAL/MOL
REMARK 924 INTRA-LIGAND FREE ENERGY PREDICTED BY IDOCK:   -0.59 KCAL/MOL
REMARK 927      BINDING AFFINITY PREDICTED BY RF-SCORE:    0.00 PKD
ROOT
HETATM    1  C   UNL     1      -6.913  16.583  67.920  1.00  0.00    -0.155 C  
HETATM    2  C   UNL     1      -7.488  15.253  67.506  1.00  0.00    -0.190 C  
HETATM    3  C   UNL     1      -7.447  14.157  68.297  1.00  0.00    -0.125 C  
HETATM    4  O   UNL     1      -8.088  15.224  66.246  1.00  0.00    -0.284 OA 
HETATM    5  N   UNL     1      -6.357  14.402  70.636  1.00  0.00    -0.149 NA 
HETATM    6  C   UNL     1      -6.852  14.249  69.596  1.00  0.00    -0.087 C  
HETATM    7  H   UNL     1      -8.451  14.385  65.985  1.00  0.00     0.000 HD 
ENDROOT
BRANCH   3   8
HETATM    8  C   UNL     1      -7.973  12.800  67.937  1.00  0.00    -0.158 C  
HETATM    9  O   UNL     1      -7.698  12.324  66.837  1.00  0.00    -0.118 OA 
HETATM   10  N   UNL     1      -8.688  12.133  68.913  1.00  0.00    -0.363 N  
HETATM   11  H   UNL     1      -8.872  12.610  69.795  1.00  0.00     0.000 HD 
BRANCH  10  12
HETATM   12  C   UNL     1      -9.175  10.825  68.742  1.00  0.00    -0.189 A  
HETATM   13  C   UNL     1      -8.372   9.752  69.126  1.00  0.00    -0.137 A  
HETATM   14  C   UNL     1      -8.753   8.446  68.804  1.00  0.00    -0.136 A  
HETATM   15  C   UNL     1      -9.971   8.195  68.153  1.00  0.00    -0.219 A  
HETATM   16  C   UNL     1     -10.358   6.809  67.706  1.00  0.00    -0.198 C  
HETATM   17  C   UNL     1     -10.825   9.274  67.879  1.00  0.00    -0.181 A  
HETATM   18  F   UNL     1     -11.476   6.348  68.331  1.00  0.00    -0.375 F  
HETATM   19  F   UNL     1      -9.392   5.875  67.926  1.00  0.00    -0.112 F  
HETATM   20  C   UNL     1     -10.423  10.578  68.163  1.00  0.00    -0.217 A  
HETATM   21  F   UNL     1     -10.629   6.749  66.371  1.00  0.00    -0.246 F  
ENDBRANCH  10  12
ENDBRANCH   3   8
TORSDOF 2
ENDMDL
MODEL      159
REMARK 921   NORMALIZED FREE ENERGY PREDICTED BY IDOCK:   -3.21 KCAL/MOL
REMARK 922        TOTAL FREE ENERGY PREDICTED BY IDOCK:   -4.18 KCAL/MOL
REMARK 923 INTER-LIGAND FREE ENERGY PREDICTED BY IDOCK:   -3.55 KCAL/MOL
REMARK 924 INTRA-LIGAND FREE ENERGY PREDICTED BY IDOCK:   -0.63 KCAL/MOL
REMARK 927      BINDING AFFINITY PREDICTED BY RF-SCORE:    0.00 PKD
ROOT
HETATM    1  C   UNL     1      -9.865  11.279  63.065  1.00  0.00    -0.370 C  
HETATM    2  C   UNL     1      -9.439  10.034  63.800  1.00  0.00    -0.208 C  
HETATM    3  C   UNL     1      -9.649   9.856  65.124  1.00  0.00    -0.367 C  
HETATM    4  O   UNL     1      -8.820   9.057  63.020  1.00  0.00    -0.390 OA 
HETATM    5  N   UNL     1     -10.876  11.741  66.412  1.00  0.00    -0.271 NA 
HETATM    6  C   UNL     1     -10.322  10.874  65.873  1.00  0.00    -0.250 C  
HETATM    7  H   UNL     1      -8.552   8.271  63.484  1.00  0.00     0.000 HD 
ENDROOT
BRANCH   3   8
HETATM    8  C   UNL     1      -9.228   8.659  65.922  1.00  0.00    -0.202 C  
HETATM    9  O   UNL     1      -8.596   7.761  65.367  1.00  0.00    -0.137 OA 
HETATM   10  N   UNL     1      -9.524   8.676  67.272  1.00  0.00    -0.150 N  
HETATM   11  H   UNL     1     -10.057   9.461  67.644  1.00  0.00     0.000 HD 
BRANCH  10  12
HETATM   12  C   UNL     1      -9.123   7.658  68.154  1.00  0.00    -0.132 A  
HETATM   13  C   UNL     1     -10.017   6.630  68.449  1.00  0.00    -0.146 A  
HETATM   14  C   UNL     1      -9.713   5.708  69.456  1.00  0.00    -0.206 A  
HETATM   15  C   UNL     1      -8.484   5.767  70.133  1.00  0.00    -0.121 A  
HETATM   16  C   UNL     1      -8.174   4.850  71.287  1.00  0.00    -0.110 C  
HETATM   17  C   UNL     1      -7.545   6.732  69.744  1.00  0.00    -0.104 A  
HETATM   18  F   UNL     1      -7.124   4.022  71.034  1.00  0.00    -0.031 F  
HETATM   19  F   UNL     1      -9.213   4.043  71.639  1.00  0.00    -0.138 F  
HETATM   20  C   UNL     1      -7.868   7.676  68.770  1.00  0.00    -0.120 A  
HETATM   21  F   UNL     1      -7.841   5.533  72.420  1.00  0.00    -0.096 F  
ENDBRANCH  10  12
ENDBRANCH   3   8
TORSDOF 2
ENDMDL
MODEL      160
REMARK 921   NORMALIZED FREE ENERGY PREDICTED BY IDOCK:   -3.21 KCAL/MOL
REMARK 922        TOTAL FREE ENERGY PREDICTED BY IDOCK:   -4.18 KCAL/MOL
REMARK 923 INTER-LIGAND FREE ENERGY PREDICTED BY IDOCK:   -3.65 KCAL/MOL
REMARK 924 INTRA-LIGAND FREE ENERGY PREDICTED BY IDOCK:   -0.52 KCAL/MOL
REMARK 927      BINDING AFFINITY PREDICTED BY RF-SCORE:    0.00 PKD
ROOT
HETATM    1  C   UNL     1     -10.652   4.035  64.241  1.00  0.00    -0.204 C  
HETATM    2  C   UNL     1     -10.566   4.481  65.678  1.00  0.00    -0.194 C  
HETATM    3  C   UNL     1      -9.754   3.889  66.583  1.00  0.00    -0.189 C  
HETATM    4  O   UNL     1     -11.376   5.564  66.021  1.00  0.00    -0.753 OA 
HETATM    5  N   UNL     1      -8.264   1.933  65.763  1.00  0.00    -0.084 NA 
HETATM    6  C   UNL     1      -8.915   2.803  66.171  1.00  0.00    -0.142 C  
HETATM    7  H   UNL     1     -11.322   5.845  66.927  1.00  0.00     0.000 HD 
ENDROOT
BRANCH   3   8
HETATM    8  C   UNL     1      -9.640   4.262  68.030  1.00  0.00    -0.147 C  
HETATM    9  O   UNL     1      -9.578   3.369  68.875  1.00  0.00    -0.163 OA 
HETATM   10  N   UNL     1      -9.540   5.609  68.319  1.00  0.00    -0.117 N  
HETATM   11  H   UNL     1      -9.606   6.278  67.552  1.00  0.00     0.000 HD 
BRANCH  10  12
HETATM   12  C   UNL     1      -9.352   6.098  69.623  1.00  0.00    -0.146 A  
HETATM   13  C   UNL     1      -8.080   6.032  70.190  1.00  0.00    -0.114 A  
HETATM   14  C   UNL     1      -7.902   6.343  71.542  1.00  0.00    -0.101 A  
HETATM   15  C   UNL     1      -8.982   6.786  72.323  1.00  0.00    -0.136 A  
HETATM   16  C   UNL     1      -8.839   7.031  73.803  1.00  0.00    -0.167 C  
HETATM   17  C   UNL     1     -10.231   6.962  71.710  1.00  0.00    -0.206 A  
HETATM   18  F   UNL     1      -9.051   8.331  74.143  1.00  0.00    -0.265 F  
HETATM   19  F   UNL     1      -7.610   6.709  74.293  1.00  0.00    -0.097 F  
HETATM   20  C   UNL     1     -10.415   6.610  70.373  1.00  0.00    -0.249 A  
HETATM   21  F   UNL     1      -9.729   6.306  74.540  1.00  0.00    -0.180 F  
ENDBRANCH  10  12
ENDBRANCH   3   8
TORSDOF 2
ENDMDL
MODEL      161
REMARK 921   NORMALIZED FREE ENERGY PREDICTED BY IDOCK:   -3.11 KCAL/MOL
REMARK 922        TOTAL FREE ENERGY PREDICTED BY IDOCK:   -4.07 KCAL/MOL
REMARK 923 INTER-LIGAND FREE ENERGY PREDICTED BY IDOCK:   -3.48 KCAL/MOL
REMARK 924 INTRA-LIGAND FREE ENERGY PREDICTED BY IDOCK:   -0.59 KCAL/MOL
REMARK 927      BINDING AFFINITY PREDICTED BY RF-SCORE:    0.00 PKD
ROOT
HETATM    1  C   UNL     1      -7.668   6.055  62.912  1.00  0.00    -0.090 C  
HETATM    2  C   UNL     1      -7.687   6.425  64.373  1.00  0.00    -0.108 C  
HETATM    3  C   UNL     1      -8.424   5.758  65.290  1.00  0.00    -0.148 C  
HETATM    4  O   UNL     1      -6.875   7.502  64.731  1.00  0.00    -0.046 OA 
HETATM    5  N   UNL     1      -9.823   3.736  64.468  1.00  0.00    -0.179 NA 
HETATM    6  C   UNL     1      -9.212   4.636  64.877  1.00  0.00    -0.143 C  
HETATM    7  H   UNL     1      -6.887   7.735  65.653  1.00  0.00     0.000 HD 
ENDROOT
BRANCH   3   8
HETATM    8  C   UNL     1      -8.511   6.088  66.750  1.00  0.00    -0.110 C  
HETATM    9  O   UNL     1      -7.810   6.992  67.201  1.00  0.00    -0.106 OA 
HETATM   10  N   UNL     1      -9.442   5.387  67.491  1.00  0.00    -0.117 N  
HETATM   11  H   UNL     1      -9.977   4.650  67.031  1.00  0.00     0.000 HD 
BRANCH  10  12
HETATM   12  C   UNL     1      -9.686   5.645  68.851  1.00  0.00    -0.138 A  
HETATM   13  C   UNL     1      -8.816   5.118  69.803  1.00  0.00    -0.130 A  
HETATM   14  C   UNL     1      -9.132   5.206  71.163  1.00  0.00    -0.174 A  
HETATM   15  C   UNL     1     -10.290   5.879  71.586  1.00  0.00    -0.268 A  
HETATM   16  C   UNL     1     -10.705   5.902  73.034  1.00  0.00    -0.256 C  
HETATM   17  C   UNL     1     -11.094   6.508  70.625  1.00  0.00    -0.364 A  
HETATM   18  F   UNL     1     -10.708   7.157  73.561  1.00  0.00    -0.327 F  
HETATM   19  F   UNL     1      -9.904   5.156  73.844  1.00  0.00    -0.139 F  
HETATM   20  C   UNL     1     -10.799   6.382  69.268  1.00  0.00    -0.387 A  
HETATM   21  F   UNL     1     -11.967   5.420  73.222  1.00  0.00    -0.251 F  
ENDBRANCH  10  12
ENDBRANCH   3   8
TORSDOF 2
ENDMDL
MODEL      162
REMARK 921   NORMALIZED FREE ENERGY PREDICTED BY IDOCK:   -3.00 KCAL/MOL
REMARK 922        TOTAL FREE ENERGY PREDICTED BY IDOCK:   -3.95 KCAL/MOL
REMARK 923 INTER-LIGAND FREE ENERGY PREDICTED BY IDOCK:   -3.42 KCAL/MOL
REMARK 924 INTRA-LIGAND FREE ENERGY PREDICTED BY IDOCK:   -0.53 KCAL/MOL
REMARK 927      BINDING AFFINITY PREDICTED BY RF-SCORE:    0.00 PKD
ROOT
HETATM    1  C   UNL     1      -6.065   9.427  66.725  1.00  0.00    -0.064 C  
HETATM    2  C   UNL     1      -6.560  10.848  66.815  1.00  0.00    -0.116 C  
HETATM    3  C   UNL     1      -7.174  11.343  67.914  1.00  0.00    -0.084 C  
HETATM    4  O   UNL     1      -6.331  11.637  65.687  1.00  0.00    -0.195 OA 
HETATM    5  N   UNL     1      -7.457   9.763  69.949  1.00  0.00    -0.122 NA 
HETATM    6  C   UNL     1      -7.351  10.503  69.060  1.00  0.00    -0.103 C  
HETATM    7  H   UNL     1      -6.644  12.533  65.744  1.00  0.00     0.000 HD 
ENDROOT
BRANCH   3   8
HETATM    8  C   UNL     1      -7.714  12.734  68.061  1.00  0.00    -0.137 C  
HETATM    9  O   UNL     1      -8.746  12.910  68.707  1.00  0.00     0.000 OA 
HETATM   10  N   UNL     1      -6.965  13.753  67.506  1.00  0.00    -0.224 N  
HETATM   11  H   UNL     1      -6.124  13.511  66.983  1.00  0.00     0.000 HD 
BRANCH  10  12
HETATM   12  C   UNL     1      -7.310  15.110  67.633  1.00  0.00    -0.183 A  
HETATM   13  C   UNL     1      -7.901  15.759  66.550  1.00  0.00    -0.098 A  
HETATM   14  C   UNL     1      -8.088  17.144  66.584  1.00  0.00    -0.292 A  
HETATM   15  C   UNL     1      -7.747  17.885  67.727  1.00  0.00    -0.220 A  
HETATM   16  C   UNL     1      -7.846  19.388  67.753  1.00  0.00    -0.280 C  
HETATM   17  C   UNL     1      -7.265  17.203  68.854  1.00  0.00    -0.242 A  
HETATM   18  F   UNL     1      -8.748  19.840  68.666  1.00  0.00    -0.369 F  
HETATM   19  F   UNL     1      -8.212  19.932  66.560  1.00  0.00    -0.290 F  
HETATM   20  C   UNL     1      -7.039  15.828  68.801  1.00  0.00    -0.131 A  
HETATM   21  F   UNL     1      -6.661  19.982  68.078  1.00  0.00    -0.272 F  
ENDBRANCH  10  12
ENDBRANCH   3   8
TORSDOF 2
ENDMDL
MODEL      163
REMARK 921   NORMALIZED FREE ENERGY PREDICTED BY IDOCK:   -2.96 KCAL/MOL
REMARK 922        TOTAL FREE ENERGY PREDICTED BY IDOCK:   -3.90 KCAL/MOL
REMARK 923 INTER-LIGAND FREE ENERGY PREDICTED BY IDOCK:   -3.72 KCAL/MOL
REMARK 924 INTRA-LIGAND FREE ENERGY PREDICTED BY IDOCK:   -0.19 KCAL/MOL
REMARK 927      BINDING AFFINITY PREDICTED BY RF-SCORE:    0.00 PKD
ROOT
HETATM    1  C   UNL     1     -11.808  12.735  65.888  1.00  0.00    -0.490 C  
HETATM    2  C   UNL     1     -11.333  12.252  67.235  1.00  0.00    -0.328 C  
HETATM    3  C   UNL     1     -10.612  11.119  67.396  1.00  0.00    -0.272 C  
HETATM    4  O   UNL     1     -11.674  13.063  68.318  1.00  0.00    -0.314 OA 
HETATM    5  N   UNL     1     -10.005   9.767  65.271  1.00  0.00    -0.278 NA 
HETATM    6  C   UNL     1     -10.256  10.342  66.248  1.00  0.00    -0.221 C  
HETATM    7  H   UNL     1     -11.375  12.759  69.168  1.00  0.00     0.000 HD 
ENDROOT
BRANCH   3   8
HETATM    8  C   UNL     1     -10.133  10.568  68.706  1.00  0.00    -0.191 C  
HETATM    9  O   UNL     1     -10.893  10.577  69.673  1.00  0.00    -0.240 OA 
HETATM   10  N   UNL     1      -8.868  10.013  68.721  1.00  0.00    -0.130 N  
HETATM   11  H   UNL     1      -8.307  10.055  67.870  1.00  0.00     0.000 HD 
BRANCH  10  12
HETATM   12  C   UNL     1      -8.320   9.391  69.856  1.00  0.00    -0.167 A  
HETATM   13  C   UNL     1      -9.095   8.470  70.560  1.00  0.00    -0.174 A  
HETATM   14  C   UNL     1      -8.646   7.975  71.788  1.00  0.00    -0.171 A  
HETATM   15  C   UNL     1      -7.389   8.346  72.293  1.00  0.00    -0.126 A  
HETATM   16  C   UNL     1      -6.925   7.906  73.658  1.00  0.00    -0.109 C  
HETATM   17  C   UNL     1      -6.569   9.179  71.519  1.00  0.00    -0.034 A  
HETATM   18  F   UNL     1      -5.819   7.115  73.608  1.00  0.00    -0.054 F  
HETATM   19  F   UNL     1      -7.861   7.202  74.352  1.00  0.00    -0.120 F  
HETATM   20  C   UNL     1      -7.037   9.705  70.315  1.00  0.00    -0.127 A  
HETATM   21  F   UNL     1      -6.590   8.959  74.458  1.00  0.00    -0.170 F  
ENDBRANCH  10  12
ENDBRANCH   3   8
TORSDOF 2
ENDMDL
MODEL      164
REMARK 921   NORMALIZED FREE ENERGY PREDICTED BY IDOCK:   -2.86 KCAL/MOL
REMARK 922        TOTAL FREE ENERGY PREDICTED BY IDOCK:   -3.79 KCAL/MOL
REMARK 923 INTER-LIGAND FREE ENERGY PREDICTED BY IDOCK:   -3.39 KCAL/MOL
REMARK 924 INTRA-LIGAND FREE ENERGY PREDICTED BY IDOCK:   -0.40 KCAL/MOL
REMARK 927      BINDING AFFINITY PREDICTED BY RF-SCORE:    0.00 PKD
ROOT
HETATM    1  C   UNL     1     -10.984  14.555  64.851  1.00  0.00    -0.421 C  
HETATM    2  C   UNL     1     -10.427  13.336  65.539  1.00  0.00    -0.288 C  
HETATM    3  C   UNL     1      -9.358  13.384  66.366  1.00  0.00    -0.185 C  
HETATM    4  O   UNL     1     -11.098  12.140  65.280  1.00  0.00    -0.303 OA 
HETATM    5  N   UNL     1      -8.271  15.697  66.795  1.00  0.00    -0.255 NA 
HETATM    6  C   UNL     1      -8.727  14.642  66.629  1.00  0.00    -0.163 C  
HETATM    7  H   UNL     1     -10.747  11.371  65.714  1.00  0.00     0.000 HD 
ENDROOT
BRANCH   3   8
HETATM    8  C   UNL     1      -8.736  12.209  67.059  1.00  0.00    -0.190 C  
HETATM    9  O   UNL     1      -7.510  12.124  67.110  1.00  0.00    -0.149 OA 
HETATM   10  N   UNL     1      -9.599  11.317  67.667  1.00  0.00    -0.169 N  
HETATM   11  H   UNL     1     -10.603  11.466  67.567  1.00  0.00     0.000 HD 
BRANCH  10  12
HETATM   12  C   UNL     1      -9.155  10.214  68.416  1.00  0.00    -0.133 A  
HETATM   13  C   UNL     1      -9.502   8.931  67.997  1.00  0.00    -0.158 A  
HETATM   14  C   UNL     1      -9.229   7.832  68.816  1.00  0.00    -0.139 A  
HETATM   15  C   UNL     1      -8.547   7.997  70.033  1.00  0.00    -0.134 A  
HETATM   16  C   UNL     1      -8.329   6.846  70.980  1.00  0.00    -0.126 C  
HETATM   17  C   UNL     1      -8.098   9.278  70.386  1.00  0.00    -0.178 A  
HETATM   18  F   UNL     1      -7.011   6.557  71.161  1.00  0.00    -0.061 F  
HETATM   19  F   UNL     1      -8.916   5.686  70.574  1.00  0.00    -0.129 F  
HETATM   20  C   UNL     1      -8.410  10.378  69.588  1.00  0.00    -0.085 A  
HETATM   21  F   UNL     1      -8.827   7.093  72.225  1.00  0.00    -0.127 F  
ENDBRANCH  10  12
ENDBRANCH   3   8
TORSDOF 2
ENDMDL
MODEL      165
REMARK 921   NORMALIZED FREE ENERGY PREDICTED BY IDOCK:   -2.80 KCAL/MOL
REMARK 922        TOTAL FREE ENERGY PREDICTED BY IDOCK:   -3.72 KCAL/MOL
REMARK 923 INTER-LIGAND FREE ENERGY PREDICTED BY IDOCK:   -3.92 KCAL/MOL
REMARK 924 INTRA-LIGAND FREE ENERGY PREDICTED BY IDOCK:    0.20 KCAL/MOL
REMARK 927      BINDING AFFINITY PREDICTED BY RF-SCORE:    0.00 PKD
ROOT
HETATM    1  C   UNL     1      -9.463  11.128  63.137  1.00  0.00    -0.371 C  
HETATM    2  C   UNL     1      -9.498  10.519  64.516  1.00  0.00    -0.276 C  
HETATM    3  C   UNL     1      -9.910  11.201  65.609  1.00  0.00    -0.280 C  
HETATM    4  O   UNL     1      -9.089   9.187  64.595  1.00  0.00    -0.392 OA 
HETATM    5  N   UNL     1     -10.703  13.646  65.274  1.00  0.00    -0.320 NA 
HETATM    6  C   UNL     1     -10.354  12.555  65.468  1.00  0.00    -0.280 C  
HETATM    7  H   UNL     1      -9.111   8.803  65.464  1.00  0.00     0.000 HD 
ENDROOT
BRANCH   3   8
HETATM    8  C   UNL     1      -9.943  10.667  67.009  1.00  0.00    -0.202 C  
HETATM    9  O   UNL     1     -10.990  10.736  67.651  1.00  0.00    -0.263 OA 
HETATM   10  N   UNL     1      -8.792  10.059  67.470  1.00  0.00    -0.128 N  
HETATM   11  H   UNL     1      -7.969  10.053  66.868  1.00  0.00     0.000 HD 
BRANCH  10  12
HETATM   12  C   UNL     1      -8.705   9.447  68.733  1.00  0.00    -0.131 A  
HETATM   13  C   UNL     1      -7.522   8.800  69.088  1.00  0.00    -0.076 A  
HETATM   14  C   UNL     1      -7.470   8.033  70.256  1.00  0.00    -0.072 A  
HETATM   15  C   UNL     1      -8.580   7.959  71.114  1.00  0.00    -0.136 A  
HETATM   16  C   UNL     1      -8.584   7.061  72.324  1.00  0.00    -0.121 C  
HETATM   17  C   UNL     1      -9.722   8.711  70.806  1.00  0.00    -0.237 A  
HETATM   18  F   UNL     1      -8.693   7.753  73.491  1.00  0.00    -0.191 F  
HETATM   19  F   UNL     1      -7.462   6.299  72.442  1.00  0.00    -0.088 F  
HETATM   20  C   UNL     1      -9.786   9.440  69.619  1.00  0.00    -0.205 A  
HETATM   21  F   UNL     1      -9.627   6.182  72.317  1.00  0.00    -0.154 F  
ENDBRANCH  10  12
ENDBRANCH   3   8
TORSDOF 2
ENDMDL
MODEL      166
REMARK 921   NORMALIZED FREE ENERGY PREDICTED BY IDOCK:   -2.77 KCAL/MOL
REMARK 922        TOTAL FREE ENERGY PREDICTED BY IDOCK:   -3.69 KCAL/MOL
REMARK 923 INTER-LIGAND FREE ENERGY PREDICTED BY IDOCK:   -3.05 KCAL/MOL
REMARK 924 INTRA-LIGAND FREE ENERGY PREDICTED BY IDOCK:   -0.65 KCAL/MOL
REMARK 927      BINDING AFFINITY PREDICTED BY RF-SCORE:    0.00 PKD
ROOT
HETATM    1  C   UNL     1      -6.860   3.777  74.473  1.00  0.00    -0.050 C  
HETATM    2  C   UNL     1      -7.134   5.066  73.742  1.00  0.00    -0.082 C  
HETATM    3  C   UNL     1      -8.084   5.181  72.786  1.00  0.00    -0.109 C  
HETATM    4  O   UNL     1      -6.348   6.153  74.126  1.00  0.00    -0.068 OA 
HETATM    5  N   UNL     1      -9.503   3.081  72.242  1.00  0.00    -0.114 NA 
HETATM    6  C   UNL     1      -8.889   4.044  72.454  1.00  0.00    -0.106 C  
HETATM    7  H   UNL     1      -6.521   6.967  73.665  1.00  0.00     0.000 HD 
ENDROOT
BRANCH   3   8
HETATM    8  C   UNL     1      -8.389   6.421  72.002  1.00  0.00    -0.109 C  
HETATM    9  O   UNL     1      -7.626   7.383  72.083  1.00  0.00    -0.081 OA 
HETATM   10  N   UNL     1      -9.491   6.376  71.170  1.00  0.00    -0.167 N  
HETATM   11  H   UNL     1     -10.069   5.535  71.172  1.00  0.00     0.000 HD 
BRANCH  10  12
HETATM   12  C   UNL     1      -9.851   7.436  70.321  1.00  0.00    -0.187 A  
HETATM   13  C   UNL     1      -9.273   7.512  69.055  1.00  0.00    -0.146 A  
HETATM   14  C   UNL     1      -9.473   8.647  68.263  1.00  0.00    -0.150 A  
HETATM   15  C   UNL     1     -10.307   9.689  68.702  1.00  0.00    -0.226 A  
HETATM   16  C   UNL     1     -10.460  10.964  67.914  1.00  0.00    -0.195 C  
HETATM   17  C   UNL     1     -10.977   9.546  69.926  1.00  0.00    -0.263 A  
HETATM   18  F   UNL     1     -11.732  11.160  67.473  1.00  0.00    -0.346 F  
HETATM   19  F   UNL     1      -9.666  11.022  66.810  1.00  0.00    -0.196 F  
HETATM   20  C   UNL     1     -10.741   8.433  70.732  1.00  0.00    -0.244 A  
HETATM   21  F   UNL     1     -10.149  12.070  68.649  1.00  0.00    -0.205 F  
ENDBRANCH  10  12
ENDBRANCH   3   8
TORSDOF 2
ENDMDL
MODEL      167
REMARK 921   NORMALIZED FREE ENERGY PREDICTED BY IDOCK:   -2.77 KCAL/MOL
REMARK 922        TOTAL FREE ENERGY PREDICTED BY IDOCK:   -3.69 KCAL/MOL
REMARK 923 INTER-LIGAND FREE ENERGY PREDICTED BY IDOCK:   -3.11 KCAL/MOL
REMARK 924 INTRA-LIGAND FREE ENERGY PREDICTED BY IDOCK:   -0.58 KCAL/MOL
REMARK 927      BINDING AFFINITY PREDICTED BY RF-SCORE:    0.00 PKD
ROOT
HETATM    1  C   UNL     1      -7.035  15.696  67.975  1.00  0.00    -0.141 C  
HETATM    2  C   UNL     1      -7.550  14.291  67.798  1.00  0.00    -0.165 C  
HETATM    3  C   UNL     1      -7.199  13.272  68.615  1.00  0.00    -0.106 C  
HETATM    4  O   UNL     1      -8.435  14.104  66.736  1.00  0.00    -0.402 OA 
HETATM    5  N   UNL     1      -5.599  13.804  70.584  1.00  0.00    -0.148 NA 
HETATM    6  C   UNL     1      -6.316  13.523  69.714  1.00  0.00    -0.087 C  
HETATM    7  H   UNL     1      -8.760  13.218  66.624  1.00  0.00     0.000 HD 
ENDROOT
BRANCH   3   8
HETATM    8  C   UNL     1      -7.650  11.848  68.480  1.00  0.00    -0.127 C  
HETATM    9  O   UNL     1      -8.026  11.242  69.482  1.00  0.00     0.084 OA 
HETATM   10  N   UNL     1      -7.680  11.325  67.202  1.00  0.00    -0.139 N  
HETATM   11  H   UNL     1      -7.345  11.902  66.431  1.00  0.00     0.000 HD 
BRANCH  10  12
HETATM   12  C   UNL     1      -8.153  10.032  66.918  1.00  0.00    -0.117 A  
HETATM   13  C   UNL     1      -9.517   9.846  66.701  1.00  0.00    -0.220 A  
HETATM   14  C   UNL     1     -10.037   8.552  66.596  1.00  0.00    -0.364 A  
HETATM   15  C   UNL     1      -9.189   7.434  66.641  1.00  0.00    -0.196 A  
HETATM   16  C   UNL     1      -9.733   6.029  66.630  1.00  0.00    -0.157 C  
HETATM   17  C   UNL     1      -7.805   7.640  66.739  1.00  0.00    -0.107 A  
HETATM   18  F   UNL     1      -9.343   5.323  65.534  1.00  0.00    -0.161 F  
HETATM   19  F   UNL     1     -11.093   5.969  66.652  1.00  0.00    -0.360 F  
HETATM   20  C   UNL     1      -7.295   8.929  66.887  1.00  0.00    -0.083 A  
HETATM   21  F   UNL     1      -9.316   5.301  67.706  1.00  0.00    -0.112 F  
ENDBRANCH  10  12
ENDBRANCH   3   8
TORSDOF 2
ENDMDL
MODEL      168
REMARK 921   NORMALIZED FREE ENERGY PREDICTED BY IDOCK:   -2.75 KCAL/MOL
REMARK 922        TOTAL FREE ENERGY PREDICTED BY IDOCK:   -3.66 KCAL/MOL
REMARK 923 INTER-LIGAND FREE ENERGY PREDICTED BY IDOCK:   -3.08 KCAL/MOL
REMARK 924 INTRA-LIGAND FREE ENERGY PREDICTED BY IDOCK:   -0.58 KCAL/MOL
REMARK 927      BINDING AFFINITY PREDICTED BY RF-SCORE:    0.00 PKD
ROOT
HETATM    1  C   UNL     1      -8.321  17.353  68.658  1.00  0.00    -0.264 C  
HETATM    2  C   UNL     1      -8.347  15.875  68.364  1.00  0.00    -0.174 C  
HETATM    3  C   UNL     1      -9.491  15.195  68.122  1.00  0.00    -0.201 C  
HETATM    4  O   UNL     1      -7.102  15.245  68.342  1.00  0.00    -0.105 OA 
HETATM    5  N   UNL     1     -11.711  16.531  68.132  1.00  0.00     0.083 NA 
HETATM    6  C   UNL     1     -10.740  15.896  68.120  1.00  0.00    -0.302 C  
HETATM    7  H   UNL     1      -7.118  14.313  68.157  1.00  0.00     0.000 HD 
ENDROOT
BRANCH   3   8
HETATM    8  C   UNL     1      -9.591  13.724  67.852  1.00  0.00    -0.222 C  
HETATM    9  O   UNL     1     -10.299  13.333  66.925  1.00  0.00    -0.251 OA 
HETATM   10  N   UNL     1      -8.811  12.894  68.634  1.00  0.00    -0.375 N  
HETATM   11  H   UNL     1      -8.258  13.309  69.383  1.00  0.00     0.000 HD 
BRANCH  10  12
HETATM   12  C   UNL     1      -8.746  11.503  68.441  1.00  0.00    -0.160 A  
HETATM   13  C   UNL     1      -9.615  10.682  69.159  1.00  0.00    -0.193 A  
HETATM   14  C   UNL     1      -9.452   9.294  69.123  1.00  0.00    -0.157 A  
HETATM   15  C   UNL     1      -8.460   8.710  68.319  1.00  0.00    -0.131 A  
HETATM   16  C   UNL     1      -8.198   7.226  68.339  1.00  0.00    -0.125 C  
HETATM   17  C   UNL     1      -7.671   9.540  67.510  1.00  0.00    -0.095 A  
HETATM   18  F   UNL     1      -8.442   6.633  67.139  1.00  0.00    -0.111 F  
HETATM   19  F   UNL     1      -8.951   6.551  69.252  1.00  0.00    -0.129 F  
HETATM   20  C   UNL     1      -7.807  10.926  67.580  1.00  0.00    -0.113 A  
HETATM   21  F   UNL     1      -6.902   6.930  68.642  1.00  0.00    -0.058 F  
ENDBRANCH  10  12
ENDBRANCH   3   8
TORSDOF 2
ENDMDL
MODEL      169
REMARK 921   NORMALIZED FREE ENERGY PREDICTED BY IDOCK:   -2.68 KCAL/MOL
REMARK 922        TOTAL FREE ENERGY PREDICTED BY IDOCK:   -3.59 KCAL/MOL
REMARK 923 INTER-LIGAND FREE ENERGY PREDICTED BY IDOCK:   -3.05 KCAL/MOL
REMARK 924 INTRA-LIGAND FREE ENERGY PREDICTED BY IDOCK:   -0.53 KCAL/MOL
REMARK 927      BINDING AFFINITY PREDICTED BY RF-SCORE:    0.00 PKD
ROOT
HETATM    1  C   UNL     1      -7.963   2.989  74.559  1.00  0.00    -0.064 C  
HETATM    2  C   UNL     1      -8.287   4.104  73.598  1.00  0.00    -0.093 C  
HETATM    3  C   UNL     1      -9.412   4.122  72.848  1.00  0.00    -0.153 C  
HETATM    4  O   UNL     1      -7.351   5.137  73.538  1.00  0.00    -0.088 OA 
HETATM    5  N   UNL     1     -11.080   2.159  73.131  1.00  0.00    -0.151 NA 
HETATM    6  C   UNL     1     -10.359   3.055  72.973  1.00  0.00    -0.159 C  
HETATM    7  H   UNL     1      -7.555   5.840  72.932  1.00  0.00     0.000 HD 
ENDROOT
BRANCH   3   8
HETATM    8  C   UNL     1      -9.782   5.182  71.855  1.00  0.00    -0.161 C  
HETATM    9  O   UNL     1     -10.962   5.512  71.742  1.00  0.00    -0.240 OA 
HETATM   10  N   UNL     1      -8.743   5.780  71.168  1.00  0.00    -0.134 N  
HETATM   11  H   UNL     1      -7.795   5.437  71.323  1.00  0.00     0.000 HD 
BRANCH  10  12
HETATM   12  C   UNL     1      -8.935   6.839  70.264  1.00  0.00    -0.152 A  
HETATM   13  C   UNL     1      -8.699   8.144  70.694  1.00  0.00    -0.136 A  
HETATM   14  C   UNL     1      -9.052   9.223  69.879  1.00  0.00    -0.203 A  
HETATM   15  C   UNL     1      -9.586   9.007  68.597  1.00  0.00    -0.158 A  
HETATM   16  C   UNL     1     -10.067  10.148  67.739  1.00  0.00    -0.180 C  
HETATM   17  C   UNL     1      -9.706   7.691  68.130  1.00  0.00    -0.168 A  
HETATM   18  F   UNL     1      -9.355  10.276  66.586  1.00  0.00    -0.166 F  
HETATM   19  F   UNL     1     -10.003  11.360  68.357  1.00  0.00    -0.175 F  
HETATM   20  C   UNL     1      -9.393   6.617  68.962  1.00  0.00    -0.133 A  
HETATM   21  F   UNL     1     -11.367  10.000  67.356  1.00  0.00    -0.338 F  
ENDBRANCH  10  12
ENDBRANCH   3   8
TORSDOF 2
ENDMDL
MODEL      170
REMARK 921   NORMALIZED FREE ENERGY PREDICTED BY IDOCK:   -2.64 KCAL/MOL
REMARK 922        TOTAL FREE ENERGY PREDICTED BY IDOCK:   -3.55 KCAL/MOL
REMARK 923 INTER-LIGAND FREE ENERGY PREDICTED BY IDOCK:   -3.13 KCAL/MOL
REMARK 924 INTRA-LIGAND FREE ENERGY PREDICTED BY IDOCK:   -0.41 KCAL/MOL
REMARK 927      BINDING AFFINITY PREDICTED BY RF-SCORE:    0.00 PKD
ROOT
HETATM    1  C   UNL     1      -7.645  14.160  68.911  1.00  0.00    -0.098 C  
HETATM    2  C   UNL     1      -7.517  12.691  68.597  1.00  0.00    -0.094 C  
HETATM    3  C   UNL     1      -8.334  12.053  67.727  1.00  0.00    -0.156 C  
HETATM    4  O   UNL     1      -6.483  12.024  69.254  1.00  0.00    -0.095 OA 
HETATM    5  N   UNL     1     -10.160  13.458  66.540  1.00  0.00    -0.274 NA 
HETATM    6  C   UNL     1      -9.357  12.792  67.051  1.00  0.00    -0.229 C  
HETATM    7  H   UNL     1      -6.403  11.097  69.055  1.00  0.00     0.000 HD 
ENDROOT
BRANCH   3   8
HETATM    8  C   UNL     1      -8.281  10.594  67.390  1.00  0.00    -0.115 C  
HETATM    9  O   UNL     1      -7.256   9.959  67.637  1.00  0.00    -0.087 OA 
HETATM   10  N   UNL     1      -9.434  10.032  66.878  1.00  0.00    -0.161 N  
HETATM   11  H   UNL     1     -10.235  10.638  66.702  1.00  0.00     0.000 HD 
BRANCH  10  12
HETATM   12  C   UNL     1      -9.553   8.661  66.589  1.00  0.00    -0.221 A  
HETATM   13  C   UNL     1     -10.520   7.913  67.257  1.00  0.00    -0.390 A  
HETATM   14  C   UNL     1     -10.541   6.521  67.124  1.00  0.00    -0.398 A  
HETATM   15  C   UNL     1      -9.636   5.870  66.270  1.00  0.00    -0.148 A  
HETATM   16  C   UNL     1      -9.571   4.367  66.185  1.00  0.00    -0.190 C  
HETATM   17  C   UNL     1      -8.746   6.645  65.512  1.00  0.00    -0.051 A  
HETATM   18  F   UNL     1      -9.893   3.896  64.949  1.00  0.00    -0.155 F  
HETATM   19  F   UNL     1     -10.403   3.735  67.057  1.00  0.00    -0.013 F  
HETATM   20  C   UNL     1      -8.700   8.029  65.680  1.00  0.00    -0.156 A  
HETATM   21  F   UNL     1      -8.324   3.884  66.451  1.00  0.00    -0.102 F  
ENDBRANCH  10  12
ENDBRANCH   3   8
TORSDOF 2
ENDMDL
MODEL      171
REMARK 921   NORMALIZED FREE ENERGY PREDICTED BY IDOCK:   -2.64 KCAL/MOL
REMARK 922        TOTAL FREE ENERGY PREDICTED BY IDOCK:   -3.54 KCAL/MOL
REMARK 923 INTER-LIGAND FREE ENERGY PREDICTED BY IDOCK:   -2.91 KCAL/MOL
REMARK 924 INTRA-LIGAND FREE ENERGY PREDICTED BY IDOCK:   -0.63 KCAL/MOL
REMARK 927      BINDING AFFINITY PREDICTED BY RF-SCORE:    0.00 PKD
ROOT
HETATM    1  C   UNL     1      -6.924   1.740  71.507  1.00  0.00    -0.027 C  
HETATM    2  C   UNL     1      -7.592   2.849  70.736  1.00  0.00    -0.039 C  
HETATM    3  C   UNL     1      -7.926   4.034  71.297  1.00  0.00    -0.071 C  
HETATM    4  O   UNL     1      -7.835   2.583  69.388  1.00  0.00    -0.043 OA 
HETATM    5  N   UNL     1      -7.340   4.391  73.796  1.00  0.00    -0.075 NA 
HETATM    6  C   UNL     1      -7.621   4.271  72.675  1.00  0.00    -0.079 C  
HETATM    7  H   UNL     1      -8.257   3.282  68.902  1.00  0.00     0.000 HD 
ENDROOT
BRANCH   3   8
HETATM    8  C   UNL     1      -8.616   5.167  70.598  1.00  0.00    -0.119 C  
HETATM    9  O   UNL     1      -9.207   4.947  69.541  1.00  0.00    -0.105 OA 
HETATM   10  N   UNL     1      -8.600   6.392  71.235  1.00  0.00    -0.127 N  
HETATM   11  H   UNL     1      -8.079   6.481  72.108  1.00  0.00     0.000 HD 
BRANCH  10  12
HETATM   12  C   UNL     1      -9.270   7.522  70.735  1.00  0.00    -0.158 A  
HETATM   13  C   UNL     1     -10.538   7.827  71.227  1.00  0.00    -0.241 A  
HETATM   14  C   UNL     1     -11.298   8.832  70.623  1.00  0.00    -0.289 A  
HETATM   15  C   UNL     1     -10.772   9.588  69.561  1.00  0.00    -0.246 A  
HETATM   16  C   UNL     1     -11.605  10.608  68.829  1.00  0.00    -0.239 C  
HETATM   17  C   UNL     1      -9.451   9.351  69.155  1.00  0.00    -0.163 A  
HETATM   18  F   UNL     1     -11.121  11.873  68.960  1.00  0.00    -0.232 F  
HETATM   19  F   UNL     1     -12.901  10.654  69.244  1.00  0.00    -0.167 F  
HETATM   20  C   UNL     1      -8.711   8.319  69.731  1.00  0.00    -0.134 A  
HETATM   21  F   UNL     1     -11.658  10.369  67.487  1.00  0.00    -0.351 F  
ENDBRANCH  10  12
ENDBRANCH   3   8
TORSDOF 2
ENDMDL
MODEL      172
REMARK 921   NORMALIZED FREE ENERGY PREDICTED BY IDOCK:   -2.53 KCAL/MOL
REMARK 922        TOTAL FREE ENERGY PREDICTED BY IDOCK:   -3.42 KCAL/MOL
REMARK 923 INTER-LIGAND FREE ENERGY PREDICTED BY IDOCK:   -3.61 KCAL/MOL
REMARK 924 INTRA-LIGAND FREE ENERGY PREDICTED BY IDOCK:    0.19 KCAL/MOL
REMARK 927      BINDING AFFINITY PREDICTED BY RF-SCORE:    0.00 PKD
ROOT
HETATM    1  C   UNL     1     -12.600  14.829  64.907  1.00  0.00    -0.095 C  
HETATM    2  C   UNL     1     -12.145  13.458  65.338  1.00  0.00    -0.421 C  
HETATM    3  C   UNL     1     -11.370  13.251  66.427  1.00  0.00    -0.341 C  
HETATM    4  O   UNL     1     -12.590  12.400  64.545  1.00  0.00    -0.517 OA 
HETATM    5  N   UNL     1     -10.689  15.320  67.830  1.00  0.00    -0.268 NA 
HETATM    6  C   UNL     1     -10.970  14.368  67.229  1.00  0.00    -0.297 C  
HETATM    7  H   UNL     1     -12.303  11.535  64.817  1.00  0.00     0.000 HD 
ENDROOT
BRANCH   3   8
HETATM    8  C   UNL     1     -10.859  11.921  66.895  1.00  0.00    -0.263 C  
HETATM    9  O   UNL     1     -11.620  10.955  66.895  1.00  0.00    -0.327 OA 
HETATM   10  N   UNL     1      -9.523  11.854  67.237  1.00  0.00    -0.174 N  
HETATM   11  H   UNL     1      -8.969  12.711  67.211  1.00  0.00     0.000 HD 
BRANCH  10  12
HETATM   12  C   UNL     1      -8.892  10.658  67.619  1.00  0.00    -0.131 A  
HETATM   13  C   UNL     1      -7.520  10.668  67.866  1.00  0.00    -0.090 A  
HETATM   14  C   UNL     1      -6.838   9.465  68.070  1.00  0.00    -0.074 A  
HETATM   15  C   UNL     1      -7.533   8.244  68.095  1.00  0.00    -0.097 A  
HETATM   16  C   UNL     1      -6.811   6.926  68.213  1.00  0.00    -0.074 C  
HETATM   17  C   UNL     1      -8.929   8.259  67.965  1.00  0.00    -0.138 A  
HETATM   18  F   UNL     1      -7.129   6.253  69.352  1.00  0.00    -0.062 F  
HETATM   19  F   UNL     1      -5.454   7.045  68.211  1.00  0.00    -0.016 F  
HETATM   20  C   UNL     1      -9.600   9.456  67.719  1.00  0.00    -0.158 A  
HETATM   21  F   UNL     1      -7.106   6.077  67.187  1.00  0.00    -0.063 F  
ENDBRANCH  10  12
ENDBRANCH   3   8
TORSDOF 2
ENDMDL
MODEL      173
REMARK 921   NORMALIZED FREE ENERGY PREDICTED BY IDOCK:   -2.44 KCAL/MOL
REMARK 922        TOTAL FREE ENERGY PREDICTED BY IDOCK:   -3.32 KCAL/MOL
REMARK 923 INTER-LIGAND FREE ENERGY PREDICTED BY IDOCK:   -2.70 KCAL/MOL
REMARK 924 INTRA-LIGAND FREE ENERGY PREDICTED BY IDOCK:   -0.62 KCAL/MOL
REMARK 927      BINDING AFFINITY PREDICTED BY RF-SCORE:    0.00 PKD
ROOT
HETATM    1  C   UNL     1      -8.379   4.251  63.657  1.00  0.00    -0.100 C  
HETATM    2  C   UNL     1      -9.003   4.579  64.989  1.00  0.00    -0.149 C  
HETATM    3  C   UNL     1      -8.273   4.835  66.099  1.00  0.00    -0.107 C  
HETATM    4  O   UNL     1     -10.398   4.617  65.007  1.00  0.00    -0.408 OA 
HETATM    5  N   UNL     1      -5.691   4.791  65.876  1.00  0.00    -0.017 NA 
HETATM    6  C   UNL     1      -6.843   4.819  66.019  1.00  0.00    -0.058 C  
HETATM    7  H   UNL     1     -10.792   4.824  65.847  1.00  0.00     0.000 HD 
ENDROOT
BRANCH   3   8
HETATM    8  C   UNL     1      -8.827   5.140  67.458  1.00  0.00    -0.105 C  
HETATM    9  O   UNL     1      -9.979   4.800  67.725  1.00  0.00    -0.157 OA 
HETATM   10  N   UNL     1      -7.966   5.732  68.361  1.00  0.00    -0.103 N  
HETATM   11  H   UNL     1      -7.029   5.984  68.049  1.00  0.00     0.000 HD 
BRANCH  10  12
HETATM   12  C   UNL     1      -8.326   6.004  69.693  1.00  0.00    -0.119 A  
HETATM   13  C   UNL     1      -9.015   7.181  69.978  1.00  0.00    -0.142 A  
HETATM   14  C   UNL     1      -9.225   7.562  71.307  1.00  0.00    -0.155 A  
HETATM   15  C   UNL     1      -8.805   6.738  72.364  1.00  0.00    -0.136 A  
HETATM   16  C   UNL     1      -8.930   7.171  73.801  1.00  0.00    -0.190 C  
HETATM   17  C   UNL     1      -8.220   5.500  72.061  1.00  0.00    -0.115 A  
HETATM   18  F   UNL     1      -9.763   6.370  74.521  1.00  0.00    -0.199 F  
HETATM   19  F   UNL     1      -9.403   8.438  73.951  1.00  0.00    -0.225 F  
HETATM   20  C   UNL     1      -7.974   5.142  70.736  1.00  0.00    -0.096 A  
HETATM   21  F   UNL     1      -7.735   7.146  74.458  1.00  0.00    -0.119 F  
ENDBRANCH  10  12
ENDBRANCH   3   8
TORSDOF 2
ENDMDL
MODEL      174
REMARK 921   NORMALIZED FREE ENERGY PREDICTED BY IDOCK:   -2.40 KCAL/MOL
REMARK 922        TOTAL FREE ENERGY PREDICTED BY IDOCK:   -3.27 KCAL/MOL
REMARK 923 INTER-LIGAND FREE ENERGY PREDICTED BY IDOCK:   -2.68 KCAL/MOL
REMARK 924 INTRA-LIGAND FREE ENERGY PREDICTED BY IDOCK:   -0.59 KCAL/MOL
REMARK 927      BINDING AFFINITY PREDICTED BY RF-SCORE:    0.00 PKD
ROOT
HETATM    1  C   UNL     1      -5.147  19.838  65.382  1.00  0.00    -0.180 C  
HETATM    2  C   UNL     1      -6.298  18.867  65.438  1.00  0.00    -0.283 C  
HETATM    3  C   UNL     1      -6.676  18.242  66.576  1.00  0.00    -0.241 C  
HETATM    4  O   UNL     1      -6.969  18.660  64.232  1.00  0.00     1.075 OA 
HETATM    5  N   UNL     1      -5.366  18.793  68.744  1.00  0.00    -0.192 NA 
HETATM    6  C   UNL     1      -5.978  18.517  67.796  1.00  0.00    -0.184 C  
HETATM    7  H   UNL     1      -7.695  18.047  64.267  1.00  0.00     0.000 HD 
ENDROOT
BRANCH   3   8
HETATM    8  C   UNL     1      -7.790  17.246  66.697  1.00  0.00    -0.260 C  
HETATM    9  O   UNL     1      -8.336  16.832  65.675  1.00  0.00    -0.333 OA 
HETATM   10  N   UNL     1      -8.089  16.799  67.970  1.00  0.00    -0.183 N  
HETATM   11  H   UNL     1      -7.585  17.203  68.759  1.00  0.00     0.000 HD 
BRANCH  10  12
HETATM   12  C   UNL     1      -9.055  15.810  68.224  1.00  0.00    -0.187 A  
HETATM   13  C   UNL     1     -10.403  16.165  68.205  1.00  0.00    -0.269 A  
HETATM   14  C   UNL     1     -11.371  15.250  68.630  1.00  0.00    -0.327 A  
HETATM   15  C   UNL     1     -11.007  13.950  69.016  1.00  0.00    -0.281 A  
HETATM   16  C   UNL     1     -12.017  12.979  69.571  1.00  0.00    -0.289 C  
HETATM   17  C   UNL     1      -9.662  13.568  68.917  1.00  0.00     0.089 A  
HETATM   18  F   UNL     1     -12.174  11.878  68.787  1.00  0.00    -0.349 F  
HETATM   19  F   UNL     1     -13.260  13.512  69.726  1.00  0.00     0.187 F  
HETATM   20  C   UNL     1      -8.693  14.496  68.534  1.00  0.00    -0.177 A  
HETATM   21  F   UNL     1     -11.664  12.508  70.802  1.00  0.00    -0.301 F  
ENDBRANCH  10  12
ENDBRANCH   3   8
TORSDOF 2
ENDMDL
MODEL      175
REMARK 921   NORMALIZED FREE ENERGY PREDICTED BY IDOCK:   -2.33 KCAL/MOL
REMARK 922        TOTAL FREE ENERGY PREDICTED BY IDOCK:   -3.20 KCAL/MOL
REMARK 923 INTER-LIGAND FREE ENERGY PREDICTED BY IDOCK:   -2.56 KCAL/MOL
REMARK 924 INTRA-LIGAND FREE ENERGY PREDICTED BY IDOCK:   -0.64 KCAL/MOL
REMARK 927      BINDING AFFINITY PREDICTED BY RF-SCORE:    0.00 PKD
ROOT
HETATM    1  C   UNL     1      -6.318  14.788  69.932  1.00  0.00    -0.158 C  
HETATM    2  C   UNL     1      -6.503  13.295  70.021  1.00  0.00     0.066 C  
HETATM    3  C   UNL     1      -7.210  12.587  69.110  1.00  0.00     0.070 C  
HETATM    4  O   UNL     1      -5.882  12.676  71.107  1.00  0.00    -0.498 OA 
HETATM    5  N   UNL     1      -8.241  13.882  67.117  1.00  0.00    -0.150 NA 
HETATM    6  C   UNL     1      -7.797  13.264  67.994  1.00  0.00    -0.148 C  
HETATM    7  H   UNL     1      -5.999  11.734  71.163  1.00  0.00     0.000 HD 
ENDROOT
BRANCH   3   8
HETATM    8  C   UNL     1      -7.456  11.109  69.154  1.00  0.00    -0.109 C  
HETATM    9  O   UNL     1      -7.278  10.503  70.209  1.00  0.00    -0.226 OA 
HETATM   10  N   UNL     1      -7.945  10.526  68.000  1.00  0.00    -0.105 N  
HETATM   11  H   UNL     1      -8.057  11.108  67.170  1.00  0.00     0.000 HD 
BRANCH  10  12
HETATM   12  C   UNL     1      -8.294   9.167  67.920  1.00  0.00    -0.117 A  
HETATM   13  C   UNL     1      -9.568   8.773  68.324  1.00  0.00    -0.160 A  
HETATM   14  C   UNL     1      -9.880   7.414  68.425  1.00  0.00    -0.165 A  
HETATM   15  C   UNL     1      -8.940   6.435  68.061  1.00  0.00    -0.115 A  
HETATM   16  C   UNL     1      -9.214   4.966  68.255  1.00  0.00    -0.123 C  
HETATM   17  C   UNL     1      -7.704   6.846  67.543  1.00  0.00    -0.111 A  
HETATM   18  F   UNL     1      -9.246   4.278  67.081  1.00  0.00    -0.119 F  
HETATM   19  F   UNL     1     -10.399   4.709  68.874  1.00  0.00    -0.219 F  
HETATM   20  C   UNL     1      -7.381   8.201  67.485  1.00  0.00    -0.093 A  
HETATM   21  F   UNL     1      -8.262   4.355  69.016  1.00  0.00    -0.076 F  
ENDBRANCH  10  12
ENDBRANCH   3   8
TORSDOF 2
ENDMDL
MODEL      176
REMARK 921   NORMALIZED FREE ENERGY PREDICTED BY IDOCK:   -2.18 KCAL/MOL
REMARK 922        TOTAL FREE ENERGY PREDICTED BY IDOCK:   -3.02 KCAL/MOL
REMARK 923 INTER-LIGAND FREE ENERGY PREDICTED BY IDOCK:   -2.47 KCAL/MOL
REMARK 924 INTRA-LIGAND FREE ENERGY PREDICTED BY IDOCK:   -0.55 KCAL/MOL
REMARK 927      BINDING AFFINITY PREDICTED BY RF-SCORE:    0.00 PKD
ROOT
HETATM    1  C   UNL     1      -5.390  17.147  69.680  1.00  0.00    -0.172 C  
HETATM    2  C   UNL     1      -5.620  15.660  69.599  1.00  0.00    -0.117 C  
HETATM    3  C   UNL     1      -6.133  15.055  68.504  1.00  0.00    -0.096 C  
HETATM    4  O   UNL     1      -5.255  14.933  70.733  1.00  0.00    -0.119 OA 
HETATM    5  N   UNL     1      -6.694  16.544  66.458  1.00  0.00    -0.228 NA 
HETATM    6  C   UNL     1      -6.458  15.841  67.352  1.00  0.00    -0.158 C  
HETATM    7  H   UNL     1      -5.400  13.995  70.683  1.00  0.00     0.000 HD 
ENDROOT
BRANCH   3   8
HETATM    8  C   UNL     1      -6.413  13.588  68.367  1.00  0.00    -0.094 C  
HETATM    9  O   UNL     1      -5.750  12.924  67.572  1.00  0.00    -0.179 OA 
HETATM   10  N   UNL     1      -7.369  13.057  69.211  1.00  0.00    -0.310 N  
HETATM   11  H   UNL     1      -7.872  13.687  69.835  1.00  0.00     0.000 HD 
BRANCH  10  12
HETATM   12  C   UNL     1      -7.679  11.687  69.246  1.00  0.00     0.166 A  
HETATM   13  C   UNL     1      -8.717  11.209  68.447  1.00  0.00    -0.157 A  
HETATM   14  C   UNL     1      -9.163   9.893  68.596  1.00  0.00    -0.139 A  
HETATM   15  C   UNL     1      -8.533   9.021  69.499  1.00  0.00    -0.125 A  
HETATM   16  C   UNL     1      -9.057   7.630  69.751  1.00  0.00    -0.147 C  
HETATM   17  C   UNL     1      -7.414   9.478  70.210  1.00  0.00    -0.148 A  
HETATM   18  F   UNL     1      -8.173   6.662  69.385  1.00  0.00    -0.115 F  
HETATM   19  F   UNL     1     -10.214   7.354  69.088  1.00  0.00    -0.175 F  
HETATM   20  C   UNL     1      -6.999  10.804  70.091  1.00  0.00    -0.007 A  
HETATM   21  F   UNL     1      -9.327   7.406  71.069  1.00  0.00    -0.154 F  
ENDBRANCH  10  12
ENDBRANCH   3   8
TORSDOF 2
ENDMDL
MODEL      177
REMARK 921   NORMALIZED FREE ENERGY PREDICTED BY IDOCK:   -2.17 KCAL/MOL
REMARK 922        TOTAL FREE ENERGY PREDICTED BY IDOCK:   -3.01 KCAL/MOL
REMARK 923 INTER-LIGAND FREE ENERGY PREDICTED BY IDOCK:   -3.37 KCAL/MOL
REMARK 924 INTRA-LIGAND FREE ENERGY PREDICTED BY IDOCK:    0.36 KCAL/MOL
REMARK 927      BINDING AFFINITY PREDICTED BY RF-SCORE:    0.00 PKD
ROOT
HETATM    1  C   UNL     1      -9.384   9.178  65.144  1.00  0.00    -0.180 C  
HETATM    2  C   UNL     1      -9.090  10.390  65.991  1.00  0.00    -0.162 C  
HETATM    3  C   UNL     1      -9.937  11.440  66.087  1.00  0.00    -0.265 C  
HETATM    4  O   UNL     1      -7.883  10.357  66.690  1.00  0.00    -0.113 OA 
HETATM    5  N   UNL     1     -12.170  11.310  64.778  1.00  0.00     0.485 NA 
HETATM    6  C   UNL     1     -11.181  11.409  65.378  1.00  0.00    -0.070 C  
HETATM    7  H   UNL     1      -7.698  11.122  67.224  1.00  0.00     0.000 HD 
ENDROOT
BRANCH   3   8
HETATM    8  C   UNL     1      -9.696  12.686  66.886  1.00  0.00    -0.234 C  
HETATM    9  O   UNL     1     -10.014  12.706  68.074  1.00  0.00    -0.207 OA 
HETATM   10  N   UNL     1      -9.056  13.725  66.239  1.00  0.00    -0.485 N  
HETATM   11  H   UNL     1      -8.833  13.619  65.249  1.00  0.00     0.000 HD 
BRANCH  10  12
HETATM   12  C   UNL     1      -8.697  14.921  66.884  1.00  0.00    -0.248 A  
HETATM   13  C   UNL     1      -8.242  15.991  66.116  1.00  0.00    -0.057 A  
HETATM   14  C   UNL     1      -7.711  17.123  66.742  1.00  0.00    -0.279 A  
HETATM   15  C   UNL     1      -7.689  17.223  68.142  1.00  0.00    -0.217 A  
HETATM   16  C   UNL     1      -7.033  18.386  68.841  1.00  0.00    -0.282 C  
HETATM   17  C   UNL     1      -8.259  16.191  68.901  1.00  0.00    -0.229 A  
HETATM   18  F   UNL     1      -7.913  19.129  69.566  1.00  0.00    -0.211 F  
HETATM   19  F   UNL     1      -6.416  19.255  67.994  1.00  0.00    -0.222 F  
HETATM   20  C   UNL     1      -8.749  15.046  68.276  1.00  0.00    -0.166 A  
HETATM   21  F   UNL     1      -6.071  17.988  69.723  1.00  0.00    -0.227 F  
ENDBRANCH  10  12
ENDBRANCH   3   8
TORSDOF 2
ENDMDL
MODEL      178
REMARK 921   NORMALIZED FREE ENERGY PREDICTED BY IDOCK:   -2.09 KCAL/MOL
REMARK 922        TOTAL FREE ENERGY PREDICTED BY IDOCK:   -2.93 KCAL/MOL
REMARK 923 INTER-LIGAND FREE ENERGY PREDICTED BY IDOCK:   -2.45 KCAL/MOL
REMARK 924 INTRA-LIGAND FREE ENERGY PREDICTED BY IDOCK:   -0.48 KCAL/MOL
REMARK 927      BINDING AFFINITY PREDICTED BY RF-SCORE:    0.00 PKD
ROOT
HETATM    1  C   UNL     1      -7.717   5.114  74.238  1.00  0.00    -0.093 C  
HETATM    2  C   UNL     1      -8.109   4.726  72.835  1.00  0.00    -0.101 C  
HETATM    3  C   UNL     1      -8.770   5.560  72.000  1.00  0.00    -0.131 C  
HETATM    4  O   UNL     1      -7.731   3.443  72.439  1.00  0.00    -0.056 OA 
HETATM    5  N   UNL     1      -9.336   7.934  72.871  1.00  0.00    -0.217 NA 
HETATM    6  C   UNL     1      -9.103   6.880  72.443  1.00  0.00    -0.133 C  
HETATM    7  H   UNL     1      -7.978   3.197  71.554  1.00  0.00     0.000 HD 
ENDROOT
BRANCH   3   8
HETATM    8  C   UNL     1      -9.214   5.229  70.607  1.00  0.00    -0.148 C  
HETATM    9  O   UNL     1     -10.352   5.536  70.253  1.00  0.00    -0.234 OA 
HETATM   10  N   UNL     1      -8.273   4.654  69.775  1.00  0.00    -0.067 N  
HETATM   11  H   UNL     1      -7.355   4.431  70.158  1.00  0.00     0.000 HD 
BRANCH  10  12
HETATM   12  C   UNL     1      -8.526   4.362  68.423  1.00  0.00    -0.093 A  
HETATM   13  C   UNL     1      -7.911   5.135  67.440  1.00  0.00    -0.096 A  
HETATM   14  C   UNL     1      -8.282   4.984  66.101  1.00  0.00    -0.109 A  
HETATM   15  C   UNL     1      -9.225   4.014  65.723  1.00  0.00    -0.151 A  
HETATM   16  C   UNL     1      -9.715   3.899  64.303  1.00  0.00    -0.174 C  
HETATM   17  C   UNL     1      -9.747   3.162  66.707  1.00  0.00     0.142 A  
HETATM   18  F   UNL     1      -9.394   2.707  63.731  1.00  0.00    -0.098 F  
HETATM   19  F   UNL     1      -9.219   4.859  63.475  1.00  0.00    -0.131 F  
HETATM   20  C   UNL     1      -9.407   3.343  68.047  1.00  0.00    -0.241 A  
HETATM   21  F   UNL     1     -11.072   4.001  64.211  1.00  0.00    -0.320 F  
ENDBRANCH  10  12
ENDBRANCH   3   8
TORSDOF 2
ENDMDL
MODEL      179
REMARK 921   NORMALIZED FREE ENERGY PREDICTED BY IDOCK:   -2.09 KCAL/MOL
REMARK 922        TOTAL FREE ENERGY PREDICTED BY IDOCK:   -2.93 KCAL/MOL
REMARK 923 INTER-LIGAND FREE ENERGY PREDICTED BY IDOCK:   -2.35 KCAL/MOL
REMARK 924 INTRA-LIGAND FREE ENERGY PREDICTED BY IDOCK:   -0.57 KCAL/MOL
REMARK 927      BINDING AFFINITY PREDICTED BY RF-SCORE:    0.00 PKD
ROOT
HETATM    1  C   UNL     1      -7.546  13.135  67.436  1.00  0.00    -0.137 C  
HETATM    2  C   UNL     1      -7.163  11.677  67.413  1.00  0.00    -0.128 C  
HETATM    3  C   UNL     1      -7.861  10.745  66.726  1.00  0.00    -0.135 C  
HETATM    4  O   UNL     1      -6.021  11.344  68.143  1.00  0.00    -0.046 OA 
HETATM    5  N   UNL     1      -9.918  11.545  65.366  1.00  0.00    -0.238 NA 
HETATM    6  C   UNL     1      -9.006  11.145  65.963  1.00  0.00    -0.200 C  
HETATM    7  H   UNL     1      -5.779  10.425  68.129  1.00  0.00     0.000 HD 
ENDROOT
BRANCH   3   8
HETATM    8  C   UNL     1      -7.554   9.279  66.683  1.00  0.00    -0.093 C  
HETATM    9  O   UNL     1      -6.380   8.913  66.704  1.00  0.00    -0.060 OA 
HETATM   10  N   UNL     1      -8.634   8.417  66.693  1.00  0.00    -0.117 N  
HETATM   11  H   UNL     1      -9.573   8.813  66.671  1.00  0.00     0.000 HD 
BRANCH  10  12
HETATM   12  C   UNL     1      -8.494   7.019  66.733  1.00  0.00    -0.118 A  
HETATM   13  C   UNL     1      -8.548   6.302  65.539  1.00  0.00    -0.124 A  
HETATM   14  C   UNL     1      -8.593   4.905  65.566  1.00  0.00    -0.135 A  
HETATM   15  C   UNL     1      -8.519   4.209  66.784  1.00  0.00    -0.104 A  
HETATM   16  C   UNL     1      -8.665   2.711  66.849  1.00  0.00    -0.123 C  
HETATM   17  C   UNL     1      -8.345   4.939  67.969  1.00  0.00    -0.099 A  
HETATM   18  F   UNL     1      -7.543   2.092  67.306  1.00  0.00    -0.057 F  
HETATM   19  F   UNL     1      -8.948   2.137  65.646  1.00  0.00    -0.117 F  
HETATM   20  C   UNL     1      -8.343   6.333  67.942  1.00  0.00    -0.118 A  
HETATM   21  F   UNL     1      -9.670   2.321  67.686  1.00  0.00    -0.204 F  
ENDBRANCH  10  12
ENDBRANCH   3   8
TORSDOF 2
ENDMDL
MODEL      180
REMARK 921   NORMALIZED FREE ENERGY PREDICTED BY IDOCK:   -1.97 KCAL/MOL
REMARK 922        TOTAL FREE ENERGY PREDICTED BY IDOCK:   -2.80 KCAL/MOL
REMARK 923 INTER-LIGAND FREE ENERGY PREDICTED BY IDOCK:   -2.36 KCAL/MOL
REMARK 924 INTRA-LIGAND FREE ENERGY PREDICTED BY IDOCK:   -0.44 KCAL/MOL
REMARK 927      BINDING AFFINITY PREDICTED BY RF-SCORE:    0.00 PKD
ROOT
HETATM    1  C   UNL     1      -9.748   9.756  63.860  1.00  0.00     0.226 C  
HETATM    2  C   UNL     1      -9.646   9.805  65.363  1.00  0.00    -0.292 C  
HETATM    3  C   UNL     1      -9.174   8.774  66.101  1.00  0.00    -0.273 C  
HETATM    4  O   UNL     1     -10.059  10.999  65.954  1.00  0.00    -0.232 OA 
HETATM    5  N   UNL     1      -8.384   6.654  64.838  1.00  0.00    -0.086 NA 
HETATM    6  C   UNL     1      -8.729   7.583  65.442  1.00  0.00     0.015 C  
HETATM    7  H   UNL     1      -9.995  11.031  66.902  1.00  0.00     0.000 HD 
ENDROOT
BRANCH   3   8
HETATM    8  C   UNL     1      -9.073   8.745  67.596  1.00  0.00    -0.134 C  
HETATM    9  O   UNL     1      -9.405   9.741  68.238  1.00  0.00    -0.129 OA 
HETATM   10  N   UNL     1      -8.669   7.555  68.168  1.00  0.00    -0.123 N  
HETATM   11  H   UNL     1      -8.409   6.783  67.555  1.00  0.00     0.000 HD 
BRANCH  10  12
HETATM   12  C   UNL     1      -8.603   7.360  69.559  1.00  0.00    -0.134 A  
HETATM   13  C   UNL     1      -9.775   7.444  70.308  1.00  0.00    -0.172 A  
HETATM   14  C   UNL     1      -9.713   7.434  71.705  1.00  0.00    -0.169 A  
HETATM   15  C   UNL     1      -8.484   7.275  72.366  1.00  0.00    -0.127 A  
HETATM   16  C   UNL     1      -8.377   7.360  73.866  1.00  0.00    -0.170 C  
HETATM   17  C   UNL     1      -7.328   7.071  71.600  1.00  0.00    -0.083 A  
HETATM   18  F   UNL     1      -7.961   6.194  74.431  1.00  0.00    -0.101 F  
HETATM   19  F   UNL     1      -9.550   7.679  74.480  1.00  0.00    -0.113 F  
HETATM   20  C   UNL     1      -7.387   7.125  70.208  1.00  0.00    -0.083 A  
HETATM   21  F   UNL     1      -7.483   8.307  74.271  1.00  0.00    -0.183 F  
ENDBRANCH  10  12
ENDBRANCH   3   8
TORSDOF 2
ENDMDL
MODEL      181
REMARK 921   NORMALIZED FREE ENERGY PREDICTED BY IDOCK:   -1.97 KCAL/MOL
REMARK 922        TOTAL FREE ENERGY PREDICTED BY IDOCK:   -2.80 KCAL/MOL
REMARK 923 INTER-LIGAND FREE ENERGY PREDICTED BY IDOCK:   -2.42 KCAL/MOL
REMARK 924 INTRA-LIGAND FREE ENERGY PREDICTED BY IDOCK:   -0.38 KCAL/MOL
REMARK 927      BINDING AFFINITY PREDICTED BY RF-SCORE:    0.00 PKD
ROOT
HETATM    1  C   UNL     1      -7.746   6.755  74.026  1.00  0.00    -0.110 C  
HETATM    2  C   UNL     1      -7.688   6.574  72.531  1.00  0.00    -0.099 C  
HETATM    3  C   UNL     1      -8.650   7.032  71.698  1.00  0.00    -0.116 C  
HETATM    4  O   UNL     1      -6.559   5.910  72.049  1.00  0.00    -0.058 OA 
HETATM    5  N   UNL     1     -10.646   8.307  72.752  1.00  0.00    -0.317 NA 
HETATM    6  C   UNL     1      -9.770   7.741  72.240  1.00  0.00    -0.186 C  
HETATM    7  H   UNL     1      -6.522   5.796  71.106  1.00  0.00     0.000 HD 
ENDROOT
BRANCH   3   8
HETATM    8  C   UNL     1      -8.669   6.863  70.209  1.00  0.00    -0.144 C  
HETATM    9  O   UNL     1      -9.232   5.883  69.725  1.00  0.00    -0.141 OA 
HETATM   10  N   UNL     1      -8.102   7.877  69.461  1.00  0.00    -0.119 N  
HETATM   11  H   UNL     1      -7.653   8.651  69.950  1.00  0.00     0.000 HD 
BRANCH  10  12
HETATM   12  C   UNL     1      -8.116   7.889  68.055  1.00  0.00    -0.126 A  
HETATM   13  C   UNL     1      -6.984   7.458  67.366  1.00  0.00    -0.079 A  
HETATM   14  C   UNL     1      -6.904   7.628  65.980  1.00  0.00    -0.061 A  
HETATM   15  C   UNL     1      -7.983   8.170  65.262  1.00  0.00    -0.126 A  
HETATM   16  C   UNL     1      -7.885   8.456  63.786  1.00  0.00    -0.151 C  
HETATM   17  C   UNL     1      -9.161   8.488  65.952  1.00  0.00    -0.245 A  
HETATM   18  F   UNL     1      -8.758   7.717  63.049  1.00  0.00     0.021 F  
HETATM   19  F   UNL     1      -6.651   8.213  63.263  1.00  0.00    -0.076 F  
HETATM   20  C   UNL     1      -9.222   8.358  67.339  1.00  0.00    -0.163 A  
HETATM   21  F   UNL     1      -8.159   9.758  63.488  1.00  0.00    -0.123 F  
ENDBRANCH  10  12
ENDBRANCH   3   8
TORSDOF 2
ENDMDL
MODEL      182
REMARK 921   NORMALIZED FREE ENERGY PREDICTED BY IDOCK:   -1.81 KCAL/MOL
REMARK 922        TOTAL FREE ENERGY PREDICTED BY IDOCK:   -2.62 KCAL/MOL
REMARK 923 INTER-LIGAND FREE ENERGY PREDICTED BY IDOCK:   -2.06 KCAL/MOL
REMARK 924 INTRA-LIGAND FREE ENERGY PREDICTED BY IDOCK:   -0.56 KCAL/MOL
REMARK 927      BINDING AFFINITY PREDICTED BY RF-SCORE:    0.00 PKD
ROOT
HETATM    1  C   UNL     1      -7.737   6.767  74.035  1.00  0.00    -0.110 C  
HETATM    2  C   UNL     1      -7.631   6.702  72.533  1.00  0.00    -0.097 C  
HETATM    3  C   UNL     1      -8.546   7.261  71.708  1.00  0.00    -0.121 C  
HETATM    4  O   UNL     1      -6.510   6.035  72.038  1.00  0.00    -0.051 OA 
HETATM    5  N   UNL     1     -10.532   8.524  72.793  1.00  0.00    -0.164 NA 
HETATM    6  C   UNL     1      -9.659   7.967  72.267  1.00  0.00    -0.195 C  
HETATM    7  H   UNL     1      -6.443   5.994  71.090  1.00  0.00     0.000 HD 
ENDROOT
BRANCH   3   8
HETATM    8  C   UNL     1      -8.517   7.210  70.210  1.00  0.00    -0.138 C  
HETATM    9  O   UNL     1      -8.496   8.264  69.576  1.00  0.00    -0.122 OA 
HETATM   10  N   UNL     1      -8.446   5.958  69.632  1.00  0.00    -0.116 N  
HETATM   11  H   UNL     1      -8.474   5.139  70.239  1.00  0.00     0.000 HD 
BRANCH  10  12
HETATM   12  C   UNL     1      -8.335   5.763  68.245  1.00  0.00    -0.107 A  
HETATM   13  C   UNL     1      -9.482   5.460  67.513  1.00  0.00    -0.129 A  
HETATM   14  C   UNL     1      -9.375   5.085  66.170  1.00  0.00    -0.157 A  
HETATM   15  C   UNL     1      -8.126   5.072  65.528  1.00  0.00    -0.115 A  
HETATM   16  C   UNL     1      -7.970   4.578  64.113  1.00  0.00    -0.093 C  
HETATM   17  C   UNL     1      -6.996   5.495  66.242  1.00  0.00    -0.060 A  
HETATM   18  F   UNL     1      -7.541   5.548  63.261  1.00  0.00    -0.054 F  
HETATM   19  F   UNL     1      -9.121   4.087  63.576  1.00  0.00    -0.107 F  
HETATM   20  C   UNL     1      -7.100   5.826  67.593  1.00  0.00    -0.074 A  
HETATM   21  F   UNL     1      -7.058   3.568  64.012  1.00  0.00    -0.045 F  
ENDBRANCH  10  12
ENDBRANCH   3   8
TORSDOF 2
ENDMDL
MODEL      183
REMARK 921   NORMALIZED FREE ENERGY PREDICTED BY IDOCK:   -1.72 KCAL/MOL
REMARK 922        TOTAL FREE ENERGY PREDICTED BY IDOCK:   -2.52 KCAL/MOL
REMARK 923 INTER-LIGAND FREE ENERGY PREDICTED BY IDOCK:   -2.52 KCAL/MOL
REMARK 924 INTRA-LIGAND FREE ENERGY PREDICTED BY IDOCK:    0.00 KCAL/MOL
REMARK 927      BINDING AFFINITY PREDICTED BY RF-SCORE:    0.00 PKD
ROOT
HETATM    1  C   UNL     1      -5.130  20.416  63.805  1.00  0.00    -0.213 C  
HETATM    2  C   UNL     1      -6.024  19.381  64.438  1.00  0.00    -0.260 C  
HETATM    3  C   UNL     1      -6.373  19.412  65.744  1.00  0.00    -0.243 C  
HETATM    4  O   UNL     1      -6.489  18.384  63.580  1.00  0.00     1.502 OA 
HETATM    5  N   UNL     1      -5.478  21.374  67.182  1.00  0.00    -0.293 NA 
HETATM    6  C   UNL     1      -5.899  20.478  66.574  1.00  0.00    -0.186 C  
HETATM    7  H   UNL     1      -7.053  17.731  63.979  1.00  0.00     0.000 HD 
ENDROOT
BRANCH   3   8
HETATM    8  C   UNL     1      -7.234  18.403  66.443  1.00  0.00    -0.243 C  
HETATM    9  O   UNL     1      -7.536  18.587  67.620  1.00  0.00    -0.226 OA 
HETATM   10  N   UNL     1      -7.695  17.347  65.681  1.00  0.00     0.184 N  
HETATM   11  H   UNL     1      -7.387  17.274  64.711  1.00  0.00     0.000 HD 
BRANCH  10  12
HETATM   12  C   UNL     1      -8.572  16.369  66.183  1.00  0.00    -0.308 A  
HETATM   13  C   UNL     1      -9.722  16.060  65.460  1.00  0.00    -0.169 A  
HETATM   14  C   UNL     1     -10.696  15.228  66.021  1.00  0.00    -0.324 A  
HETATM   15  C   UNL     1     -10.499  14.645  67.283  1.00  0.00    -0.266 A  
HETATM   16  C   UNL     1     -11.573  13.826  67.952  1.00  0.00    -0.341 C  
HETATM   17  C   UNL     1      -9.285  14.868  67.948  1.00  0.00    -0.183 A  
HETATM   18  F   UNL     1     -11.205  12.531  68.144  1.00  0.00    -0.233 F  
HETATM   19  F   UNL     1     -12.742  13.786  67.255  1.00  0.00    -0.237 F  
HETATM   20  C   UNL     1      -8.334  15.732  67.405  1.00  0.00    -0.189 A  
HETATM   21  F   UNL     1     -11.899  14.305  69.187  1.00  0.00    -0.288 F  
ENDBRANCH  10  12
ENDBRANCH   3   8
TORSDOF 2
ENDMDL
MODEL      184
REMARK 921   NORMALIZED FREE ENERGY PREDICTED BY IDOCK:   -1.72 KCAL/MOL
REMARK 922        TOTAL FREE ENERGY PREDICTED BY IDOCK:   -2.51 KCAL/MOL
REMARK 923 INTER-LIGAND FREE ENERGY PREDICTED BY IDOCK:   -1.97 KCAL/MOL
REMARK 924 INTRA-LIGAND FREE ENERGY PREDICTED BY IDOCK:   -0.54 KCAL/MOL
REMARK 927      BINDING AFFINITY PREDICTED BY RF-SCORE:    0.00 PKD
ROOT
HETATM    1  C   UNL     1      -7.021  14.365  68.647  1.00  0.00    -0.102 C  
HETATM    2  C   UNL     1      -7.419  12.933  68.398  1.00  0.00    -0.124 C  
HETATM    3  C   UNL     1      -7.009  11.910  69.182  1.00  0.00    -0.079 C  
HETATM    4  O   UNL     1      -8.261  12.724  67.305  1.00  0.00    -0.178 OA 
HETATM    5  N   UNL     1      -5.505  12.481  71.214  1.00  0.00    -0.359 NA 
HETATM    6  C   UNL     1      -6.175  12.182  70.315  1.00  0.00     0.008 C  
HETATM    7  H   UNL     1      -8.512  11.821  67.148  1.00  0.00     0.000 HD 
ENDROOT
BRANCH   3   8
HETATM    8  C   UNL     1      -7.344  10.464  68.977  1.00  0.00    -0.097 C  
HETATM    9  O   UNL     1      -6.548   9.605  69.356  1.00  0.00    -0.046 OA 
HETATM   10  N   UNL     1      -8.580  10.184  68.427  1.00  0.00    -0.116 N  
HETATM   11  H   UNL     1      -9.172  10.962  68.138  1.00  0.00     0.000 HD 
BRANCH  10  12
HETATM   12  C   UNL     1      -9.057   8.874  68.249  1.00  0.00    -0.140 A  
HETATM   13  C   UNL     1      -9.726   8.251  69.301  1.00  0.00    -0.177 A  
HETATM   14  C   UNL     1     -10.050   6.894  69.216  1.00  0.00    -0.178 A  
HETATM   15  C   UNL     1      -9.768   6.162  68.051  1.00  0.00    -0.122 A  
HETATM   16  C   UNL     1     -10.016   4.678  67.970  1.00  0.00    -0.066 C  
HETATM   17  C   UNL     1      -9.204   6.830  66.955  1.00  0.00    -0.162 A  
HETATM   18  F   UNL     1     -10.945   4.350  67.032  1.00  0.00     0.185 F  
HETATM   19  F   UNL     1     -10.453   4.133  69.139  1.00  0.00     0.029 F  
HETATM   20  C   UNL     1      -8.842   8.172  67.059  1.00  0.00    -0.143 A  
HETATM   21  F   UNL     1      -8.893   3.979  67.638  1.00  0.00    -0.103 F  
ENDBRANCH  10  12
ENDBRANCH   3   8
TORSDOF 2
ENDMDL
MODEL      185
REMARK 921   NORMALIZED FREE ENERGY PREDICTED BY IDOCK:   -1.71 KCAL/MOL
REMARK 922        TOTAL FREE ENERGY PREDICTED BY IDOCK:   -2.50 KCAL/MOL
REMARK 923 INTER-LIGAND FREE ENERGY PREDICTED BY IDOCK:   -2.07 KCAL/MOL
REMARK 924 INTRA-LIGAND FREE ENERGY PREDICTED BY IDOCK:   -0.44 KCAL/MOL
REMARK 927      BINDING AFFINITY PREDICTED BY RF-SCORE:    0.00 PKD
ROOT
HETATM    1  C   UNL     1      -5.884  15.142  68.490  1.00  0.00    -0.095 C  
HETATM    2  C   UNL     1      -6.430  13.770  68.190  1.00  0.00    -0.124 C  
HETATM    3  C   UNL     1      -6.461  12.776  69.106  1.00  0.00    -0.109 C  
HETATM    4  O   UNL     1      -6.922  13.589  66.897  1.00  0.00    -0.356 OA 
HETATM    5  N   UNL     1      -5.571  13.301  71.483  1.00  0.00    -0.371 NA 
HETATM    6  C   UNL     1      -5.977  13.024  70.431  1.00  0.00    -0.111 C  
HETATM    7  H   UNL     1      -7.266  12.723  66.707  1.00  0.00     0.000 HD 
ENDROOT
BRANCH   3   8
HETATM    8  C   UNL     1      -6.962  11.383  68.867  1.00  0.00    -0.098 C  
HETATM    9  O   UNL     1      -8.069  11.063  69.300  1.00  0.00    -0.110 OA 
HETATM   10  N   UNL     1      -6.162  10.557  68.102  1.00  0.00    -0.050 N  
HETATM   11  H   UNL     1      -5.257  10.908  67.789  1.00  0.00     0.000 HD 
BRANCH  10  12
HETATM   12  C   UNL     1      -6.541   9.255  67.734  1.00  0.00    -0.063 A  
HETATM   13  C   UNL     1      -6.414   8.227  68.667  1.00  0.00    -0.054 A  
HETATM   14  C   UNL     1      -6.611   6.900  68.274  1.00  0.00    -0.058 A  
HETATM   15  C   UNL     1      -7.000   6.592  66.960  1.00  0.00    -0.068 A  
HETATM   16  C   UNL     1      -7.121   5.167  66.485  1.00  0.00    -0.069 C  
HETATM   17  C   UNL     1      -7.240   7.643  66.064  1.00  0.00    -0.070 A  
HETATM   18  F   UNL     1      -8.391   4.840  66.123  1.00  0.00    -0.109 F  
HETATM   19  F   UNL     1      -6.746   4.247  67.417  1.00  0.00    -0.043 F  
HETATM   20  C   UNL     1      -7.001   8.962  66.446  1.00  0.00    -0.079 A  
HETATM   21  F   UNL     1      -6.348   4.915  65.390  1.00  0.00    -0.031 F  
ENDBRANCH  10  12
ENDBRANCH   3   8
TORSDOF 2
ENDMDL
MODEL      186
REMARK 921   NORMALIZED FREE ENERGY PREDICTED BY IDOCK:   -1.28 KCAL/MOL
REMARK 922        TOTAL FREE ENERGY PREDICTED BY IDOCK:   -2.02 KCAL/MOL
REMARK 923 INTER-LIGAND FREE ENERGY PREDICTED BY IDOCK:   -1.59 KCAL/MOL
REMARK 924 INTRA-LIGAND FREE ENERGY PREDICTED BY IDOCK:   -0.43 KCAL/MOL
REMARK 927      BINDING AFFINITY PREDICTED BY RF-SCORE:    0.00 PKD
ROOT
HETATM    1  C   UNL     1      -7.448  12.936  67.543  1.00  0.00    -0.155 C  
HETATM    2  C   UNL     1      -6.825  11.587  67.294  1.00  0.00    -0.118 C  
HETATM    3  C   UNL     1      -7.419  10.632  66.543  1.00  0.00    -0.134 C  
HETATM    4  O   UNL     1      -5.575  11.385  67.881  1.00  0.00    -0.043 OA 
HETATM    5  N   UNL     1      -9.708  11.196  65.468  1.00  0.00    -0.217 NA 
HETATM    6  C   UNL     1      -8.685  10.903  65.932  1.00  0.00    -0.183 C  
HETATM    7  H   UNL     1      -5.182  10.534  67.724  1.00  0.00     0.000 HD 
ENDROOT
BRANCH   3   8
HETATM    8  C   UNL     1      -6.869   9.262  66.279  1.00  0.00    -0.082 C  
HETATM    9  O   UNL     1      -5.758   8.968  66.716  1.00  0.00    -0.046 OA 
HETATM   10  N   UNL     1      -7.694   8.381  65.607  1.00  0.00    -0.095 N  
HETATM   11  H   UNL     1      -8.599   8.716  65.277  1.00  0.00     0.000 HD 
BRANCH  10  12
HETATM   12  C   UNL     1      -7.341   7.043  65.358  1.00  0.00    -0.080 A  
HETATM   13  C   UNL     1      -6.250   6.776  64.533  1.00  0.00    -0.036 A  
HETATM   14  C   UNL     1      -5.988   5.465  64.125  1.00  0.00    -0.021 A  
HETATM   15  C   UNL     1      -6.776   4.399  64.591  1.00  0.00    -0.045 A  
HETATM   16  C   UNL     1      -6.578   2.992  64.090  1.00  0.00    -0.032 C  
HETATM   17  C   UNL     1      -7.796   4.668  65.515  1.00  0.00    -0.094 A  
HETATM   18  F   UNL     1      -6.194   2.133  65.073  1.00  0.00    -0.017 F  
HETATM   19  F   UNL     1      -5.637   2.888  63.111  1.00  0.00    -0.007 F  
HETATM   20  C   UNL     1      -8.082   5.981  65.886  1.00  0.00    -0.119 A  
HETATM   21  F   UNL     1      -7.718   2.462  63.561  1.00  0.00    -0.060 F  
ENDBRANCH  10  12
ENDBRANCH   3   8
TORSDOF 2
ENDMDL
MODEL      187
REMARK 921   NORMALIZED FREE ENERGY PREDICTED BY IDOCK:   11.89 KCAL/MOL
REMARK 922        TOTAL FREE ENERGY PREDICTED BY IDOCK:   12.69 KCAL/MOL
REMARK 923 INTER-LIGAND FREE ENERGY PREDICTED BY IDOCK:   12.56 KCAL/MOL
REMARK 924 INTRA-LIGAND FREE ENERGY PREDICTED BY IDOCK:    0.13 KCAL/MOL
REMARK 927      BINDING AFFINITY PREDICTED BY RF-SCORE:    0.00 PKD
ROOT
HETATM    1  C   UNL     1      -7.873   9.714  64.177  1.00  0.00    -0.130 C  
HETATM    2  C   UNL     1      -8.695  10.892  64.634  1.00  0.00    -0.031 C  
HETATM    3  C   UNL     1      -8.493  12.149  64.178  1.00  0.00     2.058 C  
HETATM    4  O   UNL     1      -9.700  10.601  65.557  1.00  0.00    -0.207 OA 
HETATM    5  N   UNL     1      -6.629  12.504  62.412  1.00  0.00     2.704 NA 
HETATM    6  C   UNL     1      -7.472  12.388  63.203  1.00  0.00     5.475 C  
HETATM    7  H   UNL     1     -10.219  11.344  65.845  1.00  0.00     0.000 HD 
ENDROOT
BRANCH   3   8
HETATM    8  C   UNL     1      -9.253  13.367  64.609  1.00  0.00     1.602 C  
HETATM    9  O   UNL     1     -10.475  13.391  64.469  1.00  0.00    -0.404 OA 
HETATM   10  N   UNL     1      -8.524  14.374  65.212  1.00  0.00     2.487 N  
HETATM   11  H   UNL     1      -7.512  14.268  65.281  1.00  0.00     0.000 HD 
BRANCH  10  12
HETATM   12  C   UNL     1      -9.114  15.537  65.734  1.00  0.00    -0.070 A  
HETATM   13  C   UNL     1      -8.310  16.648  65.984  1.00  0.00    -0.180 A  
HETATM   14  C   UNL     1      -8.834  17.749  66.667  1.00  0.00    -0.282 A  
HETATM   15  C   UNL     1     -10.185  17.778  67.050  1.00  0.00    -0.346 A  
HETATM   16  C   UNL     1     -10.749  18.907  67.873  1.00  0.00    -0.288 C  
HETATM   17  C   UNL     1     -11.012  16.706  66.686  1.00  0.00     0.104 A  
HETATM   18  F   UNL     1     -11.713  19.607  67.215  1.00  0.00    -0.190 F  
HETATM   19  F   UNL     1      -9.817  19.821  68.258  1.00  0.00    -0.423 F  
HETATM   20  C   UNL     1     -10.477  15.591  66.043  1.00  0.00    -0.335 A  
HETATM   21  F   UNL     1     -11.332  18.470  69.026  1.00  0.00     1.014 F  
ENDBRANCH  10  12
ENDBRANCH   3   8
TORSDOF 2
ENDMDL
MODEL      188
REMARK 921   NORMALIZED FREE ENERGY PREDICTED BY IDOCK:   25.91 KCAL/MOL
REMARK 922        TOTAL FREE ENERGY PREDICTED BY IDOCK:   28.34 KCAL/MOL
REMARK 923 INTER-LIGAND FREE ENERGY PREDICTED BY IDOCK:   28.29 KCAL/MOL
REMARK 924 INTRA-LIGAND FREE ENERGY PREDICTED BY IDOCK:    0.05 KCAL/MOL
REMARK 927      BINDING AFFINITY PREDICTED BY RF-SCORE:    0.00 PKD
ROOT
HETATM    1  C   UNL     1      -9.611  17.079  63.938  1.00  0.00     9.177 C  
HETATM    2  C   UNL     1      -9.665  15.787  64.711  1.00  0.00     1.141 C  
HETATM    3  C   UNL     1      -8.562  15.184  65.212  1.00  0.00     2.726 C  
HETATM    4  O   UNL     1     -10.939  15.248  64.894  1.00  0.00    -0.408 OA 
HETATM    5  N   UNL     1      -6.279  16.354  64.842  1.00  0.00     5.607 NA 
HETATM    6  C   UNL     1      -7.281  15.797  65.028  1.00  0.00     8.756 C  
HETATM    7  H   UNL     1     -10.973  14.433  65.381  1.00  0.00     0.000 HD 
ENDROOT
BRANCH   3   8
HETATM    8  C   UNL     1      -8.541  13.887  65.963  1.00  0.00     0.996 C  
HETATM    9  O   UNL     1      -8.642  12.832  65.339  1.00  0.00     1.122 OA 
HETATM   10  N   UNL     1      -8.334  13.963  67.327  1.00  0.00    -0.232 N  
HETATM   11  H   UNL     1      -8.266  14.884  67.760  1.00  0.00     0.000 HD 
BRANCH  10  12
HETATM   12  C   UNL     1      -8.214  12.826  68.145  1.00  0.00    -0.167 A  
HETATM   13  C   UNL     1      -7.262  12.826  69.163  1.00  0.00     0.087 A  
HETATM   14  C   UNL     1      -6.999  11.649  69.871  1.00  0.00     0.250 A  
HETATM   15  C   UNL     1      -7.731  10.479  69.613  1.00  0.00    -0.119 A  
HETATM   16  C   UNL     1      -7.400   9.174  70.291  1.00  0.00    -0.090 C  
HETATM   17  C   UNL     1      -8.768  10.525  68.670  1.00  0.00    -0.143 A  
HETATM   18  F   UNL     1      -8.412   8.719  71.078  1.00  0.00    -0.128 F  
HETATM   19  F   UNL     1      -6.300   9.238  71.091  1.00  0.00    -0.059 F  
HETATM   20  C   UNL     1      -8.999  11.688  67.936  1.00  0.00    -0.170 A  
HETATM   21  F   UNL     1      -7.147   8.174  69.399  1.00  0.00    -0.051 F  
ENDBRANCH  10  12
ENDBRANCH   3   8
TORSDOF 2
ENDMDL
MODEL      189
REMARK 921   NORMALIZED FREE ENERGY PREDICTED BY IDOCK:   38.30 KCAL/MOL
REMARK 922        TOTAL FREE ENERGY PREDICTED BY IDOCK:   42.19 KCAL/MOL
REMARK 923 INTER-LIGAND FREE ENERGY PREDICTED BY IDOCK:   42.31 KCAL/MOL
REMARK 924 INTRA-LIGAND FREE ENERGY PREDICTED BY IDOCK:   -0.12 KCAL/MOL
REMARK 927      BINDING AFFINITY PREDICTED BY RF-SCORE:    0.00 PKD
ROOT
HETATM    1  C   UNL     1      -7.511  10.545  64.033  1.00  0.00     0.099 C  
HETATM    2  C   UNL     1      -8.126  11.781  64.636  1.00  0.00     1.739 C  
HETATM    3  C   UNL     1      -7.536  12.997  64.580  1.00  0.00     9.506 C  
HETATM    4  O   UNL     1      -9.365  11.597  65.252  1.00  0.00    -0.347 OA 
HETATM    5  N   UNL     1      -5.269  13.177  63.337  1.00  0.00     8.381 NA 
HETATM    6  C   UNL     1      -6.282  13.140  63.904  1.00  0.00    15.386 C  
HETATM    7  H   UNL     1      -9.753  12.377  65.633  1.00  0.00     0.000 HD 
ENDROOT
BRANCH   3   8
HETATM    8  C   UNL     1      -8.078  14.259  65.181  1.00  0.00     6.448 C  
HETATM    9  O   UNL     1      -9.053  14.799  64.662  1.00  0.00     1.646 OA 
HETATM   10  N   UNL     1      -7.475  14.702  66.342  1.00  0.00     0.836 N  
HETATM   11  H   UNL     1      -6.666  14.192  66.698  1.00  0.00     0.000 HD 
BRANCH  10  12
HETATM   12  C   UNL     1      -7.926  15.826  67.056  1.00  0.00    -0.237 A  
HETATM   13  C   UNL     1      -8.122  17.025  66.372  1.00  0.00    -0.335 A  
HETATM   14  C   UNL     1      -8.394  18.197  67.083  1.00  0.00    -0.244 A  
HETATM   15  C   UNL     1      -8.539  18.171  68.480  1.00  0.00    -0.307 A  
HETATM   16  C   UNL     1      -8.733  19.434  69.278  1.00  0.00     0.009 C  
HETATM   17  C   UNL     1      -8.458  16.938  69.143  1.00  0.00    -0.057 A  
HETATM   18  F   UNL     1      -9.932  19.470  69.922  1.00  0.00    -0.307 F  
HETATM   19  F   UNL     1      -8.674  20.569  68.528  1.00  0.00    -0.007 F  
HETATM   20  C   UNL     1      -8.143  15.778  68.436  1.00  0.00    -0.143 A  
HETATM   21  F   UNL     1      -7.788  19.587  70.249  1.00  0.00     0.240 F  
ENDBRANCH  10  12
ENDBRANCH   3   8
TORSDOF 2
ENDMDL
