MODEL        1
REMARK 921   NORMALIZED FREE ENERGY PREDICTED BY IDOCK:   -7.75 KCAL/MOL
REMARK 922        TOTAL FREE ENERGY PREDICTED BY IDOCK:  -11.35 KCAL/MOL
REMARK 923 INTER-LIGAND FREE ENERGY PREDICTED BY IDOCK:  -10.01 KCAL/MOL
REMARK 924 INTRA-LIGAND FREE ENERGY PREDICTED BY IDOCK:   -1.34 KCAL/MOL
REMARK 927      BINDING AFFINITY PREDICTED BY RF-SCORE:    0.00 PKD
ROOT
HETATM    1  C   UNL     1      -8.928  13.448  68.237  1.00  0.00    -0.176 C  
HETATM    2  C   UNL     1     -10.111  13.318  67.276  1.00  0.00    -0.234 C  
HETATM    3  C   UNL     1      -9.678  12.361  66.089  1.00  0.00    -0.254 C  
HETATM    4  C   UNL     1      -9.588  10.841  66.485  1.00  0.00    -0.217 C  
HETATM    5  C   UNL     1     -10.692  10.251  67.438  1.00  0.00    -0.339 C  
HETATM    6  C   UNL     1     -11.113  11.344  68.414  1.00  0.00    -0.296 C  
HETATM    7  C   UNL     1     -12.085  10.928  69.512  1.00  0.00    -0.380 C  
HETATM    8  C   UNL     1     -11.435  12.688  67.781  1.00  0.00    -0.375 C  
HETATM    9  C   UNL     1     -11.394   9.879  70.371  1.00  0.00    -0.376 C  
HETATM   10  C   UNL     1     -12.387  13.031  66.560  1.00  0.00    -0.175 C  
HETATM   11  C   UNL     1     -11.030   8.679  69.541  1.00  0.00    -0.067 C  
HETATM   12  C   UNL     1     -11.806  14.385  65.979  1.00  0.00    -0.379 C  
HETATM   13  C   UNL     1     -11.243   7.465  70.086  1.00  0.00    -0.239 C  
HETATM   14  C   UNL     1     -10.768  14.712  67.034  1.00  0.00    -0.290 C  
HETATM   15  C   UNL     1      -8.773   8.951  68.648  1.00  0.00    -0.134 C  
HETATM   16  C   UNL     1     -10.871   6.269  69.313  1.00  0.00    -0.342 C  
HETATM   17  O   UNL     1     -10.590   5.226  69.889  1.00  0.00    -0.306 OA 
HETATM   18  C   UNL     1     -10.266   8.901  68.214  1.00  0.00    -0.239 C  
HETATM   19  C   UNL     1     -11.013   6.384  67.832  1.00  0.00    -0.416 C  
HETATM   20  C   UNL     1     -10.424   7.678  67.249  1.00  0.00    -0.396 C  
ENDROOT
BRANCH  14  21
HETATM   21  O   UNL     1      -9.972  15.887  66.976  1.00  0.00    -0.239 OA 
BRANCH  21  22
HETATM   22  C   UNL     1     -10.328  16.757  67.995  1.00  0.00    -0.317 C  
HETATM   23  O   UNL     1      -9.873  17.891  68.123  1.00  0.00    -0.300 OA 
BRANCH  22  24
HETATM   24  C   UNL     1     -11.522  16.309  68.811  1.00  0.00    -0.289 C  
BRANCH  24  25
HETATM   25  C   UNL     1     -11.162  15.972  70.242  1.00  0.00    -0.397 C  
BRANCH  25  26
HETATM   26  C   UNL     1     -12.363  15.602  71.112  1.00  0.00    -0.482 C  
HETATM   27  C   UNL     1     -12.547  14.086  71.136  1.00  0.00    -0.445 C  
HETATM   28  C   UNL     1     -13.423  13.858  72.350  1.00  0.00    -0.661 C  
HETATM   29  C   UNL     1     -12.893  14.844  73.383  1.00  0.00    -0.638 C  
HETATM   30  C   UNL     1     -12.240  15.982  72.594  1.00  0.00    -0.619 C  
ENDBRANCH  25  26
ENDBRANCH  24  25
ENDBRANCH  22  24
ENDBRANCH  21  22
ENDBRANCH  14  21
TORSDOF 5
ENDMDL
MODEL        2
REMARK 921   NORMALIZED FREE ENERGY PREDICTED BY IDOCK:   -7.28 KCAL/MOL
REMARK 922        TOTAL FREE ENERGY PREDICTED BY IDOCK:  -10.75 KCAL/MOL
REMARK 923 INTER-LIGAND FREE ENERGY PREDICTED BY IDOCK:   -9.72 KCAL/MOL
REMARK 924 INTRA-LIGAND FREE ENERGY PREDICTED BY IDOCK:   -1.03 KCAL/MOL
REMARK 927      BINDING AFFINITY PREDICTED BY RF-SCORE:    0.00 PKD
ROOT
HETATM    1  C   UNL     1      -8.732  13.059  67.204  1.00  0.00    -0.204 C  
HETATM    2  C   UNL     1      -9.938  12.728  66.324  1.00  0.00    -0.269 C  
HETATM    3  C   UNL     1      -9.564  11.478  65.425  1.00  0.00    -0.249 C  
HETATM    4  C   UNL     1      -9.518  10.112  66.204  1.00  0.00    -0.238 C  
HETATM    5  C   UNL     1     -10.622   9.836  67.291  1.00  0.00    -0.320 C  
HETATM    6  C   UNL     1     -10.984  11.161  67.951  1.00  0.00    -0.307 C  
HETATM    7  C   UNL     1     -11.946  11.085  69.130  1.00  0.00    -0.394 C  
HETATM    8  C   UNL     1     -11.272  12.304  66.991  1.00  0.00    -0.367 C  
HETATM    9  C   UNL     1     -11.274  10.271  70.227  1.00  0.00    -0.395 C  
HETATM   10  C   UNL     1     -12.238  12.353  65.734  1.00  0.00    -0.277 C  
HETATM   11  C   UNL     1     -10.970   8.882  69.736  1.00  0.00    -0.164 C  
HETATM   12  C   UNL     1     -11.622  13.484  64.812  1.00  0.00    -0.372 C  
HETATM   13  C   UNL     1     -11.214   7.862  70.583  1.00  0.00    -0.269 C  
HETATM   14  C   UNL     1     -10.552  14.035  65.732  1.00  0.00    -0.299 C  
HETATM   15  C   UNL     1      -8.724   8.823  68.777  1.00  0.00    -0.137 C  
HETATM   16  C   UNL     1     -10.899   6.492  70.146  1.00  0.00    -0.282 C  
HETATM   17  O   UNL     1     -10.643   5.626  70.972  1.00  0.00    -0.237 OA 
HETATM   18  C   UNL     1     -10.227   8.720  68.389  1.00  0.00    -0.228 C  
HETATM   19  C   UNL     1     -11.068   6.222  68.688  1.00  0.00    -0.409 C  
HETATM   20  C   UNL     1     -10.448   7.294  67.780  1.00  0.00    -0.292 C  
ENDROOT
BRANCH  14  21
HETATM   21  O   UNL     1      -9.716  15.122  65.360  1.00  0.00    -0.316 OA 
BRANCH  21  22
HETATM   22  C   UNL     1     -10.301  16.323  65.729  1.00  0.00    -0.374 C  
HETATM   23  O   UNL     1     -10.819  17.108  64.939  1.00  0.00    -0.751 OA 
BRANCH  22  24
HETATM   24  C   UNL     1     -10.490  16.494  67.221  1.00  0.00    -0.304 C  
BRANCH  24  25
HETATM   25  C   UNL     1      -9.202  16.829  67.941  1.00  0.00    -0.225 C  
BRANCH  25  26
HETATM   26  C   UNL     1      -8.987  18.328  68.159  1.00  0.00    -0.314 C  
HETATM   27  C   UNL     1      -7.930  18.852  67.190  1.00  0.00    -0.254 C  
HETATM   28  C   UNL     1      -8.160  20.349  67.194  1.00  0.00    -0.378 C  
HETATM   29  C   UNL     1      -9.677  20.492  67.235  1.00  0.00    -0.600 C  
HETATM   30  C   UNL     1     -10.211  19.212  67.883  1.00  0.00    -0.494 C  
ENDBRANCH  25  26
ENDBRANCH  24  25
ENDBRANCH  22  24
ENDBRANCH  21  22
ENDBRANCH  14  21
TORSDOF 5
ENDMDL
MODEL        3
REMARK 921   NORMALIZED FREE ENERGY PREDICTED BY IDOCK:   -7.26 KCAL/MOL
REMARK 922        TOTAL FREE ENERGY PREDICTED BY IDOCK:  -10.72 KCAL/MOL
REMARK 923 INTER-LIGAND FREE ENERGY PREDICTED BY IDOCK:   -9.99 KCAL/MOL
REMARK 924 INTRA-LIGAND FREE ENERGY PREDICTED BY IDOCK:   -0.72 KCAL/MOL
REMARK 927      BINDING AFFINITY PREDICTED BY RF-SCORE:    0.00 PKD
ROOT
HETATM    1  C   UNL     1      -8.816  13.333  66.974  1.00  0.00    -0.216 C  
HETATM    2  C   UNL     1     -10.060  13.030  66.137  1.00  0.00    -0.287 C  
HETATM    3  C   UNL     1      -9.740  11.783  65.213  1.00  0.00    -0.236 C  
HETATM    4  C   UNL     1      -9.686  10.409  65.977  1.00  0.00    -0.265 C  
HETATM    5  C   UNL     1     -10.753  10.139  67.102  1.00  0.00    -0.286 C  
HETATM    6  C   UNL     1     -11.069  11.463  67.788  1.00  0.00    -0.323 C  
HETATM    7  C   UNL     1     -11.987  11.390  69.002  1.00  0.00    -0.387 C  
HETATM    8  C   UNL     1     -11.374  12.620  66.850  1.00  0.00    -0.373 C  
HETATM    9  C   UNL     1     -11.287  10.555  70.064  1.00  0.00    -0.392 C  
HETATM   10  C   UNL     1     -12.386  12.696  65.631  1.00  0.00    -0.390 C  
HETATM   11  C   UNL     1     -11.024   9.166  69.550  1.00  0.00    -0.138 C  
HETATM   12  C   UNL     1     -11.787  13.826  64.696  1.00  0.00    -0.427 C  
HETATM   13  C   UNL     1     -11.251   8.142  70.396  1.00  0.00    -0.221 C  
HETATM   14  C   UNL     1     -10.675  14.352  65.581  1.00  0.00    -0.320 C  
HETATM   15  C   UNL     1      -8.816   9.083  68.506  1.00  0.00    -0.134 C  
HETATM   16  C   UNL     1     -10.975   6.772  69.934  1.00  0.00    -0.291 C  
HETATM   17  O   UNL     1     -10.702   5.894  70.742  1.00  0.00    -0.247 OA 
HETATM   18  C   UNL     1     -10.334   9.006  68.174  1.00  0.00    -0.262 C  
HETATM   19  C   UNL     1     -11.203   6.518  68.481  1.00  0.00    -0.287 C  
HETATM   20  C   UNL     1     -10.600   7.590  67.560  1.00  0.00    -0.331 C  
ENDROOT
BRANCH  14  21
HETATM   21  O   UNL     1      -9.837  15.429  65.188  1.00  0.00    -0.264 OA 
BRANCH  21  22
HETATM   22  C   UNL     1     -10.484  16.638  65.394  1.00  0.00    -0.233 C  
HETATM   23  O   UNL     1     -11.178  17.199  64.550  1.00  0.00    -1.104 OA 
BRANCH  22  24
HETATM   24  C   UNL     1     -10.489  17.107  66.833  1.00  0.00    -0.274 C  
BRANCH  24  25
HETATM   25  C   UNL     1     -10.654  18.606  66.960  1.00  0.00    -0.448 C  
BRANCH  25  26
HETATM   26  C   UNL     1      -9.603  19.272  67.849  1.00  0.00    -0.409 C  
HETATM   27  C   UNL     1      -8.517  18.265  68.222  1.00  0.00    -0.309 C  
HETATM   28  C   UNL     1      -7.367  19.141  68.675  1.00  0.00    -0.365 C  
HETATM   29  C   UNL     1      -7.389  20.316  67.704  1.00  0.00    -0.340 C  
HETATM   30  C   UNL     1      -8.829  20.426  67.197  1.00  0.00    -0.435 C  
ENDBRANCH  25  26
ENDBRANCH  24  25
ENDBRANCH  22  24
ENDBRANCH  21  22
ENDBRANCH  14  21
TORSDOF 5
ENDMDL
MODEL        4
REMARK 921   NORMALIZED FREE ENERGY PREDICTED BY IDOCK:   -7.22 KCAL/MOL
REMARK 922        TOTAL FREE ENERGY PREDICTED BY IDOCK:  -10.67 KCAL/MOL
REMARK 923 INTER-LIGAND FREE ENERGY PREDICTED BY IDOCK:   -9.16 KCAL/MOL
REMARK 924 INTRA-LIGAND FREE ENERGY PREDICTED BY IDOCK:   -1.52 KCAL/MOL
REMARK 927      BINDING AFFINITY PREDICTED BY RF-SCORE:    0.00 PKD
ROOT
HETATM    1  C   UNL     1      -8.675  12.971  66.857  1.00  0.00    -0.158 C  
HETATM    2  C   UNL     1      -9.959  12.752  66.056  1.00  0.00    -0.277 C  
HETATM    3  C   UNL     1      -9.706  11.568  65.033  1.00  0.00    -0.268 C  
HETATM    4  C   UNL     1      -9.651  10.142  65.695  1.00  0.00    -0.302 C  
HETATM    5  C   UNL     1     -10.675   9.813  66.845  1.00  0.00    -0.192 C  
HETATM    6  C   UNL     1     -10.932  11.091  67.635  1.00  0.00    -0.332 C  
HETATM    7  C   UNL     1     -11.799  10.949  68.880  1.00  0.00    -0.340 C  
HETATM    8  C   UNL     1     -11.251  12.317  66.795  1.00  0.00    -0.371 C  
HETATM    9  C   UNL     1     -11.074  10.027  69.849  1.00  0.00    -0.336 C  
HETATM   10  C   UNL     1     -12.311  12.499  65.630  1.00  0.00    -0.296 C  
HETATM   11  C   UNL     1     -10.863   8.673  69.227  1.00  0.00    -0.082 C  
HETATM   12  C   UNL     1     -11.728  13.682  64.752  1.00  0.00    -0.399 C  
HETATM   13  C   UNL     1     -11.077   7.596  70.008  1.00  0.00    -0.201 C  
HETATM   14  C   UNL     1     -10.567  14.121  65.623  1.00  0.00    -0.310 C  
HETATM   15  C   UNL     1      -8.704   8.622  68.085  1.00  0.00    -0.142 C  
HETATM   16  C   UNL     1     -10.852   6.257  69.439  1.00  0.00    -0.340 C  
HETATM   17  O   UNL     1     -10.564   5.318  70.171  1.00  0.00    -0.290 OA 
HETATM   18  C   UNL     1     -10.236   8.599  67.815  1.00  0.00    -0.282 C  
HETATM   19  C   UNL     1     -11.146   6.112  67.983  1.00  0.00    -0.316 C  
HETATM   20  C   UNL     1     -10.559   7.235  67.114  1.00  0.00    -0.416 C  
ENDROOT
BRANCH  14  21
HETATM   21  O   UNL     1      -9.723  15.208  65.270  1.00  0.00    -0.277 OA 
BRANCH  21  22
HETATM   22  C   UNL     1     -10.184  16.379  65.850  1.00  0.00    -0.359 C  
HETATM   23  O   UNL     1     -10.961  17.159  65.304  1.00  0.00    -0.457 OA 
BRANCH  22  24
HETATM   24  C   UNL     1      -9.864  16.516  67.323  1.00  0.00    -0.254 C  
BRANCH  24  25
HETATM   25  C   UNL     1     -11.098  16.470  68.198  1.00  0.00    -0.303 C  
BRANCH  25  26
HETATM   26  C   UNL     1     -10.975  15.521  69.391  1.00  0.00    -0.276 C  
HETATM   27  C   UNL     1     -11.274  16.269  70.689  1.00  0.00    -0.310 C  
HETATM   28  C   UNL     1     -11.570  15.157  71.674  1.00  0.00    -0.463 C  
HETATM   29  C   UNL     1     -12.371  14.145  70.865  1.00  0.00    -0.438 C  
HETATM   30  C   UNL     1     -11.969  14.351  69.402  1.00  0.00    -0.370 C  
ENDBRANCH  25  26
ENDBRANCH  24  25
ENDBRANCH  22  24
ENDBRANCH  21  22
ENDBRANCH  14  21
TORSDOF 5
ENDMDL
MODEL        5
REMARK 921   NORMALIZED FREE ENERGY PREDICTED BY IDOCK:   -6.67 KCAL/MOL
REMARK 922        TOTAL FREE ENERGY PREDICTED BY IDOCK:   -9.96 KCAL/MOL
REMARK 923 INTER-LIGAND FREE ENERGY PREDICTED BY IDOCK:   -8.01 KCAL/MOL
REMARK 924 INTRA-LIGAND FREE ENERGY PREDICTED BY IDOCK:   -1.95 KCAL/MOL
REMARK 927      BINDING AFFINITY PREDICTED BY RF-SCORE:    0.00 PKD
ROOT
HETATM    1  C   UNL     1      -8.892  16.909  69.488  1.00  0.00     0.429 C  
HETATM    2  C   UNL     1      -7.692  16.415  68.679  1.00  0.00    -0.204 C  
HETATM    3  C   UNL     1      -7.505  14.869  68.970  1.00  0.00    -0.144 C  
HETATM    4  C   UNL     1      -8.584  13.948  68.291  1.00  0.00    -0.177 C  
HETATM    5  C   UNL     1      -9.043  14.291  66.825  1.00  0.00    -0.269 C  
HETATM    6  C   UNL     1      -9.015  15.807  66.660  1.00  0.00    -0.313 C  
HETATM    7  C   UNL     1      -9.556  16.350  65.343  1.00  0.00     0.261 C  
HETATM    8  C   UNL     1      -7.739  16.485  67.131  1.00  0.00    -0.214 C  
HETATM    9  C   UNL     1     -11.028  15.972  65.253  1.00  0.00    -0.309 C  
HETATM   10  C   UNL     1      -6.227  16.146  66.793  1.00  0.00     0.254 C  
HETATM   11  C   UNL     1     -11.187  14.476  65.283  1.00  0.00    -0.352 C  
HETATM   12  C   UNL     1      -5.415  16.707  68.031  1.00  0.00    -0.127 C  
HETATM   13  C   UNL     1     -12.080  13.935  64.432  1.00  0.00    -0.477 C  
HETATM   14  C   UNL     1      -6.517  17.436  68.774  1.00  0.00    -0.201 C  
HETATM   15  C   UNL     1     -11.479  13.728  67.591  1.00  0.00    -0.354 C  
HETATM   16  C   UNL     1     -12.283  12.477  64.456  1.00  0.00    -0.453 C  
HETATM   17  O   UNL     1     -13.350  11.998  64.094  1.00  0.00    -0.725 OA 
HETATM   18  C   UNL     1     -10.475  13.679  66.402  1.00  0.00    -0.288 C  
HETATM   19  C   UNL     1     -11.080  11.660  64.791  1.00  0.00    -0.328 C  
HETATM   20  C   UNL     1     -10.299  12.173  66.011  1.00  0.00    -0.268 C  
ENDROOT
BRANCH  14  21
HETATM   21  O   UNL     1      -6.276  18.152  69.977  1.00  0.00    -0.179 OA 
BRANCH  21  22
HETATM   22  C   UNL     1      -6.379  19.515  69.750  1.00  0.00    -0.310 C  
HETATM   23  O   UNL     1      -6.401  20.361  70.641  1.00  0.00    -0.510 OA 
BRANCH  22  24
HETATM   24  C   UNL     1      -6.208  19.924  68.303  1.00  0.00    -0.286 C  
BRANCH  24  25
HETATM   25  C   UNL     1      -7.408  20.666  67.757  1.00  0.00    -0.276 C  
BRANCH  25  26
HETATM   26  C   UNL     1      -8.537  19.751  67.281  1.00  0.00    -0.374 C  
HETATM   27  C   UNL     1      -9.790  19.981  68.124  1.00  0.00    -0.499 C  
HETATM   28  C   UNL     1     -10.897  19.390  67.275  1.00  0.00    -0.561 C  
HETATM   29  C   UNL     1     -10.530  19.790  65.852  1.00  0.00    -0.587 C  
HETATM   30  C   UNL     1      -9.012  19.991  65.841  1.00  0.00    -0.162 C  
ENDBRANCH  25  26
ENDBRANCH  24  25
ENDBRANCH  22  24
ENDBRANCH  21  22
ENDBRANCH  14  21
TORSDOF 5
ENDMDL
MODEL        6
REMARK 921   NORMALIZED FREE ENERGY PREDICTED BY IDOCK:   -6.67 KCAL/MOL
REMARK 922        TOTAL FREE ENERGY PREDICTED BY IDOCK:   -9.95 KCAL/MOL
REMARK 923 INTER-LIGAND FREE ENERGY PREDICTED BY IDOCK:   -8.91 KCAL/MOL
REMARK 924 INTRA-LIGAND FREE ENERGY PREDICTED BY IDOCK:   -1.04 KCAL/MOL
REMARK 927      BINDING AFFINITY PREDICTED BY RF-SCORE:    0.00 PKD
ROOT
HETATM    1  C   UNL     1     -11.072  16.172  64.648  1.00  0.00    -0.310 C  
HETATM    2  C   UNL     1     -11.026  15.172  65.804  1.00  0.00    -0.350 C  
HETATM    3  C   UNL     1      -9.577  14.532  65.845  1.00  0.00    -0.281 C  
HETATM    4  C   UNL     1      -8.459  15.498  66.386  1.00  0.00    -0.226 C  
HETATM    5  C   UNL     1      -8.803  16.428  67.608  1.00  0.00    -0.191 C  
HETATM    6  C   UNL     1     -10.272  16.825  67.506  1.00  0.00    -0.289 C  
HETATM    7  C   UNL     1     -10.768  17.839  68.530  1.00  0.00    -0.148 C  
HETATM    8  C   UNL     1     -11.236  15.677  67.255  1.00  0.00    -0.184 C  
HETATM    9  C   UNL     1      -9.995  19.132  68.316  1.00  0.00    -0.482 C  
HETATM   10  C   UNL     1     -11.380  14.291  68.012  1.00  0.00    -0.318 C  
HETATM   11  C   UNL     1      -8.522  18.901  68.511  1.00  0.00    -0.384 C  
HETATM   12  C   UNL     1     -12.022  13.322  66.936  1.00  0.00    -0.430 C  
HETATM   13  C   UNL     1      -7.836  19.838  69.195  1.00  0.00    -0.134 C  
HETATM   14  C   UNL     1     -12.326  14.309  65.826  1.00  0.00    -0.405 C  
HETATM   15  C   UNL     1      -7.491  18.322  66.372  1.00  0.00    -0.284 C  
HETATM   16  C   UNL     1      -6.387  19.657  69.378  1.00  0.00    -0.330 C  
HETATM   17  O   UNL     1      -5.661  20.630  69.542  1.00  0.00    -0.339 OA 
HETATM   18  C   UNL     1      -7.853  17.724  67.762  1.00  0.00    -0.216 C  
HETATM   19  C   UNL     1      -5.919  18.246  69.502  1.00  0.00    -0.252 C  
HETATM   20  C   UNL     1      -6.508  17.300  68.444  1.00  0.00    -0.164 C  
ENDROOT
BRANCH  14  21
HETATM   21  O   UNL     1     -12.955  13.918  64.614  1.00  0.00    -0.654 OA 
BRANCH  21  22
HETATM   22  C   UNL     1     -12.519  12.658  64.235  1.00  0.00    -0.411 C  
HETATM   23  O   UNL     1     -13.231  11.657  64.230  1.00  0.00    -0.271 OA 
BRANCH  22  24
HETATM   24  C   UNL     1     -11.157  12.639  63.575  1.00  0.00    -0.449 C  
BRANCH  24  25
HETATM   25  C   UNL     1     -10.500  11.277  63.627  1.00  0.00    -0.464 C  
BRANCH  25  26
HETATM   26  C   UNL     1      -9.501  11.114  64.774  1.00  0.00    -0.250 C  
HETATM   27  C   UNL     1     -10.097  10.232  65.868  1.00  0.00    -0.319 C  
HETATM   28  C   UNL     1      -8.886   9.793  66.665  1.00  0.00    -0.153 C  
HETATM   29  C   UNL     1      -7.818   9.538  65.608  1.00  0.00    -0.101 C  
HETATM   30  C   UNL     1      -8.189  10.408  64.404  1.00  0.00    -0.125 C  
ENDBRANCH  25  26
ENDBRANCH  24  25
ENDBRANCH  22  24
ENDBRANCH  21  22
ENDBRANCH  14  21
TORSDOF 5
ENDMDL
MODEL        7
REMARK 921   NORMALIZED FREE ENERGY PREDICTED BY IDOCK:   -6.61 KCAL/MOL
REMARK 922        TOTAL FREE ENERGY PREDICTED BY IDOCK:   -9.88 KCAL/MOL
REMARK 923 INTER-LIGAND FREE ENERGY PREDICTED BY IDOCK:   -9.16 KCAL/MOL
REMARK 924 INTRA-LIGAND FREE ENERGY PREDICTED BY IDOCK:   -0.73 KCAL/MOL
REMARK 927      BINDING AFFINITY PREDICTED BY RF-SCORE:    0.00 PKD
ROOT
HETATM    1  C   UNL     1     -11.434  13.795  69.210  1.00  0.00    -0.344 C  
HETATM    2  C   UNL     1     -11.033  13.464  67.771  1.00  0.00    -0.281 C  
HETATM    3  C   UNL     1     -11.805  14.454  66.804  1.00  0.00    -0.431 C  
HETATM    4  C   UNL     1     -11.257  15.929  66.818  1.00  0.00     0.035 C  
HETATM    5  C   UNL     1      -9.700  16.147  66.879  1.00  0.00    -0.246 C  
HETATM    6  C   UNL     1      -9.093  15.023  67.712  1.00  0.00    -0.180 C  
HETATM    7  C   UNL     1      -7.601  15.130  68.001  1.00  0.00    -0.127 C  
HETATM    8  C   UNL     1      -9.552  13.622  67.340  1.00  0.00    -0.226 C  
HETATM    9  C   UNL     1      -7.375  16.393  68.820  1.00  0.00    -0.203 C  
HETATM   10  C   UNL     1      -9.600  12.915  65.922  1.00  0.00    -0.133 C  
HETATM   11  C   UNL     1      -7.826  17.604  68.051  1.00  0.00    -0.235 C  
HETATM   12  C   UNL     1     -10.734  11.818  66.070  1.00  0.00    -0.324 C  
HETATM   13  C   UNL     1      -7.036  18.695  68.100  1.00  0.00    -0.257 C  
HETATM   14  C   UNL     1     -11.019  11.919  67.555  1.00  0.00    -0.247 C  
HETATM   15  C   UNL     1     -10.165  18.084  68.572  1.00  0.00    -0.392 C  
HETATM   16  C   UNL     1      -7.463  19.907  67.383  1.00  0.00    -0.272 C  
HETATM   17  O   UNL     1      -7.082  21.010  67.757  1.00  0.00    -0.287 OA 
HETATM   18  C   UNL     1      -9.239  17.596  67.420  1.00  0.00    -0.247 C  
HETATM   19  C   UNL     1      -8.232  19.680  66.125  1.00  0.00    -0.355 C  
HETATM   20  C   UNL     1      -9.356  18.643  66.261  1.00  0.00    -0.251 C  
ENDROOT
BRANCH  14  21
HETATM   21  O   UNL     1     -11.973  11.089  68.202  1.00  0.00    -0.610 OA 
BRANCH  21  22
HETATM   22  C   UNL     1     -11.330  10.131  68.970  1.00  0.00    -0.133 C  
HETATM   23  O   UNL     1     -10.733   9.163  68.504  1.00  0.00    -0.196 OA 
BRANCH  22  24
HETATM   24  C   UNL     1     -11.189  10.491  70.433  1.00  0.00    -0.378 C  
BRANCH  24  25
HETATM   25  C   UNL     1     -10.806   9.307  71.295  1.00  0.00    -0.417 C  
BRANCH  25  26
HETATM   26  C   UNL     1     -11.988   8.657  72.015  1.00  0.00    -0.442 C  
HETATM   27  C   UNL     1     -13.182   9.608  72.026  1.00  0.00    -0.546 C  
HETATM   28  C   UNL     1     -14.354   8.696  72.327  1.00  0.00    -0.486 C  
HETATM   29  C   UNL     1     -14.056   7.432  71.531  1.00  0.00    -0.541 C  
HETATM   30  C   UNL     1     -12.536   7.384  71.355  1.00  0.00    -0.405 C  
ENDBRANCH  25  26
ENDBRANCH  24  25
ENDBRANCH  22  24
ENDBRANCH  21  22
ENDBRANCH  14  21
TORSDOF 5
ENDMDL
MODEL        8
REMARK 921   NORMALIZED FREE ENERGY PREDICTED BY IDOCK:   -6.49 KCAL/MOL
REMARK 922        TOTAL FREE ENERGY PREDICTED BY IDOCK:   -9.73 KCAL/MOL
REMARK 923 INTER-LIGAND FREE ENERGY PREDICTED BY IDOCK:   -9.14 KCAL/MOL
REMARK 924 INTRA-LIGAND FREE ENERGY PREDICTED BY IDOCK:   -0.59 KCAL/MOL
REMARK 927      BINDING AFFINITY PREDICTED BY RF-SCORE:    0.00 PKD
ROOT
HETATM    1  C   UNL     1      -8.725  13.272  67.819  1.00  0.00    -0.194 C  
HETATM    2  C   UNL     1     -10.039  13.171  67.043  1.00  0.00    -0.241 C  
HETATM    3  C   UNL     1      -9.824  12.161  65.840  1.00  0.00    -0.265 C  
HETATM    4  C   UNL     1      -9.741  10.650  66.271  1.00  0.00    -0.245 C  
HETATM    5  C   UNL     1     -10.719  10.140  67.394  1.00  0.00    -0.336 C  
HETATM    6  C   UNL     1     -10.948  11.278  68.381  1.00  0.00    -0.268 C  
HETATM    7  C   UNL     1     -11.766  10.939  69.621  1.00  0.00    -0.403 C  
HETATM    8  C   UNL     1     -11.301  12.617  67.754  1.00  0.00    -0.349 C  
HETATM    9  C   UNL     1     -11.003   9.884  70.408  1.00  0.00    -0.379 C  
HETATM   10  C   UNL     1     -12.405  12.970  66.672  1.00  0.00    -0.131 C  
HETATM   11  C   UNL     1     -10.814   8.644  69.576  1.00  0.00    -0.138 C  
HETATM   12  C   UNL     1     -11.858  14.278  65.967  1.00  0.00    -0.399 C  
HETATM   13  C   UNL     1     -10.997   7.458  70.188  1.00  0.00    -0.272 C  
HETATM   14  C   UNL     1     -10.665  14.586  66.850  1.00  0.00    -0.288 C  
HETATM   15  C   UNL     1      -8.701   8.786  68.359  1.00  0.00    -0.135 C  
HETATM   16  C   UNL     1     -10.791   6.225  69.411  1.00  0.00    -0.340 C  
HETATM   17  O   UNL     1     -10.474   5.186  69.977  1.00  0.00    -0.293 OA 
HETATM   18  C   UNL     1     -10.242   8.794  68.147  1.00  0.00    -0.250 C  
HETATM   19  C   UNL     1     -11.142   6.304  67.963  1.00  0.00    -0.365 C  
HETATM   20  C   UNL     1     -10.590   7.553  67.257  1.00  0.00    -0.394 C  
ENDROOT
BRANCH  14  21
HETATM   21  O   UNL     1      -9.837  15.720  66.637  1.00  0.00    -0.235 OA 
BRANCH  21  22
HETATM   22  C   UNL     1     -10.408  16.844  67.214  1.00  0.00    -0.309 C  
HETATM   23  O   UNL     1     -10.833  16.885  68.367  1.00  0.00    -0.356 OA 
BRANCH  22  24
HETATM   24  C   UNL     1     -10.245  18.114  66.407  1.00  0.00    -0.405 C  
BRANCH  24  25
HETATM   25  C   UNL     1      -9.794  19.289  67.248  1.00  0.00    -0.425 C  
BRANCH  25  26
HETATM   26  C   UNL     1      -8.277  19.383  67.417  1.00  0.00    -0.319 C  
HETATM   27  C   UNL     1      -7.827  20.838  67.305  1.00  0.00    -0.296 C  
HETATM   28  C   UNL     1      -6.450  20.828  67.937  1.00  0.00    -0.376 C  
HETATM   29  C   UNL     1      -6.592  19.886  69.126  1.00  0.00    -0.368 C  
HETATM   30  C   UNL     1      -7.742  18.935  68.784  1.00  0.00    -0.366 C  
ENDBRANCH  25  26
ENDBRANCH  24  25
ENDBRANCH  22  24
ENDBRANCH  21  22
ENDBRANCH  14  21
TORSDOF 5
ENDMDL
MODEL        9
REMARK 921   NORMALIZED FREE ENERGY PREDICTED BY IDOCK:   -6.49 KCAL/MOL
REMARK 922        TOTAL FREE ENERGY PREDICTED BY IDOCK:   -9.72 KCAL/MOL
REMARK 923 INTER-LIGAND FREE ENERGY PREDICTED BY IDOCK:   -7.99 KCAL/MOL
REMARK 924 INTRA-LIGAND FREE ENERGY PREDICTED BY IDOCK:   -1.73 KCAL/MOL
REMARK 927      BINDING AFFINITY PREDICTED BY RF-SCORE:    0.00 PKD
ROOT
HETATM    1  C   UNL     1     -10.452  15.523  65.565  1.00  0.00    -0.407 C  
HETATM    2  C   UNL     1     -10.414  16.082  66.988  1.00  0.00    -0.307 C  
HETATM    3  C   UNL     1     -11.779  15.707  67.701  1.00  0.00     0.014 C  
HETATM    4  C   UNL     1     -11.906  14.189  68.096  1.00  0.00    -0.387 C  
HETATM    5  C   UNL     1     -10.638  13.460  68.676  1.00  0.00    -0.257 C  
HETATM    6  C   UNL     1      -9.401  14.047  68.004  1.00  0.00    -0.205 C  
HETATM    7  C   UNL     1      -8.073  13.377  68.335  1.00  0.00    -0.138 C  
HETATM    8  C   UNL     1      -9.338  15.565  67.979  1.00  0.00    -0.193 C  
HETATM    9  C   UNL     1      -8.143  11.938  67.842  1.00  0.00    -0.147 C  
HETATM   10  C   UNL     1      -9.527  16.607  69.159  1.00  0.00    -0.188 C  
HETATM   11  C   UNL     1      -9.262  11.203  68.529  1.00  0.00    -0.183 C  
HETATM   12  C   UNL     1     -10.008  17.933  68.438  1.00  0.00    -0.367 C  
HETATM   13  C   UNL     1      -9.012   9.943  68.936  1.00  0.00    -0.153 C  
HETATM   14  C   UNL     1      -9.838  17.531  66.987  1.00  0.00    -0.295 C  
HETATM   15  C   UNL     1     -11.307  11.402  67.208  1.00  0.00    -0.347 C  
HETATM   16  C   UNL     1     -10.094   9.184  69.584  1.00  0.00    -0.198 C  
HETATM   17  O   UNL     1     -10.102   7.961  69.537  1.00  0.00    -0.186 OA 
HETATM   18  C   UNL     1     -10.666  11.851  68.553  1.00  0.00    -0.254 C  
HETATM   19  C   UNL     1     -11.050   9.987  70.402  1.00  0.00    -0.393 C  
HETATM   20  C   UNL     1     -11.551  11.260  69.703  1.00  0.00    -0.401 C  
ENDROOT
BRANCH  14  21
HETATM   21  O   UNL     1     -10.120  18.421  65.915  1.00  0.00    -0.540 OA 
BRANCH  21  22
HETATM   22  C   UNL     1      -9.555  19.662  66.163  1.00  0.00    -0.386 C  
HETATM   23  O   UNL     1     -10.143  20.587  66.719  1.00  0.00    -0.416 OA 
BRANCH  22  24
HETATM   24  C   UNL     1      -8.062  19.728  65.929  1.00  0.00    -0.263 C  
BRANCH  24  25
HETATM   25  C   UNL     1      -7.302  20.247  67.131  1.00  0.00    -0.329 C  
BRANCH  25  26
HETATM   26  C   UNL     1      -6.267  19.264  67.681  1.00  0.00    -0.216 C  
HETATM   27  C   UNL     1      -6.565  18.954  69.146  1.00  0.00    -0.318 C  
HETATM   28  C   UNL     1      -5.792  17.676  69.398  1.00  0.00    -0.227 C  
HETATM   29  C   UNL     1      -5.979  16.869  68.120  1.00  0.00    -0.124 C  
HETATM   30  C   UNL     1      -6.252  17.885  67.008  1.00  0.00    -0.182 C  
ENDBRANCH  25  26
ENDBRANCH  24  25
ENDBRANCH  22  24
ENDBRANCH  21  22
ENDBRANCH  14  21
TORSDOF 5
ENDMDL
MODEL       10
REMARK 921   NORMALIZED FREE ENERGY PREDICTED BY IDOCK:   -6.47 KCAL/MOL
REMARK 922        TOTAL FREE ENERGY PREDICTED BY IDOCK:   -9.70 KCAL/MOL
REMARK 923 INTER-LIGAND FREE ENERGY PREDICTED BY IDOCK:   -7.59 KCAL/MOL
REMARK 924 INTRA-LIGAND FREE ENERGY PREDICTED BY IDOCK:   -2.11 KCAL/MOL
REMARK 927      BINDING AFFINITY PREDICTED BY RF-SCORE:    0.00 PKD
ROOT
HETATM    1  C   UNL     1      -8.742   8.343  71.161  1.00  0.00    -0.194 C  
HETATM    2  C   UNL     1     -10.249   8.084  71.125  1.00  0.00    -0.225 C  
HETATM    3  C   UNL     1     -10.991   9.458  71.392  1.00  0.00    -0.443 C  
HETATM    4  C   UNL     1     -10.943  10.465  70.185  1.00  0.00    -0.365 C  
HETATM    5  C   UNL     1     -11.119   9.894  68.729  1.00  0.00    -0.179 C  
HETATM    6  C   UNL     1     -10.493   8.505  68.683  1.00  0.00    -0.200 C  
HETATM    7  C   UNL     1     -10.443   7.834  67.316  1.00  0.00    -0.392 C  
HETATM    8  C   UNL     1     -10.901   7.574  69.814  1.00  0.00    -0.234 C  
HETATM    9  C   UNL     1      -9.568   8.689  66.410  1.00  0.00    -0.316 C  
HETATM   10  C   UNL     1     -12.346   7.203  70.350  1.00  0.00    -0.008 C  
HETATM   11  C   UNL     1     -10.150  10.069  66.272  1.00  0.00    -0.310 C  
HETATM   12  C   UNL     1     -12.107   6.781  71.858  1.00  0.00    -0.375 C  
HETATM   13  C   UNL     1     -10.139  10.622  65.042  1.00  0.00    -0.388 C  
HETATM   14  C   UNL     1     -10.593   6.777  71.904  1.00  0.00    -0.209 C  
HETATM   15  C   UNL     1      -9.217  11.530  67.993  1.00  0.00    -0.175 C  
HETATM   16  C   UNL     1     -10.673  11.984  64.877  1.00  0.00    -0.301 C  
HETATM   17  O   UNL     1     -10.276  12.694  63.962  1.00  0.00    -0.397 OA 
HETATM   18  C   UNL     1     -10.540  10.839  67.555  1.00  0.00    -0.280 C  
HETATM   19  C   UNL     1     -11.804  12.351  65.779  1.00  0.00    -0.467 C  
HETATM   20  C   UNL     1     -11.574  11.976  67.251  1.00  0.00    -0.383 C  
ENDROOT
BRANCH  14  21
HETATM   21  O   UNL     1      -9.870   6.422  73.074  1.00  0.00    -0.161 OA 
BRANCH  21  22
HETATM   22  C   UNL     1     -10.202   5.135  73.468  1.00  0.00    -0.198 C  
HETATM   23  O   UNL     1     -10.875   4.871  74.461  1.00  0.00    -0.343 OA 
BRANCH  22  24
HETATM   24  C   UNL     1      -9.890   4.067  72.442  1.00  0.00    -0.220 C  
BRANCH  24  25
HETATM   25  C   UNL     1      -8.453   4.109  71.969  1.00  0.00    -0.111 C  
BRANCH  25  26
HETATM   26  C   UNL     1      -8.297   3.983  70.453  1.00  0.00    -0.081 C  
HETATM   27  C   UNL     1      -9.660   4.086  69.775  1.00  0.00    -0.280 C  
HETATM   28  C   UNL     1      -9.313   4.409  68.336  1.00  0.00    -0.203 C  
HETATM   29  C   UNL     1      -8.144   5.380  68.444  1.00  0.00    -0.091 C  
HETATM   30  C   UNL     1      -7.468   5.089  69.786  1.00  0.00    -0.056 C  
ENDBRANCH  25  26
ENDBRANCH  24  25
ENDBRANCH  22  24
ENDBRANCH  21  22
ENDBRANCH  14  21
TORSDOF 5
ENDMDL
MODEL       11
REMARK 921   NORMALIZED FREE ENERGY PREDICTED BY IDOCK:   -6.46 KCAL/MOL
REMARK 922        TOTAL FREE ENERGY PREDICTED BY IDOCK:   -9.69 KCAL/MOL
REMARK 923 INTER-LIGAND FREE ENERGY PREDICTED BY IDOCK:   -8.61 KCAL/MOL
REMARK 924 INTRA-LIGAND FREE ENERGY PREDICTED BY IDOCK:   -1.07 KCAL/MOL
REMARK 927      BINDING AFFINITY PREDICTED BY RF-SCORE:    0.00 PKD
ROOT
HETATM    1  C   UNL     1     -11.993  10.801  69.410  1.00  0.00    -0.353 C  
HETATM    2  C   UNL     1     -10.887  10.683  68.360  1.00  0.00    -0.282 C  
HETATM    3  C   UNL     1      -9.502  10.987  69.068  1.00  0.00    -0.123 C  
HETATM    4  C   UNL     1      -8.992   9.837  70.012  1.00  0.00    -0.255 C  
HETATM    5  C   UNL     1      -9.177   8.347  69.541  1.00  0.00    -0.154 C  
HETATM    6  C   UNL     1     -10.472   8.257  68.741  1.00  0.00    -0.200 C  
HETATM    7  C   UNL     1     -10.899   6.861  68.306  1.00  0.00    -0.244 C  
HETATM    8  C   UNL     1     -10.641   9.319  67.665  1.00  0.00    -0.324 C  
HETATM    9  C   UNL     1     -11.157   6.042  69.563  1.00  0.00    -0.468 C  
HETATM   10  C   UNL     1      -9.643   9.768  66.519  1.00  0.00    -0.249 C  
HETATM   11  C   UNL     1      -9.906   5.949  70.393  1.00  0.00    -0.231 C  
HETATM   12  C   UNL     1     -10.063  11.261  66.197  1.00  0.00    -0.279 C  
HETATM   13  C   UNL     1      -9.618   4.752  70.941  1.00  0.00    -0.245 C  
HETATM   14  C   UNL     1     -11.322  11.377  67.033  1.00  0.00    -0.236 C  
HETATM   15  C   UNL     1      -9.851   7.785  72.004  1.00  0.00    -0.226 C  
HETATM   16  C   UNL     1      -8.417   4.633  71.784  1.00  0.00    -0.113 C  
HETATM   17  O   UNL     1      -8.360   3.776  72.657  1.00  0.00    -0.087 OA 
HETATM   18  C   UNL     1      -9.142   7.251  70.726  1.00  0.00    -0.152 C  
HETATM   19  C   UNL     1      -7.266   5.500  71.399  1.00  0.00    -0.073 C  
HETATM   20  C   UNL     1      -7.652   6.960  71.115  1.00  0.00    -0.087 C  
ENDROOT
BRANCH  14  21
HETATM   21  O   UNL     1     -12.109  12.559  67.060  1.00  0.00    -0.521 OA 
BRANCH  21  22
HETATM   22  C   UNL     1     -11.292  13.678  67.019  1.00  0.00    -0.324 C  
HETATM   23  O   UNL     1     -11.034  14.305  65.994  1.00  0.00    -0.303 OA 
BRANCH  22  24
HETATM   24  C   UNL     1     -10.932  14.240  68.378  1.00  0.00    -0.267 C  
BRANCH  24  25
HETATM   25  C   UNL     1     -12.145  14.505  69.243  1.00  0.00    -0.325 C  
BRANCH  25  26
HETATM   26  C   UNL     1     -11.878  14.365  70.742  1.00  0.00    -0.349 C  
HETATM   27  C   UNL     1     -11.749  15.744  71.383  1.00  0.00    -0.508 C  
HETATM   28  C   UNL     1     -11.957  15.467  72.858  1.00  0.00    -0.575 C  
HETATM   29  C   UNL     1     -13.064  14.421  72.888  1.00  0.00    -0.612 C  
HETATM   30  C   UNL     1     -12.997  13.688  71.546  1.00  0.00    -0.443 C  
ENDBRANCH  25  26
ENDBRANCH  24  25
ENDBRANCH  22  24
ENDBRANCH  21  22
ENDBRANCH  14  21
TORSDOF 5
ENDMDL
MODEL       12
REMARK 921   NORMALIZED FREE ENERGY PREDICTED BY IDOCK:   -6.45 KCAL/MOL
REMARK 922        TOTAL FREE ENERGY PREDICTED BY IDOCK:   -9.68 KCAL/MOL
REMARK 923 INTER-LIGAND FREE ENERGY PREDICTED BY IDOCK:   -8.47 KCAL/MOL
REMARK 924 INTRA-LIGAND FREE ENERGY PREDICTED BY IDOCK:   -1.21 KCAL/MOL
REMARK 927      BINDING AFFINITY PREDICTED BY RF-SCORE:    0.00 PKD
ROOT
HETATM    1  C   UNL     1     -11.945  11.038  69.013  1.00  0.00    -0.364 C  
HETATM    2  C   UNL     1     -10.854  10.842  67.959  1.00  0.00    -0.293 C  
HETATM    3  C   UNL     1      -9.453  11.140  68.639  1.00  0.00    -0.196 C  
HETATM    4  C   UNL     1      -8.964  10.020  69.628  1.00  0.00    -0.221 C  
HETATM    5  C   UNL     1      -9.195   8.515  69.226  1.00  0.00    -0.153 C  
HETATM    6  C   UNL     1     -10.500   8.426  68.444  1.00  0.00    -0.208 C  
HETATM    7  C   UNL     1     -10.970   7.024  68.077  1.00  0.00    -0.185 C  
HETATM    8  C   UNL     1     -10.653   9.443  67.323  1.00  0.00    -0.314 C  
HETATM    9  C   UNL     1     -11.236   6.269  69.371  1.00  0.00    -0.489 C  
HETATM   10  C   UNL     1      -9.656   9.813  66.148  1.00  0.00    -0.287 C  
HETATM   11  C   UNL     1      -9.978   6.179  70.192  1.00  0.00    -0.218 C  
HETATM   12  C   UNL     1     -10.039  11.301  65.764  1.00  0.00    -0.294 C  
HETATM   13  C   UNL     1      -9.717   5.000  70.791  1.00  0.00    -0.263 C  
HETATM   14  C   UNL     1     -11.285  11.488  66.606  1.00  0.00    -0.271 C  
HETATM   15  C   UNL     1      -9.856   8.083  71.718  1.00  0.00    -0.240 C  
HETATM   16  C   UNL     1      -8.510   4.886  71.626  1.00  0.00    -0.122 C  
HETATM   17  O   UNL     1      -8.466   4.067  72.535  1.00  0.00    -0.097 OA 
HETATM   18  C   UNL     1      -9.175   7.474  70.459  1.00  0.00    -0.157 C  
HETATM   19  C   UNL     1      -7.340   5.703  71.190  1.00  0.00    -0.085 C  
HETATM   20  C   UNL     1      -7.690   7.159  70.846  1.00  0.00    -0.094 C  
ENDROOT
BRANCH  14  21
HETATM   21  O   UNL     1     -12.040  12.692  66.588  1.00  0.00    -0.519 OA 
BRANCH  21  22
HETATM   22  C   UNL     1     -12.337  13.049  65.282  1.00  0.00    -0.486 C  
HETATM   23  O   UNL     1     -13.042  12.382  64.529  1.00  0.00    -0.823 OA 
BRANCH  22  24
HETATM   24  C   UNL     1     -11.938  14.462  64.913  1.00  0.00    -0.430 C  
BRANCH  24  25
HETATM   25  C   UNL     1     -10.440  14.632  64.777  1.00  0.00    -0.343 C  
BRANCH  25  26
HETATM   26  C   UNL     1      -9.790  15.362  65.954  1.00  0.00    -0.387 C  
HETATM   27  C   UNL     1     -10.865  15.949  66.865  1.00  0.00    -0.240 C  
HETATM   28  C   UNL     1     -10.125  16.208  68.161  1.00  0.00    -0.237 C  
HETATM   29  C   UNL     1      -9.200  15.007  68.307  1.00  0.00    -0.184 C  
HETATM   30  C   UNL     1      -8.955  14.479  66.891  1.00  0.00    -0.267 C  
ENDBRANCH  25  26
ENDBRANCH  24  25
ENDBRANCH  22  24
ENDBRANCH  21  22
ENDBRANCH  14  21
TORSDOF 5
ENDMDL
MODEL       13
REMARK 921   NORMALIZED FREE ENERGY PREDICTED BY IDOCK:   -6.45 KCAL/MOL
REMARK 922        TOTAL FREE ENERGY PREDICTED BY IDOCK:   -9.68 KCAL/MOL
REMARK 923 INTER-LIGAND FREE ENERGY PREDICTED BY IDOCK:   -8.75 KCAL/MOL
REMARK 924 INTRA-LIGAND FREE ENERGY PREDICTED BY IDOCK:   -0.93 KCAL/MOL
REMARK 927      BINDING AFFINITY PREDICTED BY RF-SCORE:    0.00 PKD
ROOT
HETATM    1  C   UNL     1     -11.386  11.566  68.956  1.00  0.00    -0.339 C  
HETATM    2  C   UNL     1     -10.817  11.529  67.537  1.00  0.00    -0.285 C  
HETATM    3  C   UNL     1     -11.805  12.328  66.590  1.00  0.00    -0.362 C  
HETATM    4  C   UNL     1     -11.755  13.890  66.774  1.00  0.00    -0.423 C  
HETATM    5  C   UNL     1     -10.353  14.571  66.990  1.00  0.00    -0.263 C  
HETATM    6  C   UNL     1      -9.471  13.609  67.778  1.00  0.00    -0.221 C  
HETATM    7  C   UNL     1      -8.109  14.142  68.207  1.00  0.00    -0.146 C  
HETATM    8  C   UNL     1      -9.440  12.183  67.253  1.00  0.00    -0.184 C  
HETATM    9  C   UNL     1      -8.343  15.317  69.144  1.00  0.00    -0.233 C  
HETATM   10  C   UNL     1      -9.179  11.650  65.783  1.00  0.00    -0.184 C  
HETATM   11  C   UNL     1      -9.109  16.405  68.440  1.00  0.00    -0.214 C  
HETATM   12  C   UNL     1      -9.913  10.247  65.740  1.00  0.00    -0.337 C  
HETATM   13  C   UNL     1      -8.709  17.674  68.649  1.00  0.00    -0.266 C  
HETATM   14  C   UNL     1     -10.302  10.097  67.196  1.00  0.00    -0.238 C  
HETATM   15  C   UNL     1     -11.505  16.079  68.789  1.00  0.00    -0.375 C  
HETATM   16  C   UNL     1      -9.455  18.764  67.998  1.00  0.00    -0.312 C  
HETATM   17  O   UNL     1      -9.465  19.884  68.494  1.00  0.00    -0.318 OA 
HETATM   18  C   UNL     1     -10.407  16.026  67.688  1.00  0.00    -0.284 C  
HETATM   19  C   UNL     1     -10.037  18.445  66.663  1.00  0.00    -0.399 C  
HETATM   20  C   UNL     1     -10.782  17.102  66.613  1.00  0.00    -0.082 C  
ENDROOT
BRANCH  14  21
HETATM   21  O   UNL     1     -10.981   8.949  67.686  1.00  0.00    -0.129 OA 
BRANCH  21  22
HETATM   22  C   UNL     1     -10.143   8.216  68.513  1.00  0.00    -0.200 C  
HETATM   23  O   UNL     1      -8.918   8.302  68.502  1.00  0.00    -0.137 OA 
BRANCH  22  24
HETATM   24  C   UNL     1     -10.854   7.473  69.623  1.00  0.00    -0.210 C  
BRANCH  24  25
HETATM   25  C   UNL     1     -10.630   8.097  70.984  1.00  0.00    -0.242 C  
BRANCH  25  26
HETATM   26  C   UNL     1     -11.881   8.129  71.864  1.00  0.00    -0.366 C  
HETATM   27  C   UNL     1     -12.575   9.483  71.740  1.00  0.00    -0.490 C  
HETATM   28  C   UNL     1     -13.972   9.210  72.259  1.00  0.00    -0.489 C  
HETATM   29  C   UNL     1     -14.310   7.829  71.710  1.00  0.00    -0.594 C  
HETATM   30  C   UNL     1     -12.973   7.118  71.486  1.00  0.00    -0.431 C  
ENDBRANCH  25  26
ENDBRANCH  24  25
ENDBRANCH  22  24
ENDBRANCH  21  22
ENDBRANCH  14  21
TORSDOF 5
ENDMDL
MODEL       14
REMARK 921   NORMALIZED FREE ENERGY PREDICTED BY IDOCK:   -6.42 KCAL/MOL
REMARK 922        TOTAL FREE ENERGY PREDICTED BY IDOCK:   -9.63 KCAL/MOL
REMARK 923 INTER-LIGAND FREE ENERGY PREDICTED BY IDOCK:   -8.17 KCAL/MOL
REMARK 924 INTRA-LIGAND FREE ENERGY PREDICTED BY IDOCK:   -1.45 KCAL/MOL
REMARK 927      BINDING AFFINITY PREDICTED BY RF-SCORE:    0.00 PKD
ROOT
HETATM    1  C   UNL     1     -11.918  14.410  67.641  1.00  0.00    -0.378 C  
HETATM    2  C   UNL     1     -10.604  13.668  67.389  1.00  0.00    -0.260 C  
HETATM    3  C   UNL     1     -10.157  13.953  65.896  1.00  0.00    -0.331 C  
HETATM    4  C   UNL     1      -9.604  15.405  65.652  1.00  0.00    -0.323 C  
HETATM    5  C   UNL     1      -8.677  16.045  66.751  1.00  0.00    -0.287 C  
HETATM    6  C   UNL     1      -9.140  15.546  68.115  1.00  0.00    -0.184 C  
HETATM    7  C   UNL     1      -8.449  16.160  69.327  1.00  0.00    -0.187 C  
HETATM    8  C   UNL     1      -9.349  14.044  68.218  1.00  0.00    -0.208 C  
HETATM    9  C   UNL     1      -8.753  17.651  69.330  1.00  0.00     0.277 C  
HETATM   10  C   UNL     1      -8.381  12.856  67.807  1.00  0.00    -0.178 C  
HETATM   11  C   UNL     1      -8.231  18.295  68.074  1.00  0.00    -0.274 C  
HETATM   12  C   UNL     1      -9.355  11.640  67.521  1.00  0.00    -0.168 C  
HETATM   13  C   UNL     1      -7.620  19.489  68.202  1.00  0.00    -0.338 C  
HETATM   14  C   UNL     1     -10.672  12.229  67.986  1.00  0.00    -0.218 C  
HETATM   15  C   UNL     1      -9.973  18.282  66.360  1.00  0.00    -0.385 C  
HETATM   16  C   UNL     1      -7.124  20.160  66.989  1.00  0.00    -0.238 C  
HETATM   17  O   UNL     1      -7.012  21.380  66.963  1.00  0.00    -0.508 OA 
HETATM   18  C   UNL     1      -8.592  17.657  66.712  1.00  0.00    -0.276 C  
HETATM   19  C   UNL     1      -6.641  19.261  65.901  1.00  0.00    -0.260 C  
HETATM   20  C   UNL     1      -7.591  18.094  65.589  1.00  0.00     0.081 C  
ENDROOT
BRANCH  14  21
HETATM   21  O   UNL     1     -11.885  11.491  67.959  1.00  0.00    -0.545 OA 
BRANCH  21  22
HETATM   22  C   UNL     1     -12.230  11.091  69.240  1.00  0.00    -0.210 C  
HETATM   23  O   UNL     1     -12.640   9.967  69.523  1.00  0.00     0.261 OA 
BRANCH  22  24
HETATM   24  C   UNL     1     -11.827  12.062  70.329  1.00  0.00    -0.356 C  
BRANCH  24  25
HETATM   25  C   UNL     1     -12.998  12.515  71.173  1.00  0.00    -0.237 C  
BRANCH  25  26
HETATM   26  C   UNL     1     -13.116  14.035  71.303  1.00  0.00    -0.399 C  
HETATM   27  C   UNL     1     -13.861  14.396  72.585  1.00  0.00    -0.480 C  
HETATM   28  C   UNL     1     -13.498  15.850  72.805  1.00  0.00    -0.594 C  
HETATM   29  C   UNL     1     -12.027  15.929  72.415  1.00  0.00    -0.620 C  
HETATM   30  C   UNL     1     -11.784  14.787  71.426  1.00  0.00    -0.352 C  
ENDBRANCH  25  26
ENDBRANCH  24  25
ENDBRANCH  22  24
ENDBRANCH  21  22
ENDBRANCH  14  21
TORSDOF 5
ENDMDL
MODEL       15
REMARK 921   NORMALIZED FREE ENERGY PREDICTED BY IDOCK:   -6.41 KCAL/MOL
REMARK 922        TOTAL FREE ENERGY PREDICTED BY IDOCK:   -9.63 KCAL/MOL
REMARK 923 INTER-LIGAND FREE ENERGY PREDICTED BY IDOCK:   -8.17 KCAL/MOL
REMARK 924 INTRA-LIGAND FREE ENERGY PREDICTED BY IDOCK:   -1.46 KCAL/MOL
REMARK 927      BINDING AFFINITY PREDICTED BY RF-SCORE:    0.00 PKD
ROOT
HETATM    1  C   UNL     1      -7.751   8.864  68.511  1.00  0.00    -0.098 C  
HETATM    2  C   UNL     1      -9.117   8.203  68.322  1.00  0.00    -0.135 C  
HETATM    3  C   UNL     1     -10.162   8.963  69.239  1.00  0.00    -0.214 C  
HETATM    4  C   UNL     1     -10.567  10.389  68.713  1.00  0.00    -0.232 C  
HETATM    5  C   UNL     1     -10.787  10.580  67.166  1.00  0.00    -0.319 C  
HETATM    6  C   UNL     1      -9.816   9.663  66.431  1.00  0.00    -0.309 C  
HETATM    7  C   UNL     1      -9.781   9.800  64.913  1.00  0.00    -0.262 C  
HETATM    8  C   UNL     1      -9.785   8.225  66.923  1.00  0.00    -0.291 C  
HETATM    9  C   UNL     1      -9.315  11.211  64.584  1.00  0.00    -0.200 C  
HETATM   10  C   UNL     1     -10.980   7.213  67.171  1.00  0.00    -0.342 C  
HETATM   11  C   UNL     1     -10.268  12.224  65.158  1.00  0.00    -0.305 C  
HETATM   12  C   UNL     1     -10.420   6.206  68.257  1.00  0.00    -0.284 C  
HETATM   13  C   UNL     1     -10.586  13.279  64.382  1.00  0.00    -0.438 C  
HETATM   14  C   UNL     1      -8.972   6.650  68.322  1.00  0.00    -0.122 C  
HETATM   15  C   UNL     1      -9.535  12.863  67.399  1.00  0.00    -0.198 C  
HETATM   16  C   UNL     1     -11.493  14.304  64.923  1.00  0.00    -0.378 C  
HETATM   17  O   UNL     1     -11.442  15.454  64.504  1.00  0.00    -0.394 OA 
HETATM   18  C   UNL     1     -10.666  12.103  66.648  1.00  0.00    -0.281 C  
HETATM   19  C   UNL     1     -12.539  13.813  65.867  1.00  0.00    -0.494 C  
HETATM   20  C   UNL     1     -12.005  12.859  66.947  1.00  0.00    -0.402 C  
ENDROOT
BRANCH  14  21
HETATM   21  O   UNL     1      -8.020   6.012  69.160  1.00  0.00    -0.100 OA 
BRANCH  21  22
HETATM   22  C   UNL     1      -8.627   5.574  70.326  1.00  0.00    -0.126 C  
HETATM   23  O   UNL     1      -8.957   4.408  70.534  1.00  0.00    -0.094 OA 
BRANCH  22  24
HETATM   24  C   UNL     1      -8.632   6.588  71.450  1.00  0.00    -0.126 C  
BRANCH  24  25
HETATM   25  C   UNL     1      -9.374   6.101  72.676  1.00  0.00    -0.146 C  
BRANCH  25  26
HETATM   26  C   UNL     1     -10.808   6.622  72.778  1.00  0.00    -0.283 C  
HETATM   27  C   UNL     1     -10.828   8.140  72.623  1.00  0.00    -0.429 C  
HETATM   28  C   UNL     1     -12.273   8.440  72.282  1.00  0.00    -0.449 C  
HETATM   29  C   UNL     1     -12.678   7.307  71.347  1.00  0.00    -0.427 C  
HETATM   30  C   UNL     1     -11.764   6.127  71.683  1.00  0.00    -0.290 C  
ENDBRANCH  25  26
ENDBRANCH  24  25
ENDBRANCH  22  24
ENDBRANCH  21  22
ENDBRANCH  14  21
TORSDOF 5
ENDMDL
MODEL       16
REMARK 921   NORMALIZED FREE ENERGY PREDICTED BY IDOCK:   -6.39 KCAL/MOL
REMARK 922        TOTAL FREE ENERGY PREDICTED BY IDOCK:   -9.60 KCAL/MOL
REMARK 923 INTER-LIGAND FREE ENERGY PREDICTED BY IDOCK:   -7.67 KCAL/MOL
REMARK 924 INTRA-LIGAND FREE ENERGY PREDICTED BY IDOCK:   -1.93 KCAL/MOL
REMARK 927      BINDING AFFINITY PREDICTED BY RF-SCORE:    0.00 PKD
ROOT
HETATM    1  C   UNL     1     -10.519   8.480  66.723  1.00  0.00    -0.308 C  
HETATM    2  C   UNL     1      -9.226   8.774  67.484  1.00  0.00    -0.154 C  
HETATM    3  C   UNL     1      -8.575  10.079  66.864  1.00  0.00    -0.128 C  
HETATM    4  C   UNL     1      -9.321  11.413  67.236  1.00  0.00    -0.173 C  
HETATM    5  C   UNL     1      -9.863  11.581  68.704  1.00  0.00    -0.184 C  
HETATM    6  C   UNL     1     -10.300  10.211  69.210  1.00  0.00    -0.242 C  
HETATM    7  C   UNL     1     -10.981  10.183  70.573  1.00  0.00    -0.380 C  
HETATM    8  C   UNL     1      -9.292   9.092  69.000  1.00  0.00    -0.151 C  
HETATM    9  C   UNL     1     -12.267  10.991  70.466  1.00  0.00    -0.472 C  
HETATM   10  C   UNL     1      -7.749   9.037  69.362  1.00  0.00    -0.083 C  
HETATM   11  C   UNL     1     -11.961  12.414  70.086  1.00  0.00    -0.376 C  
HETATM   12  C   UNL     1      -7.147   7.982  68.346  1.00  0.00    -0.084 C  
HETATM   13  C   UNL     1     -12.646  13.383  70.725  1.00  0.00    -0.369 C  
HETATM   14  C   UNL     1      -8.419   7.458  67.710  1.00  0.00    -0.118 C  
HETATM   15  C   UNL     1     -12.009  12.643  67.654  1.00  0.00    -0.309 C  
HETATM   16  C   UNL     1     -12.393  14.786  70.356  1.00  0.00    -0.344 C  
HETATM   17  O   UNL     1     -13.263  15.632  70.521  1.00  0.00    -0.434 OA 
HETATM   18  C   UNL     1     -11.040  12.673  68.871  1.00  0.00    -0.307 C  
HETATM   19  C   UNL     1     -10.998  15.104  69.933  1.00  0.00    -0.291 C  
HETATM   20  C   UNL     1     -10.411  14.107  68.922  1.00  0.00    -0.229 C  
ENDROOT
BRANCH  14  21
HETATM   21  O   UNL     1      -8.408   6.438  66.721  1.00  0.00    -0.109 OA 
BRANCH  21  22
HETATM   22  C   UNL     1      -8.501   5.192  67.320  1.00  0.00    -0.106 C  
HETATM   23  O   UNL     1      -7.549   4.432  67.480  1.00  0.00    -0.076 OA 
BRANCH  22  24
HETATM   24  C   UNL     1      -9.825   4.923  68.004  1.00  0.00    -0.197 C  
BRANCH  24  25
HETATM   25  C   UNL     1      -9.669   4.576  69.469  1.00  0.00    -0.282 C  
BRANCH  25  26
HETATM   26  C   UNL     1     -10.147   5.674  70.419  1.00  0.00    -0.284 C  
HETATM   27  C   UNL     1     -11.473   6.252  69.929  1.00  0.00    -0.459 C  
HETATM   28  C   UNL     1     -12.028   6.947  71.155  1.00  0.00    -0.413 C  
HETATM   29  C   UNL     1     -11.679   6.009  72.304  1.00  0.00    -0.338 C  
HETATM   30  C   UNL     1     -10.453   5.213  71.851  1.00  0.00    -0.272 C  
ENDBRANCH  25  26
ENDBRANCH  24  25
ENDBRANCH  22  24
ENDBRANCH  21  22
ENDBRANCH  14  21
TORSDOF 5
ENDMDL
MODEL       17
REMARK 921   NORMALIZED FREE ENERGY PREDICTED BY IDOCK:   -6.39 KCAL/MOL
REMARK 922        TOTAL FREE ENERGY PREDICTED BY IDOCK:   -9.59 KCAL/MOL
REMARK 923 INTER-LIGAND FREE ENERGY PREDICTED BY IDOCK:   -8.15 KCAL/MOL
REMARK 924 INTRA-LIGAND FREE ENERGY PREDICTED BY IDOCK:   -1.44 KCAL/MOL
REMARK 927      BINDING AFFINITY PREDICTED BY RF-SCORE:    0.00 PKD
ROOT
HETATM    1  C   UNL     1      -8.181  11.656  68.592  1.00  0.00    -0.110 C  
HETATM    2  C   UNL     1      -9.610  11.412  68.103  1.00  0.00    -0.190 C  
HETATM    3  C   UNL     1      -9.575  10.225  67.053  1.00  0.00    -0.205 C  
HETATM    4  C   UNL     1      -9.348   8.805  67.691  1.00  0.00    -0.157 C  
HETATM    5  C   UNL     1     -10.080   8.468  69.043  1.00  0.00    -0.207 C  
HETATM    6  C   UNL     1     -10.173   9.747  69.866  1.00  0.00    -0.291 C  
HETATM    7  C   UNL     1     -10.735   9.601  71.275  1.00  0.00    -0.317 C  
HETATM    8  C   UNL     1     -10.694  10.963  69.116  1.00  0.00    -0.265 C  
HETATM    9  C   UNL     1      -9.794   8.698  72.059  1.00  0.00    -0.396 C  
HETATM   10  C   UNL     1     -11.992  11.120  68.219  1.00  0.00    -0.173 C  
HETATM   11  C   UNL     1      -9.707   7.343  71.410  1.00  0.00    -0.175 C  
HETATM   12  C   UNL     1     -11.642  12.305  67.228  1.00  0.00    -0.427 C  
HETATM   13  C   UNL     1      -9.721   6.268  72.223  1.00  0.00    -0.165 C  
HETATM   14  C   UNL     1     -10.323  12.769  67.812  1.00  0.00    -0.221 C  
HETATM   15  C   UNL     1      -7.861   7.317  69.810  1.00  0.00    -0.117 C  
HETATM   16  C   UNL     1      -9.608   4.929  71.623  1.00  0.00    -0.159 C  
HETATM   17  O   UNL     1      -9.147   4.000  72.274  1.00  0.00    -0.111 OA 
HETATM   18  C   UNL     1      -9.414   7.268  69.893  1.00  0.00    -0.157 C  
HETATM   19  C   UNL     1     -10.221   4.769  70.272  1.00  0.00    -0.262 C  
HETATM   20  C   UNL     1      -9.864   5.895  69.289  1.00  0.00    -0.205 C  
ENDROOT
BRANCH  14  21
HETATM   21  O   UNL     1      -9.598  13.865  67.274  1.00  0.00    -0.230 OA 
BRANCH  21  22
HETATM   22  C   UNL     1     -10.028  15.051  67.850  1.00  0.00    -0.222 C  
HETATM   23  O   UNL     1     -10.187  16.099  67.229  1.00  0.00    -0.265 OA 
BRANCH  22  24
HETATM   24  C   UNL     1     -10.541  14.909  69.267  1.00  0.00    -0.248 C  
BRANCH  24  25
HETATM   25  C   UNL     1     -11.726  15.806  69.554  1.00  0.00    -0.369 C  
BRANCH  25  26
HETATM   26  C   UNL     1     -12.754  15.187  70.502  1.00  0.00    -0.416 C  
HETATM   27  C   UNL     1     -12.424  13.717  70.748  1.00  0.00    -0.441 C  
HETATM   28  C   UNL     1     -13.200  13.388  72.006  1.00  0.00    -0.531 C  
HETATM   29  C   UNL     1     -13.050  14.633  72.872  1.00  0.00    -0.609 C  
HETATM   30  C   UNL     1     -12.796  15.796  71.910  1.00  0.00    -0.514 C  
ENDBRANCH  25  26
ENDBRANCH  24  25
ENDBRANCH  22  24
ENDBRANCH  21  22
ENDBRANCH  14  21
TORSDOF 5
ENDMDL
MODEL       18
REMARK 921   NORMALIZED FREE ENERGY PREDICTED BY IDOCK:   -6.36 KCAL/MOL
REMARK 922        TOTAL FREE ENERGY PREDICTED BY IDOCK:   -9.56 KCAL/MOL
REMARK 923 INTER-LIGAND FREE ENERGY PREDICTED BY IDOCK:   -8.78 KCAL/MOL
REMARK 924 INTRA-LIGAND FREE ENERGY PREDICTED BY IDOCK:   -0.78 KCAL/MOL
REMARK 927      BINDING AFFINITY PREDICTED BY RF-SCORE:    0.00 PKD
ROOT
HETATM    1  C   UNL     1     -11.698  13.839  69.647  1.00  0.00    -0.379 C  
HETATM    2  C   UNL     1     -11.231  13.384  68.263  1.00  0.00    -0.310 C  
HETATM    3  C   UNL     1     -11.888  14.340  67.183  1.00  0.00    -0.454 C  
HETATM    4  C   UNL     1     -11.261  15.782  67.129  1.00  0.00    -0.110 C  
HETATM    5  C   UNL     1      -9.700  15.923  67.272  1.00  0.00    -0.224 C  
HETATM    6  C   UNL     1      -9.207  14.833  68.218  1.00  0.00    -0.187 C  
HETATM    7  C   UNL     1      -7.731  14.884  68.592  1.00  0.00    -0.127 C  
HETATM    8  C   UNL     1      -9.721  13.435  67.915  1.00  0.00    -0.226 C  
HETATM    9  C   UNL     1      -7.484  16.189  69.335  1.00  0.00    -0.181 C  
HETATM   10  C   UNL     1      -9.724  12.630  66.549  1.00  0.00    -0.256 C  
HETATM   11  C   UNL     1      -7.820  17.363  68.456  1.00  0.00    -0.268 C  
HETATM   12  C   UNL     1     -10.924  11.607  66.702  1.00  0.00    -0.349 C  
HETATM   13  C   UNL     1      -6.974  18.412  68.480  1.00  0.00    -0.273 C  
HETATM   14  C   UNL     1     -11.291  11.829  68.155  1.00  0.00    -0.284 C  
HETATM   15  C   UNL     1     -10.155  18.000  68.795  1.00  0.00    -0.388 C  
HETATM   16  C   UNL     1      -7.289  19.590  67.655  1.00  0.00    -0.242 C  
HETATM   17  O   UNL     1      -6.870  20.695  67.975  1.00  0.00    -0.298 OA 
HETATM   18  C   UNL     1      -9.191  17.382  67.741  1.00  0.00    -0.248 C  
HETATM   19  C   UNL     1      -7.994  19.312  66.369  1.00  0.00    -0.310 C  
HETATM   20  C   UNL     1      -9.181  18.346  66.506  1.00  0.00    -0.300 C  
ENDROOT
BRANCH  14  21
HETATM   21  O   UNL     1     -12.326  11.099  68.797  1.00  0.00    -0.539 OA 
BRANCH  21  22
HETATM   22  C   UNL     1     -11.891  10.637  70.029  1.00  0.00    -0.322 C  
HETATM   23  O   UNL     1     -12.608  10.553  71.025  1.00  0.00    -0.333 OA 
BRANCH  22  24
HETATM   24  C   UNL     1     -10.522   9.994  70.009  1.00  0.00    -0.337 C  
BRANCH  24  25
HETATM   25  C   UNL     1     -10.555   8.531  70.396  1.00  0.00    -0.242 C  
BRANCH  25  26
HETATM   26  C   UNL     1     -10.158   7.582  69.264  1.00  0.00    -0.188 C  
HETATM   27  C   UNL     1     -11.025   6.326  69.304  1.00  0.00    -0.435 C  
HETATM   28  C   UNL     1     -10.854   5.737  67.918  1.00  0.00    -0.257 C  
HETATM   29  C   UNL     1     -10.845   6.950  66.997  1.00  0.00    -0.436 C  
HETATM   30  C   UNL     1     -10.368   8.131  67.846  1.00  0.00    -0.280 C  
ENDBRANCH  25  26
ENDBRANCH  24  25
ENDBRANCH  22  24
ENDBRANCH  21  22
ENDBRANCH  14  21
TORSDOF 5
ENDMDL
MODEL       19
REMARK 921   NORMALIZED FREE ENERGY PREDICTED BY IDOCK:   -6.35 KCAL/MOL
REMARK 922        TOTAL FREE ENERGY PREDICTED BY IDOCK:   -9.54 KCAL/MOL
REMARK 923 INTER-LIGAND FREE ENERGY PREDICTED BY IDOCK:   -8.12 KCAL/MOL
REMARK 924 INTRA-LIGAND FREE ENERGY PREDICTED BY IDOCK:   -1.43 KCAL/MOL
REMARK 927      BINDING AFFINITY PREDICTED BY RF-SCORE:    0.00 PKD
ROOT
HETATM    1  C   UNL     1     -10.528   9.319  66.599  1.00  0.00    -0.237 C  
HETATM    2  C   UNL     1      -9.507   9.423  67.733  1.00  0.00    -0.152 C  
HETATM    3  C   UNL     1      -8.187  10.077  67.149  1.00  0.00    -0.117 C  
HETATM    4  C   UNL     1      -8.304  11.619  66.857  1.00  0.00    -0.169 C  
HETATM    5  C   UNL     1      -9.084  12.517  67.888  1.00  0.00    -0.199 C  
HETATM    6  C   UNL     1     -10.222  11.690  68.475  1.00  0.00    -0.216 C  
HETATM    7  C   UNL     1     -11.181  12.427  69.402  1.00  0.00    -0.225 C  
HETATM    8  C   UNL     1      -9.829  10.306  68.967  1.00  0.00    -0.215 C  
HETATM    9  C   UNL     1     -11.866  13.517  68.590  1.00  0.00    -0.404 C  
HETATM   10  C   UNL     1      -8.649   9.871  69.933  1.00  0.00    -0.216 C  
HETATM   11  C   UNL     1     -10.849  14.484  68.047  1.00  0.00    -0.249 C  
HETATM   12  C   UNL     1      -8.350   8.368  69.533  1.00  0.00    -0.120 C  
HETATM   13  C   UNL     1     -11.155  15.795  68.101  1.00  0.00    -0.341 C  
HETATM   14  C   UNL     1      -9.493   8.108  68.572  1.00  0.00    -0.143 C  
HETATM   15  C   UNL     1     -10.123  13.753  65.831  1.00  0.00    -0.325 C  
HETATM   16  C   UNL     1     -10.194  16.766  67.551  1.00  0.00    -0.289 C  
HETATM   17  O   UNL     1     -10.584  17.852  67.140  1.00  0.00    -0.360 OA 
HETATM   18  C   UNL     1      -9.621  13.919  67.295  1.00  0.00    -0.243 C  
HETATM   19  C   UNL     1      -8.754  16.397  67.678  1.00  0.00    -0.188 C  
HETATM   20  C   UNL     1      -8.443  14.951  67.262  1.00  0.00    -0.229 C  
ENDROOT
BRANCH  14  21
HETATM   21  O   UNL     1      -9.685   6.848  67.945  1.00  0.00    -0.122 OA 
BRANCH  21  22
HETATM   22  C   UNL     1     -10.316   5.973  68.815  1.00  0.00    -0.214 C  
HETATM   23  O   UNL     1      -9.880   4.862  69.110  1.00  0.00    -0.170 OA 
BRANCH  22  24
HETATM   24  C   UNL     1     -11.466   6.580  69.589  1.00  0.00    -0.417 C  
BRANCH  24  25
HETATM   25  C   UNL     1     -11.295   6.454  71.088  1.00  0.00    -0.376 C  
BRANCH  25  26
HETATM   26  C   UNL     1     -12.270   7.312  71.896  1.00  0.00    -0.348 C  
HETATM   27  C   UNL     1     -12.030   8.792  71.606  1.00  0.00    -0.399 C  
HETATM   28  C   UNL     1     -13.309   9.454  72.077  1.00  0.00    -0.525 C  
HETATM   29  C   UNL     1     -14.408   8.489  71.649  1.00  0.00    -0.497 C  
HETATM   30  C   UNL     1     -13.754   7.107  71.562  1.00  0.00    -0.413 C  
ENDBRANCH  25  26
ENDBRANCH  24  25
ENDBRANCH  22  24
ENDBRANCH  21  22
ENDBRANCH  14  21
TORSDOF 5
ENDMDL
MODEL       20
REMARK 921   NORMALIZED FREE ENERGY PREDICTED BY IDOCK:   -6.30 KCAL/MOL
REMARK 922        TOTAL FREE ENERGY PREDICTED BY IDOCK:   -9.49 KCAL/MOL
REMARK 923 INTER-LIGAND FREE ENERGY PREDICTED BY IDOCK:   -8.64 KCAL/MOL
REMARK 924 INTRA-LIGAND FREE ENERGY PREDICTED BY IDOCK:   -0.85 KCAL/MOL
REMARK 927      BINDING AFFINITY PREDICTED BY RF-SCORE:    0.00 PKD
ROOT
HETATM    1  C   UNL     1     -11.682  13.844  69.654  1.00  0.00    -0.370 C  
HETATM    2  C   UNL     1     -11.225  13.384  68.269  1.00  0.00    -0.310 C  
HETATM    3  C   UNL     1     -11.880  14.344  67.191  1.00  0.00    -0.437 C  
HETATM    4  C   UNL     1     -11.243  15.781  67.133  1.00  0.00    -0.110 C  
HETATM    5  C   UNL     1      -9.681  15.912  67.270  1.00  0.00    -0.224 C  
HETATM    6  C   UNL     1      -9.191  14.820  68.214  1.00  0.00    -0.187 C  
HETATM    7  C   UNL     1      -7.713  14.861  68.582  1.00  0.00    -0.127 C  
HETATM    8  C   UNL     1      -9.716  13.424  67.915  1.00  0.00    -0.226 C  
HETATM    9  C   UNL     1      -7.455  16.165  69.322  1.00  0.00    -0.222 C  
HETATM   10  C   UNL     1      -9.730  12.618  66.549  1.00  0.00    -0.256 C  
HETATM   11  C   UNL     1      -7.787  17.341  68.445  1.00  0.00    -0.254 C  
HETATM   12  C   UNL     1     -10.936  11.604  66.708  1.00  0.00    -0.341 C  
HETATM   13  C   UNL     1      -6.934  18.384  68.464  1.00  0.00    -0.273 C  
HETATM   14  C   UNL     1     -11.295  11.830  68.162  1.00  0.00    -0.284 C  
HETATM   15  C   UNL     1     -10.116  17.993  68.793  1.00  0.00    -0.388 C  
HETATM   16  C   UNL     1      -7.245  19.563  67.639  1.00  0.00    -0.239 C  
HETATM   17  O   UNL     1      -6.817  20.666  67.957  1.00  0.00    -0.298 OA 
HETATM   18  C   UNL     1      -9.161  17.368  67.735  1.00  0.00    -0.243 C  
HETATM   19  C   UNL     1      -7.957  19.290  66.357  1.00  0.00    -0.310 C  
HETATM   20  C   UNL     1      -9.150  18.332  66.499  1.00  0.00    -0.291 C  
ENDROOT
BRANCH  14  21
HETATM   21  O   UNL     1     -12.333  11.107  68.809  1.00  0.00    -0.539 OA 
BRANCH  21  22
HETATM   22  C   UNL     1     -11.873  10.579  70.006  1.00  0.00    -0.308 C  
HETATM   23  O   UNL     1     -12.600  10.279  70.950  1.00  0.00    -0.322 OA 
BRANCH  22  24
HETATM   24  C   UNL     1     -10.421  10.152  69.985  1.00  0.00    -0.325 C  
BRANCH  24  25
HETATM   25  C   UNL     1     -10.247   8.677  69.693  1.00  0.00    -0.208 C  
BRANCH  25  26
HETATM   26  C   UNL     1      -9.889   7.841  70.922  1.00  0.00    -0.182 C  
HETATM   27  C   UNL     1      -9.198   8.714  71.967  1.00  0.00    -0.338 C  
HETATM   28  C   UNL     1      -9.331   7.907  73.242  1.00  0.00    -0.351 C  
HETATM   29  C   UNL     1     -10.732   7.314  73.164  1.00  0.00    -0.411 C  
HETATM   30  C   UNL     1     -11.083   7.239  71.675  1.00  0.00    -0.262 C  
ENDBRANCH  25  26
ENDBRANCH  24  25
ENDBRANCH  22  24
ENDBRANCH  21  22
ENDBRANCH  14  21
TORSDOF 5
ENDMDL
MODEL       21
REMARK 921   NORMALIZED FREE ENERGY PREDICTED BY IDOCK:   -6.27 KCAL/MOL
REMARK 922        TOTAL FREE ENERGY PREDICTED BY IDOCK:   -9.44 KCAL/MOL
REMARK 923 INTER-LIGAND FREE ENERGY PREDICTED BY IDOCK:   -9.12 KCAL/MOL
REMARK 924 INTRA-LIGAND FREE ENERGY PREDICTED BY IDOCK:   -0.32 KCAL/MOL
REMARK 927      BINDING AFFINITY PREDICTED BY RF-SCORE:    0.00 PKD
ROOT
HETATM    1  C   UNL     1     -10.181  13.925  66.610  1.00  0.00    -0.276 C  
HETATM    2  C   UNL     1     -10.507  14.149  68.087  1.00  0.00    -0.244 C  
HETATM    3  C   UNL     1      -9.162  14.013  68.914  1.00  0.00     0.039 C  
HETATM    4  C   UNL     1      -8.177  15.228  68.751  1.00  0.00    -0.169 C  
HETATM    5  C   UNL     1      -8.783  16.680  68.713  1.00  0.00    -0.260 C  
HETATM    6  C   UNL     1     -10.144  16.611  68.030  1.00  0.00    -0.262 C  
HETATM    7  C   UNL     1     -10.837  17.944  67.775  1.00  0.00    -0.237 C  
HETATM    8  C   UNL     1     -11.070  15.520  68.542  1.00  0.00    -0.307 C  
HETATM    9  C   UNL     1      -9.961  18.750  66.827  1.00  0.00    -0.394 C  
HETATM   10  C   UNL     1     -11.493  15.166  70.029  1.00  0.00    -0.315 C  
HETATM   11  C   UNL     1      -8.611  18.996  67.442  1.00  0.00    -0.301 C  
HETATM   12  C   UNL     1     -11.877  13.630  69.970  1.00  0.00    -0.378 C  
HETATM   13  C   UNL     1      -8.081  20.226  67.295  1.00  0.00    -0.381 C  
HETATM   14  C   UNL     1     -11.813  13.389  68.475  1.00  0.00    -0.366 C  
HETATM   15  C   UNL     1      -7.078  17.204  66.801  1.00  0.00    -0.259 C  
HETATM   16  C   UNL     1      -6.748  20.492  67.859  1.00  0.00    -0.308 C  
HETATM   17  O   UNL     1      -6.038  21.365  67.375  1.00  0.00    -0.373 OA 
HETATM   18  C   UNL     1      -7.835  17.792  68.027  1.00  0.00    -0.241 C  
HETATM   19  C   UNL     1      -6.414  19.753  69.111  1.00  0.00    -0.362 C  
HETATM   20  C   UNL     1      -6.750  18.254  69.058  1.00  0.00    -0.269 C  
ENDROOT
BRANCH  14  21
HETATM   21  O   UNL     1     -12.114  12.127  67.897  1.00  0.00    -0.502 OA 
BRANCH  21  22
HETATM   22  C   UNL     1     -11.433  11.121  68.564  1.00  0.00    -0.302 C  
HETATM   23  O   UNL     1     -10.241  10.870  68.398  1.00  0.00    -0.165 OA 
BRANCH  22  24
HETATM   24  C   UNL     1     -12.198  10.503  69.714  1.00  0.00    -0.252 C  
BRANCH  24  25
HETATM   25  C   UNL     1     -11.459   9.349  70.357  1.00  0.00    -0.272 C  
BRANCH  25  26
HETATM   26  C   UNL     1     -12.237   8.668  71.484  1.00  0.00    -0.368 C  
HETATM   27  C   UNL     1     -13.491   9.471  71.816  1.00  0.00    -0.480 C  
HETATM   28  C   UNL     1     -14.355   8.479  72.568  1.00  0.00    -0.325 C  
HETATM   29  C   UNL     1     -14.144   7.165  71.828  1.00  0.00    -0.440 C  
HETATM   30  C   UNL     1     -12.772   7.266  71.157  1.00  0.00    -0.349 C  
ENDBRANCH  25  26
ENDBRANCH  24  25
ENDBRANCH  22  24
ENDBRANCH  21  22
ENDBRANCH  14  21
TORSDOF 5
ENDMDL
MODEL       22
REMARK 921   NORMALIZED FREE ENERGY PREDICTED BY IDOCK:   -6.17 KCAL/MOL
REMARK 922        TOTAL FREE ENERGY PREDICTED BY IDOCK:   -9.31 KCAL/MOL
REMARK 923 INTER-LIGAND FREE ENERGY PREDICTED BY IDOCK:   -8.39 KCAL/MOL
REMARK 924 INTRA-LIGAND FREE ENERGY PREDICTED BY IDOCK:   -0.93 KCAL/MOL
REMARK 927      BINDING AFFINITY PREDICTED BY RF-SCORE:    0.00 PKD
ROOT
HETATM    1  C   UNL     1     -11.564  12.550  66.309  1.00  0.00    -0.449 C  
HETATM    2  C   UNL     1     -10.314  12.930  67.103  1.00  0.00    -0.239 C  
HETATM    3  C   UNL     1     -10.429  12.279  68.544  1.00  0.00    -0.248 C  
HETATM    4  C   UNL     1     -10.203  10.723  68.569  1.00  0.00    -0.192 C  
HETATM    5  C   UNL     1      -9.069  10.118  67.661  1.00  0.00    -0.144 C  
HETATM    6  C   UNL     1      -8.980  10.953  66.389  1.00  0.00    -0.186 C  
HETATM    7  C   UNL     1      -8.025  10.445  65.316  1.00  0.00    -0.143 C  
HETATM    8  C   UNL     1      -8.924  12.457  66.606  1.00  0.00    -0.184 C  
HETATM    9  C   UNL     1      -8.524   9.083  64.857  1.00  0.00    -0.195 C  
HETATM   10  C   UNL     1      -7.984  13.309  67.557  1.00  0.00    -0.186 C  
HETATM   11  C   UNL     1      -8.544   8.116  66.010  1.00  0.00    -0.165 C  
HETATM   12  C   UNL     1      -8.811  14.630  67.842  1.00  0.00    -0.170 C  
HETATM   13  C   UNL     1      -8.104   6.865  65.772  1.00  0.00    -0.123 C  
HETATM   14  C   UNL     1      -9.972  14.437  66.887  1.00  0.00    -0.261 C  
HETATM   15  C   UNL     1     -10.731   8.179  67.097  1.00  0.00    -0.264 C  
HETATM   16  C   UNL     1      -8.137   5.886  66.871  1.00  0.00    -0.102 C  
HETATM   17  O   UNL     1      -8.217   4.689  66.626  1.00  0.00    -0.106 OA 
HETATM   18  C   UNL     1      -9.236   8.548  67.324  1.00  0.00    -0.168 C  
HETATM   19  C   UNL     1      -7.914   6.438  68.239  1.00  0.00    -0.106 C  
HETATM   20  C   UNL     1      -8.734   7.701  68.542  1.00  0.00    -0.128 C  
ENDROOT
BRANCH  14  21
HETATM   21  O   UNL     1     -11.007  15.400  66.746  1.00  0.00    -0.314 OA 
BRANCH  21  22
HETATM   22  C   UNL     1     -11.032  16.239  67.849  1.00  0.00    -0.310 C  
HETATM   23  O   UNL     1     -10.700  17.421  67.822  1.00  0.00    -0.373 OA 
BRANCH  22  24
HETATM   24  C   UNL     1     -11.745  15.666  69.055  1.00  0.00    -0.408 C  
BRANCH  24  25
HETATM   25  C   UNL     1     -11.105  16.076  70.364  1.00  0.00    -0.376 C  
BRANCH  25  26
HETATM   26  C   UNL     1     -11.537  15.223  71.558  1.00  0.00    -0.456 C  
HETATM   27  C   UNL     1     -12.114  16.112  72.656  1.00  0.00    -0.652 C  
HETATM   28  C   UNL     1     -12.895  15.143  73.520  1.00  0.00    -0.657 C  
HETATM   29  C   UNL     1     -13.544  14.194  72.520  1.00  0.00    -0.644 C  
HETATM   30  C   UNL     1     -12.659  14.216  71.271  1.00  0.00    -0.438 C  
ENDBRANCH  25  26
ENDBRANCH  24  25
ENDBRANCH  22  24
ENDBRANCH  21  22
ENDBRANCH  14  21
TORSDOF 5
ENDMDL
MODEL       23
REMARK 921   NORMALIZED FREE ENERGY PREDICTED BY IDOCK:   -6.12 KCAL/MOL
REMARK 922        TOTAL FREE ENERGY PREDICTED BY IDOCK:   -9.25 KCAL/MOL
REMARK 923 INTER-LIGAND FREE ENERGY PREDICTED BY IDOCK:   -8.00 KCAL/MOL
REMARK 924 INTRA-LIGAND FREE ENERGY PREDICTED BY IDOCK:   -1.24 KCAL/MOL
REMARK 927      BINDING AFFINITY PREDICTED BY RF-SCORE:    0.00 PKD
ROOT
HETATM    1  C   UNL     1      -9.462   9.943  70.135  1.00  0.00    -0.214 C  
HETATM    2  C   UNL     1      -9.270   9.225  68.798  1.00  0.00    -0.136 C  
HETATM    3  C   UNL     1     -10.673   9.171  68.062  1.00  0.00    -0.205 C  
HETATM    4  C   UNL     1     -11.147  10.550  67.471  1.00  0.00    -0.358 C  
HETATM    5  C   UNL     1     -10.075  11.474  66.781  1.00  0.00    -0.245 C  
HETATM    6  C   UNL     1      -8.748  11.288  67.506  1.00  0.00    -0.138 C  
HETATM    7  C   UNL     1      -7.609  12.202  67.069  1.00  0.00    -0.093 C  
HETATM    8  C   UNL     1      -8.330   9.844  67.732  1.00  0.00    -0.114 C  
HETATM    9  C   UNL     1      -8.022  13.636  67.367  1.00  0.00    -0.177 C  
HETATM   10  C   UNL     1      -8.249   8.640  66.703  1.00  0.00    -0.107 C  
HETATM   11  C   UNL     1      -9.271  13.990  66.606  1.00  0.00    -0.262 C  
HETATM   12  C   UNL     1      -8.417   7.346  67.601  1.00  0.00    -0.120 C  
HETATM   13  C   UNL     1      -9.318  15.208  66.032  1.00  0.00    -0.326 C  
HETATM   14  C   UNL     1      -8.370   7.965  68.983  1.00  0.00    -0.130 C  
HETATM   15  C   UNL     1     -11.234  13.492  67.973  1.00  0.00    -0.300 C  
HETATM   16  C   UNL     1     -10.537  15.598  65.305  1.00  0.00    -0.426 C  
HETATM   17  O   UNL     1     -10.833  16.781  65.189  1.00  0.00    -0.584 OA 
HETATM   18  C   UNL     1     -10.484  13.033  66.689  1.00  0.00    -0.271 C  
HETATM   19  C   UNL     1     -11.263  14.492  64.615  1.00  0.00    -0.359 C  
HETATM   20  C   UNL     1     -11.463  13.241  65.485  1.00  0.00    -0.335 C  
ENDROOT
BRANCH  14  21
HETATM   21  O   UNL     1      -8.453   7.185  70.167  1.00  0.00    -0.135 OA 
BRANCH  21  22
HETATM   22  C   UNL     1      -8.995   5.941  69.882  1.00  0.00    -0.139 C  
HETATM   23  O   UNL     1      -8.337   4.907  69.797  1.00  0.00    -0.075 OA 
BRANCH  22  24
HETATM   24  C   UNL     1     -10.507   5.890  69.931  1.00  0.00    -0.337 C  
BRANCH  24  25
HETATM   25  C   UNL     1     -11.067   6.367  71.254  1.00  0.00    -0.334 C  
BRANCH  25  26
HETATM   26  C   UNL     1     -12.105   7.482  71.120  1.00  0.00    -0.335 C  
HETATM   27  C   UNL     1     -13.505   6.928  71.371  1.00  0.00    -0.249 C  
HETATM   28  C   UNL     1     -14.326   8.167  71.664  1.00  0.00    -0.570 C  
HETATM   29  C   UNL     1     -13.400   9.037  72.505  1.00  0.00    -0.480 C  
HETATM   30  C   UNL     1     -11.973   8.625  72.137  1.00  0.00    -0.449 C  
ENDBRANCH  25  26
ENDBRANCH  24  25
ENDBRANCH  22  24
ENDBRANCH  21  22
ENDBRANCH  14  21
TORSDOF 5
ENDMDL
MODEL       24
REMARK 921   NORMALIZED FREE ENERGY PREDICTED BY IDOCK:   -6.11 KCAL/MOL
REMARK 922        TOTAL FREE ENERGY PREDICTED BY IDOCK:   -9.23 KCAL/MOL
REMARK 923 INTER-LIGAND FREE ENERGY PREDICTED BY IDOCK:   -7.34 KCAL/MOL
REMARK 924 INTRA-LIGAND FREE ENERGY PREDICTED BY IDOCK:   -1.90 KCAL/MOL
REMARK 927      BINDING AFFINITY PREDICTED BY RF-SCORE:    0.00 PKD
ROOT
HETATM    1  C   UNL     1     -10.669   7.661  67.282  1.00  0.00    -0.344 C  
HETATM    2  C   UNL     1      -9.414   7.896  68.124  1.00  0.00    -0.154 C  
HETATM    3  C   UNL     1      -8.467   8.889  67.330  1.00  0.00    -0.115 C  
HETATM    4  C   UNL     1      -8.965  10.381  67.312  1.00  0.00    -0.142 C  
HETATM    5  C   UNL     1      -9.589  10.976  68.628  1.00  0.00    -0.198 C  
HETATM    6  C   UNL     1     -10.329   9.858  69.353  1.00  0.00    -0.238 C  
HETATM    7  C   UNL     1     -11.119  10.266  70.591  1.00  0.00    -0.358 C  
HETATM    8  C   UNL     1      -9.547   8.564  69.517  1.00  0.00    -0.170 C  
HETATM    9  C   UNL     1     -12.206  11.235  70.151  1.00  0.00    -0.410 C  
HETATM   10  C   UNL     1      -8.083   8.330  70.078  1.00  0.00    -0.116 C  
HETATM   11  C   UNL     1     -11.594  12.457  69.520  1.00  0.00    -0.353 C  
HETATM   12  C   UNL     1      -7.614   6.980  69.394  1.00  0.00    -0.099 C  
HETATM   13  C   UNL     1     -12.128  13.651  69.846  1.00  0.00    -0.406 C  
HETATM   14  C   UNL     1      -8.904   6.550  68.725  1.00  0.00    -0.125 C  
HETATM   15  C   UNL     1     -11.385  12.118  67.110  1.00  0.00    -0.393 C  
HETATM   16  C   UNL     1     -11.572  14.864  69.223  1.00  0.00    -0.306 C  
HETATM   17  O   UNL     1     -12.269  15.862  69.092  1.00  0.00    -0.264 OA 
HETATM   18  C   UNL     1     -10.538  12.263  68.407  1.00  0.00    -0.250 C  
HETATM   19  C   UNL     1     -10.111  14.830  68.926  1.00  0.00    -0.237 C  
HETATM   20  C   UNL     1      -9.646  13.539  68.234  1.00  0.00    -0.218 C  
ENDROOT
BRANCH  14  21
HETATM   21  O   UNL     1      -9.009   5.342  67.985  1.00  0.00    -0.109 OA 
BRANCH  21  22
HETATM   22  C   UNL     1      -9.619   4.362  68.754  1.00  0.00    -0.155 C  
HETATM   23  O   UNL     1      -9.391   3.160  68.643  1.00  0.00    -0.162 OA 
BRANCH  22  24
HETATM   24  C   UNL     1     -10.409   4.892  69.931  1.00  0.00    -0.220 C  
BRANCH  24  25
HETATM   25  C   UNL     1      -9.838   4.458  71.264  1.00  0.00    -0.260 C  
BRANCH  25  26
HETATM   26  C   UNL     1     -10.313   5.305  72.446  1.00  0.00    -0.259 C  
HETATM   27  C   UNL     1      -9.178   6.198  72.941  1.00  0.00    -0.134 C  
HETATM   28  C   UNL     1      -9.895   7.261  73.749  1.00  0.00    -0.358 C  
HETATM   29  C   UNL     1     -11.155   7.553  72.944  1.00  0.00    -0.426 C  
HETATM   30  C   UNL     1     -11.448   6.290  72.131  1.00  0.00    -0.354 C  
ENDBRANCH  25  26
ENDBRANCH  24  25
ENDBRANCH  22  24
ENDBRANCH  21  22
ENDBRANCH  14  21
TORSDOF 5
ENDMDL
MODEL       25
REMARK 921   NORMALIZED FREE ENERGY PREDICTED BY IDOCK:   -6.11 KCAL/MOL
REMARK 922        TOTAL FREE ENERGY PREDICTED BY IDOCK:   -9.23 KCAL/MOL
REMARK 923 INTER-LIGAND FREE ENERGY PREDICTED BY IDOCK:   -8.37 KCAL/MOL
REMARK 924 INTRA-LIGAND FREE ENERGY PREDICTED BY IDOCK:   -0.86 KCAL/MOL
REMARK 927      BINDING AFFINITY PREDICTED BY RF-SCORE:    0.00 PKD
ROOT
HETATM    1  C   UNL     1      -8.783  11.053  66.026  1.00  0.00    -0.192 C  
HETATM    2  C   UNL     1      -9.777  11.083  67.189  1.00  0.00    -0.198 C  
HETATM    3  C   UNL     1      -9.095  11.846  68.399  1.00  0.00    -0.167 C  
HETATM    4  C   UNL     1      -8.987  13.403  68.203  1.00  0.00    -0.188 C  
HETATM    5  C   UNL     1     -10.202  14.159  67.547  1.00  0.00    -0.241 C  
HETATM    6  C   UNL     1     -10.843  13.231  66.522  1.00  0.00    -0.288 C  
HETATM    7  C   UNL     1     -11.962  13.831  65.678  1.00  0.00    -0.410 C  
HETATM    8  C   UNL     1     -11.129  11.821  67.015  1.00  0.00    -0.358 C  
HETATM    9  C   UNL     1     -11.368  14.969  64.861  1.00  0.00    -0.419 C  
HETATM   10  C   UNL     1     -11.878  11.339  68.326  1.00  0.00    -0.299 C  
HETATM   11  C   UNL     1     -10.801  16.026  65.769  1.00  0.00    -0.236 C  
HETATM   12  C   UNL     1     -11.284   9.897  68.607  1.00  0.00    -0.122 C  
HETATM   13  C   UNL     1     -11.035  17.312  65.438  1.00  0.00     0.078 C  
HETATM   14  C   UNL     1     -10.461   9.691  67.352  1.00  0.00    -0.257 C  
HETATM   15  C   UNL     1      -8.444  15.555  66.206  1.00  0.00    -0.120 C  
HETATM   16  C   UNL     1     -10.469  18.372  66.289  1.00  0.00    -0.393 C  
HETATM   17  O   UNL     1     -10.232  19.477  65.818  1.00  0.00    -0.418 OA 
HETATM   18  C   UNL     1      -9.838  15.591  66.898  1.00  0.00    -0.245 C  
HETATM   19  C   UNL     1     -10.364  18.051  67.742  1.00  0.00    -0.403 C  
HETATM   20  C   UNL     1      -9.760  16.668  68.033  1.00  0.00    -0.241 C  
ENDROOT
BRANCH  14  21
HETATM   21  O   UNL     1      -9.735   8.494  67.109  1.00  0.00    -0.163 OA 
BRANCH  21  22
HETATM   22  C   UNL     1     -10.458   7.398  67.552  1.00  0.00    -0.268 C  
HETATM   23  O   UNL     1     -11.285   6.798  66.870  1.00  0.00    -0.375 OA 
BRANCH  22  24
HETATM   24  C   UNL     1      -9.976   6.820  68.865  1.00  0.00    -0.159 C  
BRANCH  24  25
HETATM   25  C   UNL     1     -11.024   5.968  69.551  1.00  0.00    -0.467 C  
BRANCH  25  26
HETATM   26  C   UNL     1     -11.319   6.390  70.990  1.00  0.00    -0.386 C  
HETATM   27  C   UNL     1     -10.246   7.357  71.485  1.00  0.00    -0.205 C  
HETATM   28  C   UNL     1     -10.896   8.022  72.680  1.00  0.00    -0.436 C  
HETATM   29  C   UNL     1     -12.343   8.228  72.251  1.00  0.00    -0.410 C  
HETATM   30  C   UNL     1     -12.631   7.162  71.190  1.00  0.00    -0.384 C  
ENDBRANCH  25  26
ENDBRANCH  24  25
ENDBRANCH  22  24
ENDBRANCH  21  22
ENDBRANCH  14  21
TORSDOF 5
ENDMDL
MODEL       26
REMARK 921   NORMALIZED FREE ENERGY PREDICTED BY IDOCK:   -6.07 KCAL/MOL
REMARK 922        TOTAL FREE ENERGY PREDICTED BY IDOCK:   -9.19 KCAL/MOL
REMARK 923 INTER-LIGAND FREE ENERGY PREDICTED BY IDOCK:   -7.30 KCAL/MOL
REMARK 924 INTRA-LIGAND FREE ENERGY PREDICTED BY IDOCK:   -1.88 KCAL/MOL
REMARK 927      BINDING AFFINITY PREDICTED BY RF-SCORE:    0.00 PKD
ROOT
HETATM    1  C   UNL     1      -9.927   7.081  68.663  1.00  0.00    -0.156 C  
HETATM    2  C   UNL     1      -8.888   7.849  69.481  1.00  0.00    -0.142 C  
HETATM    3  C   UNL     1      -7.774   8.382  68.486  1.00  0.00    -0.104 C  
HETATM    4  C   UNL     1      -8.235   9.587  67.586  1.00  0.00    -0.121 C  
HETATM    5  C   UNL     1      -9.127  10.708  68.239  1.00  0.00    -0.153 C  
HETATM    6  C   UNL     1     -10.026  10.054  69.283  1.00  0.00    -0.226 C  
HETATM    7  C   UNL     1     -11.065  10.957  69.936  1.00  0.00    -0.311 C  
HETATM    8  C   UNL     1      -9.318   9.122  70.253  1.00  0.00    -0.253 C  
HETATM    9  C   UNL     1     -12.013  11.439  68.848  1.00  0.00    -0.371 C  
HETATM   10  C   UNL     1      -8.018   9.368  71.128  1.00  0.00     0.075 C  
HETATM   11  C   UNL     1     -11.259  12.215  67.802  1.00  0.00    -0.333 C  
HETATM   12  C   UNL     1      -7.428   7.917  71.367  1.00  0.00    -0.074 C  
HETATM   13  C   UNL     1     -11.835  13.341  67.337  1.00  0.00    -0.413 C  
HETATM   14  C   UNL     1      -8.543   7.070  70.788  1.00  0.00    -0.143 C  
HETATM   15  C   UNL     1     -10.525  10.703  66.029  1.00  0.00    -0.250 C  
HETATM   16  C   UNL     1     -11.138  14.108  66.291  1.00  0.00    -0.318 C  
HETATM   17  O   UNL     1     -11.774  14.815  65.519  1.00  0.00    -0.342 OA 
HETATM   18  C   UNL     1      -9.985  11.586  67.191  1.00  0.00    -0.222 C  
HETATM   19  C   UNL     1      -9.648  14.080  66.350  1.00  0.00    -0.299 C  
HETATM   20  C   UNL     1      -9.059  12.675  66.549  1.00  0.00    -0.163 C  
ENDROOT
BRANCH  14  21
HETATM   21  O   UNL     1      -8.498   5.650  70.793  1.00  0.00    -0.120 OA 
BRANCH  21  22
HETATM   22  C   UNL     1      -9.311   5.150  71.798  1.00  0.00    -0.146 C  
HETATM   23  O   UNL     1      -8.925   4.915  72.941  1.00  0.00    -0.119 OA 
BRANCH  22  24
HETATM   24  C   UNL     1     -10.788   5.147  71.467  1.00  0.00    -0.102 C  
BRANCH  24  25
HETATM   25  C   UNL     1     -11.603   5.996  72.418  1.00  0.00    -0.349 C  
BRANCH  25  26
HETATM   26  C   UNL     1     -12.262   7.208  71.756  1.00  0.00    -0.379 C  
HETATM   27  C   UNL     1     -13.774   7.012  71.691  1.00  0.00    -0.348 C  
HETATM   28  C   UNL     1     -14.301   8.415  71.466  1.00  0.00    -0.499 C  
HETATM   29  C   UNL     1     -13.416   9.290  72.345  1.00  0.00    -0.526 C  
HETATM   30  C   UNL     1     -12.094   8.536  72.508  1.00  0.00    -0.395 C  
ENDBRANCH  25  26
ENDBRANCH  24  25
ENDBRANCH  22  24
ENDBRANCH  21  22
ENDBRANCH  14  21
TORSDOF 5
ENDMDL
MODEL       27
REMARK 921   NORMALIZED FREE ENERGY PREDICTED BY IDOCK:   -6.05 KCAL/MOL
REMARK 922        TOTAL FREE ENERGY PREDICTED BY IDOCK:   -9.16 KCAL/MOL
REMARK 923 INTER-LIGAND FREE ENERGY PREDICTED BY IDOCK:   -7.26 KCAL/MOL
REMARK 924 INTRA-LIGAND FREE ENERGY PREDICTED BY IDOCK:   -1.90 KCAL/MOL
REMARK 927      BINDING AFFINITY PREDICTED BY RF-SCORE:    0.00 PKD
ROOT
HETATM    1  C   UNL     1      -9.935   8.917  66.302  1.00  0.00    -0.337 C  
HETATM    2  C   UNL     1      -9.055   8.926  67.553  1.00  0.00    -0.146 C  
HETATM    3  C   UNL     1      -7.757   9.779  67.237  1.00  0.00    -0.095 C  
HETATM    4  C   UNL     1      -8.005  11.331  67.168  1.00  0.00    -0.151 C  
HETATM    5  C   UNL     1      -8.979  11.979  68.221  1.00  0.00    -0.186 C  
HETATM    6  C   UNL     1     -10.078  10.971  68.536  1.00  0.00    -0.198 C  
HETATM    7  C   UNL     1     -11.202  11.463  69.441  1.00  0.00    -0.333 C  
HETATM    8  C   UNL     1      -9.595   9.566  68.858  1.00  0.00    -0.156 C  
HETATM    9  C   UNL     1     -11.909  12.605  68.726  1.00  0.00    -0.341 C  
HETATM   10  C   UNL     1      -8.484   9.087  69.882  1.00  0.00    -0.139 C  
HETATM   11  C   UNL     1     -10.948  13.732  68.461  1.00  0.00    -0.283 C  
HETATM   12  C   UNL     1      -7.988   7.700  69.300  1.00  0.00    -0.126 C  
HETATM   13  C   UNL     1     -11.395  14.985  68.674  1.00  0.00    -0.311 C  
HETATM   14  C   UNL     1      -8.990   7.499  68.181  1.00  0.00    -0.129 C  
HETATM   15  C   UNL     1      -9.921  13.435  66.264  1.00  0.00    -0.298 C  
HETATM   16  C   UNL     1     -10.490  16.113  68.396  1.00  0.00    -0.274 C  
HETATM   17  O   UNL     1     -10.947  17.212  68.109  1.00  0.00    -0.361 OA 
HETATM   18  C   UNL     1      -9.595  13.406  67.785  1.00  0.00    -0.213 C  
HETATM   19  C   UNL     1      -9.040  15.856  68.638  1.00  0.00    -0.206 C  
HETATM   20  C   UNL     1      -8.536  14.529  68.050  1.00  0.00    -0.161 C  
ENDROOT
BRANCH  14  21
HETATM   21  O   UNL     1      -8.981   6.345  67.353  1.00  0.00    -0.111 OA 
BRANCH  21  22
HETATM   22  C   UNL     1      -9.981   5.469  67.745  1.00  0.00    -0.155 C  
HETATM   23  O   UNL     1     -10.011   4.278  67.440  1.00  0.00    -0.164 OA 
BRANCH  22  24
HETATM   24  C   UNL     1     -10.918   6.018  68.799  1.00  0.00    -0.384 C  
BRANCH  24  25
HETATM   25  C   UNL     1     -10.742   5.351  70.146  1.00  0.00    -0.295 C  
BRANCH  25  26
HETATM   26  C   UNL     1     -11.242   6.190  71.322  1.00  0.00    -0.348 C  
HETATM   27  C   UNL     1     -10.072   6.586  72.220  1.00  0.00    -0.191 C  
HETATM   28  C   UNL     1     -10.623   7.746  73.023  1.00  0.00    -0.441 C  
HETATM   29  C   UNL     1     -11.458   8.531  72.020  1.00  0.00    -0.431 C  
HETATM   30  C   UNL     1     -11.886   7.531  70.943  1.00  0.00    -0.293 C  
ENDBRANCH  25  26
ENDBRANCH  24  25
ENDBRANCH  22  24
ENDBRANCH  21  22
ENDBRANCH  14  21
TORSDOF 5
ENDMDL
MODEL       28
REMARK 921   NORMALIZED FREE ENERGY PREDICTED BY IDOCK:   -6.01 KCAL/MOL
REMARK 922        TOTAL FREE ENERGY PREDICTED BY IDOCK:   -9.11 KCAL/MOL
REMARK 923 INTER-LIGAND FREE ENERGY PREDICTED BY IDOCK:   -7.85 KCAL/MOL
REMARK 924 INTRA-LIGAND FREE ENERGY PREDICTED BY IDOCK:   -1.26 KCAL/MOL
REMARK 927      BINDING AFFINITY PREDICTED BY RF-SCORE:    0.00 PKD
ROOT
HETATM    1  C   UNL     1     -10.292  14.770  64.971  1.00  0.00    -0.420 C  
HETATM    2  C   UNL     1     -10.546  14.984  66.465  1.00  0.00    -0.305 C  
HETATM    3  C   UNL     1     -11.845  14.169  66.865  1.00  0.00    -0.458 C  
HETATM    4  C   UNL     1     -11.637  12.612  66.930  1.00  0.00    -0.438 C  
HETATM    5  C   UNL     1     -10.298  12.063  67.549  1.00  0.00    -0.217 C  
HETATM    6  C   UNL     1      -9.179  13.041  67.209  1.00  0.00    -0.213 C  
HETATM    7  C   UNL     1      -7.771  12.618  67.608  1.00  0.00    -0.155 C  
HETATM    8  C   UNL     1      -9.490  14.502  67.492  1.00  0.00    -0.203 C  
HETATM    9  C   UNL     1      -7.430  11.350  66.839  1.00  0.00    -0.147 C  
HETATM   10  C   UNL     1     -10.055  15.181  68.809  1.00  0.00    -0.226 C  
HETATM   11  C   UNL     1      -8.401  10.253  67.182  1.00  0.00    -0.122 C  
HETATM   12  C   UNL     1     -10.767  16.499  68.294  1.00  0.00    -0.345 C  
HETATM   13  C   UNL     1      -7.894   9.018  67.369  1.00  0.00    -0.100 C  
HETATM   14  C   UNL     1     -10.348  16.486  66.838  1.00  0.00    -0.300 C  
HETATM   15  C   UNL     1     -10.278  10.298  65.619  1.00  0.00    -0.301 C  
HETATM   16  C   UNL     1      -8.819   7.915  67.677  1.00  0.00    -0.128 C  
HETATM   17  O   UNL     1      -8.520   6.763  67.390  1.00  0.00    -0.120 OA 
HETATM   18  C   UNL     1      -9.916  10.557  67.110  1.00  0.00    -0.234 C  
HETATM   19  C   UNL     1     -10.025   8.284  68.474  1.00  0.00    -0.206 C  
HETATM   20  C   UNL     1     -10.746   9.543  67.968  1.00  0.00    -0.266 C  
ENDROOT
BRANCH  14  21
HETATM   21  O   UNL     1     -10.724  17.512  65.931  1.00  0.00    -0.286 OA 
BRANCH  21  22
HETATM   22  C   UNL     1     -10.147  18.716  66.305  1.00  0.00    -0.400 C  
HETATM   23  O   UNL     1     -10.767  19.646  66.816  1.00  0.00    -0.468 OA 
BRANCH  22  24
HETATM   24  C   UNL     1      -8.634  18.720  66.279  1.00  0.00    -0.247 C  
BRANCH  24  25
HETATM   25  C   UNL     1      -8.029  19.470  67.446  1.00  0.00    -0.305 C  
BRANCH  25  26
HETATM   26  C   UNL     1      -6.803  18.786  68.053  1.00  0.00    -0.244 C  
HETATM   27  C   UNL     1      -6.355  19.529  69.309  1.00  0.00    -0.346 C  
HETATM   28  C   UNL     1      -5.484  18.517  70.024  1.00  0.00    -0.233 C  
HETATM   29  C   UNL     1      -6.207  17.192  69.819  1.00  0.00    -0.204 C  
HETATM   30  C   UNL     1      -7.030  17.347  68.537  1.00  0.00    -0.215 C  
ENDBRANCH  25  26
ENDBRANCH  24  25
ENDBRANCH  22  24
ENDBRANCH  21  22
ENDBRANCH  14  21
TORSDOF 5
ENDMDL
MODEL       29
REMARK 921   NORMALIZED FREE ENERGY PREDICTED BY IDOCK:   -5.97 KCAL/MOL
REMARK 922        TOTAL FREE ENERGY PREDICTED BY IDOCK:   -9.06 KCAL/MOL
REMARK 923 INTER-LIGAND FREE ENERGY PREDICTED BY IDOCK:   -7.38 KCAL/MOL
REMARK 924 INTRA-LIGAND FREE ENERGY PREDICTED BY IDOCK:   -1.68 KCAL/MOL
REMARK 927      BINDING AFFINITY PREDICTED BY RF-SCORE:    0.00 PKD
ROOT
HETATM    1  C   UNL     1      -8.702  10.150  69.675  1.00  0.00    -0.176 C  
HETATM    2  C   UNL     1      -9.200   9.288  68.514  1.00  0.00    -0.135 C  
HETATM    3  C   UNL     1      -8.162   8.111  68.294  1.00  0.00    -0.129 C  
HETATM    4  C   UNL     1      -8.213   6.990  69.397  1.00  0.00    -0.132 C  
HETATM    5  C   UNL     1      -9.621   6.536  69.936  1.00  0.00    -0.163 C  
HETATM    6  C   UNL     1     -10.545   7.748  69.934  1.00  0.00    -0.239 C  
HETATM    7  C   UNL     1     -11.924   7.544  70.550  1.00  0.00    -0.088 C  
HETATM    8  C   UNL     1     -10.558   8.551  68.643  1.00  0.00    -0.154 C  
HETATM    9  C   UNL     1     -11.731   7.200  72.019  1.00  0.00    -0.326 C  
HETATM   10  C   UNL     1     -10.749   8.060  67.147  1.00  0.00    -0.285 C  
HETATM   11  C   UNL     1     -10.925   5.937  72.160  1.00  0.00    -0.317 C  
HETATM   12  C   UNL     1     -10.020   9.165  66.277  1.00  0.00    -0.352 C  
HETATM   13  C   UNL     1     -11.328   5.049  73.091  1.00  0.00    -0.397 C  
HETATM   14  C   UNL     1      -9.705  10.191  67.346  1.00  0.00    -0.161 C  
HETATM   15  C   UNL     1      -8.551   6.491  72.321  1.00  0.00    -0.123 C  
HETATM   16  C   UNL     1     -10.545   3.817  73.275  1.00  0.00    -0.188 C  
HETATM   17  O   UNL     1     -10.554   3.238  74.354  1.00  0.00    -0.189 OA 
HETATM   18  C   UNL     1      -9.594   5.819  71.382  1.00  0.00    -0.188 C  
HETATM   19  C   UNL     1      -9.899   3.269  72.047  1.00  0.00    -0.240 C  
HETATM   20  C   UNL     1      -9.160   4.324  71.209  1.00  0.00    -0.181 C  
ENDROOT
BRANCH  14  21
HETATM   21  O   UNL     1      -9.058  11.421  67.051  1.00  0.00    -0.161 OA 
BRANCH  21  22
HETATM   22  C   UNL     1      -9.995  12.386  66.718  1.00  0.00    -0.225 C  
HETATM   23  O   UNL     1      -9.889  13.146  65.759  1.00  0.00    -0.269 OA 
BRANCH  22  24
HETATM   24  C   UNL     1     -11.302  12.277  67.474  1.00  0.00    -0.388 C  
BRANCH  24  25
HETATM   25  C   UNL     1     -11.288  13.040  68.782  1.00  0.00    -0.332 C  
BRANCH  25  26
HETATM   26  C   UNL     1     -12.399  12.629  69.750  1.00  0.00    -0.090 C  
HETATM   27  C   UNL     1     -12.056  11.292  70.403  1.00  0.00    -0.474 C  
HETATM   28  C   UNL     1     -12.958  11.254  71.620  1.00  0.00    -0.537 C  
HETATM   29  C   UNL     1     -12.941  12.686  72.140  1.00  0.00    -0.333 C  
HETATM   30  C   UNL     1     -12.615  13.576  70.938  1.00  0.00    -0.414 C  
ENDBRANCH  25  26
ENDBRANCH  24  25
ENDBRANCH  22  24
ENDBRANCH  21  22
ENDBRANCH  14  21
TORSDOF 5
ENDMDL
MODEL       30
REMARK 921   NORMALIZED FREE ENERGY PREDICTED BY IDOCK:   -5.92 KCAL/MOL
REMARK 922        TOTAL FREE ENERGY PREDICTED BY IDOCK:   -8.99 KCAL/MOL
REMARK 923 INTER-LIGAND FREE ENERGY PREDICTED BY IDOCK:   -8.35 KCAL/MOL
REMARK 924 INTRA-LIGAND FREE ENERGY PREDICTED BY IDOCK:   -0.64 KCAL/MOL
REMARK 927      BINDING AFFINITY PREDICTED BY RF-SCORE:    0.00 PKD
ROOT
HETATM    1  C   UNL     1      -9.929   8.707  69.564  1.00  0.00    -0.196 C  
HETATM    2  C   UNL     1     -11.140   8.618  70.494  1.00  0.00    -0.268 C  
HETATM    3  C   UNL     1     -11.868   7.236  70.223  1.00  0.00    -0.109 C  
HETATM    4  C   UNL     1     -11.104   5.982  70.786  1.00  0.00    -0.355 C  
HETATM    5  C   UNL     1     -10.415   6.098  72.196  1.00  0.00    -0.237 C  
HETATM    6  C   UNL     1      -9.912   7.527  72.364  1.00  0.00    -0.233 C  
HETATM    7  C   UNL     1      -9.093   7.809  73.618  1.00  0.00    -0.345 C  
HETATM    8  C   UNL     1     -10.922   8.612  72.029  1.00  0.00    -0.432 C  
HETATM    9  C   UNL     1      -7.835   6.954  73.554  1.00  0.00    -0.103 C  
HETATM   10  C   UNL     1     -12.418   8.791  72.522  1.00  0.00    -0.368 C  
HETATM   11  C   UNL     1      -8.196   5.494  73.507  1.00  0.00    -0.113 C  
HETATM   12  C   UNL     1     -13.110   9.637  71.374  1.00  0.00    -0.471 C  
HETATM   13  C   UNL     1      -7.460   4.653  74.261  1.00  0.00    -0.078 C  
HETATM   14  C   UNL     1     -11.904   9.978  70.522  1.00  0.00    -0.303 C  
HETATM   15  C   UNL     1      -8.402   4.774  71.181  1.00  0.00    -0.107 C  
HETATM   16  C   UNL     1      -7.767   3.214  74.215  1.00  0.00    -0.064 C  
HETATM   17  O   UNL     1      -6.896   2.391  74.464  1.00  0.00    -0.028 OA 
HETATM   18  C   UNL     1      -9.241   5.024  72.468  1.00  0.00    -0.147 C  
HETATM   19  C   UNL     1      -9.202   2.863  74.006  1.00  0.00    -0.093 C  
HETATM   20  C   UNL     1      -9.879   3.653  72.875  1.00  0.00    -0.197 C  
ENDROOT
BRANCH  14  21
HETATM   21  O   UNL     1     -12.004  10.775  69.351  1.00  0.00    -0.307 OA 
BRANCH  21  22
HETATM   22  C   UNL     1     -11.407  12.009  69.560  1.00  0.00    -0.228 C  
HETATM   23  O   UNL     1     -10.432  12.417  68.933  1.00  0.00    -0.190 OA 
BRANCH  22  24
HETATM   24  C   UNL     1     -12.196  12.943  70.452  1.00  0.00    -0.381 C  
BRANCH  24  25
HETATM   25  C   UNL     1     -12.131  14.384  69.995  1.00  0.00    -0.401 C  
BRANCH  25  26
HETATM   26  C   UNL     1     -12.528  15.394  71.073  1.00  0.00    -0.469 C  
HETATM   27  C   UNL     1     -14.016  15.267  71.388  1.00  0.00    -0.601 C  
HETATM   28  C   UNL     1     -14.151  15.953  72.732  1.00  0.00    -0.353 C  
HETATM   29  C   UNL     1     -12.901  15.529  73.493  1.00  0.00    -0.687 C  
HETATM   30  C   UNL     1     -11.845  15.200  72.434  1.00  0.00    -0.488 C  
ENDBRANCH  25  26
ENDBRANCH  24  25
ENDBRANCH  22  24
ENDBRANCH  21  22
ENDBRANCH  14  21
TORSDOF 5
ENDMDL
MODEL       31
REMARK 921   NORMALIZED FREE ENERGY PREDICTED BY IDOCK:   -5.89 KCAL/MOL
REMARK 922        TOTAL FREE ENERGY PREDICTED BY IDOCK:   -8.95 KCAL/MOL
REMARK 923 INTER-LIGAND FREE ENERGY PREDICTED BY IDOCK:   -8.39 KCAL/MOL
REMARK 924 INTRA-LIGAND FREE ENERGY PREDICTED BY IDOCK:   -0.56 KCAL/MOL
REMARK 927      BINDING AFFINITY PREDICTED BY RF-SCORE:    0.00 PKD
ROOT
HETATM    1  C   UNL     1     -11.857  10.922  69.396  1.00  0.00    -0.400 C  
HETATM    2  C   UNL     1     -10.844  10.742  68.264  1.00  0.00    -0.276 C  
HETATM    3  C   UNL     1      -9.404  11.078  68.835  1.00  0.00    -0.155 C  
HETATM    4  C   UNL     1      -8.816   9.977  69.793  1.00  0.00    -0.205 C  
HETATM    5  C   UNL     1      -9.041   8.465  69.420  1.00  0.00    -0.154 C  
HETATM    6  C   UNL     1     -10.399   8.339  68.739  1.00  0.00    -0.223 C  
HETATM    7  C   UNL     1     -10.862   6.923  68.419  1.00  0.00    -0.238 C  
HETATM    8  C   UNL     1     -10.659   9.341  67.626  1.00  0.00    -0.324 C  
HETATM    9  C   UNL     1     -11.012   6.174  69.735  1.00  0.00    -0.459 C  
HETATM   10  C   UNL     1      -9.761   9.723  66.376  1.00  0.00    -0.275 C  
HETATM   11  C   UNL     1      -9.695   6.120  70.460  1.00  0.00    -0.203 C  
HETATM   12  C   UNL     1     -10.207  11.199  66.011  1.00  0.00    -0.300 C  
HETATM   13  C   UNL     1      -9.362   4.953  71.046  1.00  0.00    -0.209 C  
HETATM   14  C   UNL     1     -11.390  11.366  66.943  1.00  0.00    -0.210 C  
HETATM   15  C   UNL     1      -9.503   8.040  71.959  1.00  0.00    -0.257 C  
HETATM   16  C   UNL     1      -8.094   4.874  71.789  1.00  0.00    -0.113 C  
HETATM   17  O   UNL     1      -7.962   4.065  72.699  1.00  0.00    -0.083 OA 
HETATM   18  C   UNL     1      -8.905   7.435  70.656  1.00  0.00    -0.150 C  
HETATM   19  C   UNL     1      -6.979   5.713  71.261  1.00  0.00    -0.066 C  
HETATM   20  C   UNL     1      -7.388   7.158  70.933  1.00  0.00    -0.075 C  
ENDROOT
BRANCH  14  21
HETATM   21  O   UNL     1     -12.172  12.551  66.973  1.00  0.00    -0.490 OA 
BRANCH  21  22
HETATM   22  C   UNL     1     -12.136  13.178  65.737  1.00  0.00    -0.447 C  
HETATM   23  O   UNL     1     -12.860  12.875  64.790  1.00  0.00    -0.706 OA 
BRANCH  22  24
HETATM   24  C   UNL     1     -11.312  14.446  65.702  1.00  0.00    -0.330 C  
BRANCH  24  25
HETATM   25  C   UNL     1     -11.159  15.085  67.066  1.00  0.00    -0.334 C  
BRANCH  25  26
HETATM   26  C   UNL     1     -10.365  16.391  67.052  1.00  0.00    -0.293 C  
HETATM   27  C   UNL     1     -10.602  17.136  65.741  1.00  0.00    -0.201 C  
HETATM   28  C   UNL     1     -10.161  18.551  66.055  1.00  0.00    -0.371 C  
HETATM   29  C   UNL     1     -10.659  18.789  67.475  1.00  0.00    -0.497 C  
HETATM   30  C   UNL     1     -10.761  17.409  68.131  1.00  0.00    -0.343 C  
ENDBRANCH  25  26
ENDBRANCH  24  25
ENDBRANCH  22  24
ENDBRANCH  21  22
ENDBRANCH  14  21
TORSDOF 5
ENDMDL
MODEL       32
REMARK 921   NORMALIZED FREE ENERGY PREDICTED BY IDOCK:   -5.88 KCAL/MOL
REMARK 922        TOTAL FREE ENERGY PREDICTED BY IDOCK:   -8.94 KCAL/MOL
REMARK 923 INTER-LIGAND FREE ENERGY PREDICTED BY IDOCK:   -8.23 KCAL/MOL
REMARK 924 INTRA-LIGAND FREE ENERGY PREDICTED BY IDOCK:   -0.71 KCAL/MOL
REMARK 927      BINDING AFFINITY PREDICTED BY RF-SCORE:    0.00 PKD
ROOT
HETATM    1  C   UNL     1     -12.031  11.414  68.304  1.00  0.00    -0.234 C  
HETATM    2  C   UNL     1     -10.820  11.417  67.369  1.00  0.00    -0.301 C  
HETATM    3  C   UNL     1      -9.529  11.717  68.238  1.00  0.00    -0.193 C  
HETATM    4  C   UNL     1      -9.066  10.518  69.143  1.00  0.00    -0.177 C  
HETATM    5  C   UNL     1      -9.136   9.062  68.548  1.00  0.00    -0.133 C  
HETATM    6  C   UNL     1     -10.338   8.987  67.614  1.00  0.00    -0.317 C  
HETATM    7  C   UNL     1     -10.657   7.613  67.037  1.00  0.00    -0.406 C  
HETATM    8  C   UNL     1     -10.446  10.121  66.606  1.00  0.00    -0.254 C  
HETATM    9  C   UNL     1     -11.003   6.691  68.197  1.00  0.00    -0.323 C  
HETATM   10  C   UNL     1      -9.357  10.693  65.605  1.00  0.00    -0.239 C  
HETATM   11  C   UNL     1      -9.840   6.581  69.144  1.00  0.00    -0.156 C  
HETATM   12  C   UNL     1      -9.809  12.190  65.351  1.00  0.00    -0.231 C  
HETATM   13  C   UNL     1      -9.555   5.357  69.631  1.00  0.00    -0.217 C  
HETATM   14  C   UNL     1     -11.150  12.195  66.058  1.00  0.00    -0.313 C  
HETATM   15  C   UNL     1     -10.029   8.289  70.881  1.00  0.00    -0.223 C  
HETATM   16  C   UNL     1      -8.441   5.218  70.583  1.00  0.00    -0.117 C  
HETATM   17  O   UNL     1      -8.434   4.299  71.392  1.00  0.00    -0.094 OA 
HETATM   18  C   UNL     1      -9.171   7.881  69.648  1.00  0.00    -0.153 C  
HETATM   19  C   UNL     1      -7.297   6.154  70.383  1.00  0.00    -0.089 C  
HETATM   20  C   UNL     1      -7.718   7.616  70.168  1.00  0.00    -0.091 C  
ENDROOT
BRANCH  14  21
HETATM   21  O   UNL     1     -11.988  13.341  66.088  1.00  0.00    -0.379 OA 
BRANCH  21  22
HETATM   22  C   UNL     1     -11.227  14.492  65.957  1.00  0.00    -0.337 C  
HETATM   23  O   UNL     1     -11.118  15.130  64.912  1.00  0.00    -0.389 OA 
BRANCH  22  24
HETATM   24  C   UNL     1     -10.731  15.068  67.266  1.00  0.00    -0.298 C  
BRANCH  24  25
HETATM   25  C   UNL     1      -9.772  16.223  67.073  1.00  0.00    -0.244 C  
BRANCH  25  26
HETATM   26  C   UNL     1     -10.389  17.593  67.354  1.00  0.00    -0.360 C  
HETATM   27  C   UNL     1      -9.526  18.362  68.352  1.00  0.00    -0.352 C  
HETATM   28  C   UNL     1      -9.976  19.798  68.172  1.00  0.00    -0.557 C  
HETATM   29  C   UNL     1     -10.179  19.939  66.668  1.00  0.00    -0.609 C  
HETATM   30  C   UNL     1     -10.477  18.532  66.143  1.00  0.00    -0.447 C  
ENDBRANCH  25  26
ENDBRANCH  24  25
ENDBRANCH  22  24
ENDBRANCH  21  22
ENDBRANCH  14  21
TORSDOF 5
ENDMDL
MODEL       33
REMARK 921   NORMALIZED FREE ENERGY PREDICTED BY IDOCK:   -5.87 KCAL/MOL
REMARK 922        TOTAL FREE ENERGY PREDICTED BY IDOCK:   -8.93 KCAL/MOL
REMARK 923 INTER-LIGAND FREE ENERGY PREDICTED BY IDOCK:   -8.00 KCAL/MOL
REMARK 924 INTRA-LIGAND FREE ENERGY PREDICTED BY IDOCK:   -0.92 KCAL/MOL
REMARK 927      BINDING AFFINITY PREDICTED BY RF-SCORE:    0.00 PKD
ROOT
HETATM    1  C   UNL     1     -10.771  10.874  68.358  1.00  0.00    -0.240 C  
HETATM    2  C   UNL     1      -9.497  10.148  67.920  1.00  0.00    -0.154 C  
HETATM    3  C   UNL     1      -8.382  10.406  69.017  1.00  0.00    -0.150 C  
HETATM    4  C   UNL     1      -8.600   9.613  70.359  1.00  0.00    -0.200 C  
HETATM    5  C   UNL     1      -9.110   8.126  70.273  1.00  0.00    -0.151 C  
HETATM    6  C   UNL     1     -10.045   8.011  69.074  1.00  0.00    -0.206 C  
HETATM    7  C   UNL     1     -10.751   6.673  68.897  1.00  0.00    -0.304 C  
HETATM    8  C   UNL     1      -9.512   8.604  67.779  1.00  0.00    -0.165 C  
HETATM    9  C   UNL     1     -11.642   6.453  70.112  1.00  0.00    -0.449 C  
HETATM   10  C   UNL     1      -8.117   8.379  67.060  1.00  0.00    -0.104 C  
HETATM   11  C   UNL     1     -10.816   6.424  71.369  1.00  0.00    -0.301 C  
HETATM   12  C   UNL     1      -7.899   9.696  66.207  1.00  0.00    -0.101 C  
HETATM   13  C   UNL     1     -11.124   5.486  72.287  1.00  0.00    -0.297 C  
HETATM   14  C   UNL     1      -9.243  10.370  66.397  1.00  0.00    -0.161 C  
HETATM   15  C   UNL     1     -10.663   8.676  72.304  1.00  0.00    -0.383 C  
HETATM   16  C   UNL     1     -10.355   5.449  73.541  1.00  0.00    -0.224 C  
HETATM   17  O   UNL     1     -10.858   4.987  74.558  1.00  0.00    -0.331 OA 
HETATM   18  C   UNL     1      -9.808   7.571  71.618  1.00  0.00    -0.185 C  
HETATM   19  C   UNL     1      -8.923   5.854  73.437  1.00  0.00    -0.129 C  
HETATM   20  C   UNL     1      -8.698   7.148  72.639  1.00  0.00    -0.138 C  
ENDROOT
BRANCH  14  21
HETATM   21  O   UNL     1      -9.564  11.610  65.784  1.00  0.00    -0.226 OA 
BRANCH  21  22
HETATM   22  C   UNL     1     -10.189  11.393  64.566  1.00  0.00    -0.299 C  
HETATM   23  O   UNL     1     -10.004  10.401  63.864  1.00  0.00    -0.315 OA 
BRANCH  22  24
HETATM   24  C   UNL     1     -11.324  12.349  64.266  1.00  0.00    -0.420 C  
BRANCH  24  25
HETATM   25  C   UNL     1     -12.084  12.765  65.507  1.00  0.00    -0.517 C  
BRANCH  25  26
HETATM   26  C   UNL     1     -11.939  14.248  65.853  1.00  0.00    -0.400 C  
HETATM   27  C   UNL     1     -11.483  14.406  67.301  1.00  0.00    -0.377 C  
HETATM   28  C   UNL     1     -10.949  15.824  67.348  1.00  0.00    -0.279 C  
HETATM   29  C   UNL     1     -10.224  15.993  66.019  1.00  0.00    -0.360 C  
HETATM   30  C   UNL     1     -10.877  15.007  65.046  1.00  0.00    -0.439 C  
ENDBRANCH  25  26
ENDBRANCH  24  25
ENDBRANCH  22  24
ENDBRANCH  21  22
ENDBRANCH  14  21
TORSDOF 5
ENDMDL
MODEL       34
REMARK 921   NORMALIZED FREE ENERGY PREDICTED BY IDOCK:   -5.83 KCAL/MOL
REMARK 922        TOTAL FREE ENERGY PREDICTED BY IDOCK:   -8.87 KCAL/MOL
REMARK 923 INTER-LIGAND FREE ENERGY PREDICTED BY IDOCK:   -8.12 KCAL/MOL
REMARK 924 INTRA-LIGAND FREE ENERGY PREDICTED BY IDOCK:   -0.75 KCAL/MOL
REMARK 927      BINDING AFFINITY PREDICTED BY RF-SCORE:    0.00 PKD
ROOT
HETATM    1  C   UNL     1     -11.232  11.464  69.124  1.00  0.00    -0.335 C  
HETATM    2  C   UNL     1     -10.669  11.364  67.705  1.00  0.00    -0.261 C  
HETATM    3  C   UNL     1     -11.677  12.095  66.724  1.00  0.00    -0.377 C  
HETATM    4  C   UNL     1     -11.654  13.665  66.826  1.00  0.00    -0.393 C  
HETATM    5  C   UNL     1     -10.264  14.382  66.998  1.00  0.00    -0.263 C  
HETATM    6  C   UNL     1      -9.361  13.478  67.830  1.00  0.00    -0.213 C  
HETATM    7  C   UNL     1      -8.006  14.057  68.221  1.00  0.00    -0.146 C  
HETATM    8  C   UNL     1      -9.306  12.027  67.379  1.00  0.00    -0.178 C  
HETATM    9  C   UNL     1      -8.257  15.275  69.098  1.00  0.00    -0.234 C  
HETATM   10  C   UNL     1      -9.043  11.423  65.937  1.00  0.00    -0.209 C  
HETATM   11  C   UNL     1      -9.047  16.310  68.343  1.00  0.00    -0.203 C  
HETATM   12  C   UNL     1      -9.751  10.007  65.971  1.00  0.00    -0.301 C  
HETATM   13  C   UNL     1      -8.669  17.596  68.483  1.00  0.00    -0.285 C  
HETATM   14  C   UNL     1     -10.129   9.925  67.436  1.00  0.00    -0.205 C  
HETATM   15  C   UNL     1     -11.435  15.960  68.723  1.00  0.00    -0.393 C  
HETATM   16  C   UNL     1      -9.438  18.637  67.782  1.00  0.00    -0.300 C  
HETATM   17  O   UNL     1      -9.467  19.781  68.219  1.00  0.00    -0.348 OA 
HETATM   18  C   UNL     1     -10.341  15.869  67.620  1.00  0.00    -0.281 C  
HETATM   19  C   UNL     1     -10.022  18.238  66.468  1.00  0.00    -0.380 C  
HETATM   20  C   UNL     1     -10.742  16.881  66.492  1.00  0.00    -0.087 C  
ENDROOT
BRANCH  14  21
HETATM   21  O   UNL     1     -10.784   8.792  67.988  1.00  0.00    -0.190 OA 
BRANCH  21  22
HETATM   22  C   UNL     1      -9.918   8.098  68.819  1.00  0.00    -0.189 C  
HETATM   23  O   UNL     1      -8.706   8.294  68.867  1.00  0.00    -0.135 OA 
BRANCH  22  24
HETATM   24  C   UNL     1     -10.603   7.243  69.863  1.00  0.00    -0.244 C  
BRANCH  24  25
HETATM   25  C   UNL     1     -11.382   8.060  70.871  1.00  0.00    -0.291 C  
BRANCH  25  26
HETATM   26  C   UNL     1     -11.549   7.374  72.227  1.00  0.00    -0.333 C  
HETATM   27  C   UNL     1     -11.558   5.857  72.051  1.00  0.00    -0.289 C  
HETATM   28  C   UNL     1     -11.262   5.339  73.443  1.00  0.00    -0.314 C  
HETATM   29  C   UNL     1     -10.213   6.304  73.984  1.00  0.00    -0.327 C  
HETATM   30  C   UNL     1     -10.414   7.621  73.231  1.00  0.00    -0.414 C  
ENDBRANCH  25  26
ENDBRANCH  24  25
ENDBRANCH  22  24
ENDBRANCH  21  22
ENDBRANCH  14  21
TORSDOF 5
ENDMDL
MODEL       35
REMARK 921   NORMALIZED FREE ENERGY PREDICTED BY IDOCK:   -5.81 KCAL/MOL
REMARK 922        TOTAL FREE ENERGY PREDICTED BY IDOCK:   -8.85 KCAL/MOL
REMARK 923 INTER-LIGAND FREE ENERGY PREDICTED BY IDOCK:   -8.17 KCAL/MOL
REMARK 924 INTRA-LIGAND FREE ENERGY PREDICTED BY IDOCK:   -0.68 KCAL/MOL
REMARK 927      BINDING AFFINITY PREDICTED BY RF-SCORE:    0.00 PKD
ROOT
HETATM    1  C   UNL     1      -8.733  12.812  68.501  1.00  0.00    -0.045 C  
HETATM    2  C   UNL     1      -9.709  12.379  67.406  1.00  0.00    -0.193 C  
HETATM    3  C   UNL     1      -9.162  11.039  66.760  1.00  0.00    -0.174 C  
HETATM    4  C   UNL     1      -9.325   9.768  67.673  1.00  0.00    -0.157 C  
HETATM    5  C   UNL     1     -10.656   9.607  68.497  1.00  0.00    -0.253 C  
HETATM    6  C   UNL     1     -11.135  10.996  68.906  1.00  0.00    -0.295 C  
HETATM    7  C   UNL     1     -12.346  11.045  69.830  1.00  0.00    -0.356 C  
HETATM    8  C   UNL     1     -11.170  12.024  67.786  1.00  0.00    -0.331 C  
HETATM    9  C   UNL     1     -11.963  10.361  71.135  1.00  0.00    -0.460 C  
HETATM   10  C   UNL     1     -11.816  11.927  66.342  1.00  0.00    -0.115 C  
HETATM   11  C   UNL     1     -11.581   8.928  70.883  1.00  0.00    -0.331 C  
HETATM   12  C   UNL     1     -10.981  12.953  65.470  1.00  0.00    -0.301 C  
HETATM   13  C   UNL     1     -12.034   8.007  71.756  1.00  0.00    -0.342 C  
HETATM   14  C   UNL     1     -10.143  13.609  66.549  1.00  0.00    -0.286 C  
HETATM   15  C   UNL     1      -9.175   8.777  70.485  1.00  0.00    -0.218 C  
HETATM   16  C   UNL     1     -11.654   6.599  71.556  1.00  0.00    -0.309 C  
HETATM   17  O   UNL     1     -11.614   5.831  72.509  1.00  0.00    -0.303 OA 
HETATM   18  C   UNL     1     -10.549   8.623  69.772  1.00  0.00    -0.224 C  
HETATM   19  C   UNL     1     -11.486   6.167  70.137  1.00  0.00    -0.365 C  
HETATM   20  C   UNL     1     -10.651   7.136  69.287  1.00  0.00    -0.233 C  
ENDROOT
BRANCH  14  21
HETATM   21  O   UNL     1      -9.222  14.653  66.265  1.00  0.00    -0.278 OA 
BRANCH  21  22
HETATM   22  C   UNL     1      -9.710  15.861  66.736  1.00  0.00    -0.238 C  
HETATM   23  O   UNL     1     -10.155  16.028  67.870  1.00  0.00    -0.235 OA 
BRANCH  22  24
HETATM   24  C   UNL     1      -9.424  17.045  65.838  1.00  0.00    -0.116 C  
BRANCH  24  25
HETATM   25  C   UNL     1      -8.239  17.862  66.304  1.00  0.00    -0.246 C  
BRANCH  25  26
HETATM   26  C   UNL     1      -8.617  19.056  67.183  1.00  0.00    -0.298 C  
HETATM   27  C   UNL     1     -10.081  19.426  66.962  1.00  0.00    -0.492 C  
HETATM   28  C   UNL     1     -10.419  20.262  68.180  1.00  0.00    -0.291 C  
HETATM   29  C   UNL     1      -9.698  19.561  69.325  1.00  0.00    -0.322 C  
HETATM   30  C   UNL     1      -8.521  18.811  68.695  1.00  0.00    -0.364 C  
ENDBRANCH  25  26
ENDBRANCH  24  25
ENDBRANCH  22  24
ENDBRANCH  21  22
ENDBRANCH  14  21
TORSDOF 5
ENDMDL
MODEL       36
REMARK 921   NORMALIZED FREE ENERGY PREDICTED BY IDOCK:   -5.80 KCAL/MOL
REMARK 922        TOTAL FREE ENERGY PREDICTED BY IDOCK:   -8.84 KCAL/MOL
REMARK 923 INTER-LIGAND FREE ENERGY PREDICTED BY IDOCK:   -7.93 KCAL/MOL
REMARK 924 INTRA-LIGAND FREE ENERGY PREDICTED BY IDOCK:   -0.91 KCAL/MOL
REMARK 927      BINDING AFFINITY PREDICTED BY RF-SCORE:    0.00 PKD
ROOT
HETATM    1  C   UNL     1     -10.155  15.820  65.829  1.00  0.00    -0.399 C  
HETATM    2  C   UNL     1     -10.653  15.560  67.252  1.00  0.00    -0.299 C  
HETATM    3  C   UNL     1     -11.950  14.654  67.161  1.00  0.00    -0.310 C  
HETATM    4  C   UNL     1     -11.664  13.153  66.783  1.00  0.00    -0.439 C  
HETATM    5  C   UNL     1     -10.410  12.448  67.422  1.00  0.00    -0.217 C  
HETATM    6  C   UNL     1      -9.310  13.491  67.588  1.00  0.00    -0.216 C  
HETATM    7  C   UNL     1      -7.961  12.974  68.071  1.00  0.00    -0.155 C  
HETATM    8  C   UNL     1      -9.746  14.790  68.246  1.00  0.00    -0.218 C  
HETATM    9  C   UNL     1      -7.430  12.008  67.021  1.00  0.00    -0.106 C  
HETATM   10  C   UNL     1     -10.550  15.025  69.593  1.00  0.00    -0.252 C  
HETATM   11  C   UNL     1      -8.378  10.853  66.846  1.00  0.00    -0.133 C  
HETATM   12  C   UNL     1     -11.247  16.433  69.391  1.00  0.00    -0.267 C  
HETATM   13  C   UNL     1      -7.836   9.624  66.730  1.00  0.00    -0.102 C  
HETATM   14  C   UNL     1     -10.603  16.874  68.092  1.00  0.00    -0.360 C  
HETATM   15  C   UNL     1      -9.984  11.368  65.079  1.00  0.00    -0.312 C  
HETATM   16  C   UNL     1      -8.733   8.474  66.528  1.00  0.00    -0.132 C  
HETATM   17  O   UNL     1      -8.327   7.469  65.959  1.00  0.00    -0.121 OA 
HETATM   18  C   UNL     1      -9.877  11.155  66.616  1.00  0.00    -0.231 C  
HETATM   19  C   UNL     1     -10.069   8.570  67.186  1.00  0.00    -0.331 C  
HETATM   20  C   UNL     1     -10.773   9.920  66.972  1.00  0.00    -0.237 C  
ENDROOT
BRANCH  14  21
HETATM   21  O   UNL     1     -10.890  18.128  67.491  1.00  0.00    -0.389 OA 
BRANCH  21  22
HETATM   22  C   UNL     1     -10.004  19.091  67.949  1.00  0.00    -0.358 C  
HETATM   23  O   UNL     1     -10.290  19.947  68.783  1.00  0.00    -0.433 OA 
BRANCH  22  24
HETATM   24  C   UNL     1      -8.565  18.864  67.539  1.00  0.00    -0.296 C  
BRANCH  24  25
HETATM   25  C   UNL     1      -7.890  20.125  67.045  1.00  0.00    -0.354 C  
BRANCH  25  26
HETATM   26  C   UNL     1      -6.554  19.878  66.344  1.00  0.00    -0.218 C  
HETATM   27  C   UNL     1      -6.168  18.405  66.454  1.00  0.00    -0.216 C  
HETATM   28  C   UNL     1      -5.129  18.231  65.366  1.00  0.00    -0.211 C  
HETATM   29  C   UNL     1      -5.658  19.070  64.209  1.00  0.00    -0.311 C  
HETATM   30  C   UNL     1      -6.547  20.149  64.833  1.00  0.00    -0.308 C  
ENDBRANCH  25  26
ENDBRANCH  24  25
ENDBRANCH  22  24
ENDBRANCH  21  22
ENDBRANCH  14  21
TORSDOF 5
ENDMDL
MODEL       37
REMARK 921   NORMALIZED FREE ENERGY PREDICTED BY IDOCK:   -5.77 KCAL/MOL
REMARK 922        TOTAL FREE ENERGY PREDICTED BY IDOCK:   -8.80 KCAL/MOL
REMARK 923 INTER-LIGAND FREE ENERGY PREDICTED BY IDOCK:   -7.62 KCAL/MOL
REMARK 924 INTRA-LIGAND FREE ENERGY PREDICTED BY IDOCK:   -1.18 KCAL/MOL
REMARK 927      BINDING AFFINITY PREDICTED BY RF-SCORE:    0.00 PKD
ROOT
HETATM    1  C   UNL     1     -11.059  11.514  66.041  1.00  0.00    -0.289 C  
HETATM    2  C   UNL     1     -11.263  12.375  67.288  1.00  0.00    -0.357 C  
HETATM    3  C   UNL     1     -12.024  11.502  68.370  1.00  0.00    -0.268 C  
HETATM    4  C   UNL     1     -11.136  10.395  69.048  1.00  0.00    -0.297 C  
HETATM    5  C   UNL     1      -9.648  10.753  69.417  1.00  0.00    -0.056 C  
HETATM    6  C   UNL     1      -9.117  11.723  68.368  1.00  0.00    -0.176 C  
HETATM    7  C   UNL     1      -7.641  12.088  68.475  1.00  0.00    -0.126 C  
HETATM    8  C   UNL     1     -10.025  12.902  68.058  1.00  0.00    -0.236 C  
HETATM    9  C   UNL     1      -6.831  10.815  68.279  1.00  0.00    -0.067 C  
HETATM   10  C   UNL     1     -10.728  13.926  69.044  1.00  0.00    -0.219 C  
HETATM   11  C   UNL     1      -7.178   9.805  69.340  1.00  0.00    -0.076 C  
HETATM   12  C   UNL     1     -11.993  14.437  68.240  1.00  0.00    -0.323 C  
HETATM   13  C   UNL     1      -6.159   9.116  69.890  1.00  0.00    -0.038 C  
HETATM   14  C   UNL     1     -11.729  13.809  66.887  1.00  0.00    -0.395 C  
HETATM   15  C   UNL     1      -8.994   8.375  68.550  1.00  0.00    -0.136 C  
HETATM   16  C   UNL     1      -6.465   8.099  70.910  1.00  0.00    -0.037 C  
HETATM   17  O   UNL     1      -5.706   7.155  71.084  1.00  0.00    -0.034 OA 
HETATM   18  C   UNL     1      -8.669   9.482  69.594  1.00  0.00    -0.189 C  
HETATM   19  C   UNL     1      -7.641   8.388  71.781  1.00  0.00    -0.139 C  
HETATM   20  C   UNL     1      -8.887   8.855  71.012  1.00  0.00    -0.285 C  
ENDROOT
BRANCH  14  21
HETATM   21  O   UNL     1     -12.595  14.003  65.778  1.00  0.00    -0.491 OA 
BRANCH  21  22
HETATM   22  C   UNL     1     -11.994  14.830  64.841  1.00  0.00    -0.358 C  
HETATM   23  O   UNL     1     -12.556  15.250  63.833  1.00  0.00    -0.765 OA 
BRANCH  22  24
HETATM   24  C   UNL     1     -10.659  15.398  65.273  1.00  0.00    -0.450 C  
BRANCH  24  25
HETATM   25  C   UNL     1     -10.657  16.910  65.334  1.00  0.00    -0.177 C  
BRANCH  25  26
HETATM   26  C   UNL     1     -10.561  17.472  66.753  1.00  0.00    -0.201 C  
HETATM   27  C   UNL     1      -9.150  17.274  67.302  1.00  0.00    -0.231 C  
HETATM   28  C   UNL     1      -9.082  18.253  68.456  1.00  0.00    -0.328 C  
HETATM   29  C   UNL     1      -9.822  19.483  67.946  1.00  0.00    -0.485 C  
HETATM   30  C   UNL     1     -10.796  18.984  66.876  1.00  0.00    -0.393 C  
ENDBRANCH  25  26
ENDBRANCH  24  25
ENDBRANCH  22  24
ENDBRANCH  21  22
ENDBRANCH  14  21
TORSDOF 5
ENDMDL
MODEL       38
REMARK 921   NORMALIZED FREE ENERGY PREDICTED BY IDOCK:   -5.75 KCAL/MOL
REMARK 922        TOTAL FREE ENERGY PREDICTED BY IDOCK:   -8.77 KCAL/MOL
REMARK 923 INTER-LIGAND FREE ENERGY PREDICTED BY IDOCK:   -7.91 KCAL/MOL
REMARK 924 INTRA-LIGAND FREE ENERGY PREDICTED BY IDOCK:   -0.86 KCAL/MOL
REMARK 927      BINDING AFFINITY PREDICTED BY RF-SCORE:    0.00 PKD
ROOT
HETATM    1  C   UNL     1      -8.666  11.603  66.192  1.00  0.00    -0.094 C  
HETATM    2  C   UNL     1      -9.727  11.653  67.293  1.00  0.00    -0.192 C  
HETATM    3  C   UNL     1      -9.085  12.351  68.563  1.00  0.00    -0.068 C  
HETATM    4  C   UNL     1      -8.891  13.905  68.416  1.00  0.00    -0.177 C  
HETATM    5  C   UNL     1     -10.026  14.736  67.710  1.00  0.00    -0.223 C  
HETATM    6  C   UNL     1     -10.647  13.866  66.623  1.00  0.00    -0.274 C  
HETATM    7  C   UNL     1     -11.682  14.541  65.731  1.00  0.00    -0.344 C  
HETATM    8  C   UNL     1     -11.029  12.461  67.059  1.00  0.00    -0.303 C  
HETATM    9  C   UNL     1     -10.986  15.668  64.982  1.00  0.00    -0.445 C  
HETATM   10  C   UNL     1     -11.879  11.984  68.309  1.00  0.00    -0.351 C  
HETATM   11  C   UNL     1     -10.426  16.674  65.951  1.00  0.00    -0.324 C  
HETATM   12  C   UNL     1     -11.373  10.508  68.586  1.00  0.00    -0.315 C  
HETATM   13  C   UNL     1     -10.577  17.977  65.643  1.00  0.00    -0.104 C  
HETATM   14  C   UNL     1     -10.486  10.292  67.377  1.00  0.00    -0.251 C  
HETATM   15  C   UNL     1      -8.125  16.077  66.515  1.00  0.00    -0.304 C  
HETATM   16  C   UNL     1     -10.014  18.987  66.554  1.00  0.00    -0.385 C  
HETATM   17  O   UNL     1      -9.696  20.090  66.129  1.00  0.00    -0.417 OA 
HETATM   18  C   UNL     1      -9.555  16.164  67.123  1.00  0.00    -0.235 C  
HETATM   19  C   UNL     1     -10.014  18.625  68.002  1.00  0.00    -0.389 C  
HETATM   20  C   UNL     1      -9.495  17.208  68.290  1.00  0.00    -0.276 C  
ENDROOT
BRANCH  14  21
HETATM   21  O   UNL     1      -9.803   9.068  67.145  1.00  0.00    -0.174 OA 
BRANCH  21  22
HETATM   22  C   UNL     1      -9.850   8.273  68.280  1.00  0.00    -0.172 C  
HETATM   23  O   UNL     1     -10.709   7.420  68.488  1.00  0.00    -0.182 OA 
BRANCH  22  24
HETATM   24  C   UNL     1      -8.612   8.348  69.148  1.00  0.00    -0.134 C  
BRANCH  24  25
HETATM   25  C   UNL     1      -8.794   9.244  70.354  1.00  0.00    -0.271 C  
BRANCH  25  26
HETATM   26  C   UNL     1      -9.154   8.491  71.636  1.00  0.00    -0.296 C  
HETATM   27  C   UNL     1     -10.618   8.736  71.994  1.00  0.00    -0.414 C  
HETATM   28  C   UNL     1     -10.937   7.609  72.955  1.00  0.00    -0.457 C  
HETATM   29  C   UNL     1     -10.211   6.404  72.371  1.00  0.00    -0.204 C  
HETATM   30  C   UNL     1      -9.046   6.962  71.549  1.00  0.00    -0.144 C  
ENDBRANCH  25  26
ENDBRANCH  24  25
ENDBRANCH  22  24
ENDBRANCH  21  22
ENDBRANCH  14  21
TORSDOF 5
ENDMDL
MODEL       39
REMARK 921   NORMALIZED FREE ENERGY PREDICTED BY IDOCK:   -5.74 KCAL/MOL
REMARK 922        TOTAL FREE ENERGY PREDICTED BY IDOCK:   -8.76 KCAL/MOL
REMARK 923 INTER-LIGAND FREE ENERGY PREDICTED BY IDOCK:   -7.63 KCAL/MOL
REMARK 924 INTRA-LIGAND FREE ENERGY PREDICTED BY IDOCK:   -1.13 KCAL/MOL
REMARK 927      BINDING AFFINITY PREDICTED BY RF-SCORE:    0.00 PKD
ROOT
HETATM    1  C   UNL     1     -11.004   9.501  67.271  1.00  0.00    -0.062 C  
HETATM    2  C   UNL     1     -10.019  10.255  68.166  1.00  0.00    -0.168 C  
HETATM    3  C   UNL     1     -10.802  10.750  69.452  1.00  0.00    -0.289 C  
HETATM    4  C   UNL     1     -11.152   9.608  70.476  1.00  0.00    -0.369 C  
HETATM    5  C   UNL     1     -10.074   8.495  70.749  1.00  0.00    -0.237 C  
HETATM    6  C   UNL     1      -9.303   8.250  69.457  1.00  0.00    -0.158 C  
HETATM    7  C   UNL     1      -8.297   7.105  69.480  1.00  0.00    -0.133 C  
HETATM    8  C   UNL     1      -8.799   9.502  68.757  1.00  0.00    -0.132 C  
HETATM    9  C   UNL     1      -9.066   5.816  69.729  1.00  0.00    -0.151 C  
HETATM   10  C   UNL     1      -7.974  10.725  69.339  1.00  0.00    -0.075 C  
HETATM   11  C   UNL     1      -9.784   5.880  71.050  1.00  0.00    -0.209 C  
HETATM   12  C   UNL     1      -8.335  11.932  68.378  1.00  0.00    -0.157 C  
HETATM   13  C   UNL     1      -9.755   4.776  71.821  1.00  0.00    -0.225 C  
HETATM   14  C   UNL     1      -9.125  11.204  67.309  1.00  0.00    -0.150 C  
HETATM   15  C   UNL     1     -12.036   6.767  70.717  1.00  0.00    -0.433 C  
HETATM   16  C   UNL     1     -10.472   4.795  73.106  1.00  0.00    -0.201 C  
HETATM   17  O   UNL     1     -10.882   3.751  73.598  1.00  0.00    -0.201 OA 
HETATM   18  C   UNL     1     -10.660   7.118  71.354  1.00  0.00    -0.234 C  
HETATM   19  C   UNL     1     -10.516   6.113  73.805  1.00  0.00    -0.295 C  
HETATM   20  C   UNL     1     -10.897   7.289  72.893  1.00  0.00    -0.380 C  
ENDROOT
BRANCH  14  21
HETATM   21  O   UNL     1      -9.659  11.870  66.174  1.00  0.00    -0.225 OA 
BRANCH  21  22
HETATM   22  C   UNL     1     -10.004  13.171  66.503  1.00  0.00    -0.268 C  
HETATM   23  O   UNL     1      -9.292  14.149  66.284  1.00  0.00    -0.262 OA 
BRANCH  22  24
HETATM   24  C   UNL     1     -11.446  13.348  66.928  1.00  0.00    -0.376 C  
BRANCH  24  25
HETATM   25  C   UNL     1     -11.676  14.628  67.703  1.00  0.00    -0.389 C  
BRANCH  25  26
HETATM   26  C   UNL     1     -11.400  14.501  69.202  1.00  0.00    -0.305 C  
HETATM   27  C   UNL     1     -11.347  15.885  69.845  1.00  0.00    -0.348 C  
HETATM   28  C   UNL     1     -11.537  15.595  71.319  1.00  0.00    -0.485 C  
HETATM   29  C   UNL     1     -12.583  14.489  71.350  1.00  0.00    -0.411 C  
HETATM   30  C   UNL     1     -12.478  13.762  70.007  1.00  0.00    -0.301 C  
ENDBRANCH  25  26
ENDBRANCH  24  25
ENDBRANCH  22  24
ENDBRANCH  21  22
ENDBRANCH  14  21
TORSDOF 5
ENDMDL
MODEL       40
REMARK 921   NORMALIZED FREE ENERGY PREDICTED BY IDOCK:   -5.72 KCAL/MOL
REMARK 922        TOTAL FREE ENERGY PREDICTED BY IDOCK:   -8.73 KCAL/MOL
REMARK 923 INTER-LIGAND FREE ENERGY PREDICTED BY IDOCK:   -7.02 KCAL/MOL
REMARK 924 INTRA-LIGAND FREE ENERGY PREDICTED BY IDOCK:   -1.70 KCAL/MOL
REMARK 927      BINDING AFFINITY PREDICTED BY RF-SCORE:    0.00 PKD
ROOT
HETATM    1  C   UNL     1     -11.500   6.377  70.082  1.00  0.00    -0.484 C  
HETATM    2  C   UNL     1     -10.486   6.899  71.102  1.00  0.00    -0.234 C  
HETATM    3  C   UNL     1      -9.126   7.188  70.341  1.00  0.00    -0.156 C  
HETATM    4  C   UNL     1      -9.155   8.469  69.430  1.00  0.00    -0.150 C  
HETATM    5  C   UNL     1      -9.895   9.751  69.966  1.00  0.00    -0.295 C  
HETATM    6  C   UNL     1     -11.083   9.298  70.807  1.00  0.00    -0.349 C  
HETATM    7  C   UNL     1     -12.010  10.398  71.310  1.00  0.00    -0.425 C  
HETATM    8  C   UNL     1     -10.772   8.230  71.844  1.00  0.00    -0.350 C  
HETATM    9  C   UNL     1     -12.625  11.079  70.096  1.00  0.00    -0.281 C  
HETATM   10  C   UNL     1      -9.628   8.186  72.941  1.00  0.00    -0.345 C  
HETATM   11  C   UNL     1     -11.550  11.682  69.233  1.00  0.00    -0.385 C  
HETATM   12  C   UNL     1      -9.408   6.641  73.214  1.00  0.00    -0.150 C  
HETATM   13  C   UNL     1     -11.784  12.909  68.725  1.00  0.00    -0.363 C  
HETATM   14  C   UNL     1     -10.553   6.056  72.413  1.00  0.00    -0.217 C  
HETATM   15  C   UNL     1     -10.842  10.060  67.549  1.00  0.00    -0.326 C  
HETATM   16  C   UNL     1     -10.766  13.516  67.853  1.00  0.00    -0.247 C  
HETATM   17  O   UNL     1     -11.091  14.347  67.014  1.00  0.00    -0.297 OA 
HETATM   18  C   UNL     1     -10.347  10.800  68.826  1.00  0.00    -0.209 C  
HETATM   19  C   UNL     1      -9.349  13.169  68.169  1.00  0.00    -0.217 C  
HETATM   20  C   UNL     1      -9.114  11.669  68.404  1.00  0.00    -0.180 C  
ENDROOT
BRANCH  14  21
HETATM   21  O   UNL     1     -10.808   4.659  72.362  1.00  0.00    -0.162 OA 
BRANCH  21  22
HETATM   22  C   UNL     1      -9.642   3.952  72.609  1.00  0.00    -0.136 C  
HETATM   23  O   UNL     1      -9.413   3.347  73.654  1.00  0.00    -0.101 OA 
BRANCH  22  24
HETATM   24  C   UNL     1      -8.759   3.756  71.395  1.00  0.00    -0.130 C  
BRANCH  24  25
HETATM   25  C   UNL     1      -9.512   3.200  70.206  1.00  0.00    -0.224 C  
BRANCH  25  26
HETATM   26  C   UNL     1      -8.802   3.416  68.868  1.00  0.00    -0.164 C  
HETATM   27  C   UNL     1      -9.660   4.289  67.955  1.00  0.00    -0.207 C  
HETATM   28  C   UNL     1      -8.674   4.785  66.917  1.00  0.00    -0.107 C  
HETATM   29  C   UNL     1      -7.406   5.068  67.713  1.00  0.00    -0.075 C  
HETATM   30  C   UNL     1      -7.467   4.169  68.950  1.00  0.00    -0.055 C  
ENDBRANCH  25  26
ENDBRANCH  24  25
ENDBRANCH  22  24
ENDBRANCH  21  22
ENDBRANCH  14  21
TORSDOF 5
ENDMDL
MODEL       41
REMARK 921   NORMALIZED FREE ENERGY PREDICTED BY IDOCK:   -5.70 KCAL/MOL
REMARK 922        TOTAL FREE ENERGY PREDICTED BY IDOCK:   -8.70 KCAL/MOL
REMARK 923 INTER-LIGAND FREE ENERGY PREDICTED BY IDOCK:   -7.53 KCAL/MOL
REMARK 924 INTRA-LIGAND FREE ENERGY PREDICTED BY IDOCK:   -1.17 KCAL/MOL
REMARK 927      BINDING AFFINITY PREDICTED BY RF-SCORE:    0.00 PKD
ROOT
HETATM    1  C   UNL     1     -10.147   8.034  66.381  1.00  0.00    -0.174 C  
HETATM    2  C   UNL     1      -9.695   9.435  66.799  1.00  0.00    -0.257 C  
HETATM    3  C   UNL     1     -10.758  10.009  67.825  1.00  0.00    -0.333 C  
HETATM    4  C   UNL     1     -10.695   9.356  69.254  1.00  0.00    -0.228 C  
HETATM    5  C   UNL     1      -9.281   9.048  69.873  1.00  0.00    -0.181 C  
HETATM    6  C   UNL     1      -8.337   8.667  68.739  1.00  0.00    -0.121 C  
HETATM    7  C   UNL     1      -6.945   8.202  69.149  1.00  0.00    -0.060 C  
HETATM    8  C   UNL     1      -8.347   9.608  67.544  1.00  0.00    -0.118 C  
HETATM    9  C   UNL     1      -7.103   6.932  69.972  1.00  0.00    -0.074 C  
HETATM   10  C   UNL     1      -8.206  11.187  67.497  1.00  0.00    -0.119 C  
HETATM   11  C   UNL     1      -7.925   7.204  71.203  1.00  0.00    -0.102 C  
HETATM   12  C   UNL     1      -8.940  11.605  66.157  1.00  0.00    -0.180 C  
HETATM   13  C   UNL     1      -7.511   6.644  72.356  1.00  0.00    -0.093 C  
HETATM   14  C   UNL     1      -9.208  10.240  65.555  1.00  0.00    -0.190 C  
HETATM   15  C   UNL     1     -10.284   6.788  70.722  1.00  0.00    -0.215 C  
HETATM   16  C   UNL     1      -8.309   6.866  73.573  1.00  0.00    -0.116 C  
HETATM   17  O   UNL     1      -8.280   6.049  74.485  1.00  0.00    -0.111 OA 
HETATM   18  C   UNL     1      -9.280   7.933  71.040  1.00  0.00    -0.164 C  
HETATM   19  C   UNL     1      -8.999   8.186  73.666  1.00  0.00    -0.275 C  
HETATM   20  C   UNL     1      -9.743   8.591  72.384  1.00  0.00    -0.357 C  
ENDROOT
BRANCH  14  21
HETATM   21  O   UNL     1      -9.843  10.078  64.295  1.00  0.00    -0.280 OA 
BRANCH  21  22
HETATM   22  C   UNL     1     -10.237  11.311  63.797  1.00  0.00    -0.377 C  
HETATM   23  O   UNL     1      -9.608  11.945  62.952  1.00  0.00    -0.367 OA 
BRANCH  22  24
HETATM   24  C   UNL     1     -11.644  11.719  64.178  1.00  0.00    -0.394 C  
BRANCH  24  25
HETATM   25  C   UNL     1     -12.000  13.110  63.701  1.00  0.00    -0.580 C  
BRANCH  25  26
HETATM   26  C   UNL     1     -11.938  14.175  64.797  1.00  0.00    -0.441 C  
HETATM   27  C   UNL     1     -12.291  13.558  66.148  1.00  0.00    -0.463 C  
HETATM   28  C   UNL     1     -11.749  14.561  67.145  1.00  0.00    -0.420 C  
HETATM   29  C   UNL     1     -10.427  15.013  66.537  1.00  0.00    -0.285 C  
HETATM   30  C   UNL     1     -10.555  14.799  65.027  1.00  0.00    -0.452 C  
ENDBRANCH  25  26
ENDBRANCH  24  25
ENDBRANCH  22  24
ENDBRANCH  21  22
ENDBRANCH  14  21
TORSDOF 5
ENDMDL
MODEL       42
REMARK 921   NORMALIZED FREE ENERGY PREDICTED BY IDOCK:   -5.69 KCAL/MOL
REMARK 922        TOTAL FREE ENERGY PREDICTED BY IDOCK:   -8.69 KCAL/MOL
REMARK 923 INTER-LIGAND FREE ENERGY PREDICTED BY IDOCK:   -6.85 KCAL/MOL
REMARK 924 INTRA-LIGAND FREE ENERGY PREDICTED BY IDOCK:   -1.84 KCAL/MOL
REMARK 927      BINDING AFFINITY PREDICTED BY RF-SCORE:    0.00 PKD
ROOT
HETATM    1  C   UNL     1      -9.977   7.929  67.537  1.00  0.00    -0.250 C  
HETATM    2  C   UNL     1      -8.802   8.791  68.002  1.00  0.00    -0.141 C  
HETATM    3  C   UNL     1      -7.983   9.239  66.721  1.00  0.00    -0.108 C  
HETATM    4  C   UNL     1      -8.695  10.340  65.851  1.00  0.00    -0.169 C  
HETATM    5  C   UNL     1      -9.447  11.507  66.593  1.00  0.00    -0.208 C  
HETATM    6  C   UNL     1     -10.041  10.947  67.881  1.00  0.00    -0.199 C  
HETATM    7  C   UNL     1     -10.927  11.895  68.681  1.00  0.00    -0.271 C  
HETATM    8  C   UNL     1      -9.084  10.129  68.733  1.00  0.00    -0.153 C  
HETATM    9  C   UNL     1     -12.128  12.249  67.816  1.00  0.00    -0.033 C  
HETATM   10  C   UNL     1      -7.623  10.482  69.238  1.00  0.00    -0.134 C  
HETATM   11  C   UNL     1     -11.680  12.928  66.550  1.00  0.00    -0.453 C  
HETATM   12  C   UNL     1      -6.936   9.072  69.461  1.00  0.00    -0.051 C  
HETATM   13  C   UNL     1     -12.396  13.992  66.135  1.00  0.00    -0.491 C  
HETATM   14  C   UNL     1      -8.122   8.153  69.253  1.00  0.00    -0.117 C  
HETATM   15  C   UNL     1     -11.335  11.258  64.801  1.00  0.00    -0.043 C  
HETATM   16  C   UNL     1     -12.002  14.662  64.884  1.00  0.00    -0.400 C  
HETATM   17  O   UNL     1     -12.833  15.277  64.228  1.00  0.00    -0.482 OA 
HETATM   18  C   UNL     1     -10.567  12.262  65.708  1.00  0.00    -0.289 C  
HETATM   19  C   UNL     1     -10.541  14.663  64.581  1.00  0.00    -0.268 C  
HETATM   20  C   UNL     1      -9.866  13.295  64.762  1.00  0.00    -0.028 C  
ENDROOT
BRANCH  14  21
HETATM   21  O   UNL     1      -8.021   6.742  69.379  1.00  0.00    -0.111 OA 
BRANCH  21  22
HETATM   22  C   UNL     1      -8.470   6.342  70.628  1.00  0.00    -0.134 C  
HETATM   23  O   UNL     1      -7.766   6.310  71.635  1.00  0.00    -0.098 OA 
BRANCH  22  24
HETATM   24  C   UNL     1      -9.972   6.182  70.732  1.00  0.00    -0.229 C  
BRANCH  24  25
HETATM   25  C   UNL     1     -10.600   7.165  71.696  1.00  0.00    -0.229 C  
BRANCH  25  26
HETATM   26  C   UNL     1     -11.554   8.160  71.032  1.00  0.00    -0.301 C  
HETATM   27  C   UNL     1     -12.994   7.858  71.440  1.00  0.00    -0.301 C  
HETATM   28  C   UNL     1     -13.728   9.142  71.111  1.00  0.00    -0.161 C  
HETATM   29  C   UNL     1     -12.755  10.242  71.517  1.00  0.00    -0.557 C  
HETATM   30  C   UNL     1     -11.355   9.627  71.437  1.00  0.00    -0.444 C  
ENDBRANCH  25  26
ENDBRANCH  24  25
ENDBRANCH  22  24
ENDBRANCH  21  22
ENDBRANCH  14  21
TORSDOF 5
ENDMDL
MODEL       43
REMARK 921   NORMALIZED FREE ENERGY PREDICTED BY IDOCK:   -5.67 KCAL/MOL
REMARK 922        TOTAL FREE ENERGY PREDICTED BY IDOCK:   -8.67 KCAL/MOL
REMARK 923 INTER-LIGAND FREE ENERGY PREDICTED BY IDOCK:   -8.10 KCAL/MOL
REMARK 924 INTRA-LIGAND FREE ENERGY PREDICTED BY IDOCK:   -0.57 KCAL/MOL
REMARK 927      BINDING AFFINITY PREDICTED BY RF-SCORE:    0.00 PKD
ROOT
HETATM    1  C   UNL     1     -10.082   8.837  69.575  1.00  0.00    -0.202 C  
HETATM    2  C   UNL     1     -11.273   8.694  70.525  1.00  0.00    -0.266 C  
HETATM    3  C   UNL     1     -11.955   7.290  70.251  1.00  0.00    -0.048 C  
HETATM    4  C   UNL     1     -11.136   6.058  70.787  1.00  0.00    -0.355 C  
HETATM    5  C   UNL     1     -10.427   6.185  72.186  1.00  0.00    -0.237 C  
HETATM    6  C   UNL     1      -9.972   7.629  72.361  1.00  0.00    -0.256 C  
HETATM    7  C   UNL     1      -9.142   7.927  73.604  1.00  0.00    -0.337 C  
HETATM    8  C   UNL     1     -11.027   8.681  72.056  1.00  0.00    -0.432 C  
HETATM    9  C   UNL     1      -7.855   7.119  73.508  1.00  0.00    -0.113 C  
HETATM   10  C   UNL     1     -12.519   8.800  72.577  1.00  0.00    -0.368 C  
HETATM   11  C   UNL     1      -8.164   5.648  73.451  1.00  0.00    -0.113 C  
HETATM   12  C   UNL     1     -13.261   9.632  71.451  1.00  0.00    -0.469 C  
HETATM   13  C   UNL     1      -7.386   4.826  74.182  1.00  0.00    -0.078 C  
HETATM   14  C   UNL     1     -12.084  10.025  70.581  1.00  0.00    -0.292 C  
HETATM   15  C   UNL     1      -8.386   4.945  71.121  1.00  0.00    -0.114 C  
HETATM   16  C   UNL     1      -7.641   3.378  74.126  1.00  0.00    -0.065 C  
HETATM   17  O   UNL     1      -6.737   2.584  74.351  1.00  0.00    -0.027 OA 
HETATM   18  C   UNL     1      -9.210   5.152  72.425  1.00  0.00    -0.148 C  
HETATM   19  C   UNL     1      -9.066   2.977  73.938  1.00  0.00    -0.087 C  
HETATM   20  C   UNL     1      -9.791   3.753  72.828  1.00  0.00    -0.202 C  
ENDROOT
BRANCH  14  21
HETATM   21  O   UNL     1     -12.233  10.831  69.421  1.00  0.00    -0.303 OA 
BRANCH  21  22
HETATM   22  C   UNL     1     -11.919  12.150  69.711  1.00  0.00    -0.302 C  
HETATM   23  O   UNL     1     -12.181  12.701  70.778  1.00  0.00    -0.366 OA 
BRANCH  22  24
HETATM   24  C   UNL     1     -10.992  12.807  68.711  1.00  0.00    -0.289 C  
BRANCH  24  25
HETATM   25  C   UNL     1     -11.732  13.433  67.549  1.00  0.00    -0.406 C  
BRANCH  25  26
HETATM   26  C   UNL     1     -11.867  12.514  66.334  1.00  0.00    -0.445 C  
HETATM   27  C   UNL     1     -12.557  13.254  65.191  1.00  0.00    -0.512 C  
HETATM   28  C   UNL     1     -12.206  12.425  63.973  1.00  0.00    -0.579 C  
HETATM   29  C   UNL     1     -10.756  12.018  64.205  1.00  0.00    -0.382 C  
HETATM   30  C   UNL     1     -10.542  12.041  65.721  1.00  0.00    -0.301 C  
ENDBRANCH  25  26
ENDBRANCH  24  25
ENDBRANCH  22  24
ENDBRANCH  21  22
ENDBRANCH  14  21
TORSDOF 5
ENDMDL
MODEL       44
REMARK 921   NORMALIZED FREE ENERGY PREDICTED BY IDOCK:   -5.61 KCAL/MOL
REMARK 922        TOTAL FREE ENERGY PREDICTED BY IDOCK:   -8.59 KCAL/MOL
REMARK 923 INTER-LIGAND FREE ENERGY PREDICTED BY IDOCK:   -7.87 KCAL/MOL
REMARK 924 INTRA-LIGAND FREE ENERGY PREDICTED BY IDOCK:   -0.72 KCAL/MOL
REMARK 927      BINDING AFFINITY PREDICTED BY RF-SCORE:    0.00 PKD
ROOT
HETATM    1  C   UNL     1     -11.198  10.038  69.722  1.00  0.00    -0.307 C  
HETATM    2  C   UNL     1      -9.895  10.353  68.987  1.00  0.00    -0.222 C  
HETATM    3  C   UNL     1      -8.687   9.929  69.922  1.00  0.00    -0.225 C  
HETATM    4  C   UNL     1      -8.471   8.375  70.033  1.00  0.00    -0.125 C  
HETATM    5  C   UNL     1      -8.636   7.503  68.733  1.00  0.00    -0.129 C  
HETATM    6  C   UNL     1      -9.722   8.135  67.869  1.00  0.00    -0.191 C  
HETATM    7  C   UNL     1     -10.125   7.361  66.621  1.00  0.00    -0.253 C  
HETATM    8  C   UNL     1      -9.583   9.633  67.650  1.00  0.00    -0.167 C  
HETATM    9  C   UNL     1     -10.706   6.027  67.068  1.00  0.00    -0.412 C  
HETATM   10  C   UNL     1      -8.328  10.475  67.169  1.00  0.00    -0.127 C  
HETATM   11  C   UNL     1      -9.680   5.241  67.838  1.00  0.00    -0.174 C  
HETATM   12  C   UNL     1      -8.575  11.921  67.766  1.00  0.00    -0.154 C  
HETATM   13  C   UNL     1      -9.595   3.921  67.580  1.00  0.00    -0.212 C  
HETATM   14  C   UNL     1      -9.980  11.756  68.310  1.00  0.00    -0.200 C  
HETATM   15  C   UNL     1      -9.876   5.746  70.220  1.00  0.00    -0.244 C  
HETATM   16  C   UNL     1      -8.622   3.116  68.337  1.00  0.00    -0.090 C  
HETATM   17  O   UNL     1      -8.812   1.918  68.505  1.00  0.00    -0.074 OA 
HETATM   18  C   UNL     1      -8.932   5.939  68.998  1.00  0.00    -0.122 C  
HETATM   19  C   UNL     1      -7.363   3.817  68.726  1.00  0.00    -0.054 C  
HETATM   20  C   UNL     1      -7.588   5.209  69.336  1.00  0.00    -0.061 C  
ENDROOT
BRANCH  14  21
HETATM   21  O   UNL     1     -10.680  12.820  68.938  1.00  0.00    -0.230 OA 
BRANCH  21  22
HETATM   22  C   UNL     1     -11.569  13.400  68.045  1.00  0.00    -0.334 C  
HETATM   23  O   UNL     1     -12.113  12.793  67.125  1.00  0.00    -0.415 OA 
BRANCH  22  24
HETATM   24  C   UNL     1     -12.029  14.789  68.431  1.00  0.00    -0.270 C  
BRANCH  24  25
HETATM   25  C   UNL     1     -11.412  15.272  69.726  1.00  0.00    -0.332 C  
BRANCH  25  26
HETATM   26  C   UNL     1     -12.416  15.425  70.870  1.00  0.00    -0.474 C  
HETATM   27  C   UNL     1     -12.811  14.053  71.409  1.00  0.00    -0.434 C  
HETATM   28  C   UNL     1     -13.400  14.366  72.769  1.00  0.00    -0.606 C  
HETATM   29  C   UNL     1     -12.501  15.466  73.320  1.00  0.00    -0.603 C  
HETATM   30  C   UNL     1     -11.892  16.171  72.105  1.00  0.00    -0.626 C  
ENDBRANCH  25  26
ENDBRANCH  24  25
ENDBRANCH  22  24
ENDBRANCH  21  22
ENDBRANCH  14  21
TORSDOF 5
ENDMDL
MODEL       45
REMARK 921   NORMALIZED FREE ENERGY PREDICTED BY IDOCK:   -5.52 KCAL/MOL
REMARK 922        TOTAL FREE ENERGY PREDICTED BY IDOCK:   -8.47 KCAL/MOL
REMARK 923 INTER-LIGAND FREE ENERGY PREDICTED BY IDOCK:   -6.95 KCAL/MOL
REMARK 924 INTRA-LIGAND FREE ENERGY PREDICTED BY IDOCK:   -1.52 KCAL/MOL
REMARK 927      BINDING AFFINITY PREDICTED BY RF-SCORE:    0.00 PKD
ROOT
HETATM    1  C   UNL     1     -11.992   6.743  69.762  1.00  0.00    -0.000 C  
HETATM    2  C   UNL     1     -10.799   7.383  70.475  1.00  0.00    -0.259 C  
HETATM    3  C   UNL     1      -9.661   6.289  70.610  1.00  0.00    -0.199 C  
HETATM    4  C   UNL     1      -8.920   5.956  69.263  1.00  0.00    -0.117 C  
HETATM    5  C   UNL     1      -8.582   7.142  68.285  1.00  0.00    -0.122 C  
HETATM    6  C   UNL     1      -9.692   8.181  68.393  1.00  0.00    -0.172 C  
HETATM    7  C   UNL     1      -9.615   9.352  67.420  1.00  0.00    -0.184 C  
HETATM    8  C   UNL     1     -10.070   8.579  69.811  1.00  0.00    -0.197 C  
HETATM    9  C   UNL     1      -9.736   8.793  66.010  1.00  0.00    -0.276 C  
HETATM   10  C   UNL     1      -9.146   9.042  71.013  1.00  0.00    -0.322 C  
HETATM   11  C   UNL     1      -8.613   7.832  65.729  1.00  0.00    -0.162 C  
HETATM   12  C   UNL     1      -9.974   8.665  72.310  1.00  0.00    -0.361 C  
HETATM   13  C   UNL     1      -8.025   7.907  64.518  1.00  0.00    -0.140 C  
HETATM   14  C   UNL     1     -11.287   8.242  71.682  1.00  0.00    -0.272 C  
HETATM   15  C   UNL     1      -9.303   5.566  66.327  1.00  0.00    -0.166 C  
HETATM   16  C   UNL     1      -6.943   6.961  64.200  1.00  0.00    -0.052 C  
HETATM   17  O   UNL     1      -6.714   6.657  63.036  1.00  0.00    -0.040 OA 
HETATM   18  C   UNL     1      -8.331   6.705  66.751  1.00  0.00    -0.115 C  
HETATM   19  C   UNL     1      -6.085   6.547  65.348  1.00  0.00    -0.034 C  
HETATM   20  C   UNL     1      -6.875   6.147  66.604  1.00  0.00    -0.062 C  
ENDROOT
BRANCH  14  21
HETATM   21  O   UNL     1     -12.401   7.829  72.460  1.00  0.00    -0.218 OA 
BRANCH  21  22
HETATM   22  C   UNL     1     -13.425   8.758  72.359  1.00  0.00    -0.401 C  
HETATM   23  O   UNL     1     -14.273   8.945  73.228  1.00  0.00    -0.244 OA 
BRANCH  22  24
HETATM   24  C   UNL     1     -13.284   9.721  71.200  1.00  0.00    -0.404 C  
BRANCH  24  25
HETATM   25  C   UNL     1     -12.952  11.130  71.644  1.00  0.00    -0.548 C  
BRANCH  25  26
HETATM   26  C   UNL     1     -12.044  11.887  70.674  1.00  0.00    -0.389 C  
HETATM   27  C   UNL     1     -12.161  11.291  69.273  1.00  0.00    -0.372 C  
HETATM   28  C   UNL     1     -11.608  12.383  68.380  1.00  0.00    -0.373 C  
HETATM   29  C   UNL     1     -12.140  13.672  68.995  1.00  0.00    -0.348 C  
HETATM   30  C   UNL     1     -12.391  13.369  70.474  1.00  0.00    -0.401 C  
ENDBRANCH  25  26
ENDBRANCH  24  25
ENDBRANCH  22  24
ENDBRANCH  21  22
ENDBRANCH  14  21
TORSDOF 5
ENDMDL
MODEL       46
REMARK 921   NORMALIZED FREE ENERGY PREDICTED BY IDOCK:   -5.51 KCAL/MOL
REMARK 922        TOTAL FREE ENERGY PREDICTED BY IDOCK:   -8.46 KCAL/MOL
REMARK 923 INTER-LIGAND FREE ENERGY PREDICTED BY IDOCK:   -7.51 KCAL/MOL
REMARK 924 INTRA-LIGAND FREE ENERGY PREDICTED BY IDOCK:   -0.96 KCAL/MOL
REMARK 927      BINDING AFFINITY PREDICTED BY RF-SCORE:    0.00 PKD
ROOT
HETATM    1  C   UNL     1      -8.122  10.406  68.672  1.00  0.00    -0.118 C  
HETATM    2  C   UNL     1      -9.638  10.327  68.863  1.00  0.00    -0.193 C  
HETATM    3  C   UNL     1     -10.197   9.200  67.899  1.00  0.00    -0.266 C  
HETATM    4  C   UNL     1      -9.871   7.733  68.361  1.00  0.00    -0.180 C  
HETATM    5  C   UNL     1      -9.968   7.395  69.896  1.00  0.00    -0.188 C  
HETATM    6  C   UNL     1      -9.549   8.631  70.683  1.00  0.00    -0.222 C  
HETATM    7  C   UNL     1      -9.447   8.463  72.195  1.00  0.00    -0.360 C  
HETATM    8  C   UNL     1     -10.209   9.929  70.248  1.00  0.00    -0.322 C  
HETATM    9  C   UNL     1      -8.364   7.432  72.476  1.00  0.00    -0.128 C  
HETATM   10  C   UNL     1     -11.743  10.259  70.020  1.00  0.00    -0.330 C  
HETATM   11  C   UNL     1      -8.720   6.113  71.847  1.00  0.00    -0.137 C  
HETATM   12  C   UNL     1     -11.735  11.457  68.983  1.00  0.00    -0.409 C  
HETATM   13  C   UNL     1      -8.494   5.002  72.576  1.00  0.00    -0.120 C  
HETATM   14  C   UNL     1     -10.251  11.759  68.927  1.00  0.00    -0.100 C  
HETATM   15  C   UNL     1      -7.779   5.996  69.595  1.00  0.00    -0.097 C  
HETATM   16  C   UNL     1      -8.803   3.692  71.979  1.00  0.00    -0.096 C  
HETATM   17  O   UNL     1      -8.209   2.689  72.353  1.00  0.00    -0.054 OA 
HETATM   18  C   UNL     1      -9.133   6.092  70.356  1.00  0.00    -0.158 C  
HETATM   19  C   UNL     1      -9.961   3.665  71.037  1.00  0.00    -0.086 C  
HETATM   20  C   UNL     1      -9.950   4.803  70.005  1.00  0.00    -0.314 C  
ENDROOT
BRANCH  14  21
HETATM   21  O   UNL     1      -9.721  12.809  68.130  1.00  0.00    -0.214 OA 
BRANCH  21  22
HETATM   22  C   UNL     1     -10.458  13.969  68.316  1.00  0.00    -0.244 C  
HETATM   23  O   UNL     1     -10.540  14.567  69.386  1.00  0.00    -0.227 OA 
BRANCH  22  24
HETATM   24  C   UNL     1     -10.960  14.603  67.037  1.00  0.00    -0.317 C  
BRANCH  24  25
HETATM   25  C   UNL     1     -12.407  14.269  66.745  1.00  0.00    -0.280 C  
BRANCH  25  26
HETATM   26  C   UNL     1     -12.604  13.400  65.502  1.00  0.00    -0.520 C  
HETATM   27  C   UNL     1     -12.160  14.161  64.255  1.00  0.00    -0.471 C  
HETATM   28  C   UNL     1     -11.972  13.066  63.224  1.00  0.00    -0.493 C  
HETATM   29  C   UNL     1     -11.340  11.922  64.008  1.00  0.00    -0.475 C  
HETATM   30  C   UNL     1     -11.769  12.112  65.465  1.00  0.00    -0.384 C  
ENDBRANCH  25  26
ENDBRANCH  24  25
ENDBRANCH  22  24
ENDBRANCH  21  22
ENDBRANCH  14  21
TORSDOF 5
ENDMDL
MODEL       47
REMARK 921   NORMALIZED FREE ENERGY PREDICTED BY IDOCK:   -5.50 KCAL/MOL
REMARK 922        TOTAL FREE ENERGY PREDICTED BY IDOCK:   -8.44 KCAL/MOL
REMARK 923 INTER-LIGAND FREE ENERGY PREDICTED BY IDOCK:   -7.66 KCAL/MOL
REMARK 924 INTRA-LIGAND FREE ENERGY PREDICTED BY IDOCK:   -0.79 KCAL/MOL
REMARK 927      BINDING AFFINITY PREDICTED BY RF-SCORE:    0.00 PKD
ROOT
HETATM    1  C   UNL     1     -10.416   9.774  70.664  1.00  0.00    -0.358 C  
HETATM    2  C   UNL     1      -9.508   9.087  69.642  1.00  0.00    -0.174 C  
HETATM    3  C   UNL     1     -10.407   8.611  68.427  1.00  0.00    -0.239 C  
HETATM    4  C   UNL     1     -10.898   9.775  67.491  1.00  0.00    -0.286 C  
HETATM    5  C   UNL     1      -9.890  10.935  67.150  1.00  0.00    -0.213 C  
HETATM    6  C   UNL     1      -8.995  11.160  68.363  1.00  0.00    -0.165 C  
HETATM    7  C   UNL     1      -8.033  12.339  68.280  1.00  0.00    -0.163 C  
HETATM    8  C   UNL     1      -8.382   9.902  68.957  1.00  0.00    -0.130 C  
HETATM    9  C   UNL     1      -8.863  13.609  68.163  1.00  0.00    -0.189 C  
HETATM   10  C   UNL     1      -7.586   8.730  68.245  1.00  0.00    -0.096 C  
HETATM   11  C   UNL     1      -9.714  13.566  66.923  1.00  0.00    -0.261 C  
HETATM   12  C   UNL     1      -7.806   7.478  69.191  1.00  0.00    -0.119 C  
HETATM   13  C   UNL     1      -9.801  14.698  66.196  1.00  0.00    -0.334 C  
HETATM   14  C   UNL     1      -8.501   8.140  70.364  1.00  0.00    -0.129 C  
HETATM   15  C   UNL     1     -11.890  12.591  67.453  1.00  0.00    -0.381 C  
HETATM   16  C   UNL     1     -10.649  14.700  64.993  1.00  0.00    -0.439 C  
HETATM   17  O   UNL     1     -11.140  15.745  64.587  1.00  0.00    -0.445 OA 
HETATM   18  C   UNL     1     -10.579  12.311  66.663  1.00  0.00    -0.257 C  
HETATM   19  C   UNL     1     -10.725  13.407  64.251  1.00  0.00    -0.374 C  
HETATM   20  C   UNL     1     -10.971  12.186  65.152  1.00  0.00    -0.355 C  
ENDROOT
BRANCH  14  21
HETATM   21  O   UNL     1      -8.891   7.416  71.522  1.00  0.00    -0.124 OA 
BRANCH  21  22
HETATM   22  C   UNL     1      -8.280   7.948  72.646  1.00  0.00    -0.136 C  
HETATM   23  O   UNL     1      -7.393   8.798  72.610  1.00  0.00    -0.336 OA 
BRANCH  22  24
HETATM   24  C   UNL     1      -8.958   7.596  73.953  1.00  0.00    -0.321 C  
BRANCH  24  25
HETATM   25  C   UNL     1     -10.347   7.028  73.758  1.00  0.00    -0.408 C  
BRANCH  25  26
HETATM   26  C   UNL     1     -10.478   5.559  74.162  1.00  0.00    -0.297 C  
HETATM   27  C   UNL     1     -11.337   4.810  73.147  1.00  0.00    -0.380 C  
HETATM   28  C   UNL     1     -10.996   3.356  73.402  1.00  0.00    -0.306 C  
HETATM   29  C   UNL     1      -9.496   3.367  73.668  1.00  0.00    -0.126 C  
HETATM   30  C   UNL     1      -9.162   4.768  74.187  1.00  0.00    -0.115 C  
ENDBRANCH  25  26
ENDBRANCH  24  25
ENDBRANCH  22  24
ENDBRANCH  21  22
ENDBRANCH  14  21
TORSDOF 5
ENDMDL
MODEL       48
REMARK 921   NORMALIZED FREE ENERGY PREDICTED BY IDOCK:   -5.43 KCAL/MOL
REMARK 922        TOTAL FREE ENERGY PREDICTED BY IDOCK:   -8.35 KCAL/MOL
REMARK 923 INTER-LIGAND FREE ENERGY PREDICTED BY IDOCK:   -7.59 KCAL/MOL
REMARK 924 INTRA-LIGAND FREE ENERGY PREDICTED BY IDOCK:   -0.77 KCAL/MOL
REMARK 927      BINDING AFFINITY PREDICTED BY RF-SCORE:    0.00 PKD
ROOT
HETATM    1  C   UNL     1     -10.716  10.791  69.743  1.00  0.00    -0.241 C  
HETATM    2  C   UNL     1     -10.194  10.265  68.405  1.00  0.00    -0.189 C  
HETATM    3  C   UNL     1     -11.357  10.397  67.336  1.00  0.00    -0.045 C  
HETATM    4  C   UNL     1     -11.638  11.871  66.865  1.00  0.00    -0.358 C  
HETATM    5  C   UNL     1     -10.409  12.824  66.622  1.00  0.00    -0.252 C  
HETATM    6  C   UNL     1      -9.319  12.462  67.624  1.00  0.00    -0.188 C  
HETATM    7  C   UNL     1      -8.092  13.364  67.639  1.00  0.00    -0.175 C  
HETATM    8  C   UNL     1      -8.998  10.979  67.723  1.00  0.00    -0.140 C  
HETATM    9  C   UNL     1      -8.546  14.761  68.040  1.00  0.00    -0.166 C  
HETATM   10  C   UNL     1      -8.671   9.935  66.575  1.00  0.00    -0.139 C  
HETATM   11  C   UNL     1      -9.547  15.290  67.050  1.00  0.00    -0.233 C  
HETATM   12  C   UNL     1      -9.088   8.536  67.189  1.00  0.00    -0.164 C  
HETATM   13  C   UNL     1      -9.423  16.580  66.678  1.00  0.00    -0.278 C  
HETATM   14  C   UNL     1      -9.393   8.944  68.616  1.00  0.00    -0.140 C  
HETATM   15  C   UNL     1     -11.806  14.709  67.776  1.00  0.00    -0.359 C  
HETATM   16  C   UNL     1     -10.404  17.139  65.734  1.00  0.00    -0.240 C  
HETATM   17  O   UNL     1     -10.640  18.340  65.731  1.00  0.00    -0.554 OA 
HETATM   18  C   UNL     1     -10.754  14.400  66.672  1.00  0.00    -0.292 C  
HETATM   19  C   UNL     1     -10.943  16.187  64.719  1.00  0.00    -0.330 C  
HETATM   20  C   UNL     1     -11.383  14.836  65.304  1.00  0.00    -0.363 C  
ENDROOT
BRANCH  14  21
HETATM   21  O   UNL     1      -9.795   8.005  69.604  1.00  0.00    -0.179 OA 
BRANCH  21  22
HETATM   22  C   UNL     1      -8.804   7.869  70.564  1.00  0.00    -0.141 C  
HETATM   23  O   UNL     1      -7.642   7.557  70.314  1.00  0.00    -0.086 OA 
BRANCH  22  24
HETATM   24  C   UNL     1      -9.187   8.381  71.936  1.00  0.00    -0.306 C  
BRANCH  24  25
HETATM   25  C   UNL     1     -10.683   8.379  72.167  1.00  0.00    -0.407 C  
BRANCH  25  26
HETATM   26  C   UNL     1     -11.163   7.273  73.107  1.00  0.00    -0.263 C  
HETATM   27  C   UNL     1     -11.534   6.027  72.306  1.00  0.00    -0.364 C  
HETATM   28  C   UNL     1     -11.529   4.926  73.347  1.00  0.00    -0.306 C  
HETATM   29  C   UNL     1     -10.337   5.258  74.235  1.00  0.00    -0.308 C  
HETATM   30  C   UNL     1     -10.117   6.768  74.111  1.00  0.00    -0.381 C  
ENDBRANCH  25  26
ENDBRANCH  24  25
ENDBRANCH  22  24
ENDBRANCH  21  22
ENDBRANCH  14  21
TORSDOF 5
ENDMDL
MODEL       49
REMARK 921   NORMALIZED FREE ENERGY PREDICTED BY IDOCK:   -5.41 KCAL/MOL
REMARK 922        TOTAL FREE ENERGY PREDICTED BY IDOCK:   -8.33 KCAL/MOL
REMARK 923 INTER-LIGAND FREE ENERGY PREDICTED BY IDOCK:   -6.94 KCAL/MOL
REMARK 924 INTRA-LIGAND FREE ENERGY PREDICTED BY IDOCK:   -1.38 KCAL/MOL
REMARK 927      BINDING AFFINITY PREDICTED BY RF-SCORE:    0.00 PKD
ROOT
HETATM    1  C   UNL     1     -10.738   7.653  67.084  1.00  0.00    -0.361 C  
HETATM    2  C   UNL     1      -9.430   7.881  67.844  1.00  0.00    -0.160 C  
HETATM    3  C   UNL     1      -8.608   9.003  67.086  1.00  0.00    -0.119 C  
HETATM    4  C   UNL     1      -9.185  10.457  67.261  1.00  0.00    -0.157 C  
HETATM    5  C   UNL     1      -9.725  10.879  68.678  1.00  0.00    -0.188 C  
HETATM    6  C   UNL     1     -10.341   9.651  69.339  1.00  0.00    -0.226 C  
HETATM    7  C   UNL     1     -11.042   9.884  70.672  1.00  0.00    -0.409 C  
HETATM    8  C   UNL     1      -9.480   8.398  69.305  1.00  0.00    -0.155 C  
HETATM    9  C   UNL     1     -12.213  10.824  70.422  1.00  0.00    -0.437 C  
HETATM   10  C   UNL     1      -7.963   8.200  69.721  1.00  0.00    -0.111 C  
HETATM   11  C   UNL     1     -11.723  12.138  69.875  1.00  0.00    -0.361 C  
HETATM   12  C   UNL     1      -7.483   6.955  68.866  1.00  0.00    -0.096 C  
HETATM   13  C   UNL     1     -12.289  13.259  70.364  1.00  0.00    -0.365 C  
HETATM   14  C   UNL     1      -8.800   6.515  68.260  1.00  0.00    -0.119 C  
HETATM   15  C   UNL     1     -11.702  12.054  67.433  1.00  0.00    -0.352 C  
HETATM   16  C   UNL     1     -11.854  14.559  69.829  1.00  0.00    -0.315 C  
HETATM   17  O   UNL     1     -12.612  15.521  69.857  1.00  0.00    -0.300 OA 
HETATM   18  C   UNL     1     -10.756  12.121  68.667  1.00  0.00    -0.261 C  
HETATM   19  C   UNL     1     -10.423  14.645  69.415  1.00  0.00    -0.175 C  
HETATM   20  C   UNL     1      -9.951  13.460  68.558  1.00  0.00    -0.193 C  
ENDROOT
BRANCH  14  21
HETATM   21  O   UNL     1      -8.903   5.382  67.409  1.00  0.00    -0.108 OA 
BRANCH  21  22
HETATM   22  C   UNL     1      -9.409   4.301  68.114  1.00  0.00    -0.152 C  
HETATM   23  O   UNL     1      -9.233   3.128  67.793  1.00  0.00    -0.162 OA 
BRANCH  22  24
HETATM   24  C   UNL     1      -9.991   4.651  69.466  1.00  0.00    -0.266 C  
BRANCH  24  25
HETATM   25  C   UNL     1      -9.632   3.643  70.537  1.00  0.00    -0.256 C  
BRANCH  25  26
HETATM   26  C   UNL     1      -9.607   4.225  71.951  1.00  0.00    -0.212 C  
HETATM   27  C   UNL     1      -9.905   5.722  71.908  1.00  0.00    -0.195 C  
HETATM   28  C   UNL     1     -10.299   6.044  73.335  1.00  0.00    -0.247 C  
HETATM   29  C   UNL     1     -11.132   4.844  73.770  1.00  0.00    -0.295 C  
HETATM   30  C   UNL     1     -10.669   3.666  72.908  1.00  0.00    -0.192 C  
ENDBRANCH  25  26
ENDBRANCH  24  25
ENDBRANCH  22  24
ENDBRANCH  21  22
ENDBRANCH  14  21
TORSDOF 5
ENDMDL
MODEL       50
REMARK 921   NORMALIZED FREE ENERGY PREDICTED BY IDOCK:   -5.40 KCAL/MOL
REMARK 922        TOTAL FREE ENERGY PREDICTED BY IDOCK:   -8.32 KCAL/MOL
REMARK 923 INTER-LIGAND FREE ENERGY PREDICTED BY IDOCK:   -7.68 KCAL/MOL
REMARK 924 INTRA-LIGAND FREE ENERGY PREDICTED BY IDOCK:   -0.64 KCAL/MOL
REMARK 927      BINDING AFFINITY PREDICTED BY RF-SCORE:    0.00 PKD
ROOT
HETATM    1  C   UNL     1      -9.243  10.335  68.964  1.00  0.00    -0.188 C  
HETATM    2  C   UNL     1      -9.205  10.385  67.436  1.00  0.00    -0.154 C  
HETATM    3  C   UNL     1      -7.726  10.058  66.970  1.00  0.00    -0.095 C  
HETATM    4  C   UNL     1      -7.320   8.546  67.120  1.00  0.00    -0.084 C  
HETATM    5  C   UNL     1      -8.385   7.447  66.752  1.00  0.00    -0.122 C  
HETATM    6  C   UNL     1      -9.765   7.980  67.116  1.00  0.00    -0.255 C  
HETATM    7  C   UNL     1     -10.926   7.006  66.958  1.00  0.00    -0.357 C  
HETATM    8  C   UNL     1     -10.066   9.386  66.621  1.00  0.00    -0.332 C  
HETATM    9  C   UNL     1     -10.691   5.844  67.912  1.00  0.00    -0.336 C  
HETATM   10  C   UNL     1      -9.908  10.005  65.170  1.00  0.00    -0.388 C  
HETATM   11  C   UNL     1      -9.400   5.146  67.579  1.00  0.00    -0.131 C  
HETATM   12  C   UNL     1      -9.725  11.557  65.425  1.00  0.00    -0.262 C  
HETATM   13  C   UNL     1      -9.403   3.799  67.610  1.00  0.00    -0.240 C  
HETATM   14  C   UNL     1      -9.996  11.624  66.914  1.00  0.00    -0.202 C  
HETATM   15  C   UNL     1      -7.575   6.137  68.866  1.00  0.00    -0.092 C  
HETATM   16  C   UNL     1      -8.149   3.085  67.318  1.00  0.00    -0.078 C  
HETATM   17  O   UNL     1      -7.956   1.966  67.778  1.00  0.00    -0.058 OA 
HETATM   18  C   UNL     1      -8.120   5.999  67.415  1.00  0.00    -0.106 C  
HETATM   19  C   UNL     1      -7.243   3.741  66.331  1.00  0.00    -0.064 C  
HETATM   20  C   UNL     1      -7.029   5.242  66.584  1.00  0.00    -0.064 C  
ENDROOT
BRANCH  14  21
HETATM   21  O   UNL     1      -9.979  12.848  67.634  1.00  0.00    -0.210 OA 
BRANCH  21  22
HETATM   22  C   UNL     1     -11.263  13.362  67.732  1.00  0.00    -0.279 C  
HETATM   23  O   UNL     1     -12.284  12.704  67.546  1.00  0.00    -0.389 OA 
BRANCH  22  24
HETATM   24  C   UNL     1     -11.339  14.747  68.338  1.00  0.00    -0.317 C  
BRANCH  24  25
HETATM   25  C   UNL     1     -11.059  14.752  69.826  1.00  0.00    -0.288 C  
BRANCH  25  26
HETATM   26  C   UNL     1     -12.318  14.694  70.692  1.00  0.00    -0.398 C  
HETATM   27  C   UNL     1     -12.580  13.259  71.143  1.00  0.00    -0.412 C  
HETATM   28  C   UNL     1     -13.524  13.427  72.317  1.00  0.00    -0.683 C  
HETATM   29  C   UNL     1     -12.993  14.653  73.049  1.00  0.00    -0.610 C  
HETATM   30  C   UNL     1     -12.246  15.487  72.005  1.00  0.00    -0.484 C  
ENDBRANCH  25  26
ENDBRANCH  24  25
ENDBRANCH  22  24
ENDBRANCH  21  22
ENDBRANCH  14  21
TORSDOF 5
ENDMDL
MODEL       51
REMARK 921   NORMALIZED FREE ENERGY PREDICTED BY IDOCK:   -5.38 KCAL/MOL
REMARK 922        TOTAL FREE ENERGY PREDICTED BY IDOCK:   -8.29 KCAL/MOL
REMARK 923 INTER-LIGAND FREE ENERGY PREDICTED BY IDOCK:   -7.49 KCAL/MOL
REMARK 924 INTRA-LIGAND FREE ENERGY PREDICTED BY IDOCK:   -0.80 KCAL/MOL
REMARK 927      BINDING AFFINITY PREDICTED BY RF-SCORE:    0.00 PKD
ROOT
HETATM    1  C   UNL     1     -11.571  14.725  66.421  1.00  0.00    -0.301 C  
HETATM    2  C   UNL     1     -10.978  15.095  67.782  1.00  0.00    -0.306 C  
HETATM    3  C   UNL     1     -11.888  14.450  68.907  1.00  0.00    -0.355 C  
HETATM    4  C   UNL     1     -11.732  12.891  69.050  1.00  0.00    -0.375 C  
HETATM    5  C   UNL     1     -10.290  12.271  68.933  1.00  0.00    -0.085 C  
HETATM    6  C   UNL     1      -9.494  13.101  67.933  1.00  0.00    -0.218 C  
HETATM    7  C   UNL     1      -8.107  12.580  67.579  1.00  0.00    -0.176 C  
HETATM    8  C   UNL     1      -9.553  14.605  68.149  1.00  0.00    -0.213 C  
HETATM    9  C   UNL     1      -8.276  11.221  66.914  1.00  0.00    -0.153 C  
HETATM   10  C   UNL     1      -9.301  15.450  69.466  1.00  0.00    -0.252 C  
HETATM   11  C   UNL     1      -8.950  10.259  67.854  1.00  0.00    -0.131 C  
HETATM   12  C   UNL     1     -10.131  16.780  69.242  1.00  0.00    -0.240 C  
HETATM   13  C   UNL     1      -8.466   9.002  67.901  1.00  0.00    -0.121 C  
HETATM   14  C   UNL     1     -10.557  16.597  67.800  1.00  0.00    -0.342 C  
HETATM   15  C   UNL     1     -11.370  10.349  67.526  1.00  0.00    -0.112 C  
HETATM   16  C   UNL     1      -9.121   8.027  68.788  1.00  0.00    -0.144 C  
HETATM   17  O   UNL     1      -9.063   6.830  68.536  1.00  0.00    -0.131 OA 
HETATM   18  C   UNL     1     -10.256  10.702  68.555  1.00  0.00    -0.191 C  
HETATM   19  C   UNL     1      -9.699   8.580  70.047  1.00  0.00    -0.172 C  
HETATM   20  C   UNL     1     -10.534   9.854  69.842  1.00  0.00    -0.309 C  
ENDROOT
BRANCH  14  21
HETATM   21  O   UNL     1     -11.324  17.571  67.106  1.00  0.00     0.242 OA 
BRANCH  21  22
HETATM   22  C   UNL     1     -10.657  17.975  65.960  1.00  0.00    -0.251 C  
HETATM   23  O   UNL     1     -10.945  17.597  64.826  1.00  0.00    -0.917 OA 
BRANCH  22  24
HETATM   24  C   UNL     1      -9.697  19.127  66.167  1.00  0.00    -0.360 C  
BRANCH  24  25
HETATM   25  C   UNL     1      -8.308  18.669  66.557  1.00  0.00    -0.304 C  
BRANCH  25  26
HETATM   26  C   UNL     1      -7.808  19.262  67.875  1.00  0.00    -0.324 C  
HETATM   27  C   UNL     1      -6.726  18.369  68.475  1.00  0.00    -0.253 C  
HETATM   28  C   UNL     1      -6.030  19.278  69.467  1.00  0.00    -0.288 C  
HETATM   29  C   UNL     1      -5.972  20.626  68.759  1.00  0.00    -0.383 C  
HETATM   30  C   UNL     1      -7.131  20.635  67.759  1.00  0.00    -0.325 C  
ENDBRANCH  25  26
ENDBRANCH  24  25
ENDBRANCH  22  24
ENDBRANCH  21  22
ENDBRANCH  14  21
TORSDOF 5
ENDMDL
MODEL       52
REMARK 921   NORMALIZED FREE ENERGY PREDICTED BY IDOCK:   -5.37 KCAL/MOL
REMARK 922        TOTAL FREE ENERGY PREDICTED BY IDOCK:   -8.28 KCAL/MOL
REMARK 923 INTER-LIGAND FREE ENERGY PREDICTED BY IDOCK:   -7.66 KCAL/MOL
REMARK 924 INTRA-LIGAND FREE ENERGY PREDICTED BY IDOCK:   -0.62 KCAL/MOL
REMARK 927      BINDING AFFINITY PREDICTED BY RF-SCORE:    0.00 PKD
ROOT
HETATM    1  C   UNL     1     -11.203  11.261  68.460  1.00  0.00    -0.311 C  
HETATM    2  C   UNL     1     -10.757  11.308  66.997  1.00  0.00    -0.305 C  
HETATM    3  C   UNL     1     -11.764  12.241  66.205  1.00  0.00    -0.431 C  
HETATM    4  C   UNL     1     -11.593  13.776  66.505  1.00  0.00    -0.386 C  
HETATM    5  C   UNL     1     -10.135  14.351  66.649  1.00  0.00    -0.276 C  
HETATM    6  C   UNL     1      -9.258  13.275  67.279  1.00  0.00    -0.222 C  
HETATM    7  C   UNL     1      -7.832  13.686  67.625  1.00  0.00    -0.178 C  
HETATM    8  C   UNL     1      -9.368  11.898  66.645  1.00  0.00    -0.210 C  
HETATM    9  C   UNL     1      -7.908  14.792  68.668  1.00  0.00    -0.140 C  
HETATM   10  C   UNL     1      -9.266  11.474  65.120  1.00  0.00    -0.065 C  
HETATM   11  C   UNL     1      -8.654  15.978  68.121  1.00  0.00    -0.171 C  
HETATM   12  C   UNL     1     -10.095  10.127  65.033  1.00  0.00    -0.305 C  
HETATM   13  C   UNL     1      -8.153  17.200  68.391  1.00  0.00    -0.255 C  
HETATM   14  C   UNL     1     -10.370   9.880  66.503  1.00  0.00    -0.188 C  
HETATM   15  C   UNL     1     -11.029  15.771  68.653  1.00  0.00    -0.307 C  
HETATM   16  C   UNL     1      -8.875  18.383  67.895  1.00  0.00    -0.280 C  
HETATM   17  O   UNL     1      -8.768  19.457  68.475  1.00  0.00    -0.352 OA 
HETATM   18  C   UNL     1     -10.032  15.743  67.459  1.00  0.00    -0.236 C  
HETATM   19  C   UNL     1      -9.587  18.212  66.595  1.00  0.00    -0.306 C  
HETATM   20  C   UNL     1     -10.422  16.925  66.507  1.00  0.00    -0.253 C  
ENDROOT
BRANCH  14  21
HETATM   21  O   UNL     1     -11.082   8.738  66.960  1.00  0.00     0.072 OA 
BRANCH  21  22
HETATM   22  C   UNL     1     -10.196   7.771  67.407  1.00  0.00    -0.251 C  
HETATM   23  O   UNL     1      -9.024   7.995  67.703  1.00  0.00    -0.134 OA 
BRANCH  22  24
HETATM   24  C   UNL     1     -10.839   6.446  67.756  1.00  0.00    -0.418 C  
BRANCH  24  25
HETATM   25  C   UNL     1     -11.505   6.457  69.116  1.00  0.00    -0.265 C  
BRANCH  25  26
HETATM   26  C   UNL     1     -10.566   6.094  70.267  1.00  0.00    -0.319 C  
HETATM   27  C   UNL     1     -11.331   6.097  71.588  1.00  0.00    -0.341 C  
HETATM   28  C   UNL     1     -10.438   5.297  72.514  1.00  0.00    -0.266 C  
HETATM   29  C   UNL     1      -9.909   4.169  71.637  1.00  0.00    -0.254 C  
HETATM   30  C   UNL     1      -9.958   4.686  70.197  1.00  0.00    -0.304 C  
ENDBRANCH  25  26
ENDBRANCH  24  25
ENDBRANCH  22  24
ENDBRANCH  21  22
ENDBRANCH  14  21
TORSDOF 5
ENDMDL
MODEL       53
REMARK 921   NORMALIZED FREE ENERGY PREDICTED BY IDOCK:   -5.33 KCAL/MOL
REMARK 922        TOTAL FREE ENERGY PREDICTED BY IDOCK:   -8.23 KCAL/MOL
REMARK 923 INTER-LIGAND FREE ENERGY PREDICTED BY IDOCK:   -6.65 KCAL/MOL
REMARK 924 INTRA-LIGAND FREE ENERGY PREDICTED BY IDOCK:   -1.57 KCAL/MOL
REMARK 927      BINDING AFFINITY PREDICTED BY RF-SCORE:    0.00 PKD
ROOT
HETATM    1  C   UNL     1     -11.888   6.652  70.040  1.00  0.00    -0.301 C  
HETATM    2  C   UNL     1     -10.687   6.823  70.972  1.00  0.00    -0.265 C  
HETATM    3  C   UNL     1     -10.260   5.388  71.493  1.00  0.00    -0.280 C  
HETATM    4  C   UNL     1      -9.539   4.497  70.415  1.00  0.00    -0.270 C  
HETATM    5  C   UNL     1      -8.501   5.185  69.452  1.00  0.00    -0.090 C  
HETATM    6  C   UNL     1      -8.974   6.607  69.177  1.00  0.00    -0.131 C  
HETATM    7  C   UNL     1      -8.169   7.399  68.154  1.00  0.00    -0.124 C  
HETATM    8  C   UNL     1      -9.365   7.408  70.410  1.00  0.00    -0.161 C  
HETATM    9  C   UNL     1      -8.284   6.682  66.817  1.00  0.00    -0.114 C  
HETATM   10  C   UNL     1      -8.569   7.641  71.761  1.00  0.00    -0.130 C  
HETATM   11  C   UNL     1      -7.731   5.287  66.921  1.00  0.00    -0.096 C  
HETATM   12  C   UNL     1      -9.697   7.942  72.832  1.00  0.00    -0.339 C  
HETATM   13  C   UNL     1      -6.971   4.847  65.898  1.00  0.00    -0.066 C  
HETATM   14  C   UNL     1     -10.912   8.032  71.931  1.00  0.00    -0.263 C  
HETATM   15  C   UNL     1      -9.520   3.737  67.527  1.00  0.00    -0.237 C  
HETATM   16  C   UNL     1      -6.439   3.476  65.955  1.00  0.00    -0.033 C  
HETATM   17  O   UNL     1      -6.176   2.875  64.920  1.00  0.00    -0.022 OA 
HETATM   18  C   UNL     1      -8.217   4.384  68.079  1.00  0.00    -0.094 C  
HETATM   19  C   UNL     1      -6.110   2.963  67.316  1.00  0.00    -0.028 C  
HETATM   20  C   UNL     1      -7.209   3.218  68.360  1.00  0.00    -0.050 C  
ENDROOT
BRANCH  14  21
HETATM   21  O   UNL     1     -12.209   8.324  72.433  1.00  0.00    -0.361 OA 
BRANCH  21  22
HETATM   22  C   UNL     1     -12.689   9.493  71.863  1.00  0.00    -0.411 C  
HETATM   23  O   UNL     1     -13.770  10.004  72.148  1.00  0.00    -0.332 OA 
BRANCH  22  24
HETATM   24  C   UNL     1     -11.672  10.250  71.037  1.00  0.00    -0.461 C  
BRANCH  24  25
HETATM   25  C   UNL     1     -12.237  10.748  69.724  1.00  0.00    -0.359 C  
BRANCH  25  26
HETATM   26  C   UNL     1     -11.176  11.022  68.657  1.00  0.00    -0.322 C  
HETATM   27  C   UNL     1     -10.885   9.748  67.868  1.00  0.00    -0.298 C  
HETATM   28  C   UNL     1     -10.212  10.261  66.610  1.00  0.00    -0.294 C  
HETATM   29  C   UNL     1     -10.983  11.529  66.266  1.00  0.00    -0.328 C  
HETATM   30  C   UNL     1     -11.576  12.040  67.581  1.00  0.00    -0.392 C  
ENDBRANCH  25  26
ENDBRANCH  24  25
ENDBRANCH  22  24
ENDBRANCH  21  22
ENDBRANCH  14  21
TORSDOF 5
ENDMDL
MODEL       54
REMARK 921   NORMALIZED FREE ENERGY PREDICTED BY IDOCK:   -5.31 KCAL/MOL
REMARK 922        TOTAL FREE ENERGY PREDICTED BY IDOCK:   -8.21 KCAL/MOL
REMARK 923 INTER-LIGAND FREE ENERGY PREDICTED BY IDOCK:   -7.20 KCAL/MOL
REMARK 924 INTRA-LIGAND FREE ENERGY PREDICTED BY IDOCK:   -1.00 KCAL/MOL
REMARK 927      BINDING AFFINITY PREDICTED BY RF-SCORE:    0.00 PKD
ROOT
HETATM    1  C   UNL     1     -11.015  10.683  69.607  1.00  0.00    -0.331 C  
HETATM    2  C   UNL     1      -9.680  10.855  68.880  1.00  0.00    -0.198 C  
HETATM    3  C   UNL     1      -8.536  10.267  69.805  1.00  0.00    -0.078 C  
HETATM    4  C   UNL     1      -8.510   8.695  69.881  1.00  0.00    -0.129 C  
HETATM    5  C   UNL     1      -8.775   7.880  68.561  1.00  0.00    -0.131 C  
HETATM    6  C   UNL     1      -9.773   8.658  67.711  1.00  0.00    -0.202 C  
HETATM    7  C   UNL     1     -10.263   7.967  66.445  1.00  0.00    -0.071 C  
HETATM    8  C   UNL     1      -9.453  10.133  67.526  1.00  0.00    -0.172 C  
HETATM    9  C   UNL     1     -11.002   6.704  66.862  1.00  0.00    -0.396 C  
HETATM   10  C   UNL     1      -8.104  10.827  67.065  1.00  0.00    -0.124 C  
HETATM   11  C   UNL     1     -10.082   5.782  67.614  1.00  0.00    -0.205 C  
HETATM   12  C   UNL     1      -8.177  12.279  67.695  1.00  0.00    -0.166 C  
HETATM   13  C   UNL     1     -10.155   4.467  67.325  1.00  0.00    -0.138 C  
HETATM   14  C   UNL     1      -9.593  12.273  68.235  1.00  0.00    -0.212 C  
HETATM   15  C   UNL     1     -10.223   6.253  70.007  1.00  0.00    -0.237 C  
HETATM   16  C   UNL     1      -9.290   3.534  68.064  1.00  0.00    -0.184 C  
HETATM   17  O   UNL     1      -9.624   2.364  68.205  1.00  0.00    -0.206 OA 
HETATM   18  C   UNL     1      -9.259   6.357  68.790  1.00  0.00    -0.127 C  
HETATM   19  C   UNL     1      -7.957   4.068  68.470  1.00  0.00    -0.072 C  
HETATM   20  C   UNL     1      -8.014   5.463  69.112  1.00  0.00    -0.094 C  
ENDROOT
BRANCH  14  21
HETATM   21  O   UNL     1     -10.162  13.400  68.886  1.00  0.00    -0.164 OA 
BRANCH  21  22
HETATM   22  C   UNL     1      -9.863  14.558  68.185  1.00  0.00    -0.223 C  
HETATM   23  O   UNL     1      -8.968  15.339  68.497  1.00  0.00    -0.173 OA 
BRANCH  22  24
HETATM   24  C   UNL     1     -10.554  14.673  66.844  1.00  0.00    -0.281 C  
BRANCH  24  25
HETATM   25  C   UNL     1     -11.990  14.196  66.880  1.00  0.00    -0.479 C  
BRANCH  25  26
HETATM   26  C   UNL     1     -12.390  13.344  65.675  1.00  0.00    -0.521 C  
HETATM   27  C   UNL     1     -12.093  14.095  64.380  1.00  0.00    -0.486 C  
HETATM   28  C   UNL     1     -12.092  13.001  63.332  1.00  0.00    -0.591 C  
HETATM   29  C   UNL     1     -11.404  11.828  64.019  1.00  0.00    -0.461 C  
HETATM   30  C   UNL     1     -11.620  12.025  65.522  1.00  0.00    -0.352 C  
ENDBRANCH  25  26
ENDBRANCH  24  25
ENDBRANCH  22  24
ENDBRANCH  21  22
ENDBRANCH  14  21
TORSDOF 5
ENDMDL
MODEL       55
REMARK 921   NORMALIZED FREE ENERGY PREDICTED BY IDOCK:   -5.30 KCAL/MOL
REMARK 922        TOTAL FREE ENERGY PREDICTED BY IDOCK:   -8.19 KCAL/MOL
REMARK 923 INTER-LIGAND FREE ENERGY PREDICTED BY IDOCK:   -7.76 KCAL/MOL
REMARK 924 INTRA-LIGAND FREE ENERGY PREDICTED BY IDOCK:   -0.43 KCAL/MOL
REMARK 927      BINDING AFFINITY PREDICTED BY RF-SCORE:    0.00 PKD
ROOT
HETATM    1  C   UNL     1      -8.527  11.421  66.020  1.00  0.00    -0.058 C  
HETATM    2  C   UNL     1      -9.637  11.386  67.072  1.00  0.00    -0.192 C  
HETATM    3  C   UNL     1      -9.103  12.111  68.376  1.00  0.00    -0.151 C  
HETATM    4  C   UNL     1      -9.008  13.676  68.252  1.00  0.00    -0.187 C  
HETATM    5  C   UNL     1     -10.164  14.437  67.502  1.00  0.00    -0.240 C  
HETATM    6  C   UNL     1     -10.675  13.541  66.380  1.00  0.00    -0.287 C  
HETATM    7  C   UNL     1     -11.711  14.155  65.447  1.00  0.00    -0.347 C  
HETATM    8  C   UNL     1     -10.979  12.107  66.785  1.00  0.00    -0.325 C  
HETATM    9  C   UNL     1     -11.061  15.335  64.741  1.00  0.00    -0.407 C  
HETATM   10  C   UNL     1     -11.851  11.559  67.991  1.00  0.00    -0.287 C  
HETATM   11  C   UNL     1     -10.614  16.364  65.744  1.00  0.00    -0.327 C  
HETATM   12  C   UNL     1     -11.259  10.118  68.277  1.00  0.00    -0.246 C  
HETATM   13  C   UNL     1     -10.839  17.658  65.440  1.00  0.00     0.104 C  
HETATM   14  C   UNL     1     -10.305   9.977  67.108  1.00  0.00    -0.241 C  
HETATM   15  C   UNL     1      -8.306  15.917  66.408  1.00  0.00    -0.310 C  
HETATM   16  C   UNL     1     -10.388  18.692  66.386  1.00  0.00    -0.432 C  
HETATM   17  O   UNL     1     -10.127  19.820  65.986  1.00  0.00    -0.450 OA 
HETATM   18  C   UNL     1      -9.765  15.901  66.950  1.00  0.00    -0.241 C  
HETATM   19  C   UNL     1     -10.429  18.314  67.829  1.00  0.00    -0.430 C  
HETATM   20  C   UNL     1      -9.829  16.932  68.127  1.00  0.00    -0.264 C  
ENDROOT
BRANCH  14  21
HETATM   21  O   UNL     1      -9.532   8.804  66.897  1.00  0.00    -0.155 OA 
BRANCH  21  22
HETATM   22  C   UNL     1     -10.169   7.705  67.451  1.00  0.00    -0.251 C  
HETATM   23  O   UNL     1     -11.163   7.170  66.966  1.00  0.00    -0.277 OA 
BRANCH  22  24
HETATM   24  C   UNL     1      -9.405   7.038  68.574  1.00  0.00    -0.135 C  
BRANCH  24  25
HETATM   25  C   UNL     1      -9.981   7.346  69.940  1.00  0.00    -0.188 C  
BRANCH  25  26
HETATM   26  C   UNL     1     -10.646   6.147  70.616  1.00  0.00    -0.307 C  
HETATM   27  C   UNL     1      -9.594   5.285  71.309  1.00  0.00    -0.212 C  
HETATM   28  C   UNL     1     -10.406   4.454  72.281  1.00  0.00    -0.230 C  
HETATM   29  C   UNL     1     -11.454   5.423  72.815  1.00  0.00    -0.333 C  
HETATM   30  C   UNL     1     -11.636   6.494  71.737  1.00  0.00    -0.359 C  
ENDBRANCH  25  26
ENDBRANCH  24  25
ENDBRANCH  22  24
ENDBRANCH  21  22
ENDBRANCH  14  21
TORSDOF 5
ENDMDL
MODEL       56
REMARK 921   NORMALIZED FREE ENERGY PREDICTED BY IDOCK:   -5.29 KCAL/MOL
REMARK 922        TOTAL FREE ENERGY PREDICTED BY IDOCK:   -8.18 KCAL/MOL
REMARK 923 INTER-LIGAND FREE ENERGY PREDICTED BY IDOCK:   -6.98 KCAL/MOL
REMARK 924 INTRA-LIGAND FREE ENERGY PREDICTED BY IDOCK:   -1.20 KCAL/MOL
REMARK 927      BINDING AFFINITY PREDICTED BY RF-SCORE:    0.00 PKD
ROOT
HETATM    1  C   UNL     1     -11.610  10.993  70.532  1.00  0.00    -0.344 C  
HETATM    2  C   UNL     1     -10.504  10.332  69.706  1.00  0.00    -0.300 C  
HETATM    3  C   UNL     1     -11.148   9.795  68.362  1.00  0.00    -0.142 C  
HETATM    4  C   UNL     1     -11.512  10.920  67.325  1.00  0.00    -0.104 C  
HETATM    5  C   UNL     1     -10.510  12.119  67.142  1.00  0.00    -0.241 C  
HETATM    6  C   UNL     1      -9.858  12.406  68.490  1.00  0.00    -0.156 C  
HETATM    7  C   UNL     1      -8.948  13.627  68.552  1.00  0.00    -0.102 C  
HETATM    8  C   UNL     1      -9.308  11.188  69.214  1.00  0.00     0.123 C  
HETATM    9  C   UNL     1      -9.797  14.855  68.257  1.00  0.00    -0.218 C  
HETATM   10  C   UNL     1      -8.348  10.042  68.686  1.00  0.00    -0.116 C  
HETATM   11  C   UNL     1     -10.408  14.752  66.886  1.00  0.00    -0.267 C  
HETATM   12  C   UNL     1      -8.681   8.797  69.606  1.00  0.00    -0.136 C  
HETATM   13  C   UNL     1     -10.412  15.867  66.128  1.00  0.00    -0.336 C  
HETATM   14  C   UNL     1      -9.603   9.445  70.620  1.00  0.00    -0.268 C  
HETATM   15  C   UNL     1     -12.601  13.686  67.042  1.00  0.00     0.070 C  
HETATM   16  C   UNL     1     -11.029  15.809  64.793  1.00  0.00    -0.393 C  
HETATM   17  O   UNL     1     -11.483  16.825  64.281  1.00  0.00    -1.125 OA 
HETATM   18  C   UNL     1     -11.158  13.454  66.506  1.00  0.00    -0.312 C  
HETATM   19  C   UNL     1     -10.915  14.503  64.081  1.00  0.00     0.277 C  
HETATM   20  C   UNL     1     -11.266  13.287  64.952  1.00  0.00    -0.338 C  
ENDROOT
BRANCH  14  21
HETATM   21  O   UNL     1     -10.164   8.722  71.706  1.00  0.00    -0.281 OA 
BRANCH  21  22
HETATM   22  C   UNL     1      -9.164   8.077  72.418  1.00  0.00    -0.202 C  
HETATM   23  O   UNL     1      -8.168   8.639  72.868  1.00  0.00    -0.393 OA 
BRANCH  22  24
HETATM   24  C   UNL     1      -9.503   6.661  72.830  1.00  0.00    -0.153 C  
BRANCH  24  25
HETATM   25  C   UNL     1     -10.729   6.122  72.124  1.00  0.00    -0.277 C  
BRANCH  25  26
HETATM   26  C   UNL     1     -10.411   5.290  70.881  1.00  0.00    -0.303 C  
HETATM   27  C   UNL     1     -10.864   6.030  69.625  1.00  0.00    -0.439 C  
HETATM   28  C   UNL     1     -10.093   5.343  68.516  1.00  0.00    -0.242 C  
HETATM   29  C   UNL     1      -8.717   5.092  69.119  1.00  0.00    -0.103 C  
HETATM   30  C   UNL     1      -8.919   5.024  70.635  1.00  0.00    -0.164 C  
ENDBRANCH  25  26
ENDBRANCH  24  25
ENDBRANCH  22  24
ENDBRANCH  21  22
ENDBRANCH  14  21
TORSDOF 5
ENDMDL
MODEL       57
REMARK 921   NORMALIZED FREE ENERGY PREDICTED BY IDOCK:   -5.27 KCAL/MOL
REMARK 922        TOTAL FREE ENERGY PREDICTED BY IDOCK:   -8.15 KCAL/MOL
REMARK 923 INTER-LIGAND FREE ENERGY PREDICTED BY IDOCK:   -7.43 KCAL/MOL
REMARK 924 INTRA-LIGAND FREE ENERGY PREDICTED BY IDOCK:   -0.72 KCAL/MOL
REMARK 927      BINDING AFFINITY PREDICTED BY RF-SCORE:    0.00 PKD
ROOT
HETATM    1  C   UNL     1      -8.920   9.832  69.792  1.00  0.00    -0.239 C  
HETATM    2  C   UNL     1      -9.247   8.902  68.622  1.00  0.00    -0.137 C  
HETATM    3  C   UNL     1      -8.099   7.815  68.520  1.00  0.00    -0.123 C  
HETATM    4  C   UNL     1      -8.143   6.721  69.650  1.00  0.00    -0.126 C  
HETATM    5  C   UNL     1      -9.545   6.159  70.090  1.00  0.00    -0.187 C  
HETATM    6  C   UNL     1     -10.567   7.285  69.979  1.00  0.00    -0.247 C  
HETATM    7  C   UNL     1     -11.968   6.975  70.490  1.00  0.00    -0.315 C  
HETATM    8  C   UNL     1     -10.543   8.052  68.666  1.00  0.00    -0.143 C  
HETATM    9  C   UNL     1     -11.866   6.684  71.980  1.00  0.00    -0.365 C  
HETATM   10  C   UNL     1     -10.570   7.511  67.176  1.00  0.00    -0.415 C  
HETATM   11  C   UNL     1     -10.969   5.500  72.223  1.00  0.00    -0.296 C  
HETATM   12  C   UNL     1      -9.871   8.655  66.332  1.00  0.00    -0.341 C  
HETATM   13  C   UNL     1     -11.369   4.603  73.145  1.00  0.00    -0.355 C  
HETATM   14  C   UNL     1      -9.732   9.730  67.391  1.00  0.00    -0.163 C  
HETATM   15  C   UNL     1      -8.672   6.264  72.553  1.00  0.00    -0.120 C  
HETATM   16  C   UNL     1     -10.501   3.449  73.428  1.00  0.00    -0.175 C  
HETATM   17  O   UNL     1     -10.547   2.897  74.521  1.00  0.00    -0.169 OA 
HETATM   18  C   UNL     1      -9.574   5.481  71.555  1.00  0.00    -0.188 C  
HETATM   19  C   UNL     1      -9.713   2.931  72.272  1.00  0.00    -0.225 C  
HETATM   20  C   UNL     1      -9.002   4.026  71.463  1.00  0.00    -0.161 C  
ENDROOT
BRANCH  14  21
HETATM   21  O   UNL     1      -9.170  11.004  67.110  1.00  0.00    -0.152 OA 
BRANCH  21  22
HETATM   22  C   UNL     1     -10.067  11.771  66.382  1.00  0.00    -0.210 C  
HETATM   23  O   UNL     1      -9.883  12.126  65.220  1.00  0.00    -0.249 OA 
BRANCH  22  24
HETATM   24  C   UNL     1     -11.423  11.936  67.034  1.00  0.00    -0.384 C  
BRANCH  24  25
HETATM   25  C   UNL     1     -11.903  13.371  67.031  1.00  0.00    -0.443 C  
BRANCH  25  26
HETATM   26  C   UNL     1     -10.844  14.379  67.477  1.00  0.00    -0.285 C  
HETATM   27  C   UNL     1     -10.590  15.399  66.370  1.00  0.00    -0.307 C  
HETATM   28  C   UNL     1      -9.915  16.545  67.094  1.00  0.00    -0.266 C  
HETATM   29  C   UNL     1     -10.657  16.635  68.422  1.00  0.00    -0.343 C  
HETATM   30  C   UNL     1     -11.227  15.239  68.690  1.00  0.00    -0.303 C  
ENDBRANCH  25  26
ENDBRANCH  24  25
ENDBRANCH  22  24
ENDBRANCH  21  22
ENDBRANCH  14  21
TORSDOF 5
ENDMDL
MODEL       58
REMARK 921   NORMALIZED FREE ENERGY PREDICTED BY IDOCK:   -5.27 KCAL/MOL
REMARK 922        TOTAL FREE ENERGY PREDICTED BY IDOCK:   -8.15 KCAL/MOL
REMARK 923 INTER-LIGAND FREE ENERGY PREDICTED BY IDOCK:   -7.33 KCAL/MOL
REMARK 924 INTRA-LIGAND FREE ENERGY PREDICTED BY IDOCK:   -0.82 KCAL/MOL
REMARK 927      BINDING AFFINITY PREDICTED BY RF-SCORE:    0.00 PKD
ROOT
HETATM    1  C   UNL     1     -11.576  11.886  69.144  1.00  0.00    -0.373 C  
HETATM    2  C   UNL     1     -10.859  11.689  67.807  1.00  0.00    -0.264 C  
HETATM    3  C   UNL     1     -11.711  12.409  66.681  1.00  0.00    -0.438 C  
HETATM    4  C   UNL     1     -11.627  13.980  66.711  1.00  0.00    -0.406 C  
HETATM    5  C   UNL     1     -10.233  14.647  67.011  1.00  0.00    -0.261 C  
HETATM    6  C   UNL     1      -9.475  13.751  67.985  1.00  0.00    -0.207 C  
HETATM    7  C   UNL     1      -8.150  14.293  68.505  1.00  0.00    -0.147 C  
HETATM    8  C   UNL     1      -9.438  12.278  67.613  1.00  0.00    -0.188 C  
HETATM    9  C   UNL     1      -8.442  15.565  69.288  1.00  0.00    -0.265 C  
HETATM   10  C   UNL     1      -9.038  11.589  66.241  1.00  0.00    -0.215 C  
HETATM   11  C   UNL     1      -9.090  16.591  68.398  1.00  0.00    -0.222 C  
HETATM   12  C   UNL     1      -9.812  10.207  66.258  1.00  0.00    -0.288 C  
HETATM   13  C   UNL     1      -8.671  17.866  68.521  1.00  0.00    -0.297 C  
HETATM   14  C   UNL     1     -10.360  10.218  67.671  1.00  0.00    -0.220 C  
HETATM   15  C   UNL     1     -11.519  16.359  68.511  1.00  0.00    -0.209 C  
HETATM   16  C   UNL     1      -9.304  18.899  67.686  1.00  0.00    -0.296 C  
HETATM   17  O   UNL     1      -9.329  20.064  68.062  1.00  0.00    -0.337 OA 
HETATM   18  C   UNL     1     -10.312  16.167  67.549  1.00  0.00    -0.286 C  
HETATM   19  C   UNL     1      -9.751  18.457  66.333  1.00  0.00    -0.343 C  
HETATM   20  C   UNL     1     -10.531  17.134  66.336  1.00  0.00    -0.255 C  
ENDROOT
BRANCH  14  21
HETATM   21  O   UNL     1     -11.127   9.143  68.196  1.00  0.00    -0.030 OA 
BRANCH  21  22
HETATM   22  C   UNL     1     -10.431   8.515  69.217  1.00  0.00    -0.215 C  
HETATM   23  O   UNL     1     -10.535   8.813  70.405  1.00  0.00    -0.197 OA 
BRANCH  22  24
HETATM   24  C   UNL     1      -9.714   7.249  68.800  1.00  0.00    -0.151 C  
BRANCH  24  25
HETATM   25  C   UNL     1     -10.664   6.126  68.444  1.00  0.00    -0.361 C  
BRANCH  25  26
HETATM   26  C   UNL     1     -10.398   5.501  67.074  1.00  0.00    -0.306 C  
HETATM   27  C   UNL     1      -9.360   6.325  66.315  1.00  0.00    -0.155 C  
HETATM   28  C   UNL     1      -8.872   5.373  65.242  1.00  0.00    -0.132 C  
HETATM   29  C   UNL     1      -8.797   4.024  65.947  1.00  0.00    -0.123 C  
HETATM   30  C   UNL     1      -9.798   4.089  67.104  1.00  0.00    -0.144 C  
ENDBRANCH  25  26
ENDBRANCH  24  25
ENDBRANCH  22  24
ENDBRANCH  21  22
ENDBRANCH  14  21
TORSDOF 5
ENDMDL
MODEL       59
REMARK 921   NORMALIZED FREE ENERGY PREDICTED BY IDOCK:   -5.24 KCAL/MOL
REMARK 922        TOTAL FREE ENERGY PREDICTED BY IDOCK:   -8.11 KCAL/MOL
REMARK 923 INTER-LIGAND FREE ENERGY PREDICTED BY IDOCK:   -7.10 KCAL/MOL
REMARK 924 INTRA-LIGAND FREE ENERGY PREDICTED BY IDOCK:   -1.02 KCAL/MOL
REMARK 927      BINDING AFFINITY PREDICTED BY RF-SCORE:    0.00 PKD
ROOT
HETATM    1  C   UNL     1     -10.225  10.146  66.039  1.00  0.00    -0.288 C  
HETATM    2  C   UNL     1      -9.486  10.032  67.373  1.00  0.00    -0.176 C  
HETATM    3  C   UNL     1      -8.088  10.762  67.226  1.00  0.00    -0.117 C  
HETATM    4  C   UNL     1      -8.179  12.332  67.194  1.00  0.00    -0.179 C  
HETATM    5  C   UNL     1      -9.194  13.041  68.166  1.00  0.00    -0.212 C  
HETATM    6  C   UNL     1     -10.411  12.138  68.326  1.00  0.00    -0.225 C  
HETATM    7  C   UNL     1     -11.573  12.709  69.130  1.00  0.00    -0.374 C  
HETATM    8  C   UNL     1     -10.100  10.683  68.640  1.00  0.00    -0.194 C  
HETATM    9  C   UNL     1     -12.089  13.936  68.392  1.00  0.00    -0.327 C  
HETATM   10  C   UNL     1      -9.154  10.066  69.753  1.00  0.00    -0.219 C  
HETATM   11  C   UNL     1     -11.003  14.971  68.272  1.00  0.00    -0.274 C  
HETATM   12  C   UNL     1      -8.732   8.655  69.169  1.00  0.00    -0.136 C  
HETATM   13  C   UNL     1     -11.350  16.255  68.488  1.00  0.00    -0.330 C  
HETATM   14  C   UNL     1      -9.623   8.587  67.946  1.00  0.00    -0.152 C  
HETATM   15  C   UNL     1      -9.781  14.640  66.182  1.00  0.00    -0.344 C  
HETATM   16  C   UNL     1     -10.318  17.296  68.349  1.00  0.00    -0.366 C  
HETATM   17  O   UNL     1     -10.636  18.443  68.062  1.00  0.00    -0.381 OA 
HETATM   18  C   UNL     1      -9.623  14.534  67.727  1.00  0.00    -0.215 C  
HETATM   19  C   UNL     1      -8.933  16.892  68.729  1.00  0.00    -0.256 C  
HETATM   20  C   UNL     1      -8.497  15.540  68.144  1.00  0.00    -0.147 C  
ENDROOT
BRANCH  14  21
HETATM   21  O   UNL     1      -9.636   7.463  67.078  1.00  0.00    -0.152 OA 
BRANCH  21  22
HETATM   22  C   UNL     1      -8.435   6.778  67.167  1.00  0.00    -0.120 C  
HETATM   23  O   UNL     1      -7.389   7.150  66.639  1.00  0.00    -0.080 OA 
BRANCH  22  24
HETATM   24  C   UNL     1      -8.429   5.653  68.180  1.00  0.00    -0.098 C  
BRANCH  24  25
HETATM   25  C   UNL     1      -9.781   4.989  68.327  1.00  0.00    -0.200 C  
BRANCH  25  26
HETATM   26  C   UNL     1     -10.385   5.120  69.726  1.00  0.00    -0.332 C  
HETATM   27  C   UNL     1      -9.296   5.463  70.738  1.00  0.00    -0.200 C  
HETATM   28  C   UNL     1     -10.073   6.003  71.921  1.00  0.00    -0.223 C  
HETATM   29  C   UNL     1     -11.184   6.832  71.289  1.00  0.00    -0.319 C  
HETATM   30  C   UNL     1     -11.412   6.249  69.892  1.00  0.00    -0.459 C  
ENDBRANCH  25  26
ENDBRANCH  24  25
ENDBRANCH  22  24
ENDBRANCH  21  22
ENDBRANCH  14  21
TORSDOF 5
ENDMDL
MODEL       60
REMARK 921   NORMALIZED FREE ENERGY PREDICTED BY IDOCK:   -5.22 KCAL/MOL
REMARK 922        TOTAL FREE ENERGY PREDICTED BY IDOCK:   -8.08 KCAL/MOL
REMARK 923 INTER-LIGAND FREE ENERGY PREDICTED BY IDOCK:   -7.17 KCAL/MOL
REMARK 924 INTRA-LIGAND FREE ENERGY PREDICTED BY IDOCK:   -0.91 KCAL/MOL
REMARK 927      BINDING AFFINITY PREDICTED BY RF-SCORE:    0.00 PKD
ROOT
HETATM    1  C   UNL     1      -9.403   9.474  70.300  1.00  0.00    -0.305 C  
HETATM    2  C   UNL     1     -10.195   8.410  69.538  1.00  0.00    -0.207 C  
HETATM    3  C   UNL     1     -11.155   9.150  68.516  1.00  0.00     0.117 C  
HETATM    4  C   UNL     1     -10.420   9.768  67.270  1.00  0.00    -0.324 C  
HETATM    5  C   UNL     1      -9.259   8.941  66.603  1.00  0.00    -0.215 C  
HETATM    6  C   UNL     1      -8.536   8.165  67.698  1.00  0.00    -0.130 C  
HETATM    7  C   UNL     1      -7.288   7.402  67.270  1.00  0.00    -0.098 C  
HETATM    8  C   UNL     1      -9.439   7.392  68.646  1.00  0.00    -0.139 C  
HETATM    9  C   UNL     1      -6.270   8.417  66.771  1.00  0.00    -0.055 C  
HETATM   10  C   UNL     1     -10.615   6.379  68.324  1.00  0.00    -0.312 C  
HETATM   11  C   UNL     1      -6.822   9.178  65.596  1.00  0.00    -0.077 C  
HETATM   12  C   UNL     1     -11.551   6.448  69.601  1.00  0.00    -0.351 C  
HETATM   13  C   UNL     1      -5.987   9.404  64.563  1.00  0.00    -0.076 C  
HETATM   14  C   UNL     1     -10.701   7.306  70.516  1.00  0.00    -0.232 C  
HETATM   15  C   UNL     1      -7.953  11.196  66.382  1.00  0.00    -0.147 C  
HETATM   16  C   UNL     1      -6.486  10.172  63.409  1.00  0.00    -0.136 C  
HETATM   17  O   UNL     1      -5.706  10.801  62.705  1.00  0.00    -0.155 OA 
HETATM   18  C   UNL     1      -8.226   9.814  65.721  1.00  0.00    -0.122 C  
HETATM   19  C   UNL     1      -7.933   9.997  63.090  1.00  0.00    -0.148 C  
HETATM   20  C   UNL     1      -8.856  10.094  64.314  1.00  0.00    -0.244 C  
ENDROOT
BRANCH  14  21
HETATM   21  O   UNL     1     -11.107   7.640  71.836  1.00  0.00    -0.236 OA 
BRANCH  21  22
HETATM   22  C   UNL     1     -12.445   7.999  71.848  1.00  0.00    -0.330 C  
HETATM   23  O   UNL     1     -13.369   7.218  71.630  1.00  0.00    -0.370 OA 
BRANCH  22  24
HETATM   24  C   UNL     1     -12.719   9.380  72.402  1.00  0.00    -0.350 C  
BRANCH  24  25
HETATM   25  C   UNL     1     -13.145  10.366  71.336  1.00  0.00    -0.512 C  
BRANCH  25  26
HETATM   26  C   UNL     1     -12.578  11.773  71.531  1.00  0.00    -0.320 C  
HETATM   27  C   UNL     1     -12.207  12.382  70.181  1.00  0.00    -0.303 C  
HETATM   28  C   UNL     1     -12.118  13.865  70.477  1.00  0.00    -0.426 C  
HETATM   29  C   UNL     1     -13.272  14.123  71.438  1.00  0.00    -0.418 C  
HETATM   30  C   UNL     1     -13.550  12.792  72.142  1.00  0.00    -0.547 C  
ENDBRANCH  25  26
ENDBRANCH  24  25
ENDBRANCH  22  24
ENDBRANCH  21  22
ENDBRANCH  14  21
TORSDOF 5
ENDMDL
MODEL       61
REMARK 921   NORMALIZED FREE ENERGY PREDICTED BY IDOCK:   -5.21 KCAL/MOL
REMARK 922        TOTAL FREE ENERGY PREDICTED BY IDOCK:   -8.07 KCAL/MOL
REMARK 923 INTER-LIGAND FREE ENERGY PREDICTED BY IDOCK:   -7.52 KCAL/MOL
REMARK 924 INTRA-LIGAND FREE ENERGY PREDICTED BY IDOCK:   -0.55 KCAL/MOL
REMARK 927      BINDING AFFINITY PREDICTED BY RF-SCORE:    0.00 PKD
ROOT
HETATM    1  C   UNL     1      -8.253  12.228  68.234  1.00  0.00    -0.167 C  
HETATM    2  C   UNL     1      -9.549  12.187  67.422  1.00  0.00    -0.177 C  
HETATM    3  C   UNL     1      -9.272  11.368  66.094  1.00  0.00    -0.223 C  
HETATM    4  C   UNL     1      -9.132   9.816  66.308  1.00  0.00    -0.192 C  
HETATM    5  C   UNL     1     -10.107   9.113  67.324  1.00  0.00    -0.295 C  
HETATM    6  C   UNL     1     -10.399  10.089  68.458  1.00  0.00    -0.217 C  
HETATM    7  C   UNL     1     -11.223   9.545  69.619  1.00  0.00    -0.138 C  
HETATM    8  C   UNL     1     -10.798  11.489  68.019  1.00  0.00    -0.259 C  
HETATM    9  C   UNL     1     -10.429   8.419  70.265  1.00  0.00    -0.225 C  
HETATM   10  C   UNL     1     -11.898  11.948  66.973  1.00  0.00    -0.192 C  
HETATM   11  C   UNL     1     -10.175   7.319  69.270  1.00  0.00    -0.193 C  
HETATM   12  C   UNL     1     -11.394  13.364  66.473  1.00  0.00    -0.346 C  
HETATM   13  C   UNL     1     -10.317   6.051  69.704  1.00  0.00    -0.294 C  
HETATM   14  C   UNL     1     -10.231  13.590  67.417  1.00  0.00    -0.237 C  
HETATM   15  C   UNL     1      -8.049   7.716  68.133  1.00  0.00    -0.124 C  
HETATM   16  C   UNL     1     -10.047   4.950  68.764  1.00  0.00    -0.099 C  
HETATM   17  O   UNL     1      -9.696   3.855  69.185  1.00  0.00    -0.176 OA 
HETATM   18  C   UNL     1      -9.586   7.693  67.890  1.00  0.00    -0.164 C  
HETATM   19  C   UNL     1     -10.376   5.222  67.335  1.00  0.00    -0.237 C  
HETATM   20  C   UNL     1      -9.866   6.578  66.825  1.00  0.00    -0.213 C  
ENDROOT
BRANCH  14  21
HETATM   21  O   UNL     1      -9.448  14.774  67.387  1.00  0.00    -0.201 OA 
BRANCH  21  22
HETATM   22  C   UNL     1     -10.256  15.875  67.148  1.00  0.00    -0.278 C  
HETATM   23  O   UNL     1     -11.114  16.281  67.928  1.00  0.00    -0.332 OA 
BRANCH  22  24
HETATM   24  C   UNL     1      -9.838  16.711  65.957  1.00  0.00    -0.335 C  
BRANCH  24  25
HETATM   25  C   UNL     1      -8.481  17.356  66.141  1.00  0.00    -0.198 C  
BRANCH  25  26
HETATM   26  C   UNL     1      -8.536  18.737  66.797  1.00  0.00    -0.292 C  
HETATM   27  C   UNL     1      -9.773  19.495  66.322  1.00  0.00    -0.481 C  
HETATM   28  C   UNL     1      -9.938  20.584  67.362  1.00  0.00    -0.525 C  
HETATM   29  C   UNL     1      -9.597  19.897  68.678  1.00  0.00    -0.348 C  
HETATM   30  C   UNL     1      -8.671  18.730  68.326  1.00  0.00    -0.363 C  
ENDBRANCH  25  26
ENDBRANCH  24  25
ENDBRANCH  22  24
ENDBRANCH  21  22
ENDBRANCH  14  21
TORSDOF 5
ENDMDL
MODEL       62
REMARK 921   NORMALIZED FREE ENERGY PREDICTED BY IDOCK:   -5.21 KCAL/MOL
REMARK 922        TOTAL FREE ENERGY PREDICTED BY IDOCK:   -8.07 KCAL/MOL
REMARK 923 INTER-LIGAND FREE ENERGY PREDICTED BY IDOCK:   -6.09 KCAL/MOL
REMARK 924 INTRA-LIGAND FREE ENERGY PREDICTED BY IDOCK:   -1.98 KCAL/MOL
REMARK 927      BINDING AFFINITY PREDICTED BY RF-SCORE:    0.00 PKD
ROOT
HETATM    1  C   UNL     1      -9.095   5.257  70.015  1.00  0.00    -0.163 C  
HETATM    2  C   UNL     1      -7.808   6.079  70.103  1.00  0.00    -0.101 C  
HETATM    3  C   UNL     1      -7.220   6.230  68.639  1.00  0.00    -0.085 C  
HETATM    4  C   UNL     1      -8.019   7.226  67.721  1.00  0.00    -0.115 C  
HETATM    5  C   UNL     1      -8.554   8.563  68.357  1.00  0.00    -0.139 C  
HETATM    6  C   UNL     1      -8.927   8.284  69.809  1.00  0.00    -0.146 C  
HETATM    7  C   UNL     1      -9.593   9.427  70.564  1.00  0.00    -0.330 C  
HETATM    8  C   UNL     1      -7.874   7.541  70.615  1.00  0.00    -0.095 C  
HETATM    9  C   UNL     1     -10.913   9.734  69.872  1.00  0.00    -0.299 C  
HETATM   10  C   UNL     1      -6.326   7.844  70.785  1.00  0.00    -0.037 C  
HETATM   11  C   UNL     1     -10.673  10.147  68.445  1.00  0.00    -0.266 C  
HETATM   12  C   UNL     1      -5.689   6.437  71.138  1.00  0.00    -0.027 C  
HETATM   13  C   UNL     1     -11.393  11.184  67.975  1.00  0.00    -0.380 C  
HETATM   14  C   UNL     1      -6.943   5.604  71.311  1.00  0.00    -0.066 C  
HETATM   15  C   UNL     1     -10.754   8.181  66.997  1.00  0.00    -0.247 C  
HETATM   16  C   UNL     1     -11.204  11.595  66.574  1.00  0.00    -0.294 C  
HETATM   17  O   UNL     1     -12.108  12.161  65.971  1.00  0.00    -0.612 OA 
HETATM   18  C   UNL     1      -9.775   9.253  67.558  1.00  0.00    -0.201 C  
HETATM   19  C   UNL     1      -9.828  11.417  66.025  1.00  0.00    -0.256 C  
HETATM   20  C   UNL     1      -9.208  10.045  66.332  1.00  0.00    -0.191 C  
ENDROOT
BRANCH  14  21
HETATM   21  O   UNL     1      -6.898   4.232  71.673  1.00  0.00    -0.029 OA 
BRANCH  21  22
HETATM   22  C   UNL     1      -7.260   4.076  73.002  1.00  0.00    -0.067 C  
HETATM   23  O   UNL     1      -6.504   4.278  73.949  1.00  0.00    -0.043 OA 
BRANCH  22  24
HETATM   24  C   UNL     1      -8.744   3.882  73.228  1.00  0.00    -0.091 C  
BRANCH  24  25
HETATM   25  C   UNL     1      -9.252   4.617  74.450  1.00  0.00    -0.120 C  
BRANCH  25  26
HETATM   26  C   UNL     1     -10.410   5.573  74.161  1.00  0.00    -0.302 C  
HETATM   27  C   UNL     1      -9.883   6.862  73.536  1.00  0.00    -0.272 C  
HETATM   28  C   UNL     1     -11.114   7.473  72.900  1.00  0.00    -0.426 C  
HETATM   29  C   UNL     1     -11.862   6.281  72.316  1.00  0.00    -0.326 C  
HETATM   30  C   UNL     1     -11.440   5.064  73.142  1.00  0.00    -0.362 C  
ENDBRANCH  25  26
ENDBRANCH  24  25
ENDBRANCH  22  24
ENDBRANCH  21  22
ENDBRANCH  14  21
TORSDOF 5
ENDMDL
MODEL       63
REMARK 921   NORMALIZED FREE ENERGY PREDICTED BY IDOCK:   -5.20 KCAL/MOL
REMARK 922        TOTAL FREE ENERGY PREDICTED BY IDOCK:   -8.06 KCAL/MOL
REMARK 923 INTER-LIGAND FREE ENERGY PREDICTED BY IDOCK:   -6.33 KCAL/MOL
REMARK 924 INTRA-LIGAND FREE ENERGY PREDICTED BY IDOCK:   -1.74 KCAL/MOL
REMARK 927      BINDING AFFINITY PREDICTED BY RF-SCORE:    0.00 PKD
ROOT
HETATM    1  C   UNL     1     -10.625  11.429  67.661  1.00  0.00    -0.240 C  
HETATM    2  C   UNL     1      -9.151  11.655  68.002  1.00  0.00    -0.177 C  
HETATM    3  C   UNL     1      -8.740  10.612  69.123  1.00  0.00    -0.135 C  
HETATM    4  C   UNL     1      -8.591   9.134  68.608  1.00  0.00    -0.128 C  
HETATM    5  C   UNL     1      -7.914   8.897  67.207  1.00  0.00    -0.097 C  
HETATM    6  C   UNL     1      -8.277  10.065  66.298  1.00  0.00    -0.124 C  
HETATM    7  C   UNL     1      -7.823   9.955  64.847  1.00  0.00    -0.136 C  
HETATM    8  C   UNL     1      -8.076  11.444  66.905  1.00  0.00    -0.158 C  
HETATM    9  C   UNL     1      -8.519   8.749  64.233  1.00  0.00    -0.130 C  
HETATM   10  C   UNL     1      -6.809  12.053  67.639  1.00  0.00    -0.115 C  
HETATM   11  C   UNL     1      -8.142   7.494  64.973  1.00  0.00    -0.127 C  
HETATM   12  C   UNL     1      -7.408  13.175  68.585  1.00  0.00    -0.102 C  
HETATM   13  C   UNL     1      -7.881   6.398  64.235  1.00  0.00    -0.114 C  
HETATM   14  C   UNL     1      -8.851  13.180  68.123  1.00  0.00    -0.194 C  
HETATM   15  C   UNL     1      -9.749   7.087  66.768  1.00  0.00    -0.241 C  
HETATM   16  C   UNL     1      -7.539   5.145  64.929  1.00  0.00    -0.078 C  
HETATM   17  O   UNL     1      -7.759   4.066  64.394  1.00  0.00    -0.081 OA 
HETATM   18  C   UNL     1      -8.265   7.481  66.515  1.00  0.00    -0.123 C  
HETATM   19  C   UNL     1      -6.790   5.297  66.210  1.00  0.00    -0.059 C  
HETATM   20  C   UNL     1      -7.377   6.359  67.153  1.00  0.00    -0.083 C  
ENDROOT
BRANCH  14  21
HETATM   21  O   UNL     1      -9.818  14.067  68.668  1.00  0.00    -0.225 OA 
BRANCH  21  22
HETATM   22  C   UNL     1     -10.389  14.828  67.659  1.00  0.00    -0.237 C  
HETATM   23  O   UNL     1     -11.418  15.486  67.794  1.00  0.00    -0.322 OA 
BRANCH  22  24
HETATM   24  C   UNL     1      -9.517  15.002  66.435  1.00  0.00    -0.325 C  
BRANCH  24  25
HETATM   25  C   UNL     1     -10.293  14.888  65.141  1.00  0.00    -0.431 C  
BRANCH  25  26
HETATM   26  C   UNL     1     -10.930  13.516  64.920  1.00  0.00    -0.359 C  
HETATM   27  C   UNL     1     -12.193  13.654  64.073  1.00  0.00    -0.443 C  
HETATM   28  C   UNL     1     -12.430  12.247  63.564  1.00  0.00    -0.642 C  
HETATM   29  C   UNL     1     -11.034  11.725  63.248  1.00  0.00    -0.387 C  
HETATM   30  C   UNL     1     -10.070  12.513  64.139  1.00  0.00    -0.311 C  
ENDBRANCH  25  26
ENDBRANCH  24  25
ENDBRANCH  22  24
ENDBRANCH  21  22
ENDBRANCH  14  21
TORSDOF 5
ENDMDL
MODEL       64
REMARK 921   NORMALIZED FREE ENERGY PREDICTED BY IDOCK:   -5.16 KCAL/MOL
REMARK 922        TOTAL FREE ENERGY PREDICTED BY IDOCK:   -8.01 KCAL/MOL
REMARK 923 INTER-LIGAND FREE ENERGY PREDICTED BY IDOCK:   -6.97 KCAL/MOL
REMARK 924 INTRA-LIGAND FREE ENERGY PREDICTED BY IDOCK:   -1.04 KCAL/MOL
REMARK 927      BINDING AFFINITY PREDICTED BY RF-SCORE:    0.00 PKD
ROOT
HETATM    1  C   UNL     1      -9.799  10.149  69.824  1.00  0.00    -0.245 C  
HETATM    2  C   UNL     1      -9.179   9.432  68.623  1.00  0.00    -0.131 C  
HETATM    3  C   UNL     1     -10.357   8.859  67.730  1.00  0.00    -0.301 C  
HETATM    4  C   UNL     1     -11.141   9.952  66.915  1.00  0.00     0.099 C  
HETATM    5  C   UNL     1     -10.320  11.121  66.252  1.00  0.00    -0.299 C  
HETATM    6  C   UNL     1      -9.135  11.443  67.156  1.00  0.00    -0.164 C  
HETATM    7  C   UNL     1      -8.288  12.644  66.752  1.00  0.00    -0.011 C  
HETATM    8  C   UNL     1      -8.325  10.240  67.613  1.00  0.00    -0.114 C  
HETATM    9  C   UNL     1      -9.175  13.879  66.812  1.00  0.00    -0.267 C  
HETATM   10  C   UNL     1      -7.705   9.054  66.763  1.00  0.00    -0.093 C  
HETATM   11  C   UNL     1     -10.333  13.739  65.862  1.00  0.00    -0.315 C  
HETATM   12  C   UNL     1      -7.597   7.852  67.790  1.00  0.00    -0.109 C  
HETATM   13  C   UNL     1     -10.670  14.824  65.137  1.00  0.00    -0.433 C  
HETATM   14  C   UNL     1      -7.969   8.559  69.078  1.00  0.00    -0.113 C  
HETATM   15  C   UNL     1     -12.231  12.730  67.024  1.00  0.00    -0.083 C  
HETATM   16  C   UNL     1     -11.817  14.730  64.219  1.00  0.00    -0.319 C  
HETATM   17  O   UNL     1     -12.448  15.735  63.918  1.00  0.00    -0.744 OA 
HETATM   18  C   UNL     1     -11.179  12.445  65.914  1.00  0.00    -0.373 C  
HETATM   19  C   UNL     1     -12.038  13.395  63.590  1.00  0.00    -0.513 C  
HETATM   20  C   UNL     1     -11.969  12.221  64.579  1.00  0.00    -0.459 C  
ENDROOT
BRANCH  14  21
HETATM   21  O   UNL     1      -7.990   7.891  70.331  1.00  0.00    -0.094 OA 
BRANCH  21  22
HETATM   22  C   UNL     1      -8.338   6.561  70.158  1.00  0.00    -0.134 C  
HETATM   23  O   UNL     1      -7.538   5.629  70.200  1.00  0.00    -0.080 OA 
BRANCH  22  24
HETATM   24  C   UNL     1      -9.828   6.298  70.162  1.00  0.00    -0.201 C  
BRANCH  24  25
HETATM   25  C   UNL     1     -10.203   5.031  69.423  1.00  0.00    -0.268 C  
BRANCH  25  26
HETATM   26  C   UNL     1      -9.639   4.953  68.003  1.00  0.00    -0.190 C  
HETATM   27  C   UNL     1      -9.379   3.498  67.621  1.00  0.00    -0.250 C  
HETATM   28  C   UNL     1      -9.285   3.544  66.110  1.00  0.00    -0.173 C  
HETATM   29  C   UNL     1     -10.366   4.536  65.699  1.00  0.00    -0.274 C  
HETATM   30  C   UNL     1     -10.574   5.464  66.899  1.00  0.00    -0.320 C  
ENDBRANCH  25  26
ENDBRANCH  24  25
ENDBRANCH  22  24
ENDBRANCH  21  22
ENDBRANCH  14  21
TORSDOF 5
ENDMDL
MODEL       65
REMARK 921   NORMALIZED FREE ENERGY PREDICTED BY IDOCK:   -5.15 KCAL/MOL
REMARK 922        TOTAL FREE ENERGY PREDICTED BY IDOCK:   -7.99 KCAL/MOL
REMARK 923 INTER-LIGAND FREE ENERGY PREDICTED BY IDOCK:   -7.31 KCAL/MOL
REMARK 924 INTRA-LIGAND FREE ENERGY PREDICTED BY IDOCK:   -0.68 KCAL/MOL
REMARK 927      BINDING AFFINITY PREDICTED BY RF-SCORE:    0.00 PKD
ROOT
HETATM    1  C   UNL     1      -9.916  14.109  66.232  1.00  0.00    -0.315 C  
HETATM    2  C   UNL     1     -10.795  13.441  67.290  1.00  0.00    -0.278 C  
HETATM    3  C   UNL     1     -11.737  12.395  66.561  1.00  0.00    -0.443 C  
HETATM    4  C   UNL     1     -11.001  11.092  66.075  1.00  0.00    -0.189 C  
HETATM    5  C   UNL     1      -9.913  10.454  67.017  1.00  0.00    -0.252 C  
HETATM    6  C   UNL     1      -9.209  11.581  67.763  1.00  0.00    -0.165 C  
HETATM    7  C   UNL     1      -8.024  11.176  68.631  1.00  0.00    -0.145 C  
HETATM    8  C   UNL     1     -10.130  12.602  68.412  1.00  0.00    -0.222 C  
HETATM    9  C   UNL     1      -6.960  10.584  67.718  1.00  0.00    -0.078 C  
HETATM   10  C   UNL     1     -11.376  12.380  69.367  1.00  0.00    -0.286 C  
HETATM   11  C   UNL     1      -7.496   9.374  67.004  1.00  0.00    -0.091 C  
HETATM   12  C   UNL     1     -12.267  13.671  69.153  1.00  0.00    -0.265 C  
HETATM   13  C   UNL     1      -6.680   8.307  66.900  1.00  0.00    -0.062 C  
HETATM   14  C   UNL     1     -11.340  14.505  68.293  1.00  0.00    -0.297 C  
HETATM   15  C   UNL     1      -8.477  10.048  64.870  1.00  0.00    -0.173 C  
HETATM   16  C   UNL     1      -7.163   7.117  66.181  1.00  0.00    -0.074 C  
HETATM   17  O   UNL     1      -6.366   6.352  65.652  1.00  0.00    -0.036 OA 
HETATM   18  C   UNL     1      -8.855   9.489  66.273  1.00  0.00    -0.172 C  
HETATM   19  C   UNL     1      -8.627   6.846  66.284  1.00  0.00    -0.138 C  
HETATM   20  C   UNL     1      -9.507   8.083  66.047  1.00  0.00    -0.123 C  
ENDROOT
BRANCH  14  21
HETATM   21  O   UNL     1     -11.685  15.808  67.846  1.00  0.00    -0.231 OA 
BRANCH  21  22
HETATM   22  C   UNL     1     -10.866  16.752  68.446  1.00  0.00    -0.355 C  
HETATM   23  O   UNL     1     -10.665  16.818  69.657  1.00  0.00    -0.327 OA 
BRANCH  22  24
HETATM   24  C   UNL     1     -10.020  17.552  67.479  1.00  0.00    -0.315 C  
BRANCH  24  25
HETATM   25  C   UNL     1     -10.415  19.012  67.423  1.00  0.00    -0.539 C  
BRANCH  25  26
HETATM   26  C   UNL     1      -9.243  19.977  67.599  1.00  0.00    -0.457 C  
HETATM   27  C   UNL     1      -8.255  19.422  68.622  1.00  0.00    -0.399 C  
HETATM   28  C   UNL     1      -6.987  20.206  68.348  1.00  0.00    -0.305 C  
HETATM   29  C   UNL     1      -6.939  20.317  66.830  1.00  0.00    -0.293 C  
HETATM   30  C   UNL     1      -8.387  20.204  66.345  1.00  0.00    -0.287 C  
ENDBRANCH  25  26
ENDBRANCH  24  25
ENDBRANCH  22  24
ENDBRANCH  21  22
ENDBRANCH  14  21
TORSDOF 5
ENDMDL
MODEL       66
REMARK 921   NORMALIZED FREE ENERGY PREDICTED BY IDOCK:   -5.12 KCAL/MOL
REMARK 922        TOTAL FREE ENERGY PREDICTED BY IDOCK:   -7.95 KCAL/MOL
REMARK 923 INTER-LIGAND FREE ENERGY PREDICTED BY IDOCK:   -7.34 KCAL/MOL
REMARK 924 INTRA-LIGAND FREE ENERGY PREDICTED BY IDOCK:   -0.62 KCAL/MOL
REMARK 927      BINDING AFFINITY PREDICTED BY RF-SCORE:    0.00 PKD
ROOT
HETATM    1  C   UNL     1     -10.494  11.303  65.347  1.00  0.00    -0.326 C  
HETATM    2  C   UNL     1      -9.915  11.794  66.675  1.00  0.00    -0.224 C  
HETATM    3  C   UNL     1     -10.954  11.453  67.821  1.00  0.00    -0.301 C  
HETATM    4  C   UNL     1     -11.025   9.927  68.197  1.00  0.00    -0.261 C  
HETATM    5  C   UNL     1      -9.680   9.111  68.263  1.00  0.00    -0.171 C  
HETATM    6  C   UNL     1      -8.733   9.668  67.206  1.00  0.00    -0.136 C  
HETATM    7  C   UNL     1      -7.418   8.920  67.020  1.00  0.00    -0.087 C  
HETATM    8  C   UNL     1      -8.590  11.181  67.199  1.00  0.00    -0.139 C  
HETATM    9  C   UNL     1      -7.747   7.511  66.550  1.00  0.00    -0.097 C  
HETATM   10  C   UNL     1      -8.279  12.176  68.394  1.00  0.00    -0.145 C  
HETATM   11  C   UNL     1      -8.589   6.800  67.574  1.00  0.00    -0.120 C  
HETATM   12  C   UNL     1      -8.905  13.555  67.928  1.00  0.00    -0.190 C  
HETATM   13  C   UNL     1      -8.288   5.512  67.832  1.00  0.00    -0.099 C  
HETATM   14  C   UNL     1      -9.290  13.212  66.503  1.00  0.00    -0.216 C  
HETATM   15  C   UNL     1     -10.955   7.157  67.083  1.00  0.00    -0.342 C  
HETATM   16  C   UNL     1      -9.111   4.777  68.807  1.00  0.00    -0.112 C  
HETATM   17  O   UNL     1      -9.210   3.559  68.735  1.00  0.00    -0.137 OA 
HETATM   18  C   UNL     1      -9.849   7.512  68.118  1.00  0.00    -0.179 C  
HETATM   19  C   UNL     1      -9.659   5.587  69.934  1.00  0.00    -0.217 C  
HETATM   20  C   UNL     1     -10.298   6.913  69.494  1.00  0.00    -0.224 C  
ENDROOT
BRANCH  14  21
HETATM   21  O   UNL     1      -9.882  14.162  65.628  1.00  0.00    -0.304 OA 
BRANCH  21  22
HETATM   22  C   UNL     1      -9.624  15.449  66.075  1.00  0.00    -0.347 C  
HETATM   23  O   UNL     1      -8.536  16.010  65.966  1.00  0.00    -0.322 OA 
BRANCH  22  24
HETATM   24  C   UNL     1     -10.855  16.227  66.486  1.00  0.00    -0.105 C  
BRANCH  24  25
HETATM   25  C   UNL     1     -10.720  16.857  67.856  1.00  0.00    -0.344 C  
BRANCH  25  26
HETATM   26  C   UNL     1     -10.484  18.367  67.822  1.00  0.00    -0.433 C  
HETATM   27  C   UNL     1      -9.043  18.682  68.217  1.00  0.00    -0.347 C  
HETATM   28  C   UNL     1      -8.837  20.091  67.700  1.00  0.00    -0.407 C  
HETATM   29  C   UNL     1      -9.560  20.105  66.359  1.00  0.00    -0.511 C  
HETATM   30  C   UNL     1     -10.640  19.023  66.443  1.00  0.00    -0.492 C  
ENDBRANCH  25  26
ENDBRANCH  24  25
ENDBRANCH  22  24
ENDBRANCH  21  22
ENDBRANCH  14  21
TORSDOF 5
ENDMDL
MODEL       67
REMARK 921   NORMALIZED FREE ENERGY PREDICTED BY IDOCK:   -5.12 KCAL/MOL
REMARK 922        TOTAL FREE ENERGY PREDICTED BY IDOCK:   -7.95 KCAL/MOL
REMARK 923 INTER-LIGAND FREE ENERGY PREDICTED BY IDOCK:   -6.91 KCAL/MOL
REMARK 924 INTRA-LIGAND FREE ENERGY PREDICTED BY IDOCK:   -1.04 KCAL/MOL
REMARK 927      BINDING AFFINITY PREDICTED BY RF-SCORE:    0.00 PKD
ROOT
HETATM    1  C   UNL     1      -9.353  15.618  69.160  1.00  0.00    -0.252 C  
HETATM    2  C   UNL     1      -9.712  15.716  67.676  1.00  0.00    -0.225 C  
HETATM    3  C   UNL     1      -8.452  15.251  66.833  1.00  0.00    -0.286 C  
HETATM    4  C   UNL     1      -8.191  13.700  66.863  1.00  0.00     0.044 C  
HETATM    5  C   UNL     1      -9.430  12.733  66.785  1.00  0.00    -0.243 C  
HETATM    6  C   UNL     1     -10.599  13.396  67.503  1.00  0.00    -0.255 C  
HETATM    7  C   UNL     1     -11.861  12.556  67.653  1.00  0.00    -0.381 C  
HETATM    8  C   UNL     1     -10.862  14.842  67.113  1.00  0.00    -0.311 C  
HETATM    9  C   UNL     1     -11.514  11.343  68.504  1.00  0.00    -0.361 C  
HETATM   10  C   UNL     1     -11.023  15.490  65.675  1.00  0.00    -0.307 C  
HETATM   11  C   UNL     1     -10.441  10.525  67.838  1.00  0.00    -0.247 C  
HETATM   12  C   UNL     1     -10.608  17.005  65.880  1.00  0.00    -0.221 C  
HETATM   13  C   UNL     1     -10.585   9.185  67.862  1.00  0.00    -0.272 C  
HETATM   14  C   UNL     1     -10.469  17.048  67.388  1.00  0.00    -0.322 C  
HETATM   15  C   UNL     1      -8.245  11.273  68.602  1.00  0.00    -0.146 C  
HETATM   16  C   UNL     1      -9.538   8.353  67.245  1.00  0.00    -0.165 C  
HETATM   17  O   UNL     1      -9.357   7.206  67.631  1.00  0.00    -0.127 OA 
HETATM   18  C   UNL     1      -9.163  11.243  67.346  1.00  0.00    -0.164 C  
HETATM   19  C   UNL     1      -8.856   8.944  66.057  1.00  0.00    -0.206 C  
HETATM   20  C   UNL     1      -8.418  10.404  66.252  1.00  0.00    -0.145 C  
ENDROOT
BRANCH  14  21
HETATM   21  O   UNL     1     -10.129  18.239  68.085  1.00  0.00    -0.340 OA 
BRANCH  21  22
HETATM   22  C   UNL     1     -10.410  19.347  67.302  1.00  0.00    -0.442 C  
HETATM   23  O   UNL     1     -11.377  20.086  67.477  1.00  0.00     0.100 OA 
BRANCH  22  24
HETATM   24  C   UNL     1      -9.297  19.745  66.357  1.00  0.00    -0.488 C  
BRANCH  24  25
HETATM   25  C   UNL     1      -8.089  20.307  67.077  1.00  0.00    -0.365 C  
BRANCH  25  26
HETATM   26  C   UNL     1      -6.793  19.545  66.798  1.00  0.00    -0.207 C  
HETATM   27  C   UNL     1      -6.505  18.565  67.932  1.00  0.00    -0.208 C  
HETATM   28  C   UNL     1      -5.511  17.600  67.319  1.00  0.00    -0.152 C  
HETATM   29  C   UNL     1      -6.014  17.403  65.894  1.00  0.00     0.022 C  
HETATM   30  C   UNL     1      -6.810  18.662  65.542  1.00  0.00    -0.240 C  
ENDBRANCH  25  26
ENDBRANCH  24  25
ENDBRANCH  22  24
ENDBRANCH  21  22
ENDBRANCH  14  21
TORSDOF 5
ENDMDL
MODEL       68
REMARK 921   NORMALIZED FREE ENERGY PREDICTED BY IDOCK:   -5.09 KCAL/MOL
REMARK 922        TOTAL FREE ENERGY PREDICTED BY IDOCK:   -7.92 KCAL/MOL
REMARK 923 INTER-LIGAND FREE ENERGY PREDICTED BY IDOCK:   -6.65 KCAL/MOL
REMARK 924 INTRA-LIGAND FREE ENERGY PREDICTED BY IDOCK:   -1.27 KCAL/MOL
REMARK 927      BINDING AFFINITY PREDICTED BY RF-SCORE:    0.00 PKD
ROOT
HETATM    1  C   UNL     1      -7.236   9.847  68.567  1.00  0.00    -0.076 C  
HETATM    2  C   UNL     1      -8.568   9.125  68.776  1.00  0.00    -0.131 C  
HETATM    3  C   UNL     1      -9.498  10.053  69.662  1.00  0.00    -0.247 C  
HETATM    4  C   UNL     1     -10.077  11.303  68.902  1.00  0.00    -0.185 C  
HETATM    5  C   UNL     1     -10.558  11.115  67.415  1.00  0.00    -0.272 C  
HETATM    6  C   UNL     1      -9.662  10.076  66.751  1.00  0.00    -0.239 C  
HETATM    7  C   UNL     1      -9.884   9.849  65.261  1.00  0.00    -0.373 C  
HETATM    8  C   UNL     1      -9.456   8.797  67.548  1.00  0.00    -0.173 C  
HETATM    9  C   UNL     1      -9.573  11.153  64.541  1.00  0.00    -0.288 C  
HETATM   10  C   UNL     1     -10.524   7.842  68.226  1.00  0.00    -0.215 C  
HETATM   11  C   UNL     1     -10.484  12.248  65.024  1.00  0.00    -0.322 C  
HETATM   12  C   UNL     1      -9.729   7.136  69.400  1.00  0.00    -0.160 C  
HETATM   13  C   UNL     1     -10.995  13.079  64.094  1.00  0.00    -0.438 C  
HETATM   14  C   UNL     1      -8.323   7.620  69.107  1.00  0.00    -0.131 C  
HETATM   15  C   UNL     1      -9.439  13.420  66.895  1.00  0.00    -0.253 C  
HETATM   16  C   UNL     1     -11.866  14.181  64.535  1.00  0.00    -0.436 C  
HETATM   17  O   UNL     1     -11.961  15.199  63.861  1.00  0.00    -0.415 OA 
HETATM   18  C   UNL     1     -10.625  12.474  66.547  1.00  0.00    -0.265 C  
HETATM   19  C   UNL     1     -12.709  13.900  65.734  1.00  0.00    -0.503 C  
HETATM   20  C   UNL     1     -11.944  13.245  66.894  1.00  0.00    -0.430 C  
ENDROOT
BRANCH  14  21
HETATM   21  O   UNL     1      -7.206   7.225  69.890  1.00  0.00    -0.077 OA 
BRANCH  21  22
HETATM   22  C   UNL     1      -6.896   5.897  69.645  1.00  0.00    -0.061 C  
HETATM   23  O   UNL     1      -6.959   5.008  70.491  1.00  0.00    -0.042 OA 
BRANCH  22  24
HETATM   24  C   UNL     1      -6.715   5.556  68.182  1.00  0.00    -0.054 C  
BRANCH  24  25
HETATM   25  C   UNL     1      -7.687   4.500  67.700  1.00  0.00    -0.085 C  
BRANCH  25  26
HETATM   26  C   UNL     1      -8.553   4.947  66.521  1.00  0.00    -0.109 C  
HETATM   27  C   UNL     1      -7.838   4.653  65.205  1.00  0.00    -0.090 C  
HETATM   28  C   UNL     1      -8.954   4.703  64.181  1.00  0.00    -0.126 C  
HETATM   29  C   UNL     1     -10.132   4.037  64.881  1.00  0.00    -0.214 C  
HETATM   30  C   UNL     1      -9.897   4.219  66.383  1.00  0.00    -0.236 C  
ENDBRANCH  25  26
ENDBRANCH  24  25
ENDBRANCH  22  24
ENDBRANCH  21  22
ENDBRANCH  14  21
TORSDOF 5
ENDMDL
MODEL       69
REMARK 921   NORMALIZED FREE ENERGY PREDICTED BY IDOCK:   -5.08 KCAL/MOL
REMARK 922        TOTAL FREE ENERGY PREDICTED BY IDOCK:   -7.90 KCAL/MOL
REMARK 923 INTER-LIGAND FREE ENERGY PREDICTED BY IDOCK:   -7.65 KCAL/MOL
REMARK 924 INTRA-LIGAND FREE ENERGY PREDICTED BY IDOCK:   -0.25 KCAL/MOL
REMARK 927      BINDING AFFINITY PREDICTED BY RF-SCORE:    0.00 PKD
ROOT
HETATM    1  C   UNL     1     -11.126  10.019  67.095  1.00  0.00    -0.065 C  
HETATM    2  C   UNL     1     -10.099  10.770  67.944  1.00  0.00    -0.197 C  
HETATM    3  C   UNL     1     -10.834  11.319  69.235  1.00  0.00    -0.259 C  
HETATM    4  C   UNL     1     -11.187  10.215  70.298  1.00  0.00    -0.387 C  
HETATM    5  C   UNL     1     -10.131   9.080  70.573  1.00  0.00    -0.263 C  
HETATM    6  C   UNL     1      -9.402   8.781  69.269  1.00  0.00    -0.149 C  
HETATM    7  C   UNL     1      -8.426   7.611  69.297  1.00  0.00    -0.138 C  
HETATM    8  C   UNL     1      -8.884  10.000  68.523  1.00  0.00    -0.120 C  
HETATM    9  C   UNL     1      -9.221   6.349  69.600  1.00  0.00    -0.143 C  
HETATM   10  C   UNL     1      -8.012  11.216  69.050  1.00  0.00    -0.087 C  
HETATM   11  C   UNL     1      -9.902   6.468  70.936  1.00  0.00    -0.201 C  
HETATM   12  C   UNL     1      -8.367  12.406  68.067  1.00  0.00    -0.170 C  
HETATM   13  C   UNL     1      -9.882   5.383  71.736  1.00  0.00    -0.223 C  
HETATM   14  C   UNL     1      -9.203  11.671  67.039  1.00  0.00    -0.183 C  
HETATM   15  C   UNL     1     -12.138   7.405  70.638  1.00  0.00    -0.167 C  
HETATM   16  C   UNL     1     -10.564   5.455  73.039  1.00  0.00    -0.235 C  
HETATM   17  O   UNL     1     -10.987   4.436  73.569  1.00  0.00    -0.242 OA 
HETATM   18  C   UNL     1     -10.737   7.736  71.230  1.00  0.00    -0.251 C  
HETATM   19  C   UNL     1     -10.555   6.791  73.703  1.00  0.00    -0.347 C  
HETATM   20  C   UNL     1     -10.928   7.953  72.770  1.00  0.00    -0.456 C  
ENDROOT
BRANCH  14  21
HETATM   21  O   UNL     1      -9.750  12.322  65.900  1.00  0.00    -0.247 OA 
BRANCH  21  22
HETATM   22  C   UNL     1     -10.348  13.515  66.273  1.00  0.00    -0.293 C  
HETATM   23  O   UNL     1     -11.445  13.593  66.823  1.00  0.00    -0.320 OA 
BRANCH  22  24
HETATM   24  C   UNL     1      -9.441  14.724  66.188  1.00  0.00    -0.324 C  
BRANCH  24  25
HETATM   25  C   UNL     1     -10.161  15.964  65.705  1.00  0.00    -0.388 C  
BRANCH  25  26
HETATM   26  C   UNL     1      -9.836  17.222  66.511  1.00  0.00    -0.306 C  
HETATM   27  C   UNL     1      -8.350  17.550  66.396  1.00  0.00    -0.297 C  
HETATM   28  C   UNL     1      -8.276  19.002  66.823  1.00  0.00    -0.288 C  
HETATM   29  C   UNL     1      -9.518  19.635  66.208  1.00  0.00    -0.474 C  
HETATM   30  C   UNL     1     -10.535  18.504  66.036  1.00  0.00    -0.433 C  
ENDBRANCH  25  26
ENDBRANCH  24  25
ENDBRANCH  22  24
ENDBRANCH  21  22
ENDBRANCH  14  21
TORSDOF 5
ENDMDL
MODEL       70
REMARK 921   NORMALIZED FREE ENERGY PREDICTED BY IDOCK:   -5.08 KCAL/MOL
REMARK 922        TOTAL FREE ENERGY PREDICTED BY IDOCK:   -7.90 KCAL/MOL
REMARK 923 INTER-LIGAND FREE ENERGY PREDICTED BY IDOCK:   -5.93 KCAL/MOL
REMARK 924 INTRA-LIGAND FREE ENERGY PREDICTED BY IDOCK:   -1.96 KCAL/MOL
REMARK 927      BINDING AFFINITY PREDICTED BY RF-SCORE:    0.00 PKD
ROOT
HETATM    1  C   UNL     1      -7.455   9.912  68.347  1.00  0.00    -0.082 C  
HETATM    2  C   UNL     1      -8.782   9.198  68.610  1.00  0.00    -0.129 C  
HETATM    3  C   UNL     1      -9.667  10.131  69.537  1.00  0.00    -0.251 C  
HETATM    4  C   UNL     1     -10.269  11.386  68.804  1.00  0.00    -0.209 C  
HETATM    5  C   UNL     1     -10.814  11.205  67.339  1.00  0.00    -0.317 C  
HETATM    6  C   UNL     1      -9.953  10.161  66.636  1.00  0.00    -0.272 C  
HETATM    7  C   UNL     1     -10.240   9.939  65.156  1.00  0.00    -0.027 C  
HETATM    8  C   UNL     1      -9.722   8.879  67.420  1.00  0.00    -0.227 C  
HETATM    9  C   UNL     1      -9.950  11.242  64.426  1.00  0.00    -0.338 C  
HETATM   10  C   UNL     1     -10.768   7.930  68.141  1.00  0.00    -0.101 C  
HETATM   11  C   UNL     1     -10.833  12.343  64.949  1.00  0.00    -0.333 C  
HETATM   12  C   UNL     1      -9.928   7.216  69.279  1.00  0.00    -0.168 C  
HETATM   13  C   UNL     1     -11.376  13.180  64.043  1.00  0.00    -0.437 C  
HETATM   14  C   UNL     1      -8.533   7.692  68.928  1.00  0.00    -0.129 C  
HETATM   15  C   UNL     1      -9.702  13.504  66.777  1.00  0.00    -0.271 C  
HETATM   16  C   UNL     1     -12.221  14.285  64.523  1.00  0.00    -0.455 C  
HETATM   17  O   UNL     1     -12.337  15.306  63.855  1.00  0.00    -0.655 OA 
HETATM   18  C   UNL     1     -10.908  12.567  66.477  1.00  0.00    -0.287 C  
HETATM   19  C   UNL     1     -13.015  14.008  65.755  1.00  0.00    -0.297 C  
HETATM   20  C   UNL     1     -12.206  13.345  66.881  1.00  0.00    -0.343 C  
ENDROOT
BRANCH  14  21
HETATM   21  O   UNL     1      -7.386   7.287  69.663  1.00  0.00    -0.083 OA 
BRANCH  21  22
HETATM   22  C   UNL     1      -6.769   6.217  69.034  1.00  0.00    -0.057 C  
HETATM   23  O   UNL     1      -7.059   5.040  69.236  1.00  0.00    -0.053 OA 
BRANCH  22  24
HETATM   24  C   UNL     1      -5.873   6.603  67.877  1.00  0.00    -0.023 C  
BRANCH  24  25
HETATM   25  C   UNL     1      -5.971   5.641  66.712  1.00  0.00    -0.018 C  
BRANCH  25  26
HETATM   26  C   UNL     1      -6.237   6.320  65.368  1.00  0.00    -0.037 C  
HETATM   27  C   UNL     1      -7.735   6.544  65.180  1.00  0.00    -0.097 C  
HETATM   28  C   UNL     1      -7.799   7.596  64.092  1.00  0.00    -0.133 C  
HETATM   29  C   UNL     1      -6.653   8.544  64.422  1.00  0.00    -0.067 C  
HETATM   30  C   UNL     1      -5.632   7.722  65.213  1.00  0.00    -0.037 C  
ENDBRANCH  25  26
ENDBRANCH  24  25
ENDBRANCH  22  24
ENDBRANCH  21  22
ENDBRANCH  14  21
TORSDOF 5
ENDMDL
MODEL       71
REMARK 921   NORMALIZED FREE ENERGY PREDICTED BY IDOCK:   -5.05 KCAL/MOL
REMARK 922        TOTAL FREE ENERGY PREDICTED BY IDOCK:   -7.87 KCAL/MOL
REMARK 923 INTER-LIGAND FREE ENERGY PREDICTED BY IDOCK:   -7.50 KCAL/MOL
REMARK 924 INTRA-LIGAND FREE ENERGY PREDICTED BY IDOCK:   -0.37 KCAL/MOL
REMARK 927      BINDING AFFINITY PREDICTED BY RF-SCORE:    0.00 PKD
ROOT
HETATM    1  C   UNL     1      -8.369  10.680  66.028  1.00  0.00    -0.160 C  
HETATM    2  C   UNL     1      -9.811  10.866  66.503  1.00  0.00    -0.245 C  
HETATM    3  C   UNL     1     -10.660   9.628  65.995  1.00  0.00     0.109 C  
HETATM    4  C   UNL     1     -10.377   8.288  66.768  1.00  0.00    -0.361 C  
HETATM    5  C   UNL     1     -10.177   8.355  68.328  1.00  0.00    -0.244 C  
HETATM    6  C   UNL     1      -9.492   9.674  68.666  1.00  0.00    -0.147 C  
HETATM    7  C   UNL     1      -9.090   9.870  70.122  1.00  0.00    -0.171 C  
HETATM    8  C   UNL     1     -10.111  10.906  68.024  1.00  0.00    -0.197 C  
HETATM    9  C   UNL     1      -8.068   8.797  70.470  1.00  0.00    -0.130 C  
HETATM   10  C   UNL     1     -11.623  11.383  67.995  1.00  0.00    -0.357 C  
HETATM   11  C   UNL     1      -8.666   7.428  70.294  1.00  0.00    -0.146 C  
HETATM   12  C   UNL     1     -11.726  12.276  66.691  1.00  0.00    -0.417 C  
HETATM   13  C   UNL     1      -8.392   6.510  71.242  1.00  0.00    -0.125 C  
HETATM   14  C   UNL     1     -10.267  12.342  66.288  1.00  0.00    -0.238 C  
HETATM   15  C   UNL     1      -8.235   6.630  68.025  1.00  0.00    -0.117 C  
HETATM   16  C   UNL     1      -8.936   5.151  71.085  1.00  0.00    -0.138 C  
HETATM   17  O   UNL     1      -8.368   4.197  71.602  1.00  0.00    -0.088 OA 
HETATM   18  C   UNL     1      -9.384   7.101  68.964  1.00  0.00    -0.140 C  
HETATM   19  C   UNL     1     -10.264   5.058  70.410  1.00  0.00    -0.324 C  
HETATM   20  C   UNL     1     -10.369   5.894  69.125  1.00  0.00    -0.303 C  
ENDROOT
BRANCH  14  21
HETATM   21  O   UNL     1      -9.824  13.078  65.157  1.00  0.00    -0.184 OA 
BRANCH  21  22
HETATM   22  C   UNL     1     -10.404  14.337  65.150  1.00  0.00    -0.415 C  
HETATM   23  O   UNL     1     -11.428  14.620  64.532  1.00  0.00    -0.377 OA 
BRANCH  22  24
HETATM   24  C   UNL     1      -9.829  15.297  66.169  1.00  0.00    -0.333 C  
BRANCH  24  25
HETATM   25  C   UNL     1     -10.276  16.726  65.947  1.00  0.00    -0.345 C  
BRANCH  25  26
HETATM   26  C   UNL     1      -9.726  17.714  66.977  1.00  0.00    -0.292 C  
HETATM   27  C   UNL     1      -8.796  18.716  66.298  1.00  0.00    -0.227 C  
HETATM   28  C   UNL     1      -8.716  19.853  67.295  1.00  0.00    -0.399 C  
HETATM   29  C   UNL     1     -10.135  19.973  67.838  1.00  0.00    -0.559 C  
HETATM   30  C   UNL     1     -10.777  18.594  67.667  1.00  0.00    -0.428 C  
ENDBRANCH  25  26
ENDBRANCH  24  25
ENDBRANCH  22  24
ENDBRANCH  21  22
ENDBRANCH  14  21
TORSDOF 5
ENDMDL
MODEL       72
REMARK 921   NORMALIZED FREE ENERGY PREDICTED BY IDOCK:   -5.05 KCAL/MOL
REMARK 922        TOTAL FREE ENERGY PREDICTED BY IDOCK:   -7.86 KCAL/MOL
REMARK 923 INTER-LIGAND FREE ENERGY PREDICTED BY IDOCK:   -7.41 KCAL/MOL
REMARK 924 INTRA-LIGAND FREE ENERGY PREDICTED BY IDOCK:   -0.46 KCAL/MOL
REMARK 927      BINDING AFFINITY PREDICTED BY RF-SCORE:    0.00 PKD
ROOT
HETATM    1  C   UNL     1      -9.849   8.810  69.708  1.00  0.00    -0.189 C  
HETATM    2  C   UNL     1     -11.124   8.599  70.527  1.00  0.00    -0.268 C  
HETATM    3  C   UNL     1     -11.757   7.210  70.103  1.00  0.00    -0.165 C  
HETATM    4  C   UNL     1     -10.977   5.953  70.638  1.00  0.00    -0.357 C  
HETATM    5  C   UNL     1     -10.407   5.997  72.105  1.00  0.00    -0.232 C  
HETATM    6  C   UNL     1      -9.991   7.431  72.412  1.00  0.00    -0.221 C  
HETATM    7  C   UNL     1      -9.288   7.657  73.745  1.00  0.00    -0.324 C  
HETATM    8  C   UNL     1     -11.026   8.492  72.071  1.00  0.00    -0.410 C  
HETATM    9  C   UNL     1      -7.987   6.867  73.724  1.00  0.00    -0.122 C  
HETATM   10  C   UNL     1     -12.563   8.567  72.451  1.00  0.00    -0.409 C  
HETATM   11  C   UNL     1      -8.269   5.400  73.547  1.00  0.00    -0.113 C  
HETATM   12  C   UNL     1     -13.204   9.462  71.313  1.00  0.00    -0.364 C  
HETATM   13  C   UNL     1      -7.553   4.540  74.299  1.00  0.00    -0.081 C  
HETATM   14  C   UNL     1     -11.955   9.918  70.587  1.00  0.00    -0.277 C  
HETATM   15  C   UNL     1      -8.256   4.843  71.168  1.00  0.00    -0.109 C  
HETATM   16  C   UNL     1      -7.782   3.096  74.129  1.00  0.00    -0.064 C  
HETATM   17  O   UNL     1      -6.892   2.297  74.391  1.00  0.00    -0.025 OA 
HETATM   18  C   UNL     1      -9.205   4.960  72.396  1.00  0.00    -0.151 C  
HETATM   19  C   UNL     1      -9.177   2.697  73.780  1.00  0.00    -0.091 C  
HETATM   20  C   UNL     1      -9.802   3.535  72.654  1.00  0.00    -0.211 C  
ENDROOT
BRANCH  14  21
HETATM   21  O   UNL     1     -12.003  10.793  69.469  1.00  0.00    -0.300 OA 
BRANCH  21  22
HETATM   22  C   UNL     1     -11.911  12.111  69.890  1.00  0.00    -0.319 C  
HETATM   23  O   UNL     1     -12.299  12.512  70.985  1.00  0.00    -0.351 OA 
BRANCH  22  24
HETATM   24  C   UNL     1     -11.059  12.993  69.003  1.00  0.00    -0.281 C  
BRANCH  24  25
HETATM   25  C   UNL     1     -11.805  13.494  67.785  1.00  0.00    -0.398 C  
BRANCH  25  26
HETATM   26  C   UNL     1     -11.422  14.914  67.365  1.00  0.00    -0.354 C  
HETATM   27  C   UNL     1     -11.352  15.822  68.590  1.00  0.00    -0.369 C  
HETATM   28  C   UNL     1     -10.539  17.005  68.105  1.00  0.00    -0.369 C  
HETATM   29  C   UNL     1      -9.462  16.382  67.226  1.00  0.00    -0.231 C  
HETATM   30  C   UNL     1     -10.035  15.054  66.722  1.00  0.00    -0.254 C  
ENDBRANCH  25  26
ENDBRANCH  24  25
ENDBRANCH  22  24
ENDBRANCH  21  22
ENDBRANCH  14  21
TORSDOF 5
ENDMDL
MODEL       73
REMARK 921   NORMALIZED FREE ENERGY PREDICTED BY IDOCK:   -5.04 KCAL/MOL
REMARK 922        TOTAL FREE ENERGY PREDICTED BY IDOCK:   -7.86 KCAL/MOL
REMARK 923 INTER-LIGAND FREE ENERGY PREDICTED BY IDOCK:   -5.72 KCAL/MOL
REMARK 924 INTRA-LIGAND FREE ENERGY PREDICTED BY IDOCK:   -2.14 KCAL/MOL
REMARK 927      BINDING AFFINITY PREDICTED BY RF-SCORE:    0.00 PKD
ROOT
HETATM    1  C   UNL     1      -8.899   4.879  69.680  1.00  0.00    -0.117 C  
HETATM    2  C   UNL     1      -7.881   5.878  70.235  1.00  0.00    -0.101 C  
HETATM    3  C   UNL     1      -6.602   5.848  69.299  1.00  0.00    -0.051 C  
HETATM    4  C   UNL     1      -6.807   6.542  67.902  1.00  0.00    -0.074 C  
HETATM    5  C   UNL     1      -7.632   7.880  67.847  1.00  0.00    -0.109 C  
HETATM    6  C   UNL     1      -8.720   7.814  68.913  1.00  0.00    -0.135 C  
HETATM    7  C   UNL     1      -9.716   8.967  68.932  1.00  0.00    -0.173 C  
HETATM    8  C   UNL     1      -8.248   7.383  70.293  1.00  0.00    -0.132 C  
HETATM    9  C   UNL     1     -10.464   8.956  67.606  1.00  0.00    -0.320 C  
HETATM   10  C   UNL     1      -7.043   7.928  71.167  1.00  0.00    -0.054 C  
HETATM   11  C   UNL     1      -9.505   9.139  66.462  1.00  0.00    -0.266 C  
HETATM   12  C   UNL     1      -6.661   6.711  72.107  1.00  0.00    -0.058 C  
HETATM   13  C   UNL     1      -9.884   9.963  65.465  1.00  0.00    -0.381 C  
HETATM   14  C   UNL     1      -7.790   5.753  71.787  1.00  0.00    -0.106 C  
HETATM   15  C   UNL     1      -8.746   6.955  65.670  1.00  0.00    -0.086 C  
HETATM   16  C   UNL     1      -8.982  10.141  64.316  1.00  0.00    -0.237 C  
HETATM   17  O   UNL     1      -9.433  10.457  63.222  1.00  0.00    -0.282 OA 
HETATM   18  C   UNL     1      -8.249   8.237  66.399  1.00  0.00    -0.107 C  
HETATM   19  C   UNL     1      -7.523  10.065  64.618  1.00  0.00    -0.143 C  
HETATM   20  C   UNL     1      -7.131   8.871  65.503  1.00  0.00    -0.080 C  
ENDROOT
BRANCH  14  21
HETATM   21  O   UNL     1      -7.914   4.487  72.419  1.00  0.00    -0.090 OA 
BRANCH  21  22
HETATM   22  C   UNL     1      -8.853   4.551  73.437  1.00  0.00    -0.102 C  
HETATM   23  O   UNL     1      -8.655   5.092  74.522  1.00  0.00    -0.109 OA 
BRANCH  22  24
HETATM   24  C   UNL     1     -10.247   4.125  73.029  1.00  0.00    -0.224 C  
BRANCH  24  25
HETATM   25  C   UNL     1     -11.280   5.207  73.259  1.00  0.00    -0.389 C  
BRANCH  25  26
HETATM   26  C   UNL     1     -11.172   6.383  72.287  1.00  0.00    -0.314 C  
HETATM   27  C   UNL     1     -12.528   6.656  71.641  1.00  0.00    -0.353 C  
HETATM   28  C   UNL     1     -12.383   8.065  71.103  1.00  0.00    -0.234 C  
HETATM   29  C   UNL     1     -11.593   8.796  72.183  1.00  0.00    -0.434 C  
HETATM   30  C   UNL     1     -10.789   7.726  72.924  1.00  0.00    -0.453 C  
ENDBRANCH  25  26
ENDBRANCH  24  25
ENDBRANCH  22  24
ENDBRANCH  21  22
ENDBRANCH  14  21
TORSDOF 5
ENDMDL
MODEL       74
REMARK 921   NORMALIZED FREE ENERGY PREDICTED BY IDOCK:   -5.04 KCAL/MOL
REMARK 922        TOTAL FREE ENERGY PREDICTED BY IDOCK:   -7.85 KCAL/MOL
REMARK 923 INTER-LIGAND FREE ENERGY PREDICTED BY IDOCK:   -6.29 KCAL/MOL
REMARK 924 INTRA-LIGAND FREE ENERGY PREDICTED BY IDOCK:   -1.56 KCAL/MOL
REMARK 927      BINDING AFFINITY PREDICTED BY RF-SCORE:    0.00 PKD
ROOT
HETATM    1  C   UNL     1      -8.344   9.066  70.295  1.00  0.00    -0.167 C  
HETATM    2  C   UNL     1      -9.694   8.389  70.055  1.00  0.00    -0.176 C  
HETATM    3  C   UNL     1     -10.831   9.356  70.588  1.00  0.00    -0.346 C  
HETATM    4  C   UNL     1     -11.086  10.616  69.681  1.00  0.00    -0.342 C  
HETATM    5  C   UNL     1     -11.059  10.428  68.118  1.00  0.00    -0.344 C  
HETATM    6  C   UNL     1     -10.030   9.354  67.784  1.00  0.00    -0.228 C  
HETATM    7  C   UNL     1      -9.759   9.119  66.304  1.00  0.00    -0.344 C  
HETATM    8  C   UNL     1     -10.140   8.077  68.603  1.00  0.00    -0.212 C  
HETATM    9  C   UNL     1      -9.185  10.405  65.727  1.00  0.00    -0.210 C  
HETATM   10  C   UNL     1     -11.404   7.164  68.892  1.00  0.00     0.157 C  
HETATM   11  C   UNL     1     -10.167  11.534  65.885  1.00  0.00    -0.286 C  
HETATM   12  C   UNL     1     -11.061   6.445  70.261  1.00  0.00    -0.416 C  
HETATM   13  C   UNL     1     -10.316  12.372  64.840  1.00  0.00    -0.319 C  
HETATM   14  C   UNL     1      -9.622   6.881  70.447  1.00  0.00    -0.169 C  
HETATM   15  C   UNL     1      -9.755  12.691  67.997  1.00  0.00    -0.215 C  
HETATM   16  C   UNL     1     -11.246  13.505  64.972  1.00  0.00    -0.322 C  
HETATM   17  O   UNL     1     -11.080  14.519  64.305  1.00  0.00    -0.221 OA 
HETATM   18  C   UNL     1     -10.792  11.781  67.278  1.00  0.00    -0.300 C  
HETATM   19  C   UNL     1     -12.445  13.264  65.827  1.00  0.00    -0.480 C  
HETATM   20  C   UNL     1     -12.125  12.596  67.173  1.00  0.00    -0.192 C  
ENDROOT
BRANCH  14  21
HETATM   21  O   UNL     1      -8.837   6.458  71.553  1.00  0.00    -0.137 OA 
BRANCH  21  22
HETATM   22  C   UNL     1      -7.839   5.595  71.128  1.00  0.00    -0.110 C  
HETATM   23  O   UNL     1      -7.318   4.741  71.842  1.00  0.00    -0.067 OA 
BRANCH  22  24
HETATM   24  C   UNL     1      -7.602   5.599  69.633  1.00  0.00    -0.075 C  
BRANCH  24  25
HETATM   25  C   UNL     1      -7.911   4.266  68.987  1.00  0.00    -0.061 C  
BRANCH  25  26
HETATM   26  C   UNL     1      -8.163   4.352  67.481  1.00  0.00    -0.099 C  
HETATM   27  C   UNL     1      -9.396   3.532  67.108  1.00  0.00    -0.229 C  
HETATM   28  C   UNL     1      -9.779   4.073  65.746  1.00  0.00    -0.192 C  
HETATM   29  C   UNL     1      -9.540   5.573  65.861  1.00  0.00    -0.085 C  
HETATM   30  C   UNL     1      -8.480   5.757  66.950  1.00  0.00    -0.108 C  
ENDBRANCH  25  26
ENDBRANCH  24  25
ENDBRANCH  22  24
ENDBRANCH  21  22
ENDBRANCH  14  21
TORSDOF 5
ENDMDL
MODEL       75
REMARK 921   NORMALIZED FREE ENERGY PREDICTED BY IDOCK:   -5.03 KCAL/MOL
REMARK 922        TOTAL FREE ENERGY PREDICTED BY IDOCK:   -7.84 KCAL/MOL
REMARK 923 INTER-LIGAND FREE ENERGY PREDICTED BY IDOCK:   -7.39 KCAL/MOL
REMARK 924 INTRA-LIGAND FREE ENERGY PREDICTED BY IDOCK:   -0.45 KCAL/MOL
REMARK 927      BINDING AFFINITY PREDICTED BY RF-SCORE:    0.00 PKD
ROOT
HETATM    1  C   UNL     1     -11.655  12.243  66.481  1.00  0.00    -0.440 C  
HETATM    2  C   UNL     1     -10.432  12.616  67.320  1.00  0.00    -0.237 C  
HETATM    3  C   UNL     1     -10.538  11.860  68.709  1.00  0.00    -0.234 C  
HETATM    4  C   UNL     1     -10.249  10.316  68.629  1.00  0.00    -0.196 C  
HETATM    5  C   UNL     1      -9.079   9.823  67.698  1.00  0.00    -0.140 C  
HETATM    6  C   UNL     1      -9.008  10.750  66.490  1.00  0.00    -0.168 C  
HETATM    7  C   UNL     1      -8.019  10.359  65.399  1.00  0.00    -0.147 C  
HETATM    8  C   UNL     1      -9.017  12.236  66.813  1.00  0.00    -0.209 C  
HETATM    9  C   UNL     1      -8.454   9.013  64.837  1.00  0.00    -0.195 C  
HETATM   10  C   UNL     1      -8.126  13.055  67.837  1.00  0.00    -0.158 C  
HETATM   11  C   UNL     1      -8.449   7.967  65.919  1.00  0.00    -0.154 C  
HETATM   12  C   UNL     1      -9.011  14.318  68.201  1.00  0.00    -0.189 C  
HETATM   13  C   UNL     1      -7.955   6.755  65.601  1.00  0.00    -0.116 C  
HETATM   14  C   UNL     1     -10.150  14.147  67.216  1.00  0.00    -0.256 C  
HETATM   15  C   UNL     1     -10.651   7.865  66.972  1.00  0.00    -0.381 C  
HETATM   16  C   UNL     1      -7.962   5.699  66.627  1.00  0.00    -0.101 C  
HETATM   17  O   UNL     1      -7.989   4.520  66.297  1.00  0.00    -0.101 OA 
HETATM   18  C   UNL     1      -9.176   8.276  67.248  1.00  0.00    -0.165 C  
HETATM   19  C   UNL     1      -7.780   6.161  68.034  1.00  0.00    -0.102 C  
HETATM   20  C   UNL     1      -8.656   7.366  68.412  1.00  0.00    -0.124 C  
ENDROOT
BRANCH  14  21
HETATM   21  O   UNL     1     -11.221  15.075  67.127  1.00  0.00    -0.331 OA 
BRANCH  21  22
HETATM   22  C   UNL     1     -11.592  15.499  68.393  1.00  0.00    -0.357 C  
HETATM   23  O   UNL     1     -12.257  14.826  69.177  1.00  0.00    -0.262 OA 
BRANCH  22  24
HETATM   24  C   UNL     1     -10.904  16.765  68.856  1.00  0.00    -0.301 C  
BRANCH  24  25
HETATM   25  C   UNL     1     -10.661  17.746  67.729  1.00  0.00    -0.332 C  
BRANCH  25  26
HETATM   26  C   UNL     1      -9.783  18.935  68.122  1.00  0.00    -0.396 C  
HETATM   27  C   UNL     1      -8.403  18.447  68.555  1.00  0.00    -0.344 C  
HETATM   28  C   UNL     1      -7.544  19.691  68.457  1.00  0.00    -0.372 C  
HETATM   29  C   UNL     1      -8.037  20.386  67.194  1.00  0.00    -0.378 C  
HETATM   30  C   UNL     1      -9.485  19.930  66.992  1.00  0.00    -0.505 C  
ENDBRANCH  25  26
ENDBRANCH  24  25
ENDBRANCH  22  24
ENDBRANCH  21  22
ENDBRANCH  14  21
TORSDOF 5
ENDMDL
MODEL       76
REMARK 921   NORMALIZED FREE ENERGY PREDICTED BY IDOCK:   -4.98 KCAL/MOL
REMARK 922        TOTAL FREE ENERGY PREDICTED BY IDOCK:   -7.78 KCAL/MOL
REMARK 923 INTER-LIGAND FREE ENERGY PREDICTED BY IDOCK:   -6.94 KCAL/MOL
REMARK 924 INTRA-LIGAND FREE ENERGY PREDICTED BY IDOCK:   -0.84 KCAL/MOL
REMARK 927      BINDING AFFINITY PREDICTED BY RF-SCORE:    0.00 PKD
ROOT
HETATM    1  C   UNL     1     -10.333  11.036  65.603  1.00  0.00    -0.311 C  
HETATM    2  C   UNL     1      -9.668  11.359  66.943  1.00  0.00    -0.213 C  
HETATM    3  C   UNL     1     -10.700  11.026  68.098  1.00  0.00    -0.246 C  
HETATM    4  C   UNL     1     -10.909   9.489  68.356  1.00  0.00    -0.183 C  
HETATM    5  C   UNL     1      -9.650   8.545  68.306  1.00  0.00    -0.156 C  
HETATM    6  C   UNL     1      -8.686   9.093  67.260  1.00  0.00    -0.122 C  
HETATM    7  C   UNL     1      -7.457   8.240  66.966  1.00  0.00    -0.088 C  
HETATM    8  C   UNL     1      -8.394  10.581  67.365  1.00  0.00    -0.121 C  
HETATM    9  C   UNL     1      -7.938   6.912  66.399  1.00  0.00    -0.106 C  
HETATM   10  C   UNL     1      -7.951  11.440  68.622  1.00  0.00    -0.141 C  
HETATM   11  C   UNL     1      -8.815   6.204  67.396  1.00  0.00    -0.106 C  
HETATM   12  C   UNL     1      -8.451  12.906  68.290  1.00  0.00    -0.161 C  
HETATM   13  C   UNL     1      -8.635   4.876  67.541  1.00  0.00    -0.104 C  
HETATM   14  C   UNL     1      -8.911  12.720  66.858  1.00  0.00    -0.213 C  
HETATM   15  C   UNL     1     -11.148   6.826  67.026  1.00  0.00    -0.369 C  
HETATM   16  C   UNL     1      -9.496   4.147  68.486  1.00  0.00    -0.153 C  
HETATM   17  O   UNL     1      -9.716   2.954  68.323  1.00  0.00    -0.127 OA 
HETATM   18  C   UNL     1      -9.981   6.987  68.043  1.00  0.00    -0.178 C  
HETATM   19  C   UNL     1      -9.926   4.911  69.693  1.00  0.00    -0.302 C  
HETATM   20  C   UNL     1     -10.445   6.324  69.384  1.00  0.00    -0.298 C  
ENDROOT
BRANCH  14  21
HETATM   21  O   UNL     1      -9.433  13.790  66.084  1.00  0.00    -0.249 OA 
BRANCH  21  22
HETATM   22  C   UNL     1      -9.367  14.975  66.800  1.00  0.00    -0.251 C  
HETATM   23  O   UNL     1      -8.397  15.730  66.794  1.00  0.00    -0.226 OA 
BRANCH  22  24
HETATM   24  C   UNL     1     -10.683  15.416  67.404  1.00  0.00    -0.296 C  
BRANCH  24  25
HETATM   25  C   UNL     1     -10.534  15.937  68.817  1.00  0.00    -0.237 C  
BRANCH  25  26
HETATM   26  C   UNL     1     -11.741  15.651  69.713  1.00  0.00    -0.368 C  
HETATM   27  C   UNL     1     -12.106  14.170  69.642  1.00  0.00    -0.400 C  
HETATM   28  C   UNL     1     -12.960  13.960  70.876  1.00  0.00    -0.316 C  
HETATM   29  C   UNL     1     -12.277  14.799  71.949  1.00  0.00    -0.415 C  
HETATM   30  C   UNL     1     -11.519  15.905  71.210  1.00  0.00    -0.489 C  
ENDBRANCH  25  26
ENDBRANCH  24  25
ENDBRANCH  22  24
ENDBRANCH  21  22
ENDBRANCH  14  21
TORSDOF 5
ENDMDL
MODEL       77
REMARK 921   NORMALIZED FREE ENERGY PREDICTED BY IDOCK:   -4.89 KCAL/MOL
REMARK 922        TOTAL FREE ENERGY PREDICTED BY IDOCK:   -7.66 KCAL/MOL
REMARK 923 INTER-LIGAND FREE ENERGY PREDICTED BY IDOCK:   -6.81 KCAL/MOL
REMARK 924 INTRA-LIGAND FREE ENERGY PREDICTED BY IDOCK:   -0.85 KCAL/MOL
REMARK 927      BINDING AFFINITY PREDICTED BY RF-SCORE:    0.00 PKD
ROOT
HETATM    1  C   UNL     1     -10.544   8.183  68.031  1.00  0.00    -0.188 C  
HETATM    2  C   UNL     1     -10.871   8.372  69.513  1.00  0.00    -0.126 C  
HETATM    3  C   UNL     1     -11.775   7.155  69.976  1.00  0.00    -0.105 C  
HETATM    4  C   UNL     1     -11.000   5.794  70.126  1.00  0.00    -0.368 C  
HETATM    5  C   UNL     1      -9.558   5.822  70.755  1.00  0.00    -0.210 C  
HETATM    6  C   UNL     1      -8.883   7.126  70.345  1.00  0.00    -0.151 C  
HETATM    7  C   UNL     1      -7.422   7.283  70.748  1.00  0.00    -0.079 C  
HETATM    8  C   UNL     1      -9.720   8.379  70.551  1.00  0.00    -0.192 C  
HETATM    9  C   UNL     1      -6.627   6.192  70.046  1.00  0.00    -0.044 C  
HETATM   10  C   UNL     1     -10.508   8.871  71.835  1.00  0.00    -0.415 C  
HETATM   11  C   UNL     1      -7.119   4.833  70.464  1.00  0.00    -0.048 C  
HETATM   12  C   UNL     1     -11.657   9.796  71.258  1.00  0.00    -0.465 C  
HETATM   13  C   UNL     1      -6.189   3.890  70.712  1.00  0.00    -0.019 C  
HETATM   14  C   UNL     1     -11.252   9.857  69.799  1.00  0.00    -0.235 C  
HETATM   15  C   UNL     1      -8.865   4.085  68.927  1.00  0.00    -0.149 C  
HETATM   16  C   UNL     1      -6.638   2.541  71.094  1.00  0.00    -0.023 C  
HETATM   17  O   UNL     1      -5.928   1.569  70.869  1.00  0.00    -0.016 OA 
HETATM   18  C   UNL     1      -8.638   4.545  70.396  1.00  0.00    -0.104 C  
HETATM   19  C   UNL     1      -7.901   2.477  71.887  1.00  0.00    -0.052 C  
HETATM   20  C   UNL     1      -9.036   3.344  71.321  1.00  0.00    -0.157 C  
ENDROOT
BRANCH  14  21
HETATM   21  O   UNL     1     -11.977  10.615  68.841  1.00  0.00    -0.330 OA 
BRANCH  21  22
HETATM   22  C   UNL     1     -11.269  11.758  68.502  1.00  0.00    -0.252 C  
HETATM   23  O   UNL     1     -10.200  11.752  67.897  1.00  0.00    -0.183 OA 
BRANCH  22  24
HETATM   24  C   UNL     1     -12.032  13.050  68.704  1.00  0.00    -0.298 C  
BRANCH  24  25
HETATM   25  C   UNL     1     -11.315  14.017  69.622  1.00  0.00    -0.270 C  
BRANCH  25  26
HETATM   26  C   UNL     1     -12.088  14.345  70.900  1.00  0.00    -0.414 C  
HETATM   27  C   UNL     1     -13.268  15.259  70.581  1.00  0.00    -0.370 C  
HETATM   28  C   UNL     1     -14.164  15.113  71.793  1.00  0.00    -0.674 C  
HETATM   29  C   UNL     1     -14.078  13.633  72.144  1.00  0.00    -0.553 C  
HETATM   30  C   UNL     1     -12.733  13.142  71.603  1.00  0.00    -0.320 C  
ENDBRANCH  25  26
ENDBRANCH  24  25
ENDBRANCH  22  24
ENDBRANCH  21  22
ENDBRANCH  14  21
TORSDOF 5
ENDMDL
MODEL       78
REMARK 921   NORMALIZED FREE ENERGY PREDICTED BY IDOCK:   -4.88 KCAL/MOL
REMARK 922        TOTAL FREE ENERGY PREDICTED BY IDOCK:   -7.65 KCAL/MOL
REMARK 923 INTER-LIGAND FREE ENERGY PREDICTED BY IDOCK:   -6.37 KCAL/MOL
REMARK 924 INTRA-LIGAND FREE ENERGY PREDICTED BY IDOCK:   -1.28 KCAL/MOL
REMARK 927      BINDING AFFINITY PREDICTED BY RF-SCORE:    0.00 PKD
ROOT
HETATM    1  C   UNL     1     -10.899   7.493  68.021  1.00  0.00    -0.097 C  
HETATM    2  C   UNL     1     -10.232   7.939  69.323  1.00  0.00    -0.216 C  
HETATM    3  C   UNL     1      -8.702   8.221  69.022  1.00  0.00    -0.143 C  
HETATM    4  C   UNL     1      -8.436   9.542  68.210  1.00  0.00    -0.119 C  
HETATM    5  C   UNL     1      -9.283  10.820  68.565  1.00  0.00    -0.174 C  
HETATM    6  C   UNL     1     -10.676  10.366  68.986  1.00  0.00    -0.260 C  
HETATM    7  C   UNL     1     -11.695  11.470  69.244  1.00  0.00    -0.397 C  
HETATM    8  C   UNL     1     -10.708   9.244  70.013  1.00  0.00    -0.259 C  
HETATM    9  C   UNL     1     -11.906  12.221  67.937  1.00  0.00    -0.358 C  
HETATM   10  C   UNL     1      -9.948   9.117  71.399  1.00  0.00    -0.373 C  
HETATM   11  C   UNL     1     -10.612  12.830  67.468  1.00  0.00    -0.240 C  
HETATM   12  C   UNL     1      -9.844   7.556  71.646  1.00  0.00    -0.185 C  
HETATM   13  C   UNL     1     -10.664  14.084  66.977  1.00  0.00    -0.284 C  
HETATM   14  C   UNL     1     -10.703   7.041  70.509  1.00  0.00    -0.238 C  
HETATM   15  C   UNL     1      -9.454  11.264  65.994  1.00  0.00    -0.240 C  
HETATM   16  C   UNL     1      -9.421  14.699  66.482  1.00  0.00    -0.297 C  
HETATM   17  O   UNL     1      -9.466  15.575  65.629  1.00  0.00    -0.320 OA 
HETATM   18  C   UNL     1      -9.356  11.931  67.396  1.00  0.00    -0.176 C  
HETATM   19  C   UNL     1      -8.171  14.296  67.190  1.00  0.00    -0.184 C  
HETATM   20  C   UNL     1      -8.040  12.781  67.409  1.00  0.00    -0.185 C  
ENDROOT
BRANCH  14  21
HETATM   21  O   UNL     1     -10.952   5.657  70.312  1.00  0.00    -0.294 OA 
BRANCH  21  22
HETATM   22  C   UNL     1     -10.018   4.901  71.004  1.00  0.00    -0.212 C  
HETATM   23  O   UNL     1     -10.214   4.413  72.115  1.00  0.00    -0.186 OA 
BRANCH  22  24
HETATM   24  C   UNL     1      -8.811   4.495  70.186  1.00  0.00    -0.129 C  
BRANCH  24  25
HETATM   25  C   UNL     1      -9.185   3.796  68.897  1.00  0.00    -0.220 C  
BRANCH  25  26
HETATM   26  C   UNL     1      -8.864   4.604  67.639  1.00  0.00    -0.114 C  
HETATM   27  C   UNL     1      -7.360   4.592  67.377  1.00  0.00    -0.074 C  
HETATM   28  C   UNL     1      -7.253   5.001  65.922  1.00  0.00    -0.076 C  
HETATM   29  C   UNL     1      -8.417   4.286  65.248  1.00  0.00    -0.115 C  
HETATM   30  C   UNL     1      -9.469   4.058  66.338  1.00  0.00    -0.202 C  
ENDBRANCH  25  26
ENDBRANCH  24  25
ENDBRANCH  22  24
ENDBRANCH  21  22
ENDBRANCH  14  21
TORSDOF 5
ENDMDL
MODEL       79
REMARK 921   NORMALIZED FREE ENERGY PREDICTED BY IDOCK:   -4.86 KCAL/MOL
REMARK 922        TOTAL FREE ENERGY PREDICTED BY IDOCK:   -7.63 KCAL/MOL
REMARK 923 INTER-LIGAND FREE ENERGY PREDICTED BY IDOCK:   -5.69 KCAL/MOL
REMARK 924 INTRA-LIGAND FREE ENERGY PREDICTED BY IDOCK:   -1.94 KCAL/MOL
REMARK 927      BINDING AFFINITY PREDICTED BY RF-SCORE:    0.00 PKD
ROOT
HETATM    1  C   UNL     1      -7.818  12.648  66.980  1.00  0.00    -0.043 C  
HETATM    2  C   UNL     1      -7.037  12.955  68.259  1.00  0.00    -0.102 C  
HETATM    3  C   UNL     1      -5.812  13.885  67.877  1.00  0.00    -0.132 C  
HETATM    4  C   UNL     1      -6.210  15.369  67.536  1.00  0.00    -0.120 C  
HETATM    5  C   UNL     1      -7.318  16.064  68.411  1.00  0.00    -0.131 C  
HETATM    6  C   UNL     1      -8.330  15.004  68.829  1.00  0.00    -0.174 C  
HETATM    7  C   UNL     1      -9.560  15.506  69.576  1.00  0.00    -0.278 C  
HETATM    8  C   UNL     1      -7.732  13.731  69.407  1.00  0.00     0.368 C  
HETATM    9  C   UNL     1     -10.325  16.433  68.643  1.00  0.00    -0.273 C  
HETATM   10  C   UNL     1      -6.656  13.548  70.557  1.00  0.00     0.425 C  
HETATM   11  C   UNL     1      -9.466  17.603  68.247  1.00  0.00    -0.295 C  
HETATM   12  C   UNL     1      -5.981  12.150  70.241  1.00  0.00    -0.137 C  
HETATM   13  C   UNL     1     -10.051  18.817  68.223  1.00  0.00    -0.431 C  
HETATM   14  C   UNL     1      -6.874  11.663  69.118  1.00  0.00    -0.111 C  
HETATM   15  C   UNL     1      -8.257  17.075  66.190  1.00  0.00    -0.284 C  
HETATM   16  C   UNL     1      -9.246  19.979  67.811  1.00  0.00    -0.329 C  
HETATM   17  O   UNL     1      -9.790  20.960  67.321  1.00  0.00    -0.444 OA 
HETATM   18  C   UNL     1      -8.042  17.326  67.711  1.00  0.00    -0.201 C  
HETATM   19  C   UNL     1      -7.800  19.927  68.172  1.00  0.00    -0.307 C  
HETATM   20  C   UNL     1      -7.123  18.588  67.843  1.00  0.00    -0.233 C  
ENDROOT
BRANCH  14  21
HETATM   21  O   UNL     1      -6.690  10.399  68.496  1.00  0.00    -0.056 OA 
BRANCH  21  22
HETATM   22  C   UNL     1      -7.770   9.573  68.762  1.00  0.00    -0.080 C  
HETATM   23  O   UNL     1      -7.706   8.346  68.798  1.00  0.00    -0.098 OA 
BRANCH  22  24
HETATM   24  C   UNL     1      -9.002  10.295  69.263  1.00  0.00    -0.190 C  
BRANCH  24  25
HETATM   25  C   UNL     1     -10.287   9.718  68.709  1.00  0.00    -0.227 C  
BRANCH  25  26
HETATM   26  C   UNL     1     -11.308  10.775  68.285  1.00  0.00    -0.376 C  
HETATM   27  C   UNL     1     -11.168  12.020  69.158  1.00  0.00    -0.305 C  
HETATM   28  C   UNL     1     -11.872  13.093  68.354  1.00  0.00    -0.386 C  
HETATM   29  C   UNL     1     -11.475  12.800  66.912  1.00  0.00    -0.396 C  
HETATM   30  C   UNL     1     -11.143  11.307  66.854  1.00  0.00    -0.339 C  
ENDBRANCH  25  26
ENDBRANCH  24  25
ENDBRANCH  22  24
ENDBRANCH  21  22
ENDBRANCH  14  21
TORSDOF 5
ENDMDL
MODEL       80
REMARK 921   NORMALIZED FREE ENERGY PREDICTED BY IDOCK:   -4.85 KCAL/MOL
REMARK 922        TOTAL FREE ENERGY PREDICTED BY IDOCK:   -7.61 KCAL/MOL
REMARK 923 INTER-LIGAND FREE ENERGY PREDICTED BY IDOCK:   -6.78 KCAL/MOL
REMARK 924 INTRA-LIGAND FREE ENERGY PREDICTED BY IDOCK:   -0.83 KCAL/MOL
REMARK 927      BINDING AFFINITY PREDICTED BY RF-SCORE:    0.00 PKD
ROOT
HETATM    1  C   UNL     1     -10.406   8.434  68.567  1.00  0.00    -0.232 C  
HETATM    2  C   UNL     1     -11.088   8.384  69.935  1.00  0.00    -0.109 C  
HETATM    3  C   UNL     1     -11.966   7.066  70.000  1.00  0.00    -0.053 C  
HETATM    4  C   UNL     1     -11.133   5.742  70.156  1.00  0.00    -0.323 C  
HETATM    5  C   UNL     1      -9.887   5.752  71.119  1.00  0.00    -0.227 C  
HETATM    6  C   UNL     1      -9.252   7.136  71.061  1.00  0.00    -0.158 C  
HETATM    7  C   UNL     1      -7.946   7.310  71.827  1.00  0.00    -0.095 C  
HETATM    8  C   UNL     1     -10.219   8.299  71.216  1.00  0.00    -0.253 C  
HETATM    9  C   UNL     1      -6.915   6.378  71.206  1.00  0.00    -0.075 C  
HETATM   10  C   UNL     1     -11.327   8.555  72.320  1.00  0.00    -0.441 C  
HETATM   11  C   UNL     1      -7.372   4.948  71.309  1.00  0.00    -0.069 C  
HETATM   12  C   UNL     1     -12.384   9.492  71.604  1.00  0.00    -0.480 C  
HETATM   13  C   UNL     1      -6.448   4.029  71.653  1.00  0.00    -0.015 C  
HETATM   14  C   UNL     1     -11.653   9.789  70.310  1.00  0.00    -0.220 C  
HETATM   15  C   UNL     1      -8.635   4.343  69.307  1.00  0.00    -0.107 C  
HETATM   16  C   UNL     1      -6.855   2.617  71.734  1.00  0.00    -0.026 C  
HETATM   17  O   UNL     1      -6.030   1.728  71.566  1.00  0.00    -0.012 OA 
HETATM   18  C   UNL     1      -8.801   4.593  70.834  1.00  0.00    -0.149 C  
HETATM   19  C   UNL     1      -8.258   2.370  72.177  1.00  0.00    -0.054 C  
HETATM   20  C   UNL     1      -9.299   3.250  71.468  1.00  0.00    -0.204 C  
ENDROOT
BRANCH  14  21
HETATM   21  O   UNL     1     -12.195  10.641  69.310  1.00  0.00    -0.280 OA 
BRANCH  21  22
HETATM   22  C   UNL     1     -11.682  11.921  69.444  1.00  0.00    -0.339 C  
HETATM   23  O   UNL     1     -12.019  12.709  70.325  1.00  0.00    -0.348 OA 
BRANCH  22  24
HETATM   24  C   UNL     1     -10.476  12.207  68.576  1.00  0.00    -0.248 C  
BRANCH  24  25
HETATM   25  C   UNL     1     -10.580  13.527  67.842  1.00  0.00    -0.255 C  
BRANCH  25  26
HETATM   26  C   UNL     1     -10.831  13.382  66.341  1.00  0.00    -0.294 C  
HETATM   27  C   UNL     1     -10.544  11.950  65.896  1.00  0.00    -0.306 C  
HETATM   28  C   UNL     1     -11.258  11.846  64.564  1.00  0.00    -0.380 C  
HETATM   29  C   UNL     1     -12.556  12.614  64.776  1.00  0.00    -0.530 C  
HETATM   30  C   UNL     1     -12.279  13.624  65.893  1.00  0.00    -0.502 C  
ENDBRANCH  25  26
ENDBRANCH  24  25
ENDBRANCH  22  24
ENDBRANCH  21  22
ENDBRANCH  14  21
TORSDOF 5
ENDMDL
MODEL       81
REMARK 921   NORMALIZED FREE ENERGY PREDICTED BY IDOCK:   -4.83 KCAL/MOL
REMARK 922        TOTAL FREE ENERGY PREDICTED BY IDOCK:   -7.59 KCAL/MOL
REMARK 923 INTER-LIGAND FREE ENERGY PREDICTED BY IDOCK:   -7.24 KCAL/MOL
REMARK 924 INTRA-LIGAND FREE ENERGY PREDICTED BY IDOCK:   -0.34 KCAL/MOL
REMARK 927      BINDING AFFINITY PREDICTED BY RF-SCORE:    0.00 PKD
ROOT
HETATM    1  C   UNL     1      -9.970   9.303  67.568  1.00  0.00    -0.254 C  
HETATM    2  C   UNL     1      -9.049   9.890  68.638  1.00  0.00    -0.132 C  
HETATM    3  C   UNL     1      -9.952  10.434  69.821  1.00  0.00    -0.167 C  
HETATM    4  C   UNL     1     -10.591   9.309  70.717  1.00  0.00    -0.351 C  
HETATM    5  C   UNL     1      -9.710   8.056  71.082  1.00  0.00    -0.190 C  
HETATM    6  C   UNL     1      -8.787   7.763  69.905  1.00  0.00    -0.142 C  
HETATM    7  C   UNL     1      -7.943   6.498  70.011  1.00  0.00    -0.116 C  
HETATM    8  C   UNL     1      -8.034   8.965  69.358  1.00  0.00    -0.100 C  
HETATM    9  C   UNL     1      -8.892   5.310  70.072  1.00  0.00    -0.140 C  
HETATM   10  C   UNL     1      -7.165  10.049  70.122  1.00  0.00    -0.167 C  
HETATM   11  C   UNL     1      -9.789   5.417  71.275  1.00  0.00    -0.235 C  
HETATM   12  C   UNL     1      -7.226  11.327  69.188  1.00  0.00    -0.115 C  
HETATM   13  C   UNL     1     -10.013   4.290  71.979  1.00  0.00    -0.249 C  
HETATM   14  C   UNL     1      -7.926  10.747  67.976  1.00  0.00    -0.108 C  
HETATM   15  C   UNL     1     -11.840   6.598  70.667  1.00  0.00    -0.443 C  
HETATM   16  C   UNL     1     -10.910   4.353  73.144  1.00  0.00    -0.240 C  
HETATM   17  O   UNL     1     -11.514   3.353  73.512  1.00  0.00    -0.204 OA 
HETATM   18  C   UNL     1     -10.545   6.745  71.517  1.00  0.00    -0.245 C  
HETATM   19  C   UNL     1     -10.899   5.639  73.902  1.00  0.00    -0.132 C  
HETATM   20  C   UNL     1     -10.991   6.888  73.012  1.00  0.00    -0.308 C  
ENDROOT
BRANCH  14  21
HETATM   21  O   UNL     1      -8.196  11.518  66.814  1.00  0.00    -0.158 OA 
BRANCH  21  22
HETATM   22  C   UNL     1      -8.500  12.824  67.168  1.00  0.00    -0.181 C  
HETATM   23  O   UNL     1      -7.659  13.703  67.341  1.00  0.00    -0.167 OA 
BRANCH  22  24
HETATM   24  C   UNL     1      -9.970  13.171  67.080  1.00  0.00    -0.244 C  
BRANCH  24  25
HETATM   25  C   UNL     1     -10.248  14.309  66.121  1.00  0.00    -0.317 C  
BRANCH  25  26
HETATM   26  C   UNL     1     -10.593  13.853  64.703  1.00  0.00    -0.432 C  
HETATM   27  C   UNL     1     -10.389  12.346  64.572  1.00  0.00    -0.351 C  
HETATM   28  C   UNL     1     -11.184  11.990  63.332  1.00  0.00    -0.481 C  
HETATM   29  C   UNL     1     -12.437  12.852  63.433  1.00  0.00    -0.396 C  
HETATM   30  C   UNL     1     -12.055  14.066  64.284  1.00  0.00    -0.476 C  
ENDBRANCH  25  26
ENDBRANCH  24  25
ENDBRANCH  22  24
ENDBRANCH  21  22
ENDBRANCH  14  21
TORSDOF 5
ENDMDL
MODEL       82
REMARK 921   NORMALIZED FREE ENERGY PREDICTED BY IDOCK:   -4.82 KCAL/MOL
REMARK 922        TOTAL FREE ENERGY PREDICTED BY IDOCK:   -7.57 KCAL/MOL
REMARK 923 INTER-LIGAND FREE ENERGY PREDICTED BY IDOCK:   -7.00 KCAL/MOL
REMARK 924 INTRA-LIGAND FREE ENERGY PREDICTED BY IDOCK:   -0.57 KCAL/MOL
REMARK 927      BINDING AFFINITY PREDICTED BY RF-SCORE:    0.00 PKD
ROOT
HETATM    1  C   UNL     1      -8.818  11.437  68.428  1.00  0.00    -0.167 C  
HETATM    2  C   UNL     1      -9.229  11.493  66.955  1.00  0.00    -0.180 C  
HETATM    3  C   UNL     1      -7.940  11.217  66.074  1.00  0.00    -0.041 C  
HETATM    4  C   UNL     1      -7.462   9.718  66.081  1.00  0.00    -0.101 C  
HETATM    5  C   UNL     1      -8.553   8.586  66.025  1.00  0.00    -0.162 C  
HETATM    6  C   UNL     1      -9.784   9.072  66.782  1.00  0.00    -0.279 C  
HETATM    7  C   UNL     1     -10.910   8.061  66.957  1.00  0.00    -0.113 C  
HETATM    8  C   UNL     1     -10.259  10.469  66.414  1.00  0.00    -0.296 C  
HETATM    9  C   UNL     1     -10.371   6.904  67.786  1.00  0.00    -0.253 C  
HETATM   10  C   UNL     1     -10.551  11.097  64.988  1.00  0.00    -0.340 C  
HETATM   11  C   UNL     1      -9.213   6.250  67.083  1.00  0.00    -0.125 C  
HETATM   12  C   UNL     1     -10.349  12.654  65.197  1.00  0.00    -0.312 C  
HETATM   13  C   UNL     1      -9.164   4.903  67.096  1.00  0.00    -0.130 C  
HETATM   14  C   UNL     1     -10.175  12.707  66.702  1.00  0.00    -0.236 C  
HETATM   15  C   UNL     1      -7.123   7.297  67.795  1.00  0.00    -0.089 C  
HETATM   16  C   UNL     1      -8.028   4.232  66.443  1.00  0.00    -0.098 C  
HETATM   17  O   UNL     1      -7.676   3.119  66.812  1.00  0.00    -0.075 OA 
HETATM   18  C   UNL     1      -8.063   7.145  66.564  1.00  0.00    -0.114 C  
HETATM   19  C   UNL     1      -7.470   4.922  65.243  1.00  0.00    -0.077 C  
HETATM   20  C   UNL     1      -7.238   6.428  65.442  1.00  0.00    -0.070 C  
ENDROOT
BRANCH  14  21
HETATM   21  O   UNL     1      -9.987  13.929  67.402  1.00  0.00    -0.235 OA 
BRANCH  21  22
HETATM   22  C   UNL     1     -11.188  14.356  67.947  1.00  0.00    -0.286 C  
HETATM   23  O   UNL     1     -12.194  13.657  68.029  1.00  0.00    -0.323 OA 
BRANCH  22  24
HETATM   24  C   UNL     1     -11.107  15.680  68.677  1.00  0.00    -0.317 C  
BRANCH  24  25
HETATM   25  C   UNL     1     -10.026  16.587  68.130  1.00  0.00    -0.248 C  
BRANCH  25  26
HETATM   26  C   UNL     1     -10.503  18.008  67.830  1.00  0.00    -0.408 C  
HETATM   27  C   UNL     1      -9.503  19.024  68.376  1.00  0.00    -0.417 C  
HETATM   28  C   UNL     1      -9.846  20.294  67.625  1.00  0.00    -0.563 C  
HETATM   29  C   UNL     1     -10.158  19.818  66.211  1.00  0.00    -0.601 C  
HETATM   30  C   UNL     1     -10.612  18.361  66.340  1.00  0.00    -0.342 C  
ENDBRANCH  25  26
ENDBRANCH  24  25
ENDBRANCH  22  24
ENDBRANCH  21  22
ENDBRANCH  14  21
TORSDOF 5
ENDMDL
MODEL       83
REMARK 921   NORMALIZED FREE ENERGY PREDICTED BY IDOCK:   -4.80 KCAL/MOL
REMARK 922        TOTAL FREE ENERGY PREDICTED BY IDOCK:   -7.55 KCAL/MOL
REMARK 923 INTER-LIGAND FREE ENERGY PREDICTED BY IDOCK:   -6.88 KCAL/MOL
REMARK 924 INTRA-LIGAND FREE ENERGY PREDICTED BY IDOCK:   -0.67 KCAL/MOL
REMARK 927      BINDING AFFINITY PREDICTED BY RF-SCORE:    0.00 PKD
ROOT
HETATM    1  C   UNL     1     -10.061  13.814  65.437  1.00  0.00    -0.307 C  
HETATM    2  C   UNL     1     -10.555  12.830  66.499  1.00  0.00    -0.270 C  
HETATM    3  C   UNL     1     -11.388  11.696  65.769  1.00  0.00    -0.244 C  
HETATM    4  C   UNL     1     -10.512  10.672  64.957  1.00  0.00    -0.278 C  
HETATM    5  C   UNL     1      -9.151  10.191  65.585  1.00  0.00    -0.216 C  
HETATM    6  C   UNL     1      -8.559  11.348  66.383  1.00  0.00    -0.174 C  
HETATM    7  C   UNL     1      -7.168  11.123  66.963  1.00  0.00    -0.128 C  
HETATM    8  C   UNL     1      -9.523  12.034  67.337  1.00  0.00    -0.177 C  
HETATM    9  C   UNL     1      -6.208  10.916  65.800  1.00  0.00    -0.059 C  
HETATM   10  C   UNL     1     -10.481  11.408  68.434  1.00  0.00    -0.221 C  
HETATM   11  C   UNL     1      -6.615   9.715  64.991  1.00  0.00    -0.091 C  
HETATM   12  C   UNL     1     -11.644  12.473  68.591  1.00  0.00    -0.357 C  
HETATM   13  C   UNL     1      -5.634   8.890  64.576  1.00  0.00    -0.063 C  
HETATM   14  C   UNL     1     -11.097  13.602  67.741  1.00  0.00    -0.272 C  
HETATM   15  C   UNL     1      -8.117  10.408  63.193  1.00  0.00    -0.141 C  
HETATM   16  C   UNL     1      -5.995   7.721  63.757  1.00  0.00    -0.057 C  
HETATM   17  O   UNL     1      -5.180   7.237  62.982  1.00  0.00    -0.032 OA 
HETATM   18  C   UNL     1      -8.086   9.603  64.524  1.00  0.00    -0.143 C  
HETATM   19  C   UNL     1      -7.322   7.106  64.053  1.00  0.00    -0.081 C  
HETATM   20  C   UNL     1      -8.466   8.124  64.176  1.00  0.00     0.063 C  
ENDROOT
BRANCH  14  21
HETATM   21  O   UNL     1     -11.785  14.835  67.584  1.00  0.00    -0.349 OA 
BRANCH  21  22
HETATM   22  C   UNL     1     -11.076  15.858  68.193  1.00  0.00    -0.338 C  
HETATM   23  O   UNL     1     -10.406  16.689  67.583  1.00  0.00    -0.288 OA 
BRANCH  22  24
HETATM   24  C   UNL     1     -11.386  16.046  69.662  1.00  0.00    -0.332 C  
BRANCH  24  25
HETATM   25  C   UNL     1     -12.765  15.550  70.039  1.00  0.00    -0.149 C  
BRANCH  25  26
HETATM   26  C   UNL     1     -13.067  15.640  71.536  1.00  0.00    -0.561 C  
HETATM   27  C   UNL     1     -13.201  14.239  72.129  1.00  0.00    -0.491 C  
HETATM   28  C   UNL     1     -13.029  14.469  73.616  1.00  0.00     0.023 C  
HETATM   29  C   UNL     1     -11.931  15.521  73.706  1.00  0.00    -0.515 C  
HETATM   30  C   UNL     1     -11.972  16.297  72.387  1.00  0.00    -0.630 C  
ENDBRANCH  25  26
ENDBRANCH  24  25
ENDBRANCH  22  24
ENDBRANCH  21  22
ENDBRANCH  14  21
TORSDOF 5
ENDMDL
MODEL       84
REMARK 921   NORMALIZED FREE ENERGY PREDICTED BY IDOCK:   -4.79 KCAL/MOL
REMARK 922        TOTAL FREE ENERGY PREDICTED BY IDOCK:   -7.53 KCAL/MOL
REMARK 923 INTER-LIGAND FREE ENERGY PREDICTED BY IDOCK:   -7.11 KCAL/MOL
REMARK 924 INTRA-LIGAND FREE ENERGY PREDICTED BY IDOCK:   -0.42 KCAL/MOL
REMARK 927      BINDING AFFINITY PREDICTED BY RF-SCORE:    0.00 PKD
ROOT
HETATM    1  C   UNL     1      -7.406  10.188  68.727  1.00  0.00    -0.084 C  
HETATM    2  C   UNL     1      -8.702   9.406  68.945  1.00  0.00    -0.132 C  
HETATM    3  C   UNL     1      -9.709  10.334  69.742  1.00  0.00    -0.183 C  
HETATM    4  C   UNL     1     -10.332  11.497  68.885  1.00  0.00    -0.191 C  
HETATM    5  C   UNL     1     -10.755  11.187  67.400  1.00  0.00    -0.294 C  
HETATM    6  C   UNL     1      -9.781  10.161  66.832  1.00  0.00    -0.233 C  
HETATM    7  C   UNL     1      -9.942   9.826  65.354  1.00  0.00    -0.302 C  
HETATM    8  C   UNL     1      -9.530   8.949  67.716  1.00  0.00    -0.163 C  
HETATM    9  C   UNL     1      -9.681  11.097  64.559  1.00  0.00    -0.310 C  
HETATM   10  C   UNL     1     -10.565   7.980  68.425  1.00  0.00    -0.150 C  
HETATM   11  C   UNL     1     -10.667  12.167  64.943  1.00  0.00    -0.336 C  
HETATM   12  C   UNL     1      -9.770   7.398  69.665  1.00  0.00    -0.163 C  
HETATM   13  C   UNL     1     -11.192  12.907  63.946  1.00  0.00    -0.471 C  
HETATM   14  C   UNL     1      -8.384   7.942  69.381  1.00  0.00    -0.132 C  
HETATM   15  C   UNL     1      -9.749  13.515  66.763  1.00  0.00    -0.271 C  
HETATM   16  C   UNL     1     -12.138  13.982  64.290  1.00  0.00    -0.445 C  
HETATM   17  O   UNL     1     -12.267  14.948  63.548  1.00  0.00    -0.345 OA 
HETATM   18  C   UNL     1     -10.869  12.482  66.444  1.00  0.00    -0.290 C  
HETATM   19  C   UNL     1     -13.002  13.731  65.480  1.00  0.00    -0.363 C  
HETATM   20  C   UNL     1     -12.239  13.196  66.702  1.00  0.00    -0.331 C  
ENDROOT
BRANCH  14  21
HETATM   21  O   UNL     1      -7.273   7.663  70.220  1.00  0.00    -0.064 OA 
BRANCH  21  22
HETATM   22  C   UNL     1      -7.655   7.712  71.551  1.00  0.00    -0.081 C  
HETATM   23  O   UNL     1      -8.035   8.733  72.121  1.00  0.00    -0.331 OA 
BRANCH  22  24
HETATM   24  C   UNL     1      -7.818   6.358  72.207  1.00  0.00    -0.102 C  
BRANCH  24  25
HETATM   25  C   UNL     1      -9.129   6.220  72.951  1.00  0.00    -0.130 C  
BRANCH  25  26
HETATM   26  C   UNL     1      -9.425   4.797  73.424  1.00  0.00    -0.132 C  
HETATM   27  C   UNL     1     -10.931   4.597  73.576  1.00  0.00    -0.395 C  
HETATM   28  C   UNL     1     -11.087   3.090  73.583  1.00  0.00    -0.323 C  
HETATM   29  C   UNL     1     -10.087   2.608  72.539  1.00  0.00    -0.232 C  
HETATM   30  C   UNL     1      -9.001   3.683  72.457  1.00  0.00    -0.127 C  
ENDBRANCH  25  26
ENDBRANCH  24  25
ENDBRANCH  22  24
ENDBRANCH  21  22
ENDBRANCH  14  21
TORSDOF 5
ENDMDL
MODEL       85
REMARK 921   NORMALIZED FREE ENERGY PREDICTED BY IDOCK:   -4.77 KCAL/MOL
REMARK 922        TOTAL FREE ENERGY PREDICTED BY IDOCK:   -7.50 KCAL/MOL
REMARK 923 INTER-LIGAND FREE ENERGY PREDICTED BY IDOCK:   -5.53 KCAL/MOL
REMARK 924 INTRA-LIGAND FREE ENERGY PREDICTED BY IDOCK:   -1.97 KCAL/MOL
REMARK 927      BINDING AFFINITY PREDICTED BY RF-SCORE:    0.00 PKD
ROOT
HETATM    1  C   UNL     1     -10.552   9.064  66.949  1.00  0.00    -0.243 C  
HETATM    2  C   UNL     1      -9.512   9.897  67.699  1.00  0.00    -0.167 C  
HETATM    3  C   UNL     1     -10.252  10.679  68.862  1.00  0.00    -0.216 C  
HETATM    4  C   UNL     1     -10.684   9.776  70.076  1.00  0.00    -0.326 C  
HETATM    5  C   UNL     1      -9.691   8.656  70.563  1.00  0.00    -0.210 C  
HETATM    6  C   UNL     1      -8.944   8.120  69.348  1.00  0.00    -0.147 C  
HETATM    7  C   UNL     1      -8.026   6.929  69.594  1.00  0.00    -0.125 C  
HETATM    8  C   UNL     1      -8.350   9.180  68.434  1.00  0.00    -0.120 C  
HETATM    9  C   UNL     1      -8.887   5.768  70.069  1.00  0.00    -0.139 C  
HETATM   10  C   UNL     1      -7.435  10.425  68.787  1.00  0.00    -0.093 C  
HETATM   11  C   UNL     1      -9.595   6.130  71.347  1.00  0.00    -0.177 C  
HETATM   12  C   UNL     1      -7.708  11.456  67.616  1.00  0.00    -0.121 C  
HETATM   13  C   UNL     1      -9.647   5.188  72.310  1.00  0.00    -0.182 C  
HETATM   14  C   UNL     1      -8.552  10.602  66.692  1.00  0.00    -0.139 C  
HETATM   15  C   UNL     1     -11.776   7.102  70.830  1.00  0.00    -0.367 C  
HETATM   16  C   UNL     1     -10.357   5.499  73.561  1.00  0.00    -0.227 C  
HETATM   17  O   UNL     1     -10.842   4.598  74.234  1.00  0.00    -0.292 OA 
HETATM   18  C   UNL     1     -10.377   7.463  71.407  1.00  0.00    -0.208 C  
HETATM   19  C   UNL     1     -10.301   6.923  74.003  1.00  0.00    -0.355 C  
HETATM   20  C   UNL     1     -10.596   7.934  72.884  1.00  0.00    -0.434 C  
ENDROOT
BRANCH  14  21
HETATM   21  O   UNL     1      -9.038  11.083  65.446  1.00  0.00    -0.198 OA 
BRANCH  21  22
HETATM   22  C   UNL     1      -8.692  10.208  64.428  1.00  0.00    -0.202 C  
HETATM   23  O   UNL     1      -9.448   9.878  63.518  1.00  0.00    -0.266 OA 
BRANCH  22  24
HETATM   24  C   UNL     1      -7.217   9.874  64.365  1.00  0.00    -0.134 C  
BRANCH  24  25
HETATM   25  C   UNL     1      -6.959   8.399  64.139  1.00  0.00    -0.078 C  
BRANCH  25  26
HETATM   26  C   UNL     1      -7.101   7.546  65.400  1.00  0.00    -0.063 C  
HETATM   27  C   UNL     1      -8.306   6.617  65.272  1.00  0.00    -0.112 C  
HETATM   28  C   UNL     1      -8.048   5.560  66.326  1.00  0.00    -0.106 C  
HETATM   29  C   UNL     1      -6.547   5.311  66.244  1.00  0.00    -0.052 C  
HETATM   30  C   UNL     1      -5.930   6.594  65.681  1.00  0.00    -0.034 C  
ENDBRANCH  25  26
ENDBRANCH  24  25
ENDBRANCH  22  24
ENDBRANCH  21  22
ENDBRANCH  14  21
TORSDOF 5
ENDMDL
MODEL       86
REMARK 921   NORMALIZED FREE ENERGY PREDICTED BY IDOCK:   -4.75 KCAL/MOL
REMARK 922        TOTAL FREE ENERGY PREDICTED BY IDOCK:   -7.47 KCAL/MOL
REMARK 923 INTER-LIGAND FREE ENERGY PREDICTED BY IDOCK:   -7.23 KCAL/MOL
REMARK 924 INTRA-LIGAND FREE ENERGY PREDICTED BY IDOCK:   -0.25 KCAL/MOL
REMARK 927      BINDING AFFINITY PREDICTED BY RF-SCORE:    0.00 PKD
ROOT
HETATM    1  C   UNL     1      -8.777  11.461  66.227  1.00  0.00    -0.173 C  
HETATM    2  C   UNL     1      -9.681  11.532  67.459  1.00  0.00    -0.189 C  
HETATM    3  C   UNL     1      -8.842  12.158  68.649  1.00  0.00    -0.004 C  
HETATM    4  C   UNL     1      -8.583  13.704  68.514  1.00  0.00    -0.103 C  
HETATM    5  C   UNL     1      -9.753  14.613  67.983  1.00  0.00    -0.216 C  
HETATM    6  C   UNL     1     -10.558  13.809  66.967  1.00  0.00    -0.278 C  
HETATM    7  C   UNL     1     -11.661  14.563  66.235  1.00  0.00    -0.364 C  
HETATM    8  C   UNL     1     -10.956  12.413  67.417  1.00  0.00    -0.296 C  
HETATM    9  C   UNL     1     -11.008  15.675  65.428  1.00  0.00    -0.342 C  
HETATM   10  C   UNL     1     -11.661  11.942  68.757  1.00  0.00    -0.379 C  
HETATM   11  C   UNL     1     -10.272  16.621  66.338  1.00  0.00    -0.322 C  
HETATM   12  C   UNL     1     -11.205  10.435  68.930  1.00  0.00    -0.290 C  
HETATM   13  C   UNL     1     -10.391  17.939  66.082  1.00  0.00    -0.352 C  
HETATM   14  C   UNL     1     -10.496  10.210  67.610  1.00  0.00    -0.245 C  
HETATM   15  C   UNL     1      -7.954  15.889  66.580  1.00  0.00    -0.231 C  
HETATM   16  C   UNL     1      -9.660  18.890  66.935  1.00  0.00    -0.314 C  
HETATM   17  O   UNL     1      -9.339  19.988  66.498  1.00  0.00    -0.365 OA 
HETATM   18  C   UNL     1      -9.285  16.032  67.373  1.00  0.00    -0.214 C  
HETATM   19  C   UNL     1      -9.490  18.486  68.361  1.00  0.00    -0.368 C  
HETATM   20  C   UNL     1      -9.017  17.035  68.545  1.00  0.00    -0.263 C  
ENDROOT
BRANCH  14  21
HETATM   21  O   UNL     1      -9.918   8.960  67.263  1.00  0.00    -0.182 OA 
BRANCH  21  22
HETATM   22  C   UNL     1      -9.822   8.150  68.383  1.00  0.00    -0.171 C  
HETATM   23  O   UNL     1      -9.040   8.348  69.310  1.00  0.00    -0.149 OA 
BRANCH  22  24
HETATM   24  C   UNL     1     -10.933   7.132  68.516  1.00  0.00    -0.080 C  
BRANCH  24  25
HETATM   25  C   UNL     1     -10.938   6.119  67.392  1.00  0.00    -0.409 C  
BRANCH  25  26
HETATM   26  C   UNL     1      -9.726   5.186  67.394  1.00  0.00    -0.172 C  
HETATM   27  C   UNL     1      -9.636   4.446  68.726  1.00  0.00    -0.224 C  
HETATM   28  C   UNL     1      -8.726   3.275  68.417  1.00  0.00    -0.139 C  
HETATM   29  C   UNL     1      -9.151   2.831  67.023  1.00  0.00    -0.184 C  
HETATM   30  C   UNL     1      -9.764   4.062  66.349  1.00  0.00    -0.206 C  
ENDBRANCH  25  26
ENDBRANCH  24  25
ENDBRANCH  22  24
ENDBRANCH  21  22
ENDBRANCH  14  21
TORSDOF 5
ENDMDL
MODEL       87
REMARK 921   NORMALIZED FREE ENERGY PREDICTED BY IDOCK:   -4.73 KCAL/MOL
REMARK 922        TOTAL FREE ENERGY PREDICTED BY IDOCK:   -7.45 KCAL/MOL
REMARK 923 INTER-LIGAND FREE ENERGY PREDICTED BY IDOCK:   -5.82 KCAL/MOL
REMARK 924 INTRA-LIGAND FREE ENERGY PREDICTED BY IDOCK:   -1.63 KCAL/MOL
REMARK 927      BINDING AFFINITY PREDICTED BY RF-SCORE:    0.00 PKD
ROOT
HETATM    1  C   UNL     1     -10.200  11.294  69.546  1.00  0.00     0.122 C  
HETATM    2  C   UNL     1     -10.266  11.351  68.019  1.00  0.00    -0.201 C  
HETATM    3  C   UNL     1     -11.593  12.116  67.611  1.00  0.00    -0.413 C  
HETATM    4  C   UNL     1     -11.545  13.669  67.857  1.00  0.00    -0.376 C  
HETATM    5  C   UNL     1     -10.212  14.437  67.524  1.00  0.00    -0.240 C  
HETATM    6  C   UNL     1      -9.040  13.509  67.820  1.00  0.00    -0.207 C  
HETATM    7  C   UNL     1      -7.649  14.117  67.686  1.00  0.00    -0.193 C  
HETATM    8  C   UNL     1      -9.161  12.109  67.239  1.00  0.00    -0.181 C  
HETATM    9  C   UNL     1      -7.532  15.237  68.710  1.00  0.00    -0.135 C  
HETATM   10  C   UNL     1      -9.503  11.652  65.760  1.00  0.00    -0.244 C  
HETATM   11  C   UNL     1      -8.570  16.295  68.451  1.00  0.00    -0.200 C  
HETATM   12  C   UNL     1     -10.123  10.204  65.932  1.00  0.00    -0.325 C  
HETATM   13  C   UNL     1      -8.180  17.581  68.557  1.00  0.00    -0.278 C  
HETATM   14  C   UNL     1      -9.869   9.972  67.407  1.00  0.00    -0.185 C  
HETATM   15  C   UNL     1     -10.591  15.791  69.728  1.00  0.00    -0.312 C  
HETATM   16  C   UNL     1      -9.179  18.640  68.340  1.00  0.00    -0.326 C  
HETATM   17  O   UNL     1      -9.037  19.737  68.866  1.00  0.00    -0.279 OA 
HETATM   18  C   UNL     1     -10.043  15.857  68.273  1.00  0.00    -0.224 C  
HETATM   19  C   UNL     1     -10.244  18.333  67.342  1.00  0.00    -0.385 C  
HETATM   20  C   UNL     1     -10.878  16.944  67.516  1.00  0.00    -0.207 C  
ENDROOT
BRANCH  14  21
HETATM   21  O   UNL     1     -10.231   8.762  68.058  1.00  0.00    -0.194 OA 
BRANCH  21  22
HETATM   22  C   UNL     1      -9.487   7.707  67.552  1.00  0.00    -0.140 C  
HETATM   23  O   UNL     1      -9.789   7.075  66.542  1.00  0.00    -0.175 OA 
BRANCH  22  24
HETATM   24  C   UNL     1      -8.124   7.540  68.187  1.00  0.00    -0.124 C  
BRANCH  24  25
HETATM   25  C   UNL     1      -7.846   8.571  69.260  1.00  0.00    -0.099 C  
BRANCH  25  26
HETATM   26  C   UNL     1      -6.520   9.311  69.079  1.00  0.00    -0.047 C  
HETATM   27  C   UNL     1      -6.304   9.647  67.605  1.00  0.00    -0.057 C  
HETATM   28  C   UNL     1      -5.251  10.736  67.644  1.00  0.00    -0.040 C  
HETATM   29  C   UNL     1      -5.641  11.588  68.845  1.00  0.00    -0.046 C  
HETATM   30  C   UNL     1      -6.427  10.671  69.785  1.00  0.00    -0.110 C  
ENDBRANCH  25  26
ENDBRANCH  24  25
ENDBRANCH  22  24
ENDBRANCH  21  22
ENDBRANCH  14  21
TORSDOF 5
ENDMDL
MODEL       88
REMARK 921   NORMALIZED FREE ENERGY PREDICTED BY IDOCK:   -4.72 KCAL/MOL
REMARK 922        TOTAL FREE ENERGY PREDICTED BY IDOCK:   -7.44 KCAL/MOL
REMARK 923 INTER-LIGAND FREE ENERGY PREDICTED BY IDOCK:   -6.80 KCAL/MOL
REMARK 924 INTRA-LIGAND FREE ENERGY PREDICTED BY IDOCK:   -0.64 KCAL/MOL
REMARK 927      BINDING AFFINITY PREDICTED BY RF-SCORE:    0.00 PKD
ROOT
HETATM    1  C   UNL     1      -9.013   9.152  70.301  1.00  0.00    -0.245 C  
HETATM    2  C   UNL     1     -10.136   8.176  69.944  1.00  0.00    -0.195 C  
HETATM    3  C   UNL     1     -10.785   8.651  68.578  1.00  0.00    -0.091 C  
HETATM    4  C   UNL     1      -9.892   8.384  67.311  1.00  0.00    -0.264 C  
HETATM    5  C   UNL     1      -9.102   7.025  67.228  1.00  0.00    -0.130 C  
HETATM    6  C   UNL     1      -8.687   6.628  68.640  1.00  0.00    -0.124 C  
HETATM    7  C   UNL     1      -7.790   5.401  68.758  1.00  0.00    -0.087 C  
HETATM    8  C   UNL     1      -9.794   6.687  69.680  1.00  0.00    -0.168 C  
HETATM    9  C   UNL     1      -6.486   5.707  68.037  1.00  0.00    -0.044 C  
HETATM   10  C   UNL     1     -11.254   6.071  69.642  1.00  0.00    -0.428 C  
HETATM   11  C   UNL     1      -6.746   6.001  66.585  1.00  0.00    -0.061 C  
HETATM   12  C   UNL     1     -12.093   6.992  70.620  1.00  0.00    -0.332 C  
HETATM   13  C   UNL     1      -5.896   5.468  65.686  1.00  0.00    -0.024 C  
HETATM   14  C   UNL     1     -10.987   7.845  71.208  1.00  0.00    -0.238 C  
HETATM   15  C   UNL     1      -7.090   8.401  66.282  1.00  0.00    -0.077 C  
HETATM   16  C   UNL     1      -6.104   5.760  64.258  1.00  0.00    -0.025 C  
HETATM   17  O   UNL     1      -5.160   5.727  63.479  1.00  0.00    -0.012 OA 
HETATM   18  C   UNL     1      -7.837   7.038  66.225  1.00  0.00    -0.104 C  
HETATM   19  C   UNL     1      -7.524   5.934  63.832  1.00  0.00    -0.075 C  
HETATM   20  C   UNL     1      -8.343   6.851  64.754  1.00  0.00     0.014 C  
ENDROOT
BRANCH  14  21
HETATM   21  O   UNL     1     -11.237   8.838  72.193  1.00  0.00    -0.353 OA 
BRANCH  21  22
HETATM   22  C   UNL     1     -12.510   9.362  72.030  1.00  0.00    -0.365 C  
HETATM   23  O   UNL     1     -13.507   8.942  72.613  1.00  0.00    -0.435 OA 
BRANCH  22  24
HETATM   24  C   UNL     1     -12.555  10.669  71.268  1.00  0.00    -0.533 C  
BRANCH  24  25
HETATM   25  C   UNL     1     -13.350  11.739  71.986  1.00  0.00    -0.417 C  
BRANCH  25  26
HETATM   26  C   UNL     1     -13.252  13.121  71.339  1.00  0.00    -0.290 C  
HETATM   27  C   UNL     1     -13.055  14.190  72.412  1.00  0.00    -0.525 C  
HETATM   28  C   UNL     1     -12.523  15.375  71.634  1.00  0.00    -0.450 C  
HETATM   29  C   UNL     1     -11.573  14.756  70.616  1.00  0.00    -0.324 C  
HETATM   30  C   UNL     1     -12.056  13.320  70.398  1.00  0.00    -0.401 C  
ENDBRANCH  25  26
ENDBRANCH  24  25
ENDBRANCH  22  24
ENDBRANCH  21  22
ENDBRANCH  14  21
TORSDOF 5
ENDMDL
MODEL       89
REMARK 921   NORMALIZED FREE ENERGY PREDICTED BY IDOCK:   -4.71 KCAL/MOL
REMARK 922        TOTAL FREE ENERGY PREDICTED BY IDOCK:   -7.42 KCAL/MOL
REMARK 923 INTER-LIGAND FREE ENERGY PREDICTED BY IDOCK:   -7.03 KCAL/MOL
REMARK 924 INTRA-LIGAND FREE ENERGY PREDICTED BY IDOCK:   -0.39 KCAL/MOL
REMARK 927      BINDING AFFINITY PREDICTED BY RF-SCORE:    0.00 PKD
ROOT
HETATM    1  C   UNL     1     -11.160  10.181  69.969  1.00  0.00    -0.368 C  
HETATM    2  C   UNL     1     -10.576  10.522  68.597  1.00  0.00    -0.226 C  
HETATM    3  C   UNL     1      -9.002  10.635  68.746  1.00  0.00    -0.172 C  
HETATM    4  C   UNL     1      -8.270   9.254  68.926  1.00  0.00    -0.111 C  
HETATM    5  C   UNL     1      -8.765   8.029  68.071  1.00  0.00    -0.125 C  
HETATM    6  C   UNL     1     -10.273   8.156  67.885  1.00  0.00    -0.274 C  
HETATM    7  C   UNL     1     -10.966   6.989  67.192  1.00  0.00    -0.393 C  
HETATM    8  C   UNL     1     -10.755   9.523  67.425  1.00  0.00    -0.297 C  
HETATM    9  C   UNL     1     -10.780   5.755  68.062  1.00  0.00    -0.290 C  
HETATM   10  C   UNL     1     -10.255  10.420  66.217  1.00  0.00    -0.286 C  
HETATM   11  C   UNL     1      -9.317   5.445  68.226  1.00  0.00    -0.135 C  
HETATM   12  C   UNL     1     -10.626  11.898  66.649  1.00  0.00    -0.273 C  
HETATM   13  C   UNL     1      -8.949   4.151  68.145  1.00  0.00    -0.150 C  
HETATM   14  C   UNL     1     -11.435  11.623  67.901  1.00  0.00    -0.311 C  
HETATM   15  C   UNL     1      -8.457   6.569  70.218  1.00  0.00    -0.135 C  
HETATM   16  C   UNL     1      -7.529   3.809  68.330  1.00  0.00    -0.054 C  
HETATM   17  O   UNL     1      -7.211   2.699  68.737  1.00  0.00    -0.047 OA 
HETATM   18  C   UNL     1      -8.365   6.582  68.664  1.00  0.00    -0.122 C  
HETATM   19  C   UNL     1      -6.549   4.827  67.852  1.00  0.00    -0.046 C  
HETATM   20  C   UNL     1      -6.878   6.263  68.290  1.00  0.00    -0.071 C  
ENDROOT
BRANCH  14  21
HETATM   21  O   UNL     1     -12.033  12.662  68.662  1.00  0.00    -0.304 OA 
BRANCH  21  22
HETATM   22  C   UNL     1     -11.714  13.897  68.118  1.00  0.00    -0.353 C  
HETATM   23  O   UNL     1     -12.385  14.464  67.258  1.00  0.00    -0.322 OA 
BRANCH  22  24
HETATM   24  C   UNL     1     -10.606  14.632  68.840  1.00  0.00    -0.253 C  
BRANCH  24  25
HETATM   25  C   UNL     1     -10.988  16.048  69.213  1.00  0.00    -0.306 C  
BRANCH  25  26
HETATM   26  C   UNL     1     -10.641  17.085  68.144  1.00  0.00    -0.369 C  
HETATM   27  C   UNL     1     -10.039  18.328  68.795  1.00  0.00    -0.393 C  
HETATM   28  C   UNL     1      -9.342  19.025  67.644  1.00  0.00    -0.342 C  
HETATM   29  C   UNL     1      -8.727  17.888  66.838  1.00  0.00    -0.258 C  
HETATM   30  C   UNL     1      -9.576  16.647  67.129  1.00  0.00    -0.244 C  
ENDBRANCH  25  26
ENDBRANCH  24  25
ENDBRANCH  22  24
ENDBRANCH  21  22
ENDBRANCH  14  21
TORSDOF 5
ENDMDL
MODEL       90
REMARK 921   NORMALIZED FREE ENERGY PREDICTED BY IDOCK:   -4.61 KCAL/MOL
REMARK 922        TOTAL FREE ENERGY PREDICTED BY IDOCK:   -7.30 KCAL/MOL
REMARK 923 INTER-LIGAND FREE ENERGY PREDICTED BY IDOCK:   -6.87 KCAL/MOL
REMARK 924 INTRA-LIGAND FREE ENERGY PREDICTED BY IDOCK:   -0.43 KCAL/MOL
REMARK 927      BINDING AFFINITY PREDICTED BY RF-SCORE:    0.00 PKD
ROOT
HETATM    1  C   UNL     1      -9.820   8.411  69.964  1.00  0.00    -0.182 C  
HETATM    2  C   UNL     1     -10.404   7.083  70.450  1.00  0.00    -0.219 C  
HETATM    3  C   UNL     1     -11.526   6.634  69.424  1.00  0.00    -0.288 C  
HETATM    4  C   UNL     1     -10.971   6.105  68.050  1.00  0.00    -0.399 C  
HETATM    5  C   UNL     1      -9.688   5.194  68.065  1.00  0.00    -0.188 C  
HETATM    6  C   UNL     1      -8.789   5.654  69.206  1.00  0.00    -0.112 C  
HETATM    7  C   UNL     1      -7.426   4.979  69.305  1.00  0.00    -0.057 C  
HETATM    8  C   UNL     1      -9.486   5.838  70.545  1.00  0.00    -0.201 C  
HETATM    9  C   UNL     1      -6.651   5.309  68.037  1.00  0.00    -0.050 C  
HETATM   10  C   UNL     1     -10.442   4.848  71.333  1.00  0.00    -0.170 C  
HETATM   11  C   UNL     1      -7.382   4.793  66.827  1.00  0.00    -0.082 C  
HETATM   12  C   UNL     1     -11.332   5.800  72.234  1.00  0.00    -0.334 C  
HETATM   13  C   UNL     1      -6.643   4.203  65.867  1.00  0.00    -0.041 C  
HETATM   14  C   UNL     1     -10.645   7.128  71.990  1.00  0.00    -0.210 C  
HETATM   15  C   UNL     1      -8.873   6.527  65.968  1.00  0.00    -0.154 C  
HETATM   16  C   UNL     1      -7.323   3.713  64.656  1.00  0.00    -0.068 C  
HETATM   17  O   UNL     1      -6.709   3.622  63.601  1.00  0.00    -0.040 OA 
HETATM   18  C   UNL     1      -8.881   5.137  66.667  1.00  0.00    -0.112 C  
HETATM   19  C   UNL     1      -8.714   3.210  64.851  1.00  0.00    -0.108 C  
HETATM   20  C   UNL     1      -9.599   4.138  65.697  1.00  0.00    -0.188 C  
ENDROOT
BRANCH  14  21
HETATM   21  O   UNL     1     -11.068   8.329  72.621  1.00  0.00    -0.367 OA 
BRANCH  21  22
HETATM   22  C   UNL     1     -12.303   8.719  72.126  1.00  0.00    -0.389 C  
HETATM   23  O   UNL     1     -13.283   7.981  72.062  1.00  0.00    -0.309 OA 
BRANCH  22  24
HETATM   24  C   UNL     1     -12.443  10.208  71.897  1.00  0.00    -0.374 C  
BRANCH  24  25
HETATM   25  C   UNL     1     -12.744  10.555  70.455  1.00  0.00    -0.385 C  
BRANCH  25  26
HETATM   26  C   UNL     1     -11.795  11.593  69.857  1.00  0.00    -0.434 C  
HETATM   27  C   UNL     1     -11.787  11.482  68.334  1.00  0.00    -0.353 C  
HETATM   28  C   UNL     1     -11.209  12.809  67.888  1.00  0.00    -0.315 C  
HETATM   29  C   UNL     1     -11.829  13.824  68.839  1.00  0.00    -0.396 C  
HETATM   30  C   UNL     1     -12.177  13.057  70.118  1.00  0.00    -0.342 C  
ENDBRANCH  25  26
ENDBRANCH  24  25
ENDBRANCH  22  24
ENDBRANCH  21  22
ENDBRANCH  14  21
TORSDOF 5
ENDMDL
MODEL       91
REMARK 921   NORMALIZED FREE ENERGY PREDICTED BY IDOCK:   -4.59 KCAL/MOL
REMARK 922        TOTAL FREE ENERGY PREDICTED BY IDOCK:   -7.27 KCAL/MOL
REMARK 923 INTER-LIGAND FREE ENERGY PREDICTED BY IDOCK:   -6.76 KCAL/MOL
REMARK 924 INTRA-LIGAND FREE ENERGY PREDICTED BY IDOCK:   -0.52 KCAL/MOL
REMARK 927      BINDING AFFINITY PREDICTED BY RF-SCORE:    0.00 PKD
ROOT
HETATM    1  C   UNL     1     -11.709  10.994  68.484  1.00  0.00    -0.348 C  
HETATM    2  C   UNL     1     -10.245  11.124  68.061  1.00  0.00    -0.201 C  
HETATM    3  C   UNL     1      -9.339  10.830  69.327  1.00  0.00    -0.087 C  
HETATM    4  C   UNL     1      -9.282   9.314  69.744  1.00  0.00    -0.191 C  
HETATM    5  C   UNL     1      -9.196   8.230  68.607  1.00  0.00    -0.143 C  
HETATM    6  C   UNL     1      -9.986   8.736  67.405  1.00  0.00    -0.267 C  
HETATM    7  C   UNL     1     -10.135   7.765  66.240  1.00  0.00     0.025 C  
HETATM    8  C   UNL     1      -9.677  10.164  66.983  1.00  0.00    -0.224 C  
HETATM    9  C   UNL     1     -10.913   6.556  66.740  1.00  0.00    -0.309 C  
HETATM   10  C   UNL     1      -8.279  10.858  66.703  1.00  0.00    -0.145 C  
HETATM   11  C   UNL     1     -10.171   5.883  67.863  1.00  0.00    -0.225 C  
HETATM   12  C   UNL     1      -8.546  12.396  66.971  1.00  0.00    -0.191 C  
HETATM   13  C   UNL     1     -10.133   4.536  67.856  1.00  0.00    -0.047 C  
HETATM   14  C   UNL     1     -10.050  12.384  67.162  1.00  0.00    -0.213 C  
HETATM   15  C   UNL     1     -10.898   6.816  70.001  1.00  0.00    -0.311 C  
HETATM   16  C   UNL     1      -9.441   3.846  68.957  1.00  0.00    -0.170 C  
HETATM   17  O   UNL     1      -9.763   2.706  69.267  1.00  0.00    -0.044 OA 
HETATM   18  C   UNL     1      -9.673   6.751  69.043  1.00  0.00    -0.145 C  
HETATM   19  C   UNL     1      -8.262   4.558  69.530  1.00  0.00    -0.067 C  
HETATM   20  C   UNL     1      -8.515   6.044  69.826  1.00  0.00    -0.126 C  
ENDROOT
BRANCH  14  21
HETATM   21  O   UNL     1     -10.793  13.569  67.407  1.00  0.00    -0.264 OA 
BRANCH  21  22
HETATM   22  C   UNL     1     -10.566  14.492  66.399  1.00  0.00    -0.302 C  
HETATM   23  O   UNL     1     -11.142  14.481  65.313  1.00  0.00    -0.318 OA 
BRANCH  22  24
HETATM   24  C   UNL     1      -9.734  15.685  66.818  1.00  0.00    -0.255 C  
BRANCH  24  25
HETATM   25  C   UNL     1      -9.885  16.864  65.880  1.00  0.00    -0.241 C  
BRANCH  25  26
HETATM   26  C   UNL     1      -9.929  18.218  66.590  1.00  0.00    -0.370 C  
HETATM   27  C   UNL     1     -10.341  18.032  68.048  1.00  0.00    -0.397 C  
HETATM   28  C   UNL     1      -9.898  19.323  68.705  1.00  0.00    -0.514 C  
HETATM   29  C   UNL     1      -8.559  19.635  68.048  1.00  0.00    -0.355 C  
HETATM   30  C   UNL     1      -8.586  18.956  66.676  1.00  0.00    -0.312 C  
ENDBRANCH  25  26
ENDBRANCH  24  25
ENDBRANCH  22  24
ENDBRANCH  21  22
ENDBRANCH  14  21
TORSDOF 5
ENDMDL
MODEL       92
REMARK 921   NORMALIZED FREE ENERGY PREDICTED BY IDOCK:   -4.59 KCAL/MOL
REMARK 922        TOTAL FREE ENERGY PREDICTED BY IDOCK:   -7.27 KCAL/MOL
REMARK 923 INTER-LIGAND FREE ENERGY PREDICTED BY IDOCK:   -6.46 KCAL/MOL
REMARK 924 INTRA-LIGAND FREE ENERGY PREDICTED BY IDOCK:   -0.81 KCAL/MOL
REMARK 927      BINDING AFFINITY PREDICTED BY RF-SCORE:    0.00 PKD
ROOT
HETATM    1  C   UNL     1      -7.390   7.910  67.800  1.00  0.00    -0.096 C  
HETATM    2  C   UNL     1      -8.841   7.424  67.792  1.00  0.00    -0.128 C  
HETATM    3  C   UNL     1      -9.547   7.959  69.106  1.00  0.00    -0.153 C  
HETATM    4  C   UNL     1      -9.863   9.500  69.088  1.00  0.00    -0.176 C  
HETATM    5  C   UNL     1     -10.392  10.138  67.749  1.00  0.00    -0.253 C  
HETATM    6  C   UNL     1      -9.738   9.406  66.582  1.00  0.00    -0.280 C  
HETATM    7  C   UNL     1     -10.021   9.966  65.194  1.00  0.00    -0.278 C  
HETATM    8  C   UNL     1      -9.792   7.888  66.659  1.00  0.00    -0.311 C  
HETATM    9  C   UNL     1      -9.455  11.378  65.138  1.00  0.00    -0.223 C  
HETATM   10  C   UNL     1     -11.027   6.930  66.925  1.00  0.00    -0.328 C  
HETATM   11  C   UNL     1     -10.114  12.247  66.174  1.00  0.00    -0.265 C  
HETATM   12  C   UNL     1     -10.380   5.620  67.537  1.00  0.00    -0.277 C  
HETATM   13  C   UNL     1     -10.452  13.498  65.804  1.00  0.00    -0.293 C  
HETATM   14  C   UNL     1      -8.909   5.929  67.352  1.00  0.00    -0.106 C  
HETATM   15  C   UNL     1      -8.825  12.171  68.249  1.00  0.00    -0.182 C  
HETATM   16  C   UNL     1     -11.071  14.386  66.802  1.00  0.00    -0.323 C  
HETATM   17  O   UNL     1     -10.960  15.601  66.698  1.00  0.00    -0.299 OA 
HETATM   18  C   UNL     1     -10.185  11.734  67.632  1.00  0.00    -0.216 C  
HETATM   19  C   UNL     1     -11.939  13.717  67.815  1.00  0.00    -0.391 C  
HETATM   20  C   UNL     1     -11.312  12.462  68.441  1.00  0.00    -0.330 C  
ENDROOT
BRANCH  14  21
HETATM   21  O   UNL     1      -7.888   5.017  67.731  1.00  0.00    -0.090 OA 
BRANCH  21  22
HETATM   22  C   UNL     1      -8.447   3.890  68.313  1.00  0.00    -0.092 C  
HETATM   23  O   UNL     1      -8.880   2.930  67.679  1.00  0.00    -0.109 OA 
BRANCH  22  24
HETATM   24  C   UNL     1      -8.260   3.802  69.813  1.00  0.00    -0.069 C  
BRANCH  24  25
HETATM   25  C   UNL     1      -9.521   4.130  70.582  1.00  0.00    -0.242 C  
BRANCH  25  26
HETATM   26  C   UNL     1      -9.301   5.091  71.751  1.00  0.00    -0.184 C  
HETATM   27  C   UNL     1     -10.642   5.604  72.268  1.00  0.00    -0.270 C  
HETATM   28  C   UNL     1     -10.308   6.133  73.648  1.00  0.00    -0.275 C  
HETATM   29  C   UNL     1      -9.312   5.122  74.203  1.00  0.00    -0.122 C  
HETATM   30  C   UNL     1      -8.639   4.473  72.990  1.00  0.00    -0.105 C  
ENDBRANCH  25  26
ENDBRANCH  24  25
ENDBRANCH  22  24
ENDBRANCH  21  22
ENDBRANCH  14  21
TORSDOF 5
ENDMDL
MODEL       93
REMARK 921   NORMALIZED FREE ENERGY PREDICTED BY IDOCK:   -4.59 KCAL/MOL
REMARK 922        TOTAL FREE ENERGY PREDICTED BY IDOCK:   -7.27 KCAL/MOL
REMARK 923 INTER-LIGAND FREE ENERGY PREDICTED BY IDOCK:   -6.58 KCAL/MOL
REMARK 924 INTRA-LIGAND FREE ENERGY PREDICTED BY IDOCK:   -0.69 KCAL/MOL
REMARK 927      BINDING AFFINITY PREDICTED BY RF-SCORE:    0.00 PKD
ROOT
HETATM    1  C   UNL     1      -8.829   9.865  69.282  1.00  0.00    -0.178 C  
HETATM    2  C   UNL     1     -10.286   9.731  69.730  1.00  0.00    -0.271 C  
HETATM    3  C   UNL     1     -10.920   8.489  68.976  1.00  0.00     0.082 C  
HETATM    4  C   UNL     1     -10.429   7.092  69.507  1.00  0.00    -0.235 C  
HETATM    5  C   UNL     1     -10.255   6.902  71.059  1.00  0.00    -0.213 C  
HETATM    6  C   UNL     1      -9.795   8.229  71.653  1.00  0.00    -0.263 C  
HETATM    7  C   UNL     1      -9.441   8.216  73.135  1.00  0.00    -0.316 C  
HETATM    8  C   UNL     1     -10.600   9.444  71.221  1.00  0.00    -0.400 C  
HETATM    9  C   UNL     1      -8.262   7.272  73.323  1.00  0.00    -0.136 C  
HETATM   10  C   UNL     1     -12.169   9.674  71.222  1.00  0.00    -0.452 C  
HETATM   11  C   UNL     1      -8.628   5.881  72.882  1.00  0.00    -0.121 C  
HETATM   12  C   UNL     1     -12.405  10.763  70.096  1.00  0.00    -0.401 C  
HETATM   13  C   UNL     1      -8.217   4.860  73.659  1.00  0.00    -0.106 C  
HETATM   14  C   UNL     1     -10.973  11.131  69.767  1.00  0.00    -0.150 C  
HETATM   15  C   UNL     1      -8.057   5.590  70.524  1.00  0.00    -0.104 C  
HETATM   16  C   UNL     1      -8.533   3.484  73.240  1.00  0.00    -0.082 C  
HETATM   17  O   UNL     1      -7.822   2.554  73.598  1.00  0.00    -0.052 OA 
HETATM   18  C   UNL     1      -9.274   5.694  71.489  1.00  0.00    -0.158 C  
HETATM   19  C   UNL     1      -9.823   3.308  72.511  1.00  0.00    -0.217 C  
HETATM   20  C   UNL     1     -10.052   4.338  71.394  1.00  0.00    -0.187 C  
ENDROOT
BRANCH  14  21
HETATM   21  O   UNL     1     -10.647  12.122  68.803  1.00  0.00    -0.229 OA 
BRANCH  21  22
HETATM   22  C   UNL     1     -10.987  11.684  67.533  1.00  0.00    -0.259 C  
HETATM   23  O   UNL     1     -12.142  11.488  67.159  1.00  0.00    -0.494 OA 
BRANCH  22  24
HETATM   24  C   UNL     1      -9.848  11.702  66.537  1.00  0.00    -0.228 C  
BRANCH  24  25
HETATM   25  C   UNL     1     -10.287  11.336  65.136  1.00  0.00    -0.353 C  
BRANCH  25  26
HETATM   26  C   UNL     1      -9.778   9.973  64.664  1.00  0.00    -0.339 C  
HETATM   27  C   UNL     1      -8.363  10.106  64.106  1.00  0.00    -0.168 C  
HETATM   28  C   UNL     1      -7.843   8.683  64.125  1.00  0.00    -0.141 C  
HETATM   29  C   UNL     1      -8.383   8.106  65.428  1.00  0.00    -0.163 C  
HETATM   30  C   UNL     1      -9.643   8.908  65.762  1.00  0.00    -0.245 C  
ENDBRANCH  25  26
ENDBRANCH  24  25
ENDBRANCH  22  24
ENDBRANCH  21  22
ENDBRANCH  14  21
TORSDOF 5
ENDMDL
MODEL       94
REMARK 921   NORMALIZED FREE ENERGY PREDICTED BY IDOCK:   -4.52 KCAL/MOL
REMARK 922        TOTAL FREE ENERGY PREDICTED BY IDOCK:   -7.18 KCAL/MOL
REMARK 923 INTER-LIGAND FREE ENERGY PREDICTED BY IDOCK:   -6.68 KCAL/MOL
REMARK 924 INTRA-LIGAND FREE ENERGY PREDICTED BY IDOCK:   -0.50 KCAL/MOL
REMARK 927      BINDING AFFINITY PREDICTED BY RF-SCORE:    0.00 PKD
ROOT
HETATM    1  C   UNL     1      -8.925   8.630  71.347  1.00  0.00    -0.286 C  
HETATM    2  C   UNL     1     -10.405   8.277  71.196  1.00  0.00    -0.247 C  
HETATM    3  C   UNL     1     -11.250   9.604  71.389  1.00  0.00    -0.426 C  
HETATM    4  C   UNL     1     -11.169  10.603  70.177  1.00  0.00    -0.378 C  
HETATM    5  C   UNL     1     -11.194  10.012  68.719  1.00  0.00    -0.173 C  
HETATM    6  C   UNL     1     -10.482   8.665  68.738  1.00  0.00    -0.209 C  
HETATM    7  C   UNL     1     -10.283   7.989  67.386  1.00  0.00    -0.330 C  
HETATM    8  C   UNL     1     -10.919   7.718  69.844  1.00  0.00    -0.194 C  
HETATM    9  C   UNL     1      -9.394   8.891  66.542  1.00  0.00    -0.252 C  
HETATM   10  C   UNL     1     -12.377   7.262  70.269  1.00  0.00     0.178 C  
HETATM   11  C   UNL     1     -10.047  10.232  66.343  1.00  0.00    -0.296 C  
HETATM   12  C   UNL     1     -12.232   6.864  71.796  1.00  0.00    -0.396 C  
HETATM   13  C   UNL     1      -9.973  10.776  65.112  1.00  0.00    -0.351 C  
HETATM   14  C   UNL     1     -10.729   6.956  71.961  1.00  0.00    -0.216 C  
HETATM   15  C   UNL     1      -9.344  11.759  68.116  1.00  0.00    -0.190 C  
HETATM   16  C   UNL     1     -10.576  12.101  64.890  1.00  0.00    -0.293 C  
HETATM   17  O   UNL     1     -10.152  12.828  64.001  1.00  0.00    -0.365 OA 
HETATM   18  C   UNL     1     -10.584  10.984  67.583  1.00  0.00    -0.255 C  
HETATM   19  C   UNL     1     -11.795  12.403  65.696  1.00  0.00    -0.468 C  
HETATM   20  C   UNL     1     -11.659  12.053  67.186  1.00  0.00    -0.387 C  
ENDROOT
BRANCH  14  21
HETATM   21  O   UNL     1     -10.080   6.654  73.188  1.00  0.00    -0.171 OA 
BRANCH  21  22
HETATM   22  C   UNL     1     -10.174   5.298  73.457  1.00  0.00    -0.202 C  
HETATM   23  O   UNL     1     -11.218   4.729  73.769  1.00  0.00    -0.298 OA 
BRANCH  22  24
HETATM   24  C   UNL     1      -8.941   4.500  73.091  1.00  0.00    -0.119 C  
BRANCH  24  25
HETATM   25  C   UNL     1      -7.684   5.032  73.744  1.00  0.00    -0.099 C  
BRANCH  25  26
HETATM   26  C   UNL     1      -7.114   6.279  73.066  1.00  0.00    -0.079 C  
HETATM   27  C   UNL     1      -5.867   6.756  73.805  1.00  0.00    -0.058 C  
HETATM   28  C   UNL     1      -5.182   7.654  72.796  1.00  0.00    -0.037 C  
HETATM   29  C   UNL     1      -5.375   6.936  71.467  1.00  0.00    -0.028 C  
HETATM   30  C   UNL     1      -6.633   6.077  71.622  1.00  0.00    -0.054 C  
ENDBRANCH  25  26
ENDBRANCH  24  25
ENDBRANCH  22  24
ENDBRANCH  21  22
ENDBRANCH  14  21
TORSDOF 5
ENDMDL
MODEL       95
REMARK 921   NORMALIZED FREE ENERGY PREDICTED BY IDOCK:   -4.50 KCAL/MOL
REMARK 922        TOTAL FREE ENERGY PREDICTED BY IDOCK:   -7.15 KCAL/MOL
REMARK 923 INTER-LIGAND FREE ENERGY PREDICTED BY IDOCK:   -6.53 KCAL/MOL
REMARK 924 INTRA-LIGAND FREE ENERGY PREDICTED BY IDOCK:   -0.63 KCAL/MOL
REMARK 927      BINDING AFFINITY PREDICTED BY RF-SCORE:    0.00 PKD
ROOT
HETATM    1  C   UNL     1     -11.240  11.465  68.693  1.00  0.00    -0.303 C  
HETATM    2  C   UNL     1     -10.697  11.431  67.263  1.00  0.00    -0.283 C  
HETATM    3  C   UNL     1     -11.698  12.237  66.336  1.00  0.00    -0.431 C  
HETATM    4  C   UNL     1     -11.639  13.797  66.524  1.00  0.00    -0.386 C  
HETATM    5  C   UNL     1     -10.231  14.473  66.718  1.00  0.00    -0.266 C  
HETATM    6  C   UNL     1      -9.339  13.505  67.487  1.00  0.00    -0.220 C  
HETATM    7  C   UNL     1      -7.967  14.031  67.893  1.00  0.00    -0.158 C  
HETATM    8  C   UNL     1      -9.323  12.080  66.957  1.00  0.00    -0.191 C  
HETATM    9  C   UNL     1      -8.180  15.205  68.838  1.00  0.00    -0.181 C  
HETATM   10  C   UNL     1      -9.089  11.551  65.481  1.00  0.00    -0.101 C  
HETATM   11  C   UNL     1      -8.955  16.297  68.151  1.00  0.00    -0.187 C  
HETATM   12  C   UNL     1      -9.830  10.151  65.446  1.00  0.00    -0.375 C  
HETATM   13  C   UNL     1      -8.546  17.565  68.356  1.00  0.00    -0.275 C  
HETATM   14  C   UNL     1     -10.193   9.997  66.909  1.00  0.00    -0.238 C  
HETATM   15  C   UNL     1     -11.345  15.979  68.542  1.00  0.00    -0.382 C  
HETATM   16  C   UNL     1      -9.299  18.659  67.723  1.00  0.00    -0.292 C  
HETATM   17  O   UNL     1      -9.297  19.777  68.222  1.00  0.00    -0.345 OA 
HETATM   18  C   UNL     1     -10.267  15.926  67.421  1.00  0.00    -0.270 C  
HETATM   19  C   UNL     1      -9.907  18.347  66.397  1.00  0.00    -0.369 C  
HETATM   20  C   UNL     1     -10.657  17.006  66.356  1.00  0.00    -0.172 C  
ENDROOT
BRANCH  14  21
HETATM   21  O   UNL     1     -10.867   8.851  67.407  1.00  0.00    -0.218 OA 
BRANCH  21  22
HETATM   22  C   UNL     1     -10.080   8.205  68.349  1.00  0.00    -0.200 C  
HETATM   23  O   UNL     1     -10.527   7.601  69.321  1.00  0.00    -0.215 OA 
BRANCH  22  24
HETATM   24  C   UNL     1      -8.623   8.074  67.962  1.00  0.00    -0.129 C  
BRANCH  24  25
HETATM   25  C   UNL     1      -8.333   6.806  67.189  1.00  0.00    -0.121 C  
BRANCH  25  26
HETATM   26  C   UNL     1      -6.983   6.171  67.524  1.00  0.00    -0.069 C  
HETATM   27  C   UNL     1      -7.161   5.089  68.586  1.00  0.00    -0.062 C  
HETATM   28  C   UNL     1      -5.892   4.270  68.470  1.00  0.00    -0.025 C  
HETATM   29  C   UNL     1      -5.627   4.204  66.971  1.00  0.00    -0.021 C  
HETATM   30  C   UNL     1      -6.296   5.440  66.362  1.00  0.00    -0.039 C  
ENDBRANCH  25  26
ENDBRANCH  24  25
ENDBRANCH  22  24
ENDBRANCH  21  22
ENDBRANCH  14  21
TORSDOF 5
ENDMDL
MODEL       96
REMARK 921   NORMALIZED FREE ENERGY PREDICTED BY IDOCK:   -4.48 KCAL/MOL
REMARK 922        TOTAL FREE ENERGY PREDICTED BY IDOCK:   -7.13 KCAL/MOL
REMARK 923 INTER-LIGAND FREE ENERGY PREDICTED BY IDOCK:   -6.43 KCAL/MOL
REMARK 924 INTRA-LIGAND FREE ENERGY PREDICTED BY IDOCK:   -0.70 KCAL/MOL
REMARK 927      BINDING AFFINITY PREDICTED BY RF-SCORE:    0.00 PKD
ROOT
HETATM    1  C   UNL     1      -7.549  10.920  66.337  1.00  0.00    -0.146 C  
HETATM    2  C   UNL     1      -8.764  10.681  67.234  1.00  0.00    -0.129 C  
HETATM    3  C   UNL     1      -8.515  11.428  68.610  1.00  0.00    -0.131 C  
HETATM    4  C   UNL     1      -8.645  12.994  68.527  1.00  0.00    -0.049 C  
HETATM    5  C   UNL     1      -9.799  13.602  67.647  1.00  0.00    -0.228 C  
HETATM    6  C   UNL     1     -10.022  12.682  66.452  1.00  0.00    -0.262 C  
HETATM    7  C   UNL     1     -11.014  13.169  65.403  1.00  0.00    -0.298 C  
HETATM    8  C   UNL     1     -10.153  11.205  66.788  1.00  0.00    -0.255 C  
HETATM    9  C   UNL     1     -10.467  14.459  64.809  1.00  0.00    -0.394 C  
HETATM   10  C   UNL     1     -11.076  10.488  67.860  1.00  0.00    -0.367 C  
HETATM   11  C   UNL     1     -10.313  15.505  65.880  1.00  0.00    -0.365 C  
HETATM   12  C   UNL     1     -10.312   9.142  68.195  1.00  0.00    -0.263 C  
HETATM   13  C   UNL     1     -10.692  16.761  65.573  1.00  0.00    -0.206 C  
HETATM   14  C   UNL     1      -9.208   9.188  67.158  1.00  0.00    -0.133 C  
HETATM   15  C   UNL     1      -8.066  15.382  66.831  1.00  0.00    -0.259 C  
HETATM   16  C   UNL     1     -10.527  17.815  66.587  1.00  0.00    -0.300 C  
HETATM   17  O   UNL     1     -10.392  18.983  66.245  1.00  0.00    -0.405 OA 
HETATM   18  C   UNL     1      -9.561  15.128  67.178  1.00  0.00    -0.224 C  
HETATM   19  C   UNL     1     -10.691  17.382  68.006  1.00  0.00    -0.359 C  
HETATM   20  C   UNL     1      -9.930  16.094  68.355  1.00  0.00    -0.230 C  
ENDROOT
BRANCH  14  21
HETATM   21  O   UNL     1      -8.245   8.152  67.029  1.00  0.00    -0.113 OA 
BRANCH  21  22
HETATM   22  C   UNL     1      -8.651   7.239  66.068  1.00  0.00    -0.151 C  
HETATM   23  O   UNL     1      -8.347   7.311  64.880  1.00  0.00    -0.111 OA 
BRANCH  22  24
HETATM   24  C   UNL     1      -9.294   5.988  66.626  1.00  0.00    -0.156 C  
BRANCH  24  25
HETATM   25  C   UNL     1      -8.299   4.873  66.864  1.00  0.00    -0.106 C  
BRANCH  25  26
HETATM   26  C   UNL     1      -8.188   4.446  68.328  1.00  0.00    -0.089 C  
HETATM   27  C   UNL     1      -8.583   5.602  69.244  1.00  0.00    -0.106 C  
HETATM   28  C   UNL     1      -8.871   4.920  70.566  1.00  0.00    -0.146 C  
HETATM   29  C   UNL     1      -9.583   3.632  70.173  1.00  0.00    -0.242 C  
HETATM   30  C   UNL     1      -9.123   3.304  68.750  1.00  0.00    -0.206 C  
ENDBRANCH  25  26
ENDBRANCH  24  25
ENDBRANCH  22  24
ENDBRANCH  21  22
ENDBRANCH  14  21
TORSDOF 5
ENDMDL
MODEL       97
REMARK 921   NORMALIZED FREE ENERGY PREDICTED BY IDOCK:   -4.43 KCAL/MOL
REMARK 922        TOTAL FREE ENERGY PREDICTED BY IDOCK:   -7.07 KCAL/MOL
REMARK 923 INTER-LIGAND FREE ENERGY PREDICTED BY IDOCK:   -5.93 KCAL/MOL
REMARK 924 INTRA-LIGAND FREE ENERGY PREDICTED BY IDOCK:   -1.14 KCAL/MOL
REMARK 927      BINDING AFFINITY PREDICTED BY RF-SCORE:    0.00 PKD
ROOT
HETATM    1  C   UNL     1      -8.702  10.850  66.016  1.00  0.00    -0.192 C  
HETATM    2  C   UNL     1      -9.564  10.680  67.268  1.00  0.00    -0.186 C  
HETATM    3  C   UNL     1      -8.766  11.277  68.500  1.00  0.00    -0.156 C  
HETATM    4  C   UNL     1      -8.701  12.849  68.527  1.00  0.00    -0.038 C  
HETATM    5  C   UNL     1      -9.990  13.657  68.122  1.00  0.00    -0.246 C  
HETATM    6  C   UNL     1     -10.726  12.870  67.044  1.00  0.00    -0.273 C  
HETATM    7  C   UNL     1     -11.937  13.554  66.421  1.00  0.00    -0.459 C  
HETATM    8  C   UNL     1     -10.937  11.396  67.349  1.00  0.00    -0.326 C  
HETATM    9  C   UNL     1     -11.451  14.816  65.724  1.00  0.00    -0.322 C  
HETATM   10  C   UNL     1     -11.534  10.705  68.645  1.00  0.00    -0.332 C  
HETATM   11  C   UNL     1     -10.803  15.746  66.714  1.00  0.00    -0.254 C  
HETATM   12  C   UNL     1     -10.894   9.256  68.646  1.00  0.00    -0.120 C  
HETATM   13  C   UNL     1     -11.088  17.058  66.605  1.00  0.00     0.337 C  
HETATM   14  C   UNL     1     -10.209   9.260  67.294  1.00  0.00    -0.252 C  
HETATM   15  C   UNL     1      -8.406  15.285  66.826  1.00  0.00    -0.258 C  
HETATM   16  C   UNL     1     -10.448  17.999  67.539  1.00  0.00    -0.396 C  
HETATM   17  O   UNL     1     -10.277  19.167  67.216  1.00  0.00    -0.348 OA 
HETATM   18  C   UNL     1      -9.717  15.179  67.658  1.00  0.00    -0.211 C  
HETATM   19  C   UNL     1     -10.182  17.472  68.909  1.00  0.00    -0.353 C  
HETATM   20  C   UNL     1      -9.531  16.080  68.926  1.00  0.00    -0.235 C  
ENDROOT
BRANCH  14  21
HETATM   21  O   UNL     1      -9.497   8.133  66.801  1.00  0.00    -0.170 OA 
BRANCH  21  22
HETATM   22  C   UNL     1     -10.128   6.962  67.189  1.00  0.00    -0.209 C  
HETATM   23  O   UNL     1     -11.261   6.641  66.835  1.00  0.00    -0.391 OA 
BRANCH  22  24
HETATM   24  C   UNL     1      -9.227   5.965  67.884  1.00  0.00    -0.108 C  
BRANCH  24  25
HETATM   25  C   UNL     1      -9.109   6.218  69.372  1.00  0.00    -0.139 C  
BRANCH  25  26
HETATM   26  C   UNL     1      -7.711   6.651  69.817  1.00  0.00    -0.113 C  
HETATM   27  C   UNL     1      -6.681   6.265  68.759  1.00  0.00    -0.061 C  
HETATM   28  C   UNL     1      -5.487   7.135  69.097  1.00  0.00    -0.015 C  
HETATM   29  C   UNL     1      -6.101   8.472  69.493  1.00  0.00    -0.036 C  
HETATM   30  C   UNL     1      -7.517   8.164  69.987  1.00  0.00    -0.065 C  
ENDBRANCH  25  26
ENDBRANCH  24  25
ENDBRANCH  22  24
ENDBRANCH  21  22
ENDBRANCH  14  21
TORSDOF 5
ENDMDL
MODEL       98
REMARK 921   NORMALIZED FREE ENERGY PREDICTED BY IDOCK:   -4.42 KCAL/MOL
REMARK 922        TOTAL FREE ENERGY PREDICTED BY IDOCK:   -7.05 KCAL/MOL
REMARK 923 INTER-LIGAND FREE ENERGY PREDICTED BY IDOCK:   -6.12 KCAL/MOL
REMARK 924 INTRA-LIGAND FREE ENERGY PREDICTED BY IDOCK:   -0.93 KCAL/MOL
REMARK 927      BINDING AFFINITY PREDICTED BY RF-SCORE:    0.00 PKD
ROOT
HETATM    1  C   UNL     1     -10.464  10.821  69.032  1.00  0.00    -0.239 C  
HETATM    2  C   UNL     1     -10.167  10.913  67.534  1.00  0.00    -0.224 C  
HETATM    3  C   UNL     1      -8.597  11.021  67.349  1.00  0.00    -0.132 C  
HETATM    4  C   UNL     1      -7.821   9.679  67.613  1.00  0.00    -0.095 C  
HETATM    5  C   UNL     1      -8.455   8.335  67.093  1.00  0.00    -0.123 C  
HETATM    6  C   UNL     1      -9.972   8.456  67.188  1.00  0.00    -0.304 C  
HETATM    7  C   UNL     1     -10.769   7.201  66.853  1.00  0.00    -0.363 C  
HETATM    8  C   UNL     1     -10.557   9.733  66.607  1.00  0.00    -0.178 C  
HETATM    9  C   UNL     1     -10.396   6.129  67.867  1.00  0.00    -0.250 C  
HETATM   10  C   UNL     1     -10.318  10.404  65.190  1.00  0.00    -0.260 C  
HETATM   11  C   UNL     1      -8.924   5.825  67.790  1.00  0.00    -0.107 C  
HETATM   12  C   UNL     1     -10.622  11.940  65.429  1.00  0.00    -0.315 C  
HETATM   13  C   UNL     1      -8.558   4.530  67.859  1.00  0.00    -0.108 C  
HETATM   14  C   UNL     1     -11.163  11.895  66.844  1.00  0.00    -0.325 C  
HETATM   15  C   UNL     1      -7.708   7.255  69.354  1.00  0.00    -0.107 C  
HETATM   16  C   UNL     1      -7.124   4.199  67.817  1.00  0.00    -0.060 C  
HETATM   17  O   UNL     1      -6.715   3.168  68.335  1.00  0.00    -0.043 OA 
HETATM   18  C   UNL     1      -7.923   7.003  67.833  1.00  0.00    -0.115 C  
HETATM   19  C   UNL     1      -6.274   5.104  66.990  1.00  0.00    -0.032 C  
HETATM   20  C   UNL     1      -6.534   6.598  67.233  1.00  0.00    -0.045 C  
ENDROOT
BRANCH  14  21
HETATM   21  O   UNL     1     -11.617  13.059  67.520  1.00  0.00    -0.313 OA 
BRANCH  21  22
HETATM   22  C   UNL     1     -11.864  14.075  66.609  1.00  0.00    -0.419 C  
HETATM   23  O   UNL     1     -12.785  14.060  65.796  1.00  0.00    -0.516 OA 
BRANCH  22  24
HETATM   24  C   UNL     1     -11.068  15.339  66.850  1.00  0.00    -0.288 C  
BRANCH  24  25
HETATM   25  C   UNL     1      -9.614  15.200  66.454  1.00  0.00    -0.309 C  
BRANCH  25  26
HETATM   26  C   UNL     1      -8.717  14.659  67.568  1.00  0.00    -0.194 C  
HETATM   27  C   UNL     1      -7.250  14.915  67.233  1.00  0.00    -0.142 C  
HETATM   28  C   UNL     1      -6.553  14.768  68.570  1.00  0.00    -0.094 C  
HETATM   29  C   UNL     1      -7.508  15.421  69.561  1.00  0.00    -0.211 C  
HETATM   30  C   UNL     1      -8.904  15.325  68.939  1.00  0.00    -0.209 C  
ENDBRANCH  25  26
ENDBRANCH  24  25
ENDBRANCH  22  24
ENDBRANCH  21  22
ENDBRANCH  14  21
TORSDOF 5
ENDMDL
MODEL       99
REMARK 921   NORMALIZED FREE ENERGY PREDICTED BY IDOCK:   -4.40 KCAL/MOL
REMARK 922        TOTAL FREE ENERGY PREDICTED BY IDOCK:   -7.03 KCAL/MOL
REMARK 923 INTER-LIGAND FREE ENERGY PREDICTED BY IDOCK:   -6.31 KCAL/MOL
REMARK 924 INTRA-LIGAND FREE ENERGY PREDICTED BY IDOCK:   -0.72 KCAL/MOL
REMARK 927      BINDING AFFINITY PREDICTED BY RF-SCORE:    0.00 PKD
ROOT
HETATM    1  C   UNL     1     -10.519  10.594  65.791  1.00  0.00    -0.235 C  
HETATM    2  C   UNL     1     -10.043  10.340  67.222  1.00  0.00    -0.249 C  
HETATM    3  C   UNL     1      -8.529  10.798  67.327  1.00  0.00    -0.124 C  
HETATM    4  C   UNL     1      -8.325  12.358  67.333  1.00  0.00    -0.180 C  
HETATM    5  C   UNL     1      -9.338  13.240  68.152  1.00  0.00    -0.220 C  
HETATM    6  C   UNL     1     -10.710  12.579  68.084  1.00  0.00    -0.246 C  
HETATM    7  C   UNL     1     -11.863  13.355  68.708  1.00  0.00    -0.386 C  
HETATM    8  C   UNL     1     -10.726  11.091  68.395  1.00  0.00    -0.240 C  
HETATM    9  C   UNL     1     -12.017  14.659  67.938  1.00  0.00    -0.299 C  
HETATM   10  C   UNL     1     -10.106  10.306  69.625  1.00  0.00    -0.257 C  
HETATM   11  C   UNL     1     -10.755  15.473  68.029  1.00  0.00    -0.283 C  
HETATM   12  C   UNL     1      -9.860   8.842  69.070  1.00  0.00    -0.182 C  
HETATM   13  C   UNL     1     -10.891  16.799  68.229  1.00  0.00    -0.366 C  
HETATM   14  C   UNL     1     -10.535   8.945  67.717  1.00  0.00    -0.239 C  
HETATM   15  C   UNL     1      -9.287  14.926  66.154  1.00  0.00    -0.307 C  
HETATM   16  C   UNL     1      -9.677  17.630  68.294  1.00  0.00    -0.315 C  
HETATM   17  O   UNL     1      -9.727  18.817  67.997  1.00  0.00    -0.299 OA 
HETATM   18  C   UNL     1      -9.408  14.788  67.699  1.00  0.00    -0.195 C  
HETATM   19  C   UNL     1      -8.471  16.973  68.878  1.00  0.00    -0.193 C  
HETATM   20  C   UNL     1      -8.200  15.565  68.326  1.00  0.00    -0.142 C  
ENDROOT
BRANCH  14  21
HETATM   21  O   UNL     1     -10.611   7.846  66.821  1.00  0.00    -0.326 OA 
BRANCH  21  22
HETATM   22  C   UNL     1      -9.656   6.895  67.150  1.00  0.00    -0.147 C  
HETATM   23  O   UNL     1      -9.885   5.897  67.828  1.00  0.00    -0.114 OA 
BRANCH  22  24
HETATM   24  C   UNL     1      -8.350   7.035  66.398  1.00  0.00    -0.125 C  
BRANCH  24  25
HETATM   25  C   UNL     1      -7.449   5.829  66.560  1.00  0.00    -0.083 C  
BRANCH  25  26
HETATM   26  C   UNL     1      -7.543   4.827  65.409  1.00  0.00    -0.081 C  
HETATM   27  C   UNL     1      -8.309   3.585  65.856  1.00  0.00    -0.106 C  
HETATM   28  C   UNL     1      -8.716   2.933  64.550  1.00  0.00    -0.102 C  
HETATM   29  C   UNL     1      -9.094   4.105  63.652  1.00  0.00    -0.136 C  
HETATM   30  C   UNL     1      -8.319   5.316  64.178  1.00  0.00    -0.131 C  
ENDBRANCH  25  26
ENDBRANCH  24  25
ENDBRANCH  22  24
ENDBRANCH  21  22
ENDBRANCH  14  21
TORSDOF 5
ENDMDL
MODEL      100
REMARK 921   NORMALIZED FREE ENERGY PREDICTED BY IDOCK:   -4.39 KCAL/MOL
REMARK 922        TOTAL FREE ENERGY PREDICTED BY IDOCK:   -7.02 KCAL/MOL
REMARK 923 INTER-LIGAND FREE ENERGY PREDICTED BY IDOCK:   -5.75 KCAL/MOL
REMARK 924 INTRA-LIGAND FREE ENERGY PREDICTED BY IDOCK:   -1.26 KCAL/MOL
REMARK 927      BINDING AFFINITY PREDICTED BY RF-SCORE:    0.00 PKD
ROOT
HETATM    1  C   UNL     1      -9.312   7.970  67.387  1.00  0.00    -0.173 C  
HETATM    2  C   UNL     1      -8.309   8.953  67.993  1.00  0.00    -0.121 C  
HETATM    3  C   UNL     1      -7.446   9.565  66.814  1.00  0.00    -0.094 C  
HETATM    4  C   UNL     1      -8.216  10.607  65.922  1.00  0.00    -0.159 C  
HETATM    5  C   UNL     1      -9.181  11.628  66.632  1.00  0.00    -0.196 C  
HETATM    6  C   UNL     1      -9.809  10.934  67.835  1.00  0.00    -0.189 C  
HETATM    7  C   UNL     1     -10.881  11.718  68.581  1.00  0.00    -0.259 C  
HETATM    8  C   UNL     1      -8.831  10.205  68.744  1.00  0.00    -0.146 C  
HETATM    9  C   UNL     1     -12.036  11.958  67.620  1.00  0.00    -0.127 C  
HETATM   10  C   UNL     1      -7.481  10.718  69.398  1.00  0.00    -0.124 C  
HETATM   11  C   UNL     1     -11.570  12.750  66.429  1.00  0.00    -0.435 C  
HETATM   12  C   UNL     1      -6.635   9.399  69.634  1.00  0.00    -0.044 C  
HETATM   13  C   UNL     1     -12.380  13.733  65.988  1.00  0.00    -0.499 C  
HETATM   14  C   UNL     1      -7.666   8.346  69.279  1.00  0.00    -0.098 C  
HETATM   15  C   UNL     1     -10.850  11.228  64.659  1.00  0.00    -0.335 C  
HETATM   16  C   UNL     1     -11.969  14.508  64.806  1.00  0.00    -0.442 C  
HETATM   17  O   UNL     1     -12.812  15.043  64.097  1.00  0.00    -0.644 OA 
HETATM   18  C   UNL     1     -10.307  12.276  65.673  1.00  0.00    -0.287 C  
HETATM   19  C   UNL     1     -10.500  14.713  64.644  1.00  0.00    -0.207 C  
HETATM   20  C   UNL     1      -9.668  13.436  64.837  1.00  0.00     0.107 C  
ENDROOT
BRANCH  14  21
HETATM   21  O   UNL     1      -7.390   6.956  69.362  1.00  0.00    -0.086 OA 
BRANCH  21  22
HETATM   22  C   UNL     1      -8.176   6.370  70.341  1.00  0.00    -0.121 C  
HETATM   23  O   UNL     1      -8.511   6.931  71.382  1.00  0.00    -0.118 OA 
BRANCH  22  24
HETATM   24  C   UNL     1      -8.818   5.063  69.930  1.00  0.00    -0.130 C  
BRANCH  24  25
HETATM   25  C   UNL     1      -7.880   4.169  69.147  1.00  0.00    -0.057 C  
BRANCH  25  26
HETATM   26  C   UNL     1      -8.329   3.909  67.709  1.00  0.00    -0.098 C  
HETATM   27  C   UNL     1      -9.741   4.448  67.494  1.00  0.00    -0.211 C  
HETATM   28  C   UNL     1      -9.854   4.545  65.986  1.00  0.00    -0.240 C  
HETATM   29  C   UNL     1      -8.486   5.046  65.541  1.00  0.00    -0.134 C  
HETATM   30  C   UNL     1      -7.497   4.612  66.626  1.00  0.00    -0.086 C  
ENDBRANCH  25  26
ENDBRANCH  24  25
ENDBRANCH  22  24
ENDBRANCH  21  22
ENDBRANCH  14  21
TORSDOF 5
ENDMDL
MODEL      101
REMARK 921   NORMALIZED FREE ENERGY PREDICTED BY IDOCK:   -4.39 KCAL/MOL
REMARK 922        TOTAL FREE ENERGY PREDICTED BY IDOCK:   -7.01 KCAL/MOL
REMARK 923 INTER-LIGAND FREE ENERGY PREDICTED BY IDOCK:   -6.73 KCAL/MOL
REMARK 924 INTRA-LIGAND FREE ENERGY PREDICTED BY IDOCK:   -0.27 KCAL/MOL
REMARK 927      BINDING AFFINITY PREDICTED BY RF-SCORE:    0.00 PKD
ROOT
HETATM    1  C   UNL     1      -8.959  10.432  69.519  1.00  0.00    -0.127 C  
HETATM    2  C   UNL     1     -10.426  10.056  69.735  1.00  0.00    -0.291 C  
HETATM    3  C   UNL     1     -10.808   8.939  68.677  1.00  0.00    -0.036 C  
HETATM    4  C   UNL     1     -10.201   7.521  68.986  1.00  0.00    -0.208 C  
HETATM    5  C   UNL     1     -10.174   7.031  70.482  1.00  0.00    -0.209 C  
HETATM    6  C   UNL     1      -9.957   8.245  71.378  1.00  0.00    -0.250 C  
HETATM    7  C   UNL     1      -9.767   7.960  72.862  1.00  0.00    -0.339 C  
HETATM    8  C   UNL     1     -10.860   9.433  71.087  1.00  0.00    -0.427 C  
HETATM    9  C   UNL     1      -8.503   7.126  73.018  1.00  0.00    -0.142 C  
HETATM   10  C   UNL     1     -12.436   9.492  70.925  1.00  0.00    -0.277 C  
HETATM   11  C   UNL     1      -8.637   5.828  72.270  1.00  0.00    -0.125 C  
HETATM   12  C   UNL     1     -12.688  10.761  70.011  1.00  0.00    -0.176 C  
HETATM   13  C   UNL     1      -8.183   4.715  72.881  1.00  0.00    -0.100 C  
HETATM   14  C   UNL     1     -11.288  11.337  69.952  1.00  0.00    -0.249 C  
HETATM   15  C   UNL     1      -7.780   6.097  69.998  1.00  0.00    -0.097 C  
HETATM   16  C   UNL     1      -8.272   3.432  72.165  1.00  0.00    -0.071 C  
HETATM   17  O   UNL     1      -7.490   2.527  72.426  1.00  0.00    -0.047 OA 
HETATM   18  C   UNL     1      -9.097   5.869  70.794  1.00  0.00    -0.163 C  
HETATM   19  C   UNL     1      -9.441   3.278  71.251  1.00  0.00    -0.222 C  
HETATM   20  C   UNL     1      -9.679   4.489  70.335  1.00  0.00    -0.287 C  
ENDROOT
BRANCH  14  21
HETATM   21  O   UNL     1     -10.990  12.537  69.251  1.00  0.00    -0.189 OA 
BRANCH  21  22
HETATM   22  C   UNL     1     -11.140  12.342  67.887  1.00  0.00    -0.239 C  
HETATM   23  O   UNL     1     -12.145  11.862  67.367  1.00  0.00    -0.577 OA 
BRANCH  22  24
HETATM   24  C   UNL     1     -10.074  13.001  67.039  1.00  0.00    -0.243 C  
BRANCH  24  25
HETATM   25  C   UNL     1      -9.147  13.886  67.845  1.00  0.00    -0.194 C  
BRANCH  25  26
HETATM   26  C   UNL     1      -9.094  15.334  67.358  1.00  0.00    -0.201 C  
HETATM   27  C   UNL     1     -10.036  15.523  66.171  1.00  0.00    -0.332 C  
HETATM   28  C   UNL     1     -10.228  17.024  66.109  1.00  0.00    -0.346 C  
HETATM   29  C   UNL     1     -10.320  17.448  67.570  1.00  0.00    -0.351 C  
HETATM   30  C   UNL     1      -9.566  16.384  68.373  1.00  0.00    -0.219 C  
ENDBRANCH  25  26
ENDBRANCH  24  25
ENDBRANCH  22  24
ENDBRANCH  21  22
ENDBRANCH  14  21
TORSDOF 5
ENDMDL
MODEL      102
REMARK 921   NORMALIZED FREE ENERGY PREDICTED BY IDOCK:   -4.37 KCAL/MOL
REMARK 922        TOTAL FREE ENERGY PREDICTED BY IDOCK:   -6.98 KCAL/MOL
REMARK 923 INTER-LIGAND FREE ENERGY PREDICTED BY IDOCK:   -5.66 KCAL/MOL
REMARK 924 INTRA-LIGAND FREE ENERGY PREDICTED BY IDOCK:   -1.32 KCAL/MOL
REMARK 927      BINDING AFFINITY PREDICTED BY RF-SCORE:    0.00 PKD
ROOT
HETATM    1  C   UNL     1      -8.825  11.206  66.199  1.00  0.00    -0.195 C  
HETATM    2  C   UNL     1      -8.211  11.225  67.600  1.00  0.00    -0.120 C  
HETATM    3  C   UNL     1      -9.364  10.929  68.647  1.00  0.00    -0.188 C  
HETATM    4  C   UNL     1      -9.846   9.432  68.671  1.00  0.00    -0.174 C  
HETATM    5  C   UNL     1      -8.763   8.297  68.545  1.00  0.00    -0.133 C  
HETATM    6  C   UNL     1      -7.649   8.800  67.635  1.00  0.00    -0.097 C  
HETATM    7  C   UNL     1      -6.563   7.791  67.279  1.00  0.00    -0.063 C  
HETATM    8  C   UNL     1      -7.120  10.186  67.966  1.00  0.00    -0.084 C  
HETATM    9  C   UNL     1      -7.219   6.656  66.506  1.00  0.00    -0.073 C  
HETATM   10  C   UNL     1      -6.628  10.779  69.353  1.00  0.00    -0.085 C  
HETATM   11  C   UNL     1      -8.270   5.987  67.350  1.00  0.00    -0.106 C  
HETATM   12  C   UNL     1      -6.850  12.341  69.211  1.00  0.00    -0.039 C  
HETATM   13  C   UNL     1      -8.326   4.641  67.311  1.00  0.00    -0.105 C  
HETATM   14  C   UNL     1      -7.233  12.431  67.747  1.00  0.00    -0.119 C  
HETATM   15  C   UNL     1     -10.434   7.054  66.964  1.00  0.00    -0.386 C  
HETATM   16  C   UNL     1      -9.362   3.955  68.100  1.00  0.00    -0.169 C  
HETATM   17  O   UNL     1      -9.768   2.852  67.758  1.00  0.00    -0.116 OA 
HETATM   18  C   UNL     1      -9.331   6.870  68.047  1.00  0.00    -0.123 C  
HETATM   19  C   UNL     1      -9.743   4.616  69.383  1.00  0.00    -0.272 C  
HETATM   20  C   UNL     1      -9.993   6.126  69.256  1.00  0.00    -0.196 C  
ENDROOT
BRANCH  14  21
HETATM   21  O   UNL     1      -7.511  13.670  67.111  1.00  0.00    -0.094 OA 
BRANCH  21  22
HETATM   22  C   UNL     1      -8.114  14.541  68.005  1.00  0.00    -0.139 C  
HETATM   23  O   UNL     1      -7.508  15.395  68.648  1.00  0.00    -0.119 OA 
BRANCH  22  24
HETATM   24  C   UNL     1      -9.627  14.544  67.953  1.00  0.00    -0.217 C  
BRANCH  24  25
HETATM   25  C   UNL     1     -10.171  15.280  66.747  1.00  0.00    -0.273 C  
BRANCH  25  26
HETATM   26  C   UNL     1     -11.389  14.609  66.110  1.00  0.00    -0.350 C  
HETATM   27  C   UNL     1     -11.146  14.387  64.620  1.00  0.00    -0.363 C  
HETATM   28  C   UNL     1     -12.178  13.342  64.247  1.00  0.00    -0.450 C  
HETATM   29  C   UNL     1     -12.191  12.392  65.438  1.00  0.00    -0.386 C  
HETATM   30  C   UNL     1     -11.717  13.207  66.643  1.00  0.00    -0.427 C  
ENDBRANCH  25  26
ENDBRANCH  24  25
ENDBRANCH  22  24
ENDBRANCH  21  22
ENDBRANCH  14  21
TORSDOF 5
ENDMDL
MODEL      103
REMARK 921   NORMALIZED FREE ENERGY PREDICTED BY IDOCK:   -4.36 KCAL/MOL
REMARK 922        TOTAL FREE ENERGY PREDICTED BY IDOCK:   -6.97 KCAL/MOL
REMARK 923 INTER-LIGAND FREE ENERGY PREDICTED BY IDOCK:   -6.45 KCAL/MOL
REMARK 924 INTRA-LIGAND FREE ENERGY PREDICTED BY IDOCK:   -0.53 KCAL/MOL
REMARK 927      BINDING AFFINITY PREDICTED BY RF-SCORE:    0.00 PKD
ROOT
HETATM    1  C   UNL     1      -7.125   9.837  67.934  1.00  0.00    -0.083 C  
HETATM    2  C   UNL     1      -8.403   9.035  68.187  1.00  0.00    -0.121 C  
HETATM    3  C   UNL     1      -9.315   9.863  69.183  1.00  0.00    -0.197 C  
HETATM    4  C   UNL     1     -10.005  11.120  68.535  1.00  0.00    -0.204 C  
HETATM    5  C   UNL     1     -10.575  10.988  67.074  1.00  0.00    -0.303 C  
HETATM    6  C   UNL     1      -9.676  10.035  66.295  1.00  0.00    -0.272 C  
HETATM    7  C   UNL     1      -9.986   9.877  64.812  1.00  0.00    -0.132 C  
HETATM    8  C   UNL     1      -9.354   8.727  67.001  1.00  0.00    -0.200 C  
HETATM    9  C   UNL     1      -9.789  11.233  64.149  1.00  0.00    -0.323 C  
HETATM   10  C   UNL     1     -10.326   7.682  67.691  1.00  0.00    -0.303 C  
HETATM   11  C   UNL     1     -10.718  12.251  64.752  1.00  0.00    -0.338 C  
HETATM   12  C   UNL     1      -9.419   6.957  68.769  1.00  0.00    -0.135 C  
HETATM   13  C   UNL     1     -11.330  13.104  63.906  1.00  0.00    -0.420 C  
HETATM   14  C   UNL     1      -8.062   7.530  68.414  1.00  0.00    -0.125 C  
HETATM   15  C   UNL     1      -9.608  13.374  66.617  1.00  0.00    -0.272 C  
HETATM   16  C   UNL     1     -12.223  14.132  64.466  1.00  0.00    -0.445 C  
HETATM   17  O   UNL     1     -12.413  15.178  63.859  1.00  0.00    -0.768 OA 
HETATM   18  C   UNL     1     -10.767  12.387  66.292  1.00  0.00    -0.287 C  
HETATM   19  C   UNL     1     -12.969  13.742  65.698  1.00  0.00    -0.346 C  
HETATM   20  C   UNL     1     -12.096  13.066  66.767  1.00  0.00    -0.366 C  
ENDROOT
BRANCH  14  21
HETATM   21  O   UNL     1      -6.876   7.152  69.100  1.00  0.00    -0.057 OA 
BRANCH  21  22
HETATM   22  C   UNL     1      -7.068   5.948  69.758  1.00  0.00    -0.068 C  
HETATM   23  O   UNL     1      -6.857   4.847  69.254  1.00  0.00    -0.047 OA 
BRANCH  22  24
HETATM   24  C   UNL     1      -7.318   6.080  71.245  1.00  0.00    -0.080 C  
BRANCH  24  25
HETATM   25  C   UNL     1      -6.112   5.704  72.078  1.00  0.00    -0.038 C  
BRANCH  25  26
HETATM   26  C   UNL     1      -5.839   6.661  73.239  1.00  0.00    -0.054 C  
HETATM   27  C   UNL     1      -5.454   8.038  72.704  1.00  0.00    -0.037 C  
HETATM   28  C   UNL     1      -5.672   8.951  73.893  1.00  0.00    -0.116 C  
HETATM   29  C   UNL     1      -6.945   8.421  74.540  1.00  0.00    -0.218 C  
HETATM   30  C   UNL     1      -7.041   6.943  74.151  1.00  0.00    -0.089 C  
ENDBRANCH  25  26
ENDBRANCH  24  25
ENDBRANCH  22  24
ENDBRANCH  21  22
ENDBRANCH  14  21
TORSDOF 5
ENDMDL
MODEL      104
REMARK 921   NORMALIZED FREE ENERGY PREDICTED BY IDOCK:   -4.34 KCAL/MOL
REMARK 922        TOTAL FREE ENERGY PREDICTED BY IDOCK:   -6.95 KCAL/MOL
REMARK 923 INTER-LIGAND FREE ENERGY PREDICTED BY IDOCK:   -6.56 KCAL/MOL
REMARK 924 INTRA-LIGAND FREE ENERGY PREDICTED BY IDOCK:   -0.39 KCAL/MOL
REMARK 927      BINDING AFFINITY PREDICTED BY RF-SCORE:    0.00 PKD
ROOT
HETATM    1  C   UNL     1      -8.164  11.994  68.696  1.00  0.00    -0.052 C  
HETATM    2  C   UNL     1      -9.556  11.632  68.174  1.00  0.00    -0.190 C  
HETATM    3  C   UNL     1      -9.390  10.511  67.066  1.00  0.00    -0.176 C  
HETATM    4  C   UNL     1      -9.025   9.090  67.634  1.00  0.00    -0.130 C  
HETATM    5  C   UNL     1      -9.732   8.611  68.956  1.00  0.00    -0.173 C  
HETATM    6  C   UNL     1      -9.963   9.830  69.842  1.00  0.00    -0.282 C  
HETATM    7  C   UNL     1     -10.521   9.555  71.233  1.00  0.00    -0.320 C  
HETATM    8  C   UNL     1     -10.598  11.023  69.147  1.00  0.00    -0.253 C  
HETATM    9  C   UNL     1      -9.501   8.711  71.984  1.00  0.00    -0.370 C  
HETATM   10  C   UNL     1     -11.897  11.095  68.240  1.00  0.00    -0.260 C  
HETATM   11  C   UNL     1      -9.270   7.408  71.269  1.00  0.00    -0.153 C  
HETATM   12  C   UNL     1     -11.660  12.359  67.316  1.00  0.00    -0.435 C  
HETATM   13  C   UNL     1      -9.183   6.296  72.026  1.00  0.00    -0.145 C  
HETATM   14  C   UNL     1     -10.400  12.923  67.942  1.00  0.00    -0.231 C  
HETATM   15  C   UNL     1      -7.415   7.652  69.697  1.00  0.00    -0.091 C  
HETATM   16  C   UNL     1      -8.927   5.009  71.360  1.00  0.00    -0.135 C  
HETATM   17  O   UNL     1      -8.380   4.098  71.970  1.00  0.00    -0.100 OA 
HETATM   18  C   UNL     1      -8.956   7.442  69.754  1.00  0.00    -0.141 C  
HETATM   19  C   UNL     1      -9.508   4.858  69.994  1.00  0.00    -0.234 C  
HETATM   20  C   UNL     1      -9.258   6.063  69.074  1.00  0.00    -0.125 C  
ENDROOT
BRANCH  14  21
HETATM   21  O   UNL     1      -9.786  14.114  67.471  1.00  0.00    -0.227 OA 
BRANCH  21  22
HETATM   22  C   UNL     1     -10.720  15.135  67.393  1.00  0.00    -0.286 C  
HETATM   23  O   UNL     1     -11.632  15.296  68.202  1.00  0.00    -0.337 OA 
BRANCH  22  24
HETATM   24  C   UNL     1     -10.394  16.206  66.376  1.00  0.00    -0.321 C  
BRANCH  24  25
HETATM   25  C   UNL     1      -8.935  16.209  65.974  1.00  0.00    -0.334 C  
BRANCH  25  26
HETATM   26  C   UNL     1      -8.114  17.319  66.630  1.00  0.00    -0.300 C  
HETATM   27  C   UNL     1      -7.402  16.782  67.869  1.00  0.00    -0.169 C  
HETATM   28  C   UNL     1      -6.313  17.805  68.120  1.00  0.00    -0.182 C  
HETATM   29  C   UNL     1      -5.815  18.168  66.726  1.00  0.00    -0.178 C  
HETATM   30  C   UNL     1      -6.977  17.889  65.770  1.00  0.00    -0.234 C  
ENDBRANCH  25  26
ENDBRANCH  24  25
ENDBRANCH  22  24
ENDBRANCH  21  22
ENDBRANCH  14  21
TORSDOF 5
ENDMDL
MODEL      105
REMARK 921   NORMALIZED FREE ENERGY PREDICTED BY IDOCK:   -4.32 KCAL/MOL
REMARK 922        TOTAL FREE ENERGY PREDICTED BY IDOCK:   -6.92 KCAL/MOL
REMARK 923 INTER-LIGAND FREE ENERGY PREDICTED BY IDOCK:   -6.05 KCAL/MOL
REMARK 924 INTRA-LIGAND FREE ENERGY PREDICTED BY IDOCK:   -0.87 KCAL/MOL
REMARK 927      BINDING AFFINITY PREDICTED BY RF-SCORE:    0.00 PKD
ROOT
HETATM    1  C   UNL     1     -10.785   7.506  67.220  1.00  0.00    -0.365 C  
HETATM    2  C   UNL     1      -9.475   7.722  67.979  1.00  0.00    -0.153 C  
HETATM    3  C   UNL     1      -8.595   8.755  67.160  1.00  0.00    -0.119 C  
HETATM    4  C   UNL     1      -9.105  10.241  67.236  1.00  0.00    -0.150 C  
HETATM    5  C   UNL     1      -9.637  10.778  68.617  1.00  0.00    -0.187 C  
HETATM    6  C   UNL     1     -10.315   9.625  69.348  1.00  0.00    -0.226 C  
HETATM    7  C   UNL     1     -11.016   9.975  70.654  1.00  0.00    -0.392 C  
HETATM    8  C   UNL     1      -9.513   8.334  69.403  1.00  0.00    -0.159 C  
HETATM    9  C   UNL     1     -12.140  10.950  70.332  1.00  0.00    -0.453 C  
HETATM   10  C   UNL     1      -8.010   8.093  69.848  1.00  0.00    -0.109 C  
HETATM   11  C   UNL     1     -11.584  12.201  69.708  1.00  0.00    -0.334 C  
HETATM   12  C   UNL     1      -7.581   6.776  69.080  1.00  0.00    -0.100 C  
HETATM   13  C   UNL     1     -12.103  13.376  70.117  1.00  0.00    -0.415 C  
HETATM   14  C   UNL     1      -8.913   6.359  68.489  1.00  0.00    -0.125 C  
HETATM   15  C   UNL     1     -11.547  11.960  67.277  1.00  0.00    -0.364 C  
HETATM   16  C   UNL     1     -11.603  14.618  69.506  1.00  0.00    -0.310 C  
HETATM   17  O   UNL     1     -12.315  15.614  69.464  1.00  0.00    -0.294 OA 
HETATM   18  C   UNL     1     -10.610  12.062  68.515  1.00  0.00    -0.252 C  
HETATM   19  C   UNL     1     -10.166  14.611  69.103  1.00  0.00    -0.199 C  
HETATM   20  C   UNL     1      -9.742  13.354  68.329  1.00  0.00    -0.226 C  
ENDROOT
BRANCH  14  21
HETATM   21  O   UNL     1      -9.061   5.180  67.711  1.00  0.00    -0.109 OA 
BRANCH  21  22
HETATM   22  C   UNL     1      -9.401   4.110  68.525  1.00  0.00    -0.156 C  
HETATM   23  O   UNL     1      -9.978   4.223  69.604  1.00  0.00    -0.214 OA 
BRANCH  22  24
HETATM   24  C   UNL     1      -9.241   2.753  67.875  1.00  0.00    -0.251 C  
BRANCH  24  25
HETATM   25  C   UNL     1      -7.792   2.346  67.717  1.00  0.00    -0.060 C  
BRANCH  25  26
HETATM   26  C   UNL     1      -7.274   2.443  66.282  1.00  0.00    -0.064 C  
HETATM   27  C   UNL     1      -8.445   2.545  65.308  1.00  0.00    -0.100 C  
HETATM   28  C   UNL     1      -7.807   3.089  64.046  1.00  0.00    -0.081 C  
HETATM   29  C   UNL     1      -6.799   4.114  64.551  1.00  0.00    -0.045 C  
HETATM   30  C   UNL     1      -6.428   3.686  65.973  1.00  0.00    -0.033 C  
ENDBRANCH  25  26
ENDBRANCH  24  25
ENDBRANCH  22  24
ENDBRANCH  21  22
ENDBRANCH  14  21
TORSDOF 5
ENDMDL
MODEL      106
REMARK 921   NORMALIZED FREE ENERGY PREDICTED BY IDOCK:   -4.31 KCAL/MOL
REMARK 922        TOTAL FREE ENERGY PREDICTED BY IDOCK:   -6.91 KCAL/MOL
REMARK 923 INTER-LIGAND FREE ENERGY PREDICTED BY IDOCK:   -6.37 KCAL/MOL
REMARK 924 INTRA-LIGAND FREE ENERGY PREDICTED BY IDOCK:   -0.54 KCAL/MOL
REMARK 927      BINDING AFFINITY PREDICTED BY RF-SCORE:    0.00 PKD
ROOT
HETATM    1  C   UNL     1     -10.248   9.917  70.246  1.00  0.00    -0.322 C  
HETATM    2  C   UNL     1      -9.578   9.278  69.029  1.00  0.00    -0.159 C  
HETATM    3  C   UNL     1     -10.668   9.131  67.888  1.00  0.00    -0.224 C  
HETATM    4  C   UNL     1     -11.066  10.486  67.195  1.00  0.00    -0.232 C  
HETATM    5  C   UNL     1      -9.929  11.531  66.890  1.00  0.00    -0.231 C  
HETATM    6  C   UNL     1      -8.883  11.434  67.995  1.00  0.00    -0.155 C  
HETATM    7  C   UNL     1      -7.761  12.463  67.951  1.00  0.00    -0.135 C  
HETATM    8  C   UNL     1      -8.417  10.024  68.321  1.00  0.00    -0.111 C  
HETATM    9  C   UNL     1      -8.386  13.840  68.122  1.00  0.00    -0.165 C  
HETATM   10  C   UNL     1      -7.900   8.878  67.355  1.00  0.00    -0.097 C  
HETATM   11  C   UNL     1      -9.362  14.114  67.011  1.00  0.00    -0.253 C  
HETATM   12  C   UNL     1      -8.212   7.537  68.137  1.00  0.00    -0.125 C  
HETATM   13  C   UNL     1      -9.347  15.347  66.467  1.00  0.00    -0.311 C  
HETATM   14  C   UNL     1      -8.661   8.097  69.472  1.00  0.00    -0.134 C  
HETATM   15  C   UNL     1     -11.595  13.384  67.682  1.00  0.00    -0.377 C  
HETATM   16  C   UNL     1     -10.310  15.658  65.397  1.00  0.00    -0.393 C  
HETATM   17  O   UNL     1     -10.669  16.813  65.209  1.00  0.00    -0.576 OA 
HETATM   18  C   UNL     1     -10.440  13.050  66.695  1.00  0.00    -0.271 C  
HETATM   19  C   UNL     1     -10.671  14.522  64.500  1.00  0.00    -0.198 C  
HETATM   20  C   UNL     1     -11.009  13.222  65.245  1.00  0.00    -0.307 C  
ENDROOT
BRANCH  14  21
HETATM   21  O   UNL     1      -9.033   7.261  70.559  1.00  0.00    -0.152 OA 
BRANCH  21  22
HETATM   22  C   UNL     1      -9.753   6.170  70.098  1.00  0.00    -0.163 C  
HETATM   23  O   UNL     1     -10.922   6.226  69.723  1.00  0.00    -0.302 OA 
BRANCH  22  24
HETATM   24  C   UNL     1      -8.920   4.933  69.843  1.00  0.00    -0.138 C  
BRANCH  24  25
HETATM   25  C   UNL     1      -7.869   4.704  70.907  1.00  0.00    -0.077 C  
BRANCH  25  26
HETATM   26  C   UNL     1      -8.294   3.717  71.995  1.00  0.00    -0.090 C  
HETATM   27  C   UNL     1      -8.746   4.474  73.242  1.00  0.00    -0.100 C  
HETATM   28  C   UNL     1      -9.545   3.440  74.010  1.00  0.00    -0.127 C  
HETATM   29  C   UNL     1     -10.313   2.687  72.931  1.00  0.00    -0.239 C  
HETATM   30  C   UNL     1      -9.498   2.833  71.643  1.00  0.00    -0.211 C  
ENDBRANCH  25  26
ENDBRANCH  24  25
ENDBRANCH  22  24
ENDBRANCH  21  22
ENDBRANCH  14  21
TORSDOF 5
ENDMDL
MODEL      107
REMARK 921   NORMALIZED FREE ENERGY PREDICTED BY IDOCK:   -4.25 KCAL/MOL
REMARK 922        TOTAL FREE ENERGY PREDICTED BY IDOCK:   -6.83 KCAL/MOL
REMARK 923 INTER-LIGAND FREE ENERGY PREDICTED BY IDOCK:   -6.20 KCAL/MOL
REMARK 924 INTRA-LIGAND FREE ENERGY PREDICTED BY IDOCK:   -0.62 KCAL/MOL
REMARK 927      BINDING AFFINITY PREDICTED BY RF-SCORE:    0.00 PKD
ROOT
HETATM    1  C   UNL     1     -10.248   8.455  68.298  1.00  0.00    -0.244 C  
HETATM    2  C   UNL     1     -10.815   8.458  69.719  1.00  0.00    -0.184 C  
HETATM    3  C   UNL     1     -11.729   7.174  69.887  1.00  0.00    -0.038 C  
HETATM    4  C   UNL     1     -10.932   5.823  70.004  1.00  0.00    -0.382 C  
HETATM    5  C   UNL     1      -9.610   5.807  70.858  1.00  0.00    -0.205 C  
HETATM    6  C   UNL     1      -8.934   7.166  70.716  1.00  0.00    -0.152 C  
HETATM    7  C   UNL     1      -7.563   7.307  71.366  1.00  0.00    -0.083 C  
HETATM    8  C   UNL     1      -9.843   8.366  70.924  1.00  0.00    -0.223 C  
HETATM    9  C   UNL     1      -6.621   6.326  70.683  1.00  0.00    -0.045 C  
HETATM   10  C   UNL     1     -10.845   8.684  72.112  1.00  0.00    -0.424 C  
HETATM   11  C   UNL     1      -7.117   4.916  70.856  1.00  0.00    -0.051 C  
HETATM   12  C   UNL     1     -11.926   9.645  71.465  1.00  0.00    -0.485 C  
HETATM   13  C   UNL     1      -6.200   3.971  71.143  1.00  0.00    -0.015 C  
HETATM   14  C   UNL     1     -11.297   9.889  70.108  1.00  0.00    -0.275 C  
HETATM   15  C   UNL     1      -8.564   4.318  68.981  1.00  0.00    -0.108 C  
HETATM   16  C   UNL     1      -6.647   2.577  71.290  1.00  0.00    -0.023 C  
HETATM   17  O   UNL     1      -5.871   1.655  71.073  1.00  0.00    -0.012 OA 
HETATM   18  C   UNL     1      -8.592   4.604  70.510  1.00  0.00    -0.116 C  
HETATM   19  C   UNL     1      -8.016   2.390  71.854  1.00  0.00    -0.052 C  
HETATM   20  C   UNL     1      -9.082   3.293  71.214  1.00  0.00    -0.178 C  
ENDROOT
BRANCH  14  21
HETATM   21  O   UNL     1     -11.891  10.740  69.138  1.00  0.00    -0.303 OA 
BRANCH  21  22
HETATM   22  C   UNL     1     -11.237  11.962  69.109  1.00  0.00    -0.255 C  
HETATM   23  O   UNL     1     -10.028  12.091  68.929  1.00  0.00    -0.117 OA 
BRANCH  22  24
HETATM   24  C   UNL     1     -12.156  13.163  69.061  1.00  0.00    -0.240 C  
BRANCH  24  25
HETATM   25  C   UNL     1     -11.607  14.352  69.821  1.00  0.00    -0.352 C  
BRANCH  25  26
HETATM   26  C   UNL     1     -11.590  15.649  69.011  1.00  0.00    -0.396 C  
HETATM   27  C   UNL     1     -10.487  16.572  69.523  1.00  0.00    -0.298 C  
HETATM   28  C   UNL     1     -10.289  17.549  68.382  1.00  0.00    -0.378 C  
HETATM   29  C   UNL     1     -10.410  16.690  67.130  1.00  0.00    -0.300 C  
HETATM   30  C   UNL     1     -11.271  15.485  67.519  1.00  0.00    -0.272 C  
ENDBRANCH  25  26
ENDBRANCH  24  25
ENDBRANCH  22  24
ENDBRANCH  21  22
ENDBRANCH  14  21
TORSDOF 5
ENDMDL
MODEL      108
REMARK 921   NORMALIZED FREE ENERGY PREDICTED BY IDOCK:   -4.23 KCAL/MOL
REMARK 922        TOTAL FREE ENERGY PREDICTED BY IDOCK:   -6.80 KCAL/MOL
REMARK 923 INTER-LIGAND FREE ENERGY PREDICTED BY IDOCK:   -5.65 KCAL/MOL
REMARK 924 INTRA-LIGAND FREE ENERGY PREDICTED BY IDOCK:   -1.15 KCAL/MOL
REMARK 927      BINDING AFFINITY PREDICTED BY RF-SCORE:    0.00 PKD
ROOT
HETATM    1  C   UNL     1      -7.829   7.550  70.136  1.00  0.00    -0.098 C  
HETATM    2  C   UNL     1      -8.935   6.699  69.510  1.00  0.00    -0.138 C  
HETATM    3  C   UNL     1     -10.167   7.646  69.197  1.00  0.00    -0.204 C  
HETATM    4  C   UNL     1      -9.949   8.606  67.970  1.00  0.00    -0.221 C  
HETATM    5  C   UNL     1      -9.215   8.038  66.699  1.00  0.00    -0.225 C  
HETATM    6  C   UNL     1      -8.173   7.026  67.163  1.00  0.00    -0.118 C  
HETATM    7  C   UNL     1      -7.259   6.458  66.084  1.00  0.00    -0.072 C  
HETATM    8  C   UNL     1      -8.675   5.991  68.156  1.00  0.00    -0.113 C  
HETATM    9  C   UNL     1      -6.455   7.612  65.501  1.00  0.00    -0.042 C  
HETATM   10  C   UNL     1      -9.952   5.053  68.084  1.00  0.00    -0.190 C  
HETATM   11  C   UNL     1      -7.373   8.637  64.894  1.00  0.00    -0.090 C  
HETATM   12  C   UNL     1     -10.291   4.738  69.599  1.00  0.00    -0.078 C  
HETATM   13  C   UNL     1      -7.007   9.167  63.710  1.00  0.00    -0.089 C  
HETATM   14  C   UNL     1      -9.086   5.353  70.283  1.00  0.00    -0.136 C  
HETATM   15  C   UNL     1      -7.946  10.321  66.569  1.00  0.00    -0.118 C  
HETATM   16  C   UNL     1      -7.868  10.195  63.102  1.00  0.00    -0.150 C  
HETATM   17  O   UNL     1      -7.391  11.022  62.335  1.00  0.00    -0.081 OA 
HETATM   18  C   UNL     1      -8.560   9.158  65.738  1.00  0.00    -0.171 C  
HETATM   19  C   UNL     1      -9.331  10.053  63.362  1.00  0.00    -0.300 C  
HETATM   20  C   UNL     1      -9.678   9.779  64.833  1.00  0.00    -0.262 C  
ENDROOT
BRANCH  14  21
HETATM   21  O   UNL     1      -8.905   5.303  71.691  1.00  0.00    -0.132 OA 
BRANCH  21  22
HETATM   22  C   UNL     1     -10.118   5.487  72.335  1.00  0.00    -0.179 C  
HETATM   23  O   UNL     1     -10.821   4.570  72.755  1.00  0.00    -0.204 OA 
BRANCH  22  24
HETATM   24  C   UNL     1     -10.411   6.921  72.721  1.00  0.00    -0.238 C  
BRANCH  24  25
HETATM   25  C   UNL     1     -11.893   7.221  72.784  1.00  0.00    -0.058 C  
BRANCH  25  26
HETATM   26  C   UNL     1     -12.242   8.680  72.486  1.00  0.00    -0.374 C  
HETATM   27  C   UNL     1     -11.139   9.323  71.651  1.00  0.00    -0.438 C  
HETATM   28  C   UNL     1     -11.812  10.547  71.063  1.00  0.00    -0.438 C  
HETATM   29  C   UNL     1     -13.216  10.069  70.715  1.00  0.00    -0.270 C  
HETATM   30  C   UNL     1     -13.511   8.891  71.648  1.00  0.00    -0.427 C  
ENDBRANCH  25  26
ENDBRANCH  24  25
ENDBRANCH  22  24
ENDBRANCH  21  22
ENDBRANCH  14  21
TORSDOF 5
ENDMDL
MODEL      109
REMARK 921   NORMALIZED FREE ENERGY PREDICTED BY IDOCK:   -4.22 KCAL/MOL
REMARK 922        TOTAL FREE ENERGY PREDICTED BY IDOCK:   -6.79 KCAL/MOL
REMARK 923 INTER-LIGAND FREE ENERGY PREDICTED BY IDOCK:   -6.35 KCAL/MOL
REMARK 924 INTRA-LIGAND FREE ENERGY PREDICTED BY IDOCK:   -0.44 KCAL/MOL
REMARK 927      BINDING AFFINITY PREDICTED BY RF-SCORE:    0.00 PKD
ROOT
HETATM    1  C   UNL     1     -10.186  10.482  69.710  1.00  0.00    -0.168 C  
HETATM    2  C   UNL     1      -9.694   9.973  68.354  1.00  0.00    -0.157 C  
HETATM    3  C   UNL     1     -10.910  10.023  67.339  1.00  0.00    -0.313 C  
HETATM    4  C   UNL     1     -11.299  11.472  66.867  1.00  0.00    -0.324 C  
HETATM    5  C   UNL     1     -10.141  12.493  66.560  1.00  0.00    -0.250 C  
HETATM    6  C   UNL     1      -8.988  12.208  67.515  1.00  0.00    -0.177 C  
HETATM    7  C   UNL     1      -7.816  13.181  67.466  1.00  0.00    -0.173 C  
HETATM    8  C   UNL     1      -8.575  10.747  67.612  1.00  0.00    -0.123 C  
HETATM    9  C   UNL     1      -8.333  14.552  67.874  1.00  0.00    -0.159 C  
HETATM   10  C   UNL     1      -8.238   9.711  66.460  1.00  0.00    -0.119 C  
HETATM   11  C   UNL     1      -9.408  15.011  66.926  1.00  0.00    -0.258 C  
HETATM   12  C   UNL     1      -8.544   8.297  67.105  1.00  0.00    -0.123 C  
HETATM   13  C   UNL     1      -9.377  16.301  66.537  1.00  0.00    -0.298 C  
HETATM   14  C   UNL     1      -8.808   8.703  68.541  1.00  0.00    -0.142 C  
HETATM   15  C   UNL     1     -11.594  14.306  67.760  1.00  0.00    -0.383 C  
HETATM   16  C   UNL     1     -10.431  16.790  65.633  1.00  0.00    -0.269 C  
HETATM   17  O   UNL     1     -10.738  17.975  65.630  1.00  0.00    -0.533 OA 
HETATM   18  C   UNL     1     -10.576  14.047  66.611  1.00  0.00    -0.274 C  
HETATM   19  C   UNL     1     -10.958  15.796  64.653  1.00  0.00    -0.333 C  
HETATM   20  C   UNL     1     -11.290  14.428  65.270  1.00  0.00    -0.346 C  
ENDROOT
BRANCH  14  21
HETATM   21  O   UNL     1      -9.109   7.754  69.555  1.00  0.00    -0.146 OA 
BRANCH  21  22
HETATM   22  C   UNL     1     -10.104   6.892  69.122  1.00  0.00    -0.173 C  
HETATM   23  O   UNL     1     -11.306   7.142  69.186  1.00  0.00    -0.028 OA 
BRANCH  22  24
HETATM   24  C   UNL     1      -9.604   5.709  68.321  1.00  0.00    -0.145 C  
BRANCH  24  25
HETATM   25  C   UNL     1     -10.567   5.289  67.232  1.00  0.00    -0.200 C  
BRANCH  25  26
HETATM   26  C   UNL     1      -9.981   4.280  66.243  1.00  0.00    -0.229 C  
HETATM   27  C   UNL     1     -10.799   4.274  64.954  1.00  0.00    -0.108 C  
HETATM   28  C   UNL     1      -9.869   3.620  63.952  1.00  0.00    -0.174 C  
HETATM   29  C   UNL     1      -8.496   4.185  64.294  1.00  0.00    -0.105 C  
HETATM   30  C   UNL     1      -8.551   4.580  65.772  1.00  0.00    -0.116 C  
ENDBRANCH  25  26
ENDBRANCH  24  25
ENDBRANCH  22  24
ENDBRANCH  21  22
ENDBRANCH  14  21
TORSDOF 5
ENDMDL
MODEL      110
REMARK 921   NORMALIZED FREE ENERGY PREDICTED BY IDOCK:   -4.20 KCAL/MOL
REMARK 922        TOTAL FREE ENERGY PREDICTED BY IDOCK:   -6.76 KCAL/MOL
REMARK 923 INTER-LIGAND FREE ENERGY PREDICTED BY IDOCK:   -5.98 KCAL/MOL
REMARK 924 INTRA-LIGAND FREE ENERGY PREDICTED BY IDOCK:   -0.78 KCAL/MOL
REMARK 927      BINDING AFFINITY PREDICTED BY RF-SCORE:    0.00 PKD
ROOT
HETATM    1  C   UNL     1     -10.625  10.560  69.848  1.00  0.00    -0.261 C  
HETATM    2  C   UNL     1     -10.617  10.266  68.347  1.00  0.00    -0.247 C  
HETATM    3  C   UNL     1     -11.836  11.035  67.688  1.00  0.00     0.078 C  
HETATM    4  C   UNL     1     -11.635  12.592  67.577  1.00  0.00    -0.424 C  
HETATM    5  C   UNL     1     -10.214  13.133  67.168  1.00  0.00    -0.244 C  
HETATM    6  C   UNL     1      -9.161  12.194  67.745  1.00  0.00    -0.189 C  
HETATM    7  C   UNL     1      -7.710  12.622  67.570  1.00  0.00    -0.161 C  
HETATM    8  C   UNL     1      -9.405  10.715  67.491  1.00  0.00    -0.158 C  
HETATM    9  C   UNL     1      -7.518  13.934  68.318  1.00  0.00    -0.118 C  
HETATM   10  C   UNL     1      -9.729   9.960  66.135  1.00  0.00    -0.297 C  
HETATM   11  C   UNL     1      -8.426  14.994  67.756  1.00  0.00    -0.161 C  
HETATM   12  C   UNL     1     -10.506   8.657  66.589  1.00  0.00    -0.239 C  
HETATM   13  C   UNL     1      -7.907  16.227  67.594  1.00  0.00    -0.162 C  
HETATM   14  C   UNL     1     -10.344   8.752  68.093  1.00  0.00    -0.216 C  
HETATM   15  C   UNL     1     -10.543  14.993  68.976  1.00  0.00    -0.245 C  
HETATM   16  C   UNL     1      -8.776  17.295  67.074  1.00  0.00    -0.231 C  
HETATM   17  O   UNL     1      -8.542  18.466  67.346  1.00  0.00    -0.253 OA 
HETATM   18  C   UNL     1      -9.928  14.666  67.584  1.00  0.00    -0.227 C  
HETATM   19  C   UNL     1      -9.824  16.865  66.103  1.00  0.00    -0.318 C  
HETATM   20  C   UNL     1     -10.609  15.620  66.545  1.00  0.00    -0.307 C  
ENDROOT
BRANCH  14  21
HETATM   21  O   UNL     1     -10.860   7.766  68.976  1.00  0.00    -0.151 OA 
BRANCH  21  22
HETATM   22  C   UNL     1      -9.823   7.033  69.533  1.00  0.00    -0.160 C  
HETATM   23  O   UNL     1      -8.635   7.222  69.281  1.00  0.00    -0.135 OA 
BRANCH  22  24
HETATM   24  C   UNL     1     -10.235   6.137  70.680  1.00  0.00    -0.250 C  
BRANCH  24  25
HETATM   25  C   UNL     1      -9.089   5.307  71.217  1.00  0.00    -0.169 C  
BRANCH  25  26
HETATM   26  C   UNL     1      -8.562   5.781  72.572  1.00  0.00    -0.120 C  
HETATM   27  C   UNL     1      -7.184   6.415  72.406  1.00  0.00    -0.083 C  
HETATM   28  C   UNL     1      -7.013   7.222  73.677  1.00  0.00    -0.080 C  
HETATM   29  C   UNL     1      -8.393   7.816  73.929  1.00  0.00    -0.277 C  
HETATM   30  C   UNL     1      -9.394   6.878  73.250  1.00  0.00    -0.170 C  
ENDBRANCH  25  26
ENDBRANCH  24  25
ENDBRANCH  22  24
ENDBRANCH  21  22
ENDBRANCH  14  21
TORSDOF 5
ENDMDL
MODEL      111
REMARK 921   NORMALIZED FREE ENERGY PREDICTED BY IDOCK:   -4.15 KCAL/MOL
REMARK 922        TOTAL FREE ENERGY PREDICTED BY IDOCK:   -6.70 KCAL/MOL
REMARK 923 INTER-LIGAND FREE ENERGY PREDICTED BY IDOCK:   -6.38 KCAL/MOL
REMARK 924 INTRA-LIGAND FREE ENERGY PREDICTED BY IDOCK:   -0.32 KCAL/MOL
REMARK 927      BINDING AFFINITY PREDICTED BY RF-SCORE:    0.00 PKD
ROOT
HETATM    1  C   UNL     1      -9.555   9.998  69.954  1.00  0.00    -0.233 C  
HETATM    2  C   UNL     1      -9.523   9.044  68.759  1.00  0.00    -0.148 C  
HETATM    3  C   UNL     1      -8.092   8.365  68.710  1.00  0.00    -0.121 C  
HETATM    4  C   UNL     1      -7.852   7.280  69.824  1.00  0.00    -0.117 C  
HETATM    5  C   UNL     1      -9.033   6.303  70.181  1.00  0.00    -0.149 C  
HETATM    6  C   UNL     1     -10.345   7.064  70.025  1.00  0.00    -0.217 C  
HETATM    7  C   UNL     1     -11.606   6.326  70.456  1.00  0.00    -0.357 C  
HETATM    8  C   UNL     1     -10.494   7.836  68.724  1.00  0.00    -0.201 C  
HETATM    9  C   UNL     1     -11.492   6.042  71.947  1.00  0.00    -0.328 C  
HETATM   10  C   UNL     1     -10.280   7.352  67.229  1.00  0.00    -0.330 C  
HETATM   11  C   UNL     1     -10.288   5.184  72.226  1.00  0.00    -0.267 C  
HETATM   12  C   UNL     1      -9.927   8.678  66.437  1.00  0.00    -0.331 C  
HETATM   13  C   UNL     1     -10.437   4.183  73.116  1.00  0.00    -0.248 C  
HETATM   14  C   UNL     1     -10.177   9.715  67.512  1.00  0.00    -0.220 C  
HETATM   15  C   UNL     1      -8.356   6.606  72.688  1.00  0.00    -0.108 C  
HETATM   16  C   UNL     1      -9.270   3.343  73.434  1.00  0.00    -0.100 C  
HETATM   17  O   UNL     1      -9.198   2.776  74.517  1.00  0.00    -0.077 OA 
HETATM   18  C   UNL     1      -8.923   5.611  71.635  1.00  0.00    -0.143 C  
HETATM   19  C   UNL     1      -8.306   3.123  72.318  1.00  0.00    -0.076 C  
HETATM   20  C   UNL     1      -7.927   4.404  71.559  1.00  0.00    -0.083 C  
ENDROOT
BRANCH  14  21
HETATM   21  O   UNL     1     -10.022  11.107  67.275  1.00  0.00    -0.180 OA 
BRANCH  21  22
HETATM   22  C   UNL     1      -9.030  11.323  66.331  1.00  0.00    -0.188 C  
HETATM   23  O   UNL     1      -7.878  10.908  66.437  1.00  0.00    -0.145 OA 
BRANCH  22  24
HETATM   24  C   UNL     1      -9.527  11.895  65.021  1.00  0.00    -0.028 C  
BRANCH  24  25
HETATM   25  C   UNL     1     -11.008  12.206  65.041  1.00  0.00    -0.355 C  
BRANCH  25  26
HETATM   26  C   UNL     1     -11.332  13.656  65.402  1.00  0.00    -0.311 C  
HETATM   27  C   UNL     1     -10.100  14.535  65.196  1.00  0.00    -0.361 C  
HETATM   28  C   UNL     1     -10.675  15.936  65.133  1.00  0.00    -0.449 C  
HETATM   29  C   UNL     1     -11.965  15.774  64.339  1.00  0.00    -0.082 C  
HETATM   30  C   UNL     1     -12.409  14.322  64.534  1.00  0.00    -0.432 C  
ENDBRANCH  25  26
ENDBRANCH  24  25
ENDBRANCH  22  24
ENDBRANCH  21  22
ENDBRANCH  14  21
TORSDOF 5
ENDMDL
MODEL      112
REMARK 921   NORMALIZED FREE ENERGY PREDICTED BY IDOCK:   -4.13 KCAL/MOL
REMARK 922        TOTAL FREE ENERGY PREDICTED BY IDOCK:   -6.67 KCAL/MOL
REMARK 923 INTER-LIGAND FREE ENERGY PREDICTED BY IDOCK:   -6.18 KCAL/MOL
REMARK 924 INTRA-LIGAND FREE ENERGY PREDICTED BY IDOCK:   -0.49 KCAL/MOL
REMARK 927      BINDING AFFINITY PREDICTED BY RF-SCORE:    0.00 PKD
ROOT
HETATM    1  C   UNL     1      -9.407   9.751  70.339  1.00  0.00    -0.184 C  
HETATM    2  C   UNL     1      -9.411   9.412  68.848  1.00  0.00    -0.154 C  
HETATM    3  C   UNL     1      -7.922   9.088  68.412  1.00  0.00    -0.104 C  
HETATM    4  C   UNL     1      -7.388   7.698  68.921  1.00  0.00    -0.090 C  
HETATM    5  C   UNL     1      -8.367   6.466  68.891  1.00  0.00    -0.121 C  
HETATM    6  C   UNL     1      -9.778   6.971  69.171  1.00  0.00    -0.156 C  
HETATM    7  C   UNL     1     -10.857   5.905  69.317  1.00  0.00    -0.414 C  
HETATM    8  C   UNL     1     -10.207   8.178  68.352  1.00  0.00    -0.240 C  
HETATM    9  C   UNL     1     -10.502   5.046  70.522  1.00  0.00    -0.230 C  
HETATM   10  C   UNL     1     -10.138   8.415  66.785  1.00  0.00    -0.373 C  
HETATM   11  C   UNL     1      -9.166   4.384  70.317  1.00  0.00    -0.193 C  
HETATM   12  C   UNL     1     -10.078   9.991  66.632  1.00  0.00    -0.289 C  
HETATM   13  C   UNL     1      -9.056   3.093  70.687  1.00  0.00    -0.191 C  
HETATM   14  C   UNL     1     -10.316  10.415  68.067  1.00  0.00    -0.179 C  
HETATM   15  C   UNL     1      -7.398   5.803  71.228  1.00  0.00    -0.079 C  
HETATM   16  C   UNL     1      -7.755   2.423  70.528  1.00  0.00    -0.042 C  
HETATM   17  O   UNL     1      -7.458   1.476  71.246  1.00  0.00    -0.032 OA 
HETATM   18  C   UNL     1      -7.966   5.259  69.885  1.00  0.00    -0.083 C  
HETATM   19  C   UNL     1      -6.932   2.871  69.367  1.00  0.00    -0.041 C  
HETATM   20  C   UNL     1      -6.837   4.398  69.223  1.00  0.00    -0.046 C  
ENDROOT
BRANCH  14  21
HETATM   21  O   UNL     1     -10.383  11.780  68.453  1.00  0.00    -0.201 OA 
BRANCH  21  22
HETATM   22  C   UNL     1      -9.467  12.527  67.729  1.00  0.00    -0.197 C  
HETATM   23  O   UNL     1      -8.298  12.195  67.548  1.00  0.00    -0.148 OA 
BRANCH  22  24
HETATM   24  C   UNL     1     -10.072  13.675  66.949  1.00  0.00    -0.260 C  
BRANCH  24  25
HETATM   25  C   UNL     1     -11.576  13.760  67.103  1.00  0.00    -0.392 C  
BRANCH  25  26
HETATM   26  C   UNL     1     -12.341  13.618  65.787  1.00  0.00    -0.524 C  
HETATM   27  C   UNL     1     -11.686  14.471  64.704  1.00  0.00    -0.438 C  
HETATM   28  C   UNL     1     -12.232  13.886  63.417  1.00  0.00     0.005 C  
HETATM   29  C   UNL     1     -12.251  12.384  63.669  1.00  0.00    -0.653 C  
HETATM   30  C   UNL     1     -12.354  12.205  65.186  1.00  0.00    -0.135 C  
ENDBRANCH  25  26
ENDBRANCH  24  25
ENDBRANCH  22  24
ENDBRANCH  21  22
ENDBRANCH  14  21
TORSDOF 5
ENDMDL
MODEL      113
REMARK 921   NORMALIZED FREE ENERGY PREDICTED BY IDOCK:   -4.09 KCAL/MOL
REMARK 922        TOTAL FREE ENERGY PREDICTED BY IDOCK:   -6.62 KCAL/MOL
REMARK 923 INTER-LIGAND FREE ENERGY PREDICTED BY IDOCK:   -6.29 KCAL/MOL
REMARK 924 INTRA-LIGAND FREE ENERGY PREDICTED BY IDOCK:   -0.33 KCAL/MOL
REMARK 927      BINDING AFFINITY PREDICTED BY RF-SCORE:    0.00 PKD
ROOT
HETATM    1  C   UNL     1     -10.385  10.546  69.748  1.00  0.00    -0.211 C  
HETATM    2  C   UNL     1     -10.539  10.588  68.226  1.00  0.00    -0.240 C  
HETATM    3  C   UNL     1     -11.900  11.326  67.889  1.00  0.00    -0.209 C  
HETATM    4  C   UNL     1     -11.867  12.882  68.120  1.00  0.00    -0.380 C  
HETATM    5  C   UNL     1     -10.569  13.670  67.704  1.00  0.00    -0.245 C  
HETATM    6  C   UNL     1      -9.365  12.765  67.940  1.00  0.00    -0.208 C  
HETATM    7  C   UNL     1      -7.996  13.397  67.721  1.00  0.00    -0.167 C  
HETATM    8  C   UNL     1      -9.494  11.358  67.378  1.00  0.00    -0.174 C  
HETATM    9  C   UNL     1      -7.840  14.528  68.727  1.00  0.00    -0.145 C  
HETATM   10  C   UNL     1      -9.913  10.882  65.925  1.00  0.00    -0.294 C  
HETATM   11  C   UNL     1      -8.910  15.565  68.520  1.00  0.00    -0.186 C  
HETATM   12  C   UNL     1     -10.496   9.426  66.144  1.00  0.00    -0.027 C  
HETATM   13  C   UNL     1      -8.538  16.858  68.594  1.00  0.00    -0.267 C  
HETATM   14  C   UNL     1     -10.154   9.211  67.604  1.00  0.00    -0.220 C  
HETATM   15  C   UNL     1     -10.845  15.038  69.916  1.00  0.00    -0.266 C  
HETATM   16  C   UNL     1      -9.566  17.898  68.426  1.00  0.00    -0.320 C  
HETATM   17  O   UNL     1      -9.413  19.002  68.934  1.00  0.00    -0.367 OA 
HETATM   18  C   UNL     1     -10.383  15.099  68.431  1.00  0.00    -0.229 C  
HETATM   19  C   UNL     1     -10.681  17.563  67.493  1.00  0.00    -0.280 C  
HETATM   20  C   UNL     1     -11.279  16.165  67.714  1.00  0.00    -0.199 C  
ENDROOT
BRANCH  14  21
HETATM   21  O   UNL     1     -10.455   8.001  68.284  1.00  0.00    -0.204 OA 
BRANCH  21  22
HETATM   22  C   UNL     1     -10.345   6.925  67.417  1.00  0.00    -0.231 C  
HETATM   23  O   UNL     1     -11.280   6.467  66.765  1.00  0.00    -0.334 OA 
BRANCH  22  24
HETATM   24  C   UNL     1      -8.922   6.500  67.125  1.00  0.00    -0.113 C  
BRANCH  24  25
HETATM   25  C   UNL     1      -8.820   5.565  65.939  1.00  0.00    -0.150 C  
BRANCH  25  26
HETATM   26  C   UNL     1      -8.248   4.189  66.283  1.00  0.00    -0.105 C  
HETATM   27  C   UNL     1      -9.014   3.580  67.455  1.00  0.00    -0.170 C  
HETATM   28  C   UNL     1      -8.671   2.107  67.372  1.00  0.00    -0.138 C  
HETATM   29  C   UNL     1      -8.672   1.808  65.878  1.00  0.00    -0.116 C  
HETATM   30  C   UNL     1      -8.369   3.134  65.175  1.00  0.00    -0.095 C  
ENDBRANCH  25  26
ENDBRANCH  24  25
ENDBRANCH  22  24
ENDBRANCH  21  22
ENDBRANCH  14  21
TORSDOF 5
ENDMDL
MODEL      114
REMARK 921   NORMALIZED FREE ENERGY PREDICTED BY IDOCK:   -4.06 KCAL/MOL
REMARK 922        TOTAL FREE ENERGY PREDICTED BY IDOCK:   -6.59 KCAL/MOL
REMARK 923 INTER-LIGAND FREE ENERGY PREDICTED BY IDOCK:   -5.55 KCAL/MOL
REMARK 924 INTRA-LIGAND FREE ENERGY PREDICTED BY IDOCK:   -1.04 KCAL/MOL
REMARK 927      BINDING AFFINITY PREDICTED BY RF-SCORE:    0.00 PKD
ROOT
HETATM    1  C   UNL     1      -8.728   8.488  67.868  1.00  0.00    -0.138 C  
HETATM    2  C   UNL     1      -9.574   8.985  69.041  1.00  0.00    -0.160 C  
HETATM    3  C   UNL     1      -8.668   9.929  69.936  1.00  0.00    -0.225 C  
HETATM    4  C   UNL     1      -8.378  11.339  69.300  1.00  0.00     0.167 C  
HETATM    5  C   UNL     1      -9.547  12.071  68.544  1.00  0.00    -0.146 C  
HETATM    6  C   UNL     1     -10.415  11.015  67.870  1.00  0.00    -0.223 C  
HETATM    7  C   UNL     1     -11.531  11.533  66.971  1.00  0.00    -0.290 C  
HETATM    8  C   UNL     1     -10.828   9.853  68.760  1.00  0.00    -0.240 C  
HETATM    9  C   UNL     1     -10.887  12.301  65.826  1.00  0.00    -0.313 C  
HETATM   10  C   UNL     1     -11.485   9.866  70.203  1.00  0.00    -0.309 C  
HETATM   11  C   UNL     1     -10.089  13.461  66.356  1.00  0.00    -0.292 C  
HETATM   12  C   UNL     1     -11.058   8.479  70.839  1.00  0.00    -0.295 C  
HETATM   13  C   UNL     1     -10.186  14.630  65.693  1.00  0.00    -0.382 C  
HETATM   14  C   UNL     1     -10.414   7.815  69.639  1.00  0.00    -0.229 C  
HETATM   15  C   UNL     1      -7.781  12.760  66.743  1.00  0.00     0.264 C  
HETATM   16  C   UNL     1      -9.395  15.777  66.167  1.00  0.00    -0.346 C  
HETATM   17  O   UNL     1      -9.067  16.663  65.388  1.00  0.00    -0.267 OA 
HETATM   18  C   UNL     1      -9.072  13.200  67.492  1.00  0.00    -0.205 C  
HETATM   19  C   UNL     1      -9.173  15.847  67.641  1.00  0.00    -0.208 C  
HETATM   20  C   UNL     1      -8.727  14.517  68.268  1.00  0.00    -0.173 C  
ENDROOT
BRANCH  14  21
HETATM   21  O   UNL     1      -9.883   6.499  69.695  1.00  0.00    -0.158 OA 
BRANCH  21  22
HETATM   22  C   UNL     1     -10.367   5.743  68.638  1.00  0.00    -0.221 C  
HETATM   23  O   UNL     1     -11.221   6.135  67.846  1.00  0.00    -0.304 OA 
BRANCH  22  24
HETATM   24  C   UNL     1      -9.586   4.476  68.364  1.00  0.00    -0.207 C  
BRANCH  24  25
HETATM   25  C   UNL     1      -9.670   4.036  66.918  1.00  0.00    -0.215 C  
BRANCH  25  26
HETATM   26  C   UNL     1      -8.455   4.434  66.079  1.00  0.00    -0.113 C  
HETATM   27  C   UNL     1      -8.750   5.713  65.301  1.00  0.00    -0.120 C  
HETATM   28  C   UNL     1      -7.374   6.217  64.917  1.00  0.00    -0.074 C  
HETATM   29  C   UNL     1      -6.519   5.938  66.146  1.00  0.00    -0.046 C  
HETATM   30  C   UNL     1      -7.189   4.772  66.879  1.00  0.00    -0.077 C  
ENDBRANCH  25  26
ENDBRANCH  24  25
ENDBRANCH  22  24
ENDBRANCH  21  22
ENDBRANCH  14  21
TORSDOF 5
ENDMDL
MODEL      115
REMARK 921   NORMALIZED FREE ENERGY PREDICTED BY IDOCK:   -4.04 KCAL/MOL
REMARK 922        TOTAL FREE ENERGY PREDICTED BY IDOCK:   -6.56 KCAL/MOL
REMARK 923 INTER-LIGAND FREE ENERGY PREDICTED BY IDOCK:   -5.96 KCAL/MOL
REMARK 924 INTRA-LIGAND FREE ENERGY PREDICTED BY IDOCK:   -0.60 KCAL/MOL
REMARK 927      BINDING AFFINITY PREDICTED BY RF-SCORE:    0.00 PKD
ROOT
HETATM    1  C   UNL     1      -8.094  12.225  68.492  1.00  0.00    -0.101 C  
HETATM    2  C   UNL     1      -9.555  12.235  68.037  1.00  0.00    -0.206 C  
HETATM    3  C   UNL     1      -9.603  11.767  66.524  1.00  0.00    -0.225 C  
HETATM    4  C   UNL     1      -9.350  10.228  66.316  1.00  0.00    -0.206 C  
HETATM    5  C   UNL     1      -9.995   9.221  67.338  1.00  0.00    -0.253 C  
HETATM    6  C   UNL     1     -10.019   9.884  68.711  1.00  0.00    -0.183 C  
HETATM    7  C   UNL     1     -10.488   9.014  69.871  1.00  0.00    -0.226 C  
HETATM    8  C   UNL     1     -10.575  11.299  68.735  1.00  0.00    -0.234 C  
HETATM    9  C   UNL     1      -9.508   7.858  70.010  1.00  0.00    -0.157 C  
HETATM   10  C   UNL     1     -11.928  11.867  68.134  1.00  0.00    -0.222 C  
HETATM   11  C   UNL     1      -9.479   7.040  68.748  1.00  0.00    -0.136 C  
HETATM   12  C   UNL     1     -11.630  13.402  67.884  1.00  0.00    -0.374 C  
HETATM   13  C   UNL     1      -9.452   5.699  68.883  1.00  0.00    -0.157 C  
HETATM   14  C   UNL     1     -10.270  13.528  68.540  1.00  0.00    -0.229 C  
HETATM   15  C   UNL     1      -7.744   7.894  67.255  1.00  0.00    -0.105 C  
HETATM   16  C   UNL     1      -9.394   4.870  67.669  1.00  0.00    -0.130 C  
HETATM   17  O   UNL     1      -8.902   3.749  67.712  1.00  0.00    -0.100 OA 
HETATM   18  C   UNL     1      -9.288   7.771  67.398  1.00  0.00    -0.168 C  
HETATM   19  C   UNL     1     -10.097   5.419  66.473  1.00  0.00    -0.250 C  
HETATM   20  C   UNL     1      -9.793   6.900  66.198  1.00  0.00     0.105 C  
ENDROOT
BRANCH  14  21
HETATM   21  O   UNL     1      -9.570  14.762  68.605  1.00  0.00    -0.207 OA 
BRANCH  21  22
HETATM   22  C   UNL     1     -10.419  15.770  69.034  1.00  0.00    -0.225 C  
HETATM   23  O   UNL     1     -10.893  15.835  70.166  1.00  0.00    -0.299 OA 
BRANCH  22  24
HETATM   24  C   UNL     1     -10.529  16.943  68.084  1.00  0.00    -0.350 C  
BRANCH  24  25
HETATM   25  C   UNL     1      -9.414  16.976  67.061  1.00  0.00    -0.256 C  
BRANCH  25  26
HETATM   26  C   UNL     1      -8.261  17.909  67.433  1.00  0.00    -0.224 C  
HETATM   27  C   UNL     1      -7.209  17.149  68.237  1.00  0.00    -0.204 C  
HETATM   28  C   UNL     1      -5.979  18.026  68.124  1.00  0.00    -0.171 C  
HETATM   29  C   UNL     1      -6.008  18.524  66.684  1.00  0.00    -0.176 C  
HETATM   30  C   UNL     1      -7.474  18.483  66.246  1.00  0.00    -0.289 C  
ENDBRANCH  25  26
ENDBRANCH  24  25
ENDBRANCH  22  24
ENDBRANCH  21  22
ENDBRANCH  14  21
TORSDOF 5
ENDMDL
MODEL      116
REMARK 921   NORMALIZED FREE ENERGY PREDICTED BY IDOCK:   -4.04 KCAL/MOL
REMARK 922        TOTAL FREE ENERGY PREDICTED BY IDOCK:   -6.55 KCAL/MOL
REMARK 923 INTER-LIGAND FREE ENERGY PREDICTED BY IDOCK:   -6.81 KCAL/MOL
REMARK 924 INTRA-LIGAND FREE ENERGY PREDICTED BY IDOCK:    0.26 KCAL/MOL
REMARK 927      BINDING AFFINITY PREDICTED BY RF-SCORE:    0.00 PKD
ROOT
HETATM    1  C   UNL     1      -8.168  12.781  67.935  1.00  0.00    -0.168 C  
HETATM    2  C   UNL     1      -9.695  12.875  67.910  1.00  0.00    -0.218 C  
HETATM    3  C   UNL     1     -10.167  13.567  69.255  1.00  0.00     0.255 C  
HETATM    4  C   UNL     1      -9.884  15.113  69.320  1.00  0.00    -0.231 C  
HETATM    5  C   UNL     1     -10.116  15.970  68.020  1.00  0.00    -0.240 C  
HETATM    6  C   UNL     1      -9.768  15.108  66.812  1.00  0.00    -0.255 C  
HETATM    7  C   UNL     1      -9.800  15.804  65.457  1.00  0.00    -0.300 C  
HETATM    8  C   UNL     1     -10.386  13.719  66.809  1.00  0.00    -0.272 C  
HETATM    9  C   UNL     1      -8.746  16.901  65.473  1.00  0.00     0.811 C  
HETATM   10  C   UNL     1     -11.894  13.281  67.031  1.00  0.00    -0.442 C  
HETATM   11  C   UNL     1      -9.046  17.900  66.558  1.00  0.00    -0.276 C  
HETATM   12  C   UNL     1     -11.794  11.794  67.569  1.00  0.00    -0.227 C  
HETATM   13  C   UNL     1      -8.886  19.204  66.257  1.00  0.00    -0.308 C  
HETATM   14  C   UNL     1     -10.311  11.539  67.392  1.00  0.00    -0.207 C  
HETATM   15  C   UNL     1      -7.909  17.240  68.618  1.00  0.00    -0.272 C  
HETATM   16  C   UNL     1      -9.141  20.206  67.304  1.00  0.00    -0.368 C  
HETATM   17  O   UNL     1      -8.583  21.294  67.264  1.00  0.00    -0.016 OA 
HETATM   18  C   UNL     1      -9.325  17.377  67.987  1.00  0.00    -0.276 C  
HETATM   19  C   UNL     1     -10.211  19.860  68.285  1.00  0.00    -0.562 C  
HETATM   20  C   UNL     1     -10.109  18.431  68.840  1.00  0.00    -0.352 C  
ENDROOT
BRANCH  14  21
HETATM   21  O   UNL     1      -9.712  10.292  67.715  1.00  0.00    -0.153 OA 
BRANCH  21  22
HETATM   22  C   UNL     1      -9.712  10.105  69.089  1.00  0.00    -0.215 C  
HETATM   23  O   UNL     1      -8.732  10.283  69.808  1.00  0.00    -0.157 OA 
BRANCH  22  24
HETATM   24  C   UNL     1     -11.085   9.906  69.693  1.00  0.00    -0.279 C  
BRANCH  24  25
HETATM   25  C   UNL     1     -11.037   9.629  71.181  1.00  0.00    -0.444 C  
BRANCH  25  26
HETATM   26  C   UNL     1     -11.477   8.215  71.562  1.00  0.00    -0.310 C  
HETATM   27  C   UNL     1     -10.882   7.201  70.588  1.00  0.00    -0.268 C  
HETATM   28  C   UNL     1     -11.002   5.887  71.333  1.00  0.00    -0.327 C  
HETATM   29  C   UNL     1     -10.666   6.244  72.775  1.00  0.00    -0.269 C  
HETATM   30  C   UNL     1     -11.000   7.730  72.938  1.00  0.00    -0.467 C  
ENDBRANCH  25  26
ENDBRANCH  24  25
ENDBRANCH  22  24
ENDBRANCH  21  22
ENDBRANCH  14  21
TORSDOF 5
ENDMDL
MODEL      117
REMARK 921   NORMALIZED FREE ENERGY PREDICTED BY IDOCK:   -4.03 KCAL/MOL
REMARK 922        TOTAL FREE ENERGY PREDICTED BY IDOCK:   -6.55 KCAL/MOL
REMARK 923 INTER-LIGAND FREE ENERGY PREDICTED BY IDOCK:   -5.83 KCAL/MOL
REMARK 924 INTRA-LIGAND FREE ENERGY PREDICTED BY IDOCK:   -0.72 KCAL/MOL
REMARK 927      BINDING AFFINITY PREDICTED BY RF-SCORE:    0.00 PKD
ROOT
HETATM    1  C   UNL     1      -9.620   7.494  65.860  1.00  0.00     0.170 C  
HETATM    2  C   UNL     1      -8.259   8.069  66.255  1.00  0.00    -0.116 C  
HETATM    3  C   UNL     1      -8.508   9.394  67.089  1.00  0.00    -0.128 C  
HETATM    4  C   UNL     1      -9.042   9.150  68.548  1.00  0.00    -0.132 C  
HETATM    5  C   UNL     1      -8.435   7.955  69.374  1.00  0.00    -0.133 C  
HETATM    6  C   UNL     1      -8.104   6.825  68.406  1.00  0.00    -0.119 C  
HETATM    7  C   UNL     1      -7.626   5.521  69.033  1.00  0.00    -0.087 C  
HETATM    8  C   UNL     1      -7.321   7.241  67.171  1.00  0.00    -0.094 C  
HETATM    9  C   UNL     1      -8.755   4.979  69.897  1.00  0.00    -0.122 C  
HETATM   10  C   UNL     1      -5.993   8.099  67.054  1.00  0.00    -0.053 C  
HETATM   11  C   UNL     1      -9.101   5.961  70.983  1.00  0.00    -0.156 C  
HETATM   12  C   UNL     1      -6.062   8.731  65.603  1.00  0.00    -0.052 C  
HETATM   13  C   UNL     1      -9.333   5.463  72.213  1.00  0.00    -0.158 C  
HETATM   14  C   UNL     1      -7.273   8.009  65.048  1.00  0.00    -0.069 C  
HETATM   15  C   UNL     1     -10.866   7.461  70.203  1.00  0.00    -0.270 C  
HETATM   16  C   UNL     1      -9.703   6.393  73.293  1.00  0.00    -0.163 C  
HETATM   17  O   UNL     1     -10.365   5.999  74.245  1.00  0.00    -0.281 OA 
HETATM   18  C   UNL     1      -9.359   7.435  70.592  1.00  0.00    -0.160 C  
HETATM   19  C   UNL     1      -9.097   7.754  73.213  1.00  0.00    -0.303 C  
HETATM   20  C   UNL     1      -9.185   8.394  71.819  1.00  0.00    -0.287 C  
ENDROOT
BRANCH  14  21
HETATM   21  O   UNL     1      -7.740   8.218  63.723  1.00  0.00    -0.129 OA 
BRANCH  21  22
HETATM   22  C   UNL     1      -7.962   9.568  63.502  1.00  0.00    -0.139 C  
HETATM   23  O   UNL     1      -7.090  10.431  63.576  1.00  0.00    -0.110 OA 
BRANCH  22  24
HETATM   24  C   UNL     1      -9.316   9.891  62.908  1.00  0.00    -0.232 C  
BRANCH  24  25
HETATM   25  C   UNL     1      -9.790  11.287  63.250  1.00  0.00    -0.418 C  
BRANCH  25  26
HETATM   26  C   UNL     1     -10.774  11.337  64.420  1.00  0.00    -0.407 C  
HETATM   27  C   UNL     1     -10.123  12.009  65.626  1.00  0.00    -0.272 C  
HETATM   28  C   UNL     1     -11.303  12.396  66.492  1.00  0.00    -0.392 C  
HETATM   29  C   UNL     1     -12.356  12.870  65.498  1.00  0.00    -0.517 C  
HETATM   30  C   UNL     1     -12.041  12.167  64.174  1.00  0.00    -0.501 C  
ENDBRANCH  25  26
ENDBRANCH  24  25
ENDBRANCH  22  24
ENDBRANCH  21  22
ENDBRANCH  14  21
TORSDOF 5
ENDMDL
MODEL      118
REMARK 921   NORMALIZED FREE ENERGY PREDICTED BY IDOCK:   -3.97 KCAL/MOL
REMARK 922        TOTAL FREE ENERGY PREDICTED BY IDOCK:   -6.47 KCAL/MOL
REMARK 923 INTER-LIGAND FREE ENERGY PREDICTED BY IDOCK:   -4.80 KCAL/MOL
REMARK 924 INTRA-LIGAND FREE ENERGY PREDICTED BY IDOCK:   -1.68 KCAL/MOL
REMARK 927      BINDING AFFINITY PREDICTED BY RF-SCORE:    0.00 PKD
ROOT
HETATM    1  C   UNL     1     -10.347   5.380  68.848  1.00  0.00    -0.260 C  
HETATM    2  C   UNL     1      -8.931   5.571  69.391  1.00  0.00    -0.120 C  
HETATM    3  C   UNL     1      -7.958   5.798  68.161  1.00  0.00    -0.104 C  
HETATM    4  C   UNL     1      -8.092   7.211  67.482  1.00  0.00    -0.113 C  
HETATM    5  C   UNL     1      -8.288   8.468  68.408  1.00  0.00    -0.124 C  
HETATM    6  C   UNL     1      -9.107   8.044  69.622  1.00  0.00    -0.152 C  
HETATM    7  C   UNL     1      -9.520   9.157  70.578  1.00  0.00    -0.291 C  
HETATM    8  C   UNL     1      -8.628   6.779  70.315  1.00  0.00    -0.140 C  
HETATM    9  C   UNL     1     -10.419  10.117  69.813  1.00  0.00    -0.301 C  
HETATM   10  C   UNL     1      -7.175   6.387  70.816  1.00  0.00    -0.074 C  
HETATM   11  C   UNL     1      -9.680  10.708  68.643  1.00  0.00    -0.178 C  
HETATM   12  C   UNL     1      -7.176   4.802  70.813  1.00  0.00    -0.049 C  
HETATM   13  C   UNL     1      -9.849  12.024  68.409  1.00  0.00    -0.204 C  
HETATM   14  C   UNL     1      -8.636   4.530  70.515  1.00  0.00    -0.085 C  
HETATM   15  C   UNL     1     -10.037   9.323  66.662  1.00  0.00    -0.341 C  
HETATM   16  C   UNL     1      -9.163  12.628  67.254  1.00  0.00    -0.195 C  
HETATM   17  O   UNL     1      -9.623  13.630  66.721  1.00  0.00    -0.258 OA 
HETATM   18  C   UNL     1      -8.939   9.752  67.678  1.00  0.00    -0.133 C  
HETATM   19  C   UNL     1      -7.838  12.039  66.905  1.00  0.00    -0.095 C  
HETATM   20  C   UNL     1      -7.830  10.503  66.866  1.00  0.00    -0.117 C  
ENDROOT
BRANCH  14  21
HETATM   21  O   UNL     1      -9.161   3.213  70.435  1.00  0.00    -0.116 OA 
BRANCH  21  22
HETATM   22  C   UNL     1      -9.784   2.874  71.626  1.00  0.00    -0.156 C  
HETATM   23  O   UNL     1     -10.493   1.881  71.774  1.00  0.00    -0.039 OA 
BRANCH  22  24
HETATM   24  C   UNL     1      -9.326   3.679  72.823  1.00  0.00    -0.145 C  
BRANCH  24  25
HETATM   25  C   UNL     1     -10.439   4.497  73.440  1.00  0.00    -0.264 C  
BRANCH  25  26
HETATM   26  C   UNL     1     -10.648   5.859  72.777  1.00  0.00    -0.257 C  
HETATM   27  C   UNL     1     -11.998   5.895  72.066  1.00  0.00    -0.141 C  
HETATM   28  C   UNL     1     -12.258   7.376  71.879  1.00  0.00    -0.344 C  
HETATM   29  C   UNL     1     -11.762   8.007  73.175  1.00  0.00     0.222 C  
HETATM   30  C   UNL     1     -10.705   7.054  73.738  1.00  0.00    -0.220 C  
ENDBRANCH  25  26
ENDBRANCH  24  25
ENDBRANCH  22  24
ENDBRANCH  21  22
ENDBRANCH  14  21
TORSDOF 5
ENDMDL
MODEL      119
REMARK 921   NORMALIZED FREE ENERGY PREDICTED BY IDOCK:   -3.95 KCAL/MOL
REMARK 922        TOTAL FREE ENERGY PREDICTED BY IDOCK:   -6.44 KCAL/MOL
REMARK 923 INTER-LIGAND FREE ENERGY PREDICTED BY IDOCK:   -5.94 KCAL/MOL
REMARK 924 INTRA-LIGAND FREE ENERGY PREDICTED BY IDOCK:   -0.50 KCAL/MOL
REMARK 927      BINDING AFFINITY PREDICTED BY RF-SCORE:    0.00 PKD
ROOT
HETATM    1  C   UNL     1     -10.335  10.492  69.581  1.00  0.00    -0.231 C  
HETATM    2  C   UNL     1     -10.149  10.456  68.063  1.00  0.00    -0.189 C  
HETATM    3  C   UNL     1     -11.411  11.145  67.396  1.00  0.00    -0.329 C  
HETATM    4  C   UNL     1     -11.446  12.711  67.545  1.00  0.00    -0.397 C  
HETATM    5  C   UNL     1     -10.097  13.506  67.383  1.00  0.00    -0.237 C  
HETATM    6  C   UNL     1      -8.965  12.641  67.926  1.00  0.00    -0.189 C  
HETATM    7  C   UNL     1      -7.588  13.292  67.981  1.00  0.00    -0.145 C  
HETATM    8  C   UNL     1      -8.952  11.206  67.425  1.00  0.00    -0.139 C  
HETATM    9  C   UNL     1      -7.671  14.475  68.935  1.00  0.00    -0.132 C  
HETATM   10  C   UNL     1      -9.034  10.649  65.943  1.00  0.00    -0.192 C  
HETATM   11  C   UNL     1      -8.680  15.476  68.442  1.00  0.00    -0.174 C  
HETATM   12  C   UNL     1      -9.635   9.192  66.106  1.00  0.00    -0.333 C  
HETATM   13  C   UNL     1      -8.347  16.779  68.527  1.00  0.00    -0.243 C  
HETATM   14  C   UNL     1      -9.621   9.058  67.615  1.00  0.00    -0.150 C  
HETATM   15  C   UNL     1     -10.869  14.975  69.404  1.00  0.00    -0.265 C  
HETATM   16  C   UNL     1      -9.324  17.786  68.081  1.00  0.00    -0.281 C  
HETATM   17  O   UNL     1      -9.300  18.917  68.551  1.00  0.00    -0.335 OA 
HETATM   18  C   UNL     1     -10.091  14.974  68.056  1.00  0.00    -0.223 C  
HETATM   19  C   UNL     1     -10.202  17.380  66.945  1.00  0.00    -0.322 C  
HETATM   20  C   UNL     1     -10.819  15.982  67.104  1.00  0.00    -0.239 C  
ENDROOT
BRANCH  14  21
HETATM   21  O   UNL     1     -10.052   7.876  68.276  1.00  0.00    -0.182 OA 
BRANCH  21  22
HETATM   22  C   UNL     1     -10.112   6.822  67.378  1.00  0.00    -0.175 C  
HETATM   23  O   UNL     1     -11.104   6.546  66.707  1.00  0.00    -0.362 OA 
BRANCH  22  24
HETATM   24  C   UNL     1      -8.777   6.173  67.084  1.00  0.00    -0.106 C  
BRANCH  24  25
HETATM   25  C   UNL     1      -8.852   5.157  65.965  1.00  0.00    -0.137 C  
BRANCH  25  26
HETATM   26  C   UNL     1      -7.802   5.362  64.872  1.00  0.00    -0.102 C  
HETATM   27  C   UNL     1      -8.482   5.715  63.551  1.00  0.00     0.020 C  
HETATM   28  C   UNL     1      -7.362   6.325  62.732  1.00  0.00    -0.060 C  
HETATM   29  C   UNL     1      -6.577   7.158  63.738  1.00  0.00    -0.044 C  
HETATM   30  C   UNL     1      -6.829   6.525  65.109  1.00  0.00    -0.047 C  
ENDBRANCH  25  26
ENDBRANCH  24  25
ENDBRANCH  22  24
ENDBRANCH  21  22
ENDBRANCH  14  21
TORSDOF 5
ENDMDL
MODEL      120
REMARK 921   NORMALIZED FREE ENERGY PREDICTED BY IDOCK:   -3.94 KCAL/MOL
REMARK 922        TOTAL FREE ENERGY PREDICTED BY IDOCK:   -6.43 KCAL/MOL
REMARK 923 INTER-LIGAND FREE ENERGY PREDICTED BY IDOCK:   -5.79 KCAL/MOL
REMARK 924 INTRA-LIGAND FREE ENERGY PREDICTED BY IDOCK:   -0.64 KCAL/MOL
REMARK 927      BINDING AFFINITY PREDICTED BY RF-SCORE:    0.00 PKD
ROOT
HETATM    1  C   UNL     1      -9.826  10.057  64.774  1.00  0.00    -0.325 C  
HETATM    2  C   UNL     1      -9.638  10.394  66.254  1.00  0.00    -0.230 C  
HETATM    3  C   UNL     1     -10.629   9.488  67.096  1.00  0.00    -0.295 C  
HETATM    4  C   UNL     1     -10.202   7.977  67.190  1.00  0.00    -0.362 C  
HETATM    5  C   UNL     1      -8.676   7.644  67.387  1.00  0.00    -0.124 C  
HETATM    6  C   UNL     1      -7.859   8.699  66.649  1.00  0.00    -0.097 C  
HETATM    7  C   UNL     1      -6.352   8.475  66.609  1.00  0.00    -0.059 C  
HETATM    8  C   UNL     1      -8.263  10.138  66.923  1.00  0.00    -0.122 C  
HETATM    9  C   UNL     1      -6.094   7.179  65.853  1.00  0.00    -0.037 C  
HETATM   10  C   UNL     1      -8.485  10.883  68.306  1.00  0.00    -0.134 C  
HETATM   11  C   UNL     1      -6.755   6.024  66.555  1.00  0.00    -0.060 C  
HETATM   12  C   UNL     1      -9.493  12.056  67.960  1.00  0.00    -0.199 C  
HETATM   13  C   UNL     1      -6.053   4.877  66.649  1.00  0.00    -0.031 C  
HETATM   14  C   UNL     1      -9.541  11.939  66.450  1.00  0.00    -0.225 C  
HETATM   15  C   UNL     1      -9.008   5.704  65.666  1.00  0.00    -0.139 C  
HETATM   16  C   UNL     1      -6.681   3.718  67.303  1.00  0.00    -0.046 C  
HETATM   17  O   UNL     1      -6.331   2.582  67.010  1.00  0.00    -0.027 OA 
HETATM   18  C   UNL     1      -8.246   6.152  66.946  1.00  0.00    -0.106 C  
HETATM   19  C   UNL     1      -7.624   4.032  68.416  1.00  0.00    -0.066 C  
HETATM   20  C   UNL     1      -8.629   5.146  68.085  1.00  0.00    -0.102 C  
ENDROOT
BRANCH  14  21
HETATM   21  O   UNL     1     -10.312  12.820  65.645  1.00  0.00    -0.271 OA 
BRANCH  21  22
HETATM   22  C   UNL     1     -11.510  13.118  66.276  1.00  0.00    -0.334 C  
HETATM   23  O   UNL     1     -12.343  12.276  66.602  1.00  0.00    -0.471 OA 
BRANCH  22  24
HETATM   24  C   UNL     1     -11.618  14.543  66.773  1.00  0.00    -0.388 C  
BRANCH  24  25
HETATM   25  C   UNL     1     -10.658  15.482  66.075  1.00  0.00    -0.333 C  
BRANCH  25  26
HETATM   26  C   UNL     1      -9.621  16.111  67.006  1.00  0.00    -0.233 C  
HETATM   27  C   UNL     1      -8.272  15.417  66.834  1.00  0.00    -0.281 C  
HETATM   28  C   UNL     1      -7.290  16.405  67.429  1.00  0.00    -0.184 C  
HETATM   29  C   UNL     1      -7.810  17.764  66.979  1.00  0.00    -0.234 C  
HETATM   30  C   UNL     1      -9.311  17.591  66.737  1.00  0.00    -0.275 C  
ENDBRANCH  25  26
ENDBRANCH  24  25
ENDBRANCH  22  24
ENDBRANCH  21  22
ENDBRANCH  14  21
TORSDOF 5
ENDMDL
MODEL      121
REMARK 921   NORMALIZED FREE ENERGY PREDICTED BY IDOCK:   -3.93 KCAL/MOL
REMARK 922        TOTAL FREE ENERGY PREDICTED BY IDOCK:   -6.42 KCAL/MOL
REMARK 923 INTER-LIGAND FREE ENERGY PREDICTED BY IDOCK:   -5.95 KCAL/MOL
REMARK 924 INTRA-LIGAND FREE ENERGY PREDICTED BY IDOCK:   -0.48 KCAL/MOL
REMARK 927      BINDING AFFINITY PREDICTED BY RF-SCORE:    0.00 PKD
ROOT
HETATM    1  C   UNL     1      -9.798   8.904  68.021  1.00  0.00    -0.199 C  
HETATM    2  C   UNL     1      -8.536   9.082  68.867  1.00  0.00    -0.131 C  
HETATM    3  C   UNL     1      -8.966   9.667  70.276  1.00  0.00    -0.263 C  
HETATM    4  C   UNL     1      -9.679   8.627  71.217  1.00  0.00    -0.305 C  
HETATM    5  C   UNL     1      -9.127   7.153  71.255  1.00  0.00    -0.151 C  
HETATM    6  C   UNL     1      -8.608   6.803  69.865  1.00  0.00    -0.141 C  
HETATM    7  C   UNL     1      -8.151   5.364  69.661  1.00  0.00    -0.099 C  
HETATM    8  C   UNL     1      -7.688   7.838  69.238  1.00  0.00    -0.100 C  
HETATM    9  C   UNL     1      -9.357   4.459  69.869  1.00  0.00    -0.225 C  
HETATM   10  C   UNL     1      -6.404   8.548  69.838  1.00  0.00    -0.034 C  
HETATM   11  C   UNL     1      -9.899   4.621  71.264  1.00  0.00    -0.261 C  
HETATM   12  C   UNL     1      -6.309   9.918  69.047  1.00  0.00    -0.040 C  
HETATM   13  C   UNL     1     -10.268   3.501  71.915  1.00  0.00    -0.100 C  
HETATM   14  C   UNL     1      -7.394   9.710  68.010  1.00  0.00    -0.082 C  
HETATM   15  C   UNL     1     -11.618   6.357  71.279  1.00  0.00    -0.370 C  
HETATM   16  C   UNL     1     -10.830   3.626  73.270  1.00  0.00    -0.193 C  
HETATM   17  O   UNL     1     -11.593   2.771  73.701  1.00  0.00    -0.205 OA 
HETATM   18  C   UNL     1     -10.179   6.050  71.786  1.00  0.00    -0.242 C  
HETATM   19  C   UNL     1     -10.292   4.747  74.094  1.00  0.00    -0.306 C  
HETATM   20  C   UNL     1     -10.224   6.090  73.351  1.00  0.00    -0.226 C  
ENDROOT
BRANCH  14  21
HETATM   21  O   UNL     1      -7.686  10.680  67.014  1.00  0.00    -0.110 OA 
BRANCH  21  22
HETATM   22  C   UNL     1      -6.992  11.852  67.269  1.00  0.00    -0.145 C  
HETATM   23  O   UNL     1      -5.878  12.104  66.816  1.00  0.00    -0.265 OA 
BRANCH  22  24
HETATM   24  C   UNL     1      -7.809  12.929  67.949  1.00  0.00    -0.151 C  
BRANCH  24  25
HETATM   25  C   UNL     1      -7.608  14.296  67.331  1.00  0.00    -0.185 C  
BRANCH  25  26
HETATM   26  C   UNL     1      -8.866  14.871  66.679  1.00  0.00    -0.287 C  
HETATM   27  C   UNL     1     -10.039  14.807  67.654  1.00  0.00    -0.227 C  
HETATM   28  C   UNL     1     -11.032  15.793  67.075  1.00  0.00    -0.221 C  
HETATM   29  C   UNL     1     -10.167  16.947  66.584  1.00  0.00    -0.312 C  
HETATM   30  C   UNL     1      -8.785  16.355  66.296  1.00  0.00    -0.369 C  
ENDBRANCH  25  26
ENDBRANCH  24  25
ENDBRANCH  22  24
ENDBRANCH  21  22
ENDBRANCH  14  21
TORSDOF 5
ENDMDL
MODEL      122
REMARK 921   NORMALIZED FREE ENERGY PREDICTED BY IDOCK:   -3.93 KCAL/MOL
REMARK 922        TOTAL FREE ENERGY PREDICTED BY IDOCK:   -6.42 KCAL/MOL
REMARK 923 INTER-LIGAND FREE ENERGY PREDICTED BY IDOCK:   -5.66 KCAL/MOL
REMARK 924 INTRA-LIGAND FREE ENERGY PREDICTED BY IDOCK:   -0.75 KCAL/MOL
REMARK 927      BINDING AFFINITY PREDICTED BY RF-SCORE:    0.00 PKD
ROOT
HETATM    1  C   UNL     1      -9.622  10.199  67.464  1.00  0.00    -0.180 C  
HETATM    2  C   UNL     1      -8.939   9.778  66.162  1.00  0.00    -0.181 C  
HETATM    3  C   UNL     1      -7.403   9.536  66.468  1.00  0.00    -0.090 C  
HETATM    4  C   UNL     1      -7.104   8.218  67.273  1.00  0.00    -0.079 C  
HETATM    5  C   UNL     1      -7.916   6.920  66.908  1.00  0.00    -0.109 C  
HETATM    6  C   UNL     1      -9.319   7.339  66.484  1.00  0.00    -0.216 C  
HETATM    7  C   UNL     1     -10.307   6.209  66.217  1.00  0.00     0.004 C  
HETATM    8  C   UNL     1      -9.377   8.465  65.464  1.00  0.00     0.026 C  
HETATM    9  C   UNL     1     -10.501   5.445  67.519  1.00  0.00    -0.235 C  
HETATM   10  C   UNL     1      -8.617   8.620  64.081  1.00  0.00    -0.033 C  
HETATM   11  C   UNL     1      -9.193   4.869  67.989  1.00  0.00    -0.147 C  
HETATM   12  C   UNL     1      -8.554  10.184  63.843  1.00  0.00    -0.197 C  
HETATM   13  C   UNL     1      -9.213   3.611  68.473  1.00  0.00    -0.220 C  
HETATM   14  C   UNL     1      -9.430  10.670  64.980  1.00  0.00    -0.243 C  
HETATM   15  C   UNL     1      -8.083   6.458  69.476  1.00  0.00    -0.118 C  
HETATM   16  C   UNL     1      -7.956   3.027  68.969  1.00  0.00    -0.055 C  
HETATM   17  O   UNL     1      -7.980   2.145  69.818  1.00  0.00    -0.042 OA 
HETATM   18  C   UNL     1      -7.962   5.801  68.071  1.00  0.00    -0.101 C  
HETATM   19  C   UNL     1      -6.715   3.468  68.267  1.00  0.00    -0.046 C  
HETATM   20  C   UNL     1      -6.624   4.987  68.057  1.00  0.00    -0.050 C  
ENDROOT
BRANCH  14  21
HETATM   21  O   UNL     1      -9.717  12.046  65.183  1.00  0.00    -0.228 OA 
BRANCH  21  22
HETATM   22  C   UNL     1     -11.055  12.299  64.922  1.00  0.00    -0.311 C  
HETATM   23  O   UNL     1     -11.709  11.717  64.059  1.00  0.00    -0.372 OA 
BRANCH  22  24
HETATM   24  C   UNL     1     -11.739  13.173  65.950  1.00  0.00    -0.427 C  
BRANCH  24  25
HETATM   25  C   UNL     1     -10.907  13.371  67.199  1.00  0.00    -0.284 C  
BRANCH  25  26
HETATM   26  C   UNL     1     -11.703  13.891  68.397  1.00  0.00    -0.391 C  
HETATM   27  C   UNL     1     -11.714  12.849  69.512  1.00  0.00    -0.387 C  
HETATM   28  C   UNL     1     -12.104  13.651  70.738  1.00  0.00    -0.374 C  
HETATM   29  C   UNL     1     -11.360  14.970  70.572  1.00  0.00    -0.316 C  
HETATM   30  C   UNL     1     -11.129  15.146  69.069  1.00  0.00    -0.260 C  
ENDBRANCH  25  26
ENDBRANCH  24  25
ENDBRANCH  22  24
ENDBRANCH  21  22
ENDBRANCH  14  21
TORSDOF 5
ENDMDL
MODEL      123
REMARK 921   NORMALIZED FREE ENERGY PREDICTED BY IDOCK:   -3.90 KCAL/MOL
REMARK 922        TOTAL FREE ENERGY PREDICTED BY IDOCK:   -6.38 KCAL/MOL
REMARK 923 INTER-LIGAND FREE ENERGY PREDICTED BY IDOCK:   -5.73 KCAL/MOL
REMARK 924 INTRA-LIGAND FREE ENERGY PREDICTED BY IDOCK:   -0.65 KCAL/MOL
REMARK 927      BINDING AFFINITY PREDICTED BY RF-SCORE:    0.00 PKD
ROOT
HETATM    1  C   UNL     1     -10.821   7.882  67.238  1.00  0.00    -0.189 C  
HETATM    2  C   UNL     1      -9.351   8.177  67.542  1.00  0.00    -0.165 C  
HETATM    3  C   UNL     1      -9.288   9.071  68.848  1.00  0.00    -0.143 C  
HETATM    4  C   UNL     1      -9.604   8.294  70.179  1.00  0.00    -0.167 C  
HETATM    5  C   UNL     1      -9.029   6.838  70.348  1.00  0.00    -0.152 C  
HETATM    6  C   UNL     1      -9.008   6.172  68.977  1.00  0.00    -0.125 C  
HETATM    7  C   UNL     1      -8.607   4.702  68.950  1.00  0.00    -0.098 C  
HETATM    8  C   UNL     1      -8.391   7.003  67.864  1.00  0.00    -0.118 C  
HETATM    9  C   UNL     1      -9.640   3.923  69.750  1.00  0.00    -0.271 C  
HETATM   10  C   UNL     1      -7.000   7.762  67.818  1.00  0.00    -0.081 C  
HETATM   11  C   UNL     1      -9.675   4.407  71.174  1.00  0.00    -0.256 C  
HETATM   12  C   UNL     1      -7.223   8.923  66.764  1.00  0.00    -0.082 C  
HETATM   13  C   UNL     1      -9.765   3.473  72.140  1.00  0.00    -0.230 C  
HETATM   14  C   UNL     1      -8.591   8.549  66.231  1.00  0.00    -0.129 C  
HETATM   15  C   UNL     1     -11.335   6.187  71.395  1.00  0.00    -0.336 C  
HETATM   16  C   UNL     1      -9.831   3.914  73.543  1.00  0.00    -0.115 C  
HETATM   17  O   UNL     1     -10.374   3.210  74.385  1.00  0.00    -0.151 OA 
HETATM   18  C   UNL     1      -9.801   5.927  71.434  1.00  0.00    -0.205 C  
HETATM   19  C   UNL     1      -9.076   5.160  73.868  1.00  0.00    -0.119 C  
HETATM   20  C   UNL     1      -9.307   6.306  72.872  1.00  0.00    -0.140 C  
ENDROOT
BRANCH  14  21
HETATM   21  O   UNL     1      -9.237   9.294  65.208  1.00  0.00    -0.224 OA 
BRANCH  21  22
HETATM   22  C   UNL     1      -8.534  10.462  64.952  1.00  0.00    -0.175 C  
HETATM   23  O   UNL     1      -7.941  10.691  63.900  1.00  0.00    -0.056 OA 
BRANCH  22  24
HETATM   24  C   UNL     1      -8.756  11.562  65.967  1.00  0.00    -0.095 C  
BRANCH  24  25
HETATM   25  C   UNL     1     -10.172  11.590  66.501  1.00  0.00    -0.253 C  
BRANCH  25  26
HETATM   26  C   UNL     1     -11.150  12.372  65.623  1.00  0.00    -0.343 C  
HETATM   27  C   UNL     1     -12.311  12.892  66.465  1.00  0.00    -0.088 C  
HETATM   28  C   UNL     1     -12.907  13.988  65.605  1.00  0.00    -0.442 C  
HETATM   29  C   UNL     1     -11.696  14.677  64.989  1.00  0.00    -0.385 C  
HETATM   30  C   UNL     1     -10.574  13.635  64.967  1.00  0.00    -0.394 C  
ENDBRANCH  25  26
ENDBRANCH  24  25
ENDBRANCH  22  24
ENDBRANCH  21  22
ENDBRANCH  14  21
TORSDOF 5
ENDMDL
MODEL      124
REMARK 921   NORMALIZED FREE ENERGY PREDICTED BY IDOCK:   -3.89 KCAL/MOL
REMARK 922        TOTAL FREE ENERGY PREDICTED BY IDOCK:   -6.37 KCAL/MOL
REMARK 923 INTER-LIGAND FREE ENERGY PREDICTED BY IDOCK:   -5.83 KCAL/MOL
REMARK 924 INTRA-LIGAND FREE ENERGY PREDICTED BY IDOCK:   -0.54 KCAL/MOL
REMARK 927      BINDING AFFINITY PREDICTED BY RF-SCORE:    0.00 PKD
ROOT
HETATM    1  C   UNL     1     -10.053   8.038  68.159  1.00  0.00    -0.234 C  
HETATM    2  C   UNL     1     -10.266   8.715  69.514  1.00  0.00    -0.209 C  
HETATM    3  C   UNL     1      -8.893   9.368  69.960  1.00  0.00    -0.231 C  
HETATM    4  C   UNL     1      -8.504  10.665  69.159  1.00  0.00    -0.134 C  
HETATM    5  C   UNL     1      -9.641  11.696  68.809  1.00  0.00    -0.083 C  
HETATM    6  C   UNL     1     -10.930  10.919  68.565  1.00  0.00    -0.278 C  
HETATM    7  C   UNL     1     -12.124  11.732  68.080  1.00  0.00    -0.040 C  
HETATM    8  C   UNL     1     -11.275   9.888  69.628  1.00  0.00    -0.251 C  
HETATM    9  C   UNL     1     -11.763  12.328  66.727  1.00  0.00    -0.411 C  
HETATM   10  C   UNL     1     -11.343  10.042  71.204  1.00  0.00    -0.397 C  
HETATM   11  C   UNL     1     -10.562  13.225  66.854  1.00  0.00    -0.264 C  
HETATM   12  C   UNL     1     -11.083   8.578  71.751  1.00  0.00    -0.378 C  
HETATM   13  C   UNL     1     -10.592  14.393  66.182  1.00  0.00    -0.298 C  
HETATM   14  C   UNL     1     -11.103   7.794  70.455  1.00  0.00    -0.251 C  
HETATM   15  C   UNL     1      -8.526  11.935  66.456  1.00  0.00    -0.097 C  
HETATM   16  C   UNL     1      -9.420  15.281  66.260  1.00  0.00    -0.309 C  
HETATM   17  O   UNL     1      -9.182  16.067  65.351  1.00  0.00    -0.292 OA 
HETATM   18  C   UNL     1      -9.306  12.682  67.576  1.00  0.00    -0.188 C  
HETATM   19  C   UNL     1      -8.674  15.259  67.552  1.00  0.00    -0.189 C  
HETATM   20  C   UNL     1      -8.385  13.845  68.080  1.00  0.00    -0.166 C  
ENDROOT
BRANCH  14  21
HETATM   21  O   UNL     1     -10.938   6.383  70.419  1.00  0.00    -0.258 OA 
BRANCH  21  22
HETATM   22  C   UNL     1     -10.671   5.901  71.690  1.00  0.00    -0.252 C  
HETATM   23  O   UNL     1     -11.494   5.320  72.393  1.00  0.00    -0.187 OA 
BRANCH  22  24
HETATM   24  C   UNL     1      -9.205   5.911  72.069  1.00  0.00    -0.154 C  
BRANCH  24  25
HETATM   25  C   UNL     1      -8.354   5.073  71.138  1.00  0.00    -0.115 C  
BRANCH  25  26
HETATM   26  C   UNL     1      -7.662   3.895  71.825  1.00  0.00    -0.065 C  
HETATM   27  C   UNL     1      -7.992   2.595  71.095  1.00  0.00    -0.053 C  
HETATM   28  C   UNL     1      -6.915   1.642  71.570  1.00  0.00    -0.027 C  
HETATM   29  C   UNL     1      -5.656   2.499  71.623  1.00  0.00    -0.008 C  
HETATM   30  C   UNL     1      -6.128   3.942  71.820  1.00  0.00    -0.014 C  
ENDBRANCH  25  26
ENDBRANCH  24  25
ENDBRANCH  22  24
ENDBRANCH  21  22
ENDBRANCH  14  21
TORSDOF 5
ENDMDL
MODEL      125
REMARK 921   NORMALIZED FREE ENERGY PREDICTED BY IDOCK:   -3.87 KCAL/MOL
REMARK 922        TOTAL FREE ENERGY PREDICTED BY IDOCK:   -6.34 KCAL/MOL
REMARK 923 INTER-LIGAND FREE ENERGY PREDICTED BY IDOCK:   -5.37 KCAL/MOL
REMARK 924 INTRA-LIGAND FREE ENERGY PREDICTED BY IDOCK:   -0.96 KCAL/MOL
REMARK 927      BINDING AFFINITY PREDICTED BY RF-SCORE:    0.00 PKD
ROOT
HETATM    1  C   UNL     1      -9.394  11.181  65.992  1.00  0.00    -0.228 C  
HETATM    2  C   UNL     1      -8.533  11.170  67.256  1.00  0.00    -0.137 C  
HETATM    3  C   UNL     1      -7.233  12.032  66.973  1.00  0.00    -0.096 C  
HETATM    4  C   UNL     1      -7.484  13.584  66.929  1.00  0.00     0.499 C  
HETATM    5  C   UNL     1      -8.475  14.211  67.979  1.00  0.00    -0.171 C  
HETATM    6  C   UNL     1      -9.577  13.195  68.260  1.00  0.00    -0.218 C  
HETATM    7  C   UNL     1     -10.714  13.667  69.157  1.00  0.00    -0.137 C  
HETATM    8  C   UNL     1      -9.094  11.785  68.564  1.00  0.00    -0.144 C  
HETATM    9  C   UNL     1     -11.414  14.819  68.453  1.00  0.00    -0.336 C  
HETATM   10  C   UNL     1      -7.996  11.290  69.595  1.00  0.00     0.494 C  
HETATM   11  C   UNL     1     -10.453  15.954  68.222  1.00  0.00    -0.257 C  
HETATM   12  C   UNL     1      -7.488   9.915  68.995  1.00  0.00    -0.083 C  
HETATM   13  C   UNL     1     -10.906  17.202  68.451  1.00  0.00    -0.309 C  
HETATM   14  C   UNL     1      -8.473   9.732  67.858  1.00  0.00    -0.125 C  
HETATM   15  C   UNL     1      -9.393  15.699  66.035  1.00  0.00    -0.384 C  
HETATM   16  C   UNL     1     -10.001  18.336  68.206  1.00  0.00    -0.364 C  
HETATM   17  O   UNL     1     -10.457  19.440  67.933  1.00  0.00    -0.410 OA 
HETATM   18  C   UNL     1      -9.090  15.643  67.560  1.00  0.00    -0.198 C  
HETATM   19  C   UNL     1      -8.554  18.080  68.465  1.00  0.00    -0.306 C  
HETATM   20  C   UNL     1      -8.038  16.764  67.861  1.00  0.00    -0.189 C  
ENDROOT
BRANCH  14  21
HETATM   21  O   UNL     1      -8.449   8.593  67.010  1.00  0.00    -0.109 OA 
BRANCH  21  22
HETATM   22  C   UNL     1      -9.621   7.867  67.152  1.00  0.00    -0.171 C  
HETATM   23  O   UNL     1     -10.027   7.048  66.331  1.00  0.00    -0.128 OA 
BRANCH  22  24
HETATM   24  C   UNL     1     -10.254   7.962  68.524  1.00  0.00    -0.229 C  
BRANCH  24  25
HETATM   25  C   UNL     1     -11.253   9.094  68.631  1.00  0.00     0.246 C  
BRANCH  25  26
HETATM   26  C   UNL     1     -11.369   9.687  70.036  1.00  0.00    -0.239 C  
HETATM   27  C   UNL     1     -12.492  10.720  70.079  1.00  0.00    -0.317 C  
HETATM   28  C   UNL     1     -12.785  10.858  71.559  1.00  0.00    -0.533 C  
HETATM   29  C   UNL     1     -12.678   9.435  72.094  1.00  0.00    -0.460 C  
HETATM   30  C   UNL     1     -11.744   8.687  71.139  1.00  0.00    -0.334 C  
ENDBRANCH  25  26
ENDBRANCH  24  25
ENDBRANCH  22  24
ENDBRANCH  21  22
ENDBRANCH  14  21
TORSDOF 5
ENDMDL
MODEL      126
REMARK 921   NORMALIZED FREE ENERGY PREDICTED BY IDOCK:   -3.82 KCAL/MOL
REMARK 922        TOTAL FREE ENERGY PREDICTED BY IDOCK:   -6.28 KCAL/MOL
REMARK 923 INTER-LIGAND FREE ENERGY PREDICTED BY IDOCK:   -5.67 KCAL/MOL
REMARK 924 INTRA-LIGAND FREE ENERGY PREDICTED BY IDOCK:   -0.61 KCAL/MOL
REMARK 927      BINDING AFFINITY PREDICTED BY RF-SCORE:    0.00 PKD
ROOT
HETATM    1  C   UNL     1      -7.142  12.582  67.357  1.00  0.00    -0.146 C  
HETATM    2  C   UNL     1      -6.362  13.103  68.564  1.00  0.00    -0.082 C  
HETATM    3  C   UNL     1      -5.237  14.087  68.036  1.00  0.00    -0.098 C  
HETATM    4  C   UNL     1      -5.776  15.480  67.542  1.00  0.00    -0.055 C  
HETATM    5  C   UNL     1      -6.921  16.173  68.370  1.00  0.00    -0.129 C  
HETATM    6  C   UNL     1      -7.822  15.084  68.941  1.00  0.00    -0.162 C  
HETATM    7  C   UNL     1      -9.074  15.559  69.668  1.00  0.00    -0.187 C  
HETATM    8  C   UNL     1      -7.097  13.945  69.639  1.00  0.00     0.151 C  
HETATM    9  C   UNL     1      -9.943  16.300  68.662  1.00  0.00    -0.233 C  
HETATM   10  C   UNL     1      -5.980  13.993  70.764  1.00  0.00    -0.188 C  
HETATM   11  C   UNL     1      -9.204  17.487  68.105  1.00  0.00    -0.277 C  
HETATM   12  C   UNL     1      -5.189  12.632  70.588  1.00  0.00    -0.137 C  
HETATM   13  C   UNL     1      -9.898  18.633  67.963  1.00  0.00    -0.378 C  
HETATM   14  C   UNL     1      -6.061  11.940  69.559  1.00  0.00    -0.108 C  
HETATM   15  C   UNL     1      -8.002  16.830  66.082  1.00  0.00    -0.273 C  
HETATM   16  C   UNL     1      -9.213  19.805  67.394  1.00  0.00    -0.338 C  
HETATM   17  O   UNL     1      -9.855  20.672  66.813  1.00  0.00    -0.392 OA 
HETATM   18  C   UNL     1      -7.774  17.275  67.555  1.00  0.00    -0.191 C  
HETATM   19  C   UNL     1      -7.759  19.924  67.708  1.00  0.00    -0.327 C  
HETATM   20  C   UNL     1      -6.971  18.620  67.510  1.00  0.00    -0.210 C  
ENDROOT
BRANCH  14  21
HETATM   21  O   UNL     1      -5.777  10.634  69.079  1.00  0.00    -0.041 OA 
BRANCH  21  22
HETATM   22  C   UNL     1      -6.569   9.702  69.732  1.00  0.00    -0.055 C  
HETATM   23  O   UNL     1      -7.207   9.938  70.755  1.00  0.00    -0.305 OA 
BRANCH  22  24
HETATM   24  C   UNL     1      -6.805   8.426  68.954  1.00  0.00    -0.061 C  
BRANCH  24  25
HETATM   25  C   UNL     1      -8.087   8.457  68.150  1.00  0.00    -0.120 C  
BRANCH  25  26
HETATM   26  C   UNL     1      -8.942   7.197  68.300  1.00  0.00    -0.125 C  
HETATM   27  C   UNL     1      -9.965   7.388  69.416  1.00  0.00    -0.176 C  
HETATM   28  C   UNL     1     -10.992   6.309  69.139  1.00  0.00    -0.442 C  
HETATM   29  C   UNL     1     -11.119   6.297  67.621  1.00  0.00    -0.368 C  
HETATM   30  C   UNL     1      -9.794   6.835  67.075  1.00  0.00    -0.217 C  
ENDBRANCH  25  26
ENDBRANCH  24  25
ENDBRANCH  22  24
ENDBRANCH  21  22
ENDBRANCH  14  21
TORSDOF 5
ENDMDL
MODEL      127
REMARK 921   NORMALIZED FREE ENERGY PREDICTED BY IDOCK:   -3.78 KCAL/MOL
REMARK 922        TOTAL FREE ENERGY PREDICTED BY IDOCK:   -6.22 KCAL/MOL
REMARK 923 INTER-LIGAND FREE ENERGY PREDICTED BY IDOCK:   -5.52 KCAL/MOL
REMARK 924 INTRA-LIGAND FREE ENERGY PREDICTED BY IDOCK:   -0.70 KCAL/MOL
REMARK 927      BINDING AFFINITY PREDICTED BY RF-SCORE:    0.00 PKD
ROOT
HETATM    1  C   UNL     1     -11.888   6.158  70.895  1.00  0.00    -0.078 C  
HETATM    2  C   UNL     1     -10.813   6.419  71.952  1.00  0.00    -0.279 C  
HETATM    3  C   UNL     1     -10.539   5.062  72.722  1.00  0.00    -0.274 C  
HETATM    4  C   UNL     1      -9.732   3.998  71.890  1.00  0.00    -0.236 C  
HETATM    5  C   UNL     1      -8.539   4.500  70.994  1.00  0.00    -0.126 C  
HETATM    6  C   UNL     1      -8.893   5.884  70.461  1.00  0.00    -0.147 C  
HETATM    7  C   UNL     1      -7.917   6.488  69.459  1.00  0.00    -0.117 C  
HETATM    8  C   UNL     1      -9.399   6.868  71.503  1.00  0.00    -0.155 C  
HETATM    9  C   UNL     1      -7.893   5.589  68.232  1.00  0.00    -0.089 C  
HETATM   10  C   UNL     1      -8.777   7.268  72.905  1.00  0.00    -0.152 C  
HETATM   11  C   UNL     1      -7.436   4.205  68.606  1.00  0.00    -0.055 C  
HETATM   12  C   UNL     1     -10.019   7.762  73.757  1.00  0.00    -0.027 C  
HETATM   13  C   UNL     1      -6.573   3.594  67.770  1.00  0.00    -0.042 C  
HETATM   14  C   UNL     1     -11.097   7.763  72.692  1.00  0.00    -0.376 C  
HETATM   15  C   UNL     1      -9.373   2.825  69.168  1.00  0.00    -0.206 C  
HETATM   16  C   UNL     1      -6.129   2.227  68.091  1.00  0.00    -0.024 C  
HETATM   17  O   UNL     1      -5.765   1.473  67.197  1.00  0.00    -0.017 OA 
HETATM   18  C   UNL     1      -8.120   3.498  69.800  1.00  0.00    -0.063 C  
HETATM   19  C   UNL     1      -6.013   1.907  69.543  1.00  0.00    -0.023 C  
HETATM   20  C   UNL     1      -7.224   2.351  70.378  1.00  0.00    -0.033 C  
ENDROOT
BRANCH  14  21
HETATM   21  O   UNL     1     -12.430   8.171  72.963  1.00  0.00    -0.117 OA 
BRANCH  21  22
HETATM   22  C   UNL     1     -12.727   9.328  72.260  1.00  0.00    -0.363 C  
HETATM   23  O   UNL     1     -13.757   9.981  72.412  1.00  0.00    -0.297 OA 
BRANCH  22  24
HETATM   24  C   UNL     1     -11.572   9.888  71.458  1.00  0.00    -0.375 C  
BRANCH  24  25
HETATM   25  C   UNL     1     -11.916  10.093  69.998  1.00  0.00    -0.210 C  
BRANCH  25  26
HETATM   26  C   UNL     1     -12.383  11.510  69.666  1.00  0.00    -0.207 C  
HETATM   27  C   UNL     1     -12.242  12.410  70.891  1.00  0.00    -0.290 C  
HETATM   28  C   UNL     1     -12.284  13.807  70.307  1.00  0.00    -0.429 C  
HETATM   29  C   UNL     1     -11.481  13.696  69.017  1.00  0.00    -0.346 C  
HETATM   30  C   UNL     1     -11.568  12.231  68.583  1.00  0.00    -0.372 C  
ENDBRANCH  25  26
ENDBRANCH  24  25
ENDBRANCH  22  24
ENDBRANCH  21  22
ENDBRANCH  14  21
TORSDOF 5
ENDMDL
MODEL      128
REMARK 921   NORMALIZED FREE ENERGY PREDICTED BY IDOCK:   -3.65 KCAL/MOL
REMARK 922        TOTAL FREE ENERGY PREDICTED BY IDOCK:   -6.06 KCAL/MOL
REMARK 923 INTER-LIGAND FREE ENERGY PREDICTED BY IDOCK:   -5.43 KCAL/MOL
REMARK 924 INTRA-LIGAND FREE ENERGY PREDICTED BY IDOCK:   -0.63 KCAL/MOL
REMARK 927      BINDING AFFINITY PREDICTED BY RF-SCORE:    0.00 PKD
ROOT
HETATM    1  C   UNL     1      -7.670  11.319  66.265  1.00  0.00    -0.053 C  
HETATM    2  C   UNL     1      -7.447  11.435  67.774  1.00  0.00    -0.100 C  
HETATM    3  C   UNL     1      -8.856  11.325  68.491  1.00  0.00    -0.159 C  
HETATM    4  C   UNL     1      -9.465   9.875  68.500  1.00  0.00    -0.149 C  
HETATM    5  C   UNL     1      -8.498   8.660  68.759  1.00  0.00    -0.129 C  
HETATM    6  C   UNL     1      -7.142   8.992  68.146  1.00  0.00    -0.078 C  
HETATM    7  C   UNL     1      -6.101   7.880  68.175  1.00  0.00    -0.042 C  
HETATM    8  C   UNL     1      -6.591  10.364  68.500  1.00  0.00    -0.052 C  
HETATM    9  C   UNL     1      -6.634   6.722  67.344  1.00  0.00    -0.054 C  
HETATM   10  C   UNL     1      -6.427  11.056  69.917  1.00  0.00    -0.144 C  
HETATM   11  C   UNL     1      -7.927   6.214  67.922  1.00  0.00    -0.110 C  
HETATM   12  C   UNL     1      -6.457  12.608  69.600  1.00  0.00    -0.050 C  
HETATM   13  C   UNL     1      -8.097   4.878  67.974  1.00  0.00    -0.093 C  
HETATM   14  C   UNL     1      -6.432  12.578  68.085  1.00  0.00    -0.076 C  
HETATM   15  C   UNL     1      -9.805   7.386  66.886  1.00  0.00    -0.284 C  
HETATM   16  C   UNL     1      -9.363   4.349  68.506  1.00  0.00    -0.145 C  
HETATM   17  O   UNL     1      -9.767   3.248  68.152  1.00  0.00    -0.132 OA 
HETATM   18  C   UNL     1      -9.047   7.235  68.237  1.00  0.00    -0.134 C  
HETATM   19  C   UNL     1     -10.003   5.158  69.583  1.00  0.00    -0.313 C  
HETATM   20  C   UNL     1     -10.069   6.662  69.277  1.00  0.00    -0.187 C  
ENDROOT
BRANCH  14  21
HETATM   21  O   UNL     1      -6.417  13.764  67.304  1.00  0.00    -0.281 OA 
BRANCH  21  22
HETATM   22  C   UNL     1      -7.201  14.740  67.901  1.00  0.00    -0.156 C  
HETATM   23  O   UNL     1      -6.772  15.579  68.689  1.00  0.00    -0.103 OA 
BRANCH  22  24
HETATM   24  C   UNL     1      -8.592  14.869  67.318  1.00  0.00    -0.232 C  
BRANCH  24  25
HETATM   25  C   UNL     1      -8.732  16.059  66.394  1.00  0.00    -0.362 C  
BRANCH  25  26
HETATM   26  C   UNL     1      -9.409  17.268  67.040  1.00  0.00    -0.257 C  
HETATM   27  C   UNL     1      -8.397  18.395  67.230  1.00  0.00    -0.251 C  
HETATM   28  C   UNL     1      -9.268  19.620  67.422  1.00  0.00    -0.412 C  
HETATM   29  C   UNL     1     -10.411  19.423  66.435  1.00  0.00    -0.575 C  
HETATM   30  C   UNL     1     -10.528  17.913  66.211  1.00  0.00    -0.320 C  
ENDBRANCH  25  26
ENDBRANCH  24  25
ENDBRANCH  22  24
ENDBRANCH  21  22
ENDBRANCH  14  21
TORSDOF 5
ENDMDL
MODEL      129
REMARK 921   NORMALIZED FREE ENERGY PREDICTED BY IDOCK:   -3.65 KCAL/MOL
REMARK 922        TOTAL FREE ENERGY PREDICTED BY IDOCK:   -6.06 KCAL/MOL
REMARK 923 INTER-LIGAND FREE ENERGY PREDICTED BY IDOCK:   -5.53 KCAL/MOL
REMARK 924 INTRA-LIGAND FREE ENERGY PREDICTED BY IDOCK:   -0.53 KCAL/MOL
REMARK 927      BINDING AFFINITY PREDICTED BY RF-SCORE:    0.00 PKD
ROOT
HETATM    1  C   UNL     1     -10.573  11.038  68.848  1.00  0.00    -0.239 C  
HETATM    2  C   UNL     1      -9.487  11.093  67.772  1.00  0.00    -0.173 C  
HETATM    3  C   UNL     1     -10.177  11.467  66.395  1.00  0.00    -0.270 C  
HETATM    4  C   UNL     1     -10.629  12.969  66.285  1.00  0.00    -0.283 C  
HETATM    5  C   UNL     1      -9.678  14.080  66.868  1.00  0.00    -0.272 C  
HETATM    6  C   UNL     1      -8.972  13.508  68.092  1.00  0.00    -0.187 C  
HETATM    7  C   UNL     1      -8.103  14.478  68.882  1.00  0.00    -0.124 C  
HETATM    8  C   UNL     1      -8.347  12.136  67.896  1.00  0.00    -0.161 C  
HETATM    9  C   UNL     1      -9.006  15.575  69.426  1.00  0.00    -0.275 C  
HETATM   10  C   UNL     1      -7.375  11.620  66.754  1.00  0.00    -0.083 C  
HETATM   11  C   UNL     1      -9.680  16.308  68.298  1.00  0.00    -0.222 C  
HETATM   12  C   UNL     1      -7.619  10.055  66.710  1.00  0.00    -0.103 C  
HETATM   13  C   UNL     1      -9.758  17.650  68.394  1.00  0.00    -0.321 C  
HETATM   14  C   UNL     1      -8.513   9.885  67.923  1.00  0.00    -0.121 C  
HETATM   15  C   UNL     1     -11.824  15.250  67.796  1.00  0.00    -0.111 C  
HETATM   16  C   UNL     1     -10.437  18.395  67.321  1.00  0.00    -0.405 C  
HETATM   17  O   UNL     1     -10.950  19.482  67.557  1.00  0.00    -0.452 OA 
HETATM   18  C   UNL     1     -10.403  15.482  67.208  1.00  0.00    -0.267 C  
HETATM   19  C   UNL     1     -10.314  17.817  65.951  1.00  0.00    -0.257 C  
HETATM   20  C   UNL     1     -10.580  16.305  65.887  1.00  0.00    -0.307 C  
ENDROOT
BRANCH  14  21
HETATM   21  O   UNL     1      -8.995   8.614  68.337  1.00  0.00    -0.141 OA 
BRANCH  21  22
HETATM   22  C   UNL     1      -7.981   7.895  68.951  1.00  0.00    -0.123 C  
HETATM   23  O   UNL     1      -7.666   8.022  70.132  1.00  0.00    -0.083 OA 
BRANCH  22  24
HETATM   24  C   UNL     1      -7.443   6.744  68.129  1.00  0.00    -0.099 C  
BRANCH  24  25
HETATM   25  C   UNL     1      -8.261   5.480  68.285  1.00  0.00    -0.095 C  
BRANCH  25  26
HETATM   26  C   UNL     1      -7.712   4.513  69.334  1.00  0.00    -0.055 C  
HETATM   27  C   UNL     1      -8.569   4.565  70.596  1.00  0.00    -0.118 C  
HETATM   28  C   UNL     1      -8.212   3.282  71.318  1.00  0.00    -0.075 C  
HETATM   29  C   UNL     1      -8.087   2.251  70.203  1.00  0.00    -0.056 C  
HETATM   30  C   UNL     1      -7.734   3.031  68.934  1.00  0.00    -0.047 C  
ENDBRANCH  25  26
ENDBRANCH  24  25
ENDBRANCH  22  24
ENDBRANCH  21  22
ENDBRANCH  14  21
TORSDOF 5
ENDMDL
MODEL      130
REMARK 921   NORMALIZED FREE ENERGY PREDICTED BY IDOCK:   -3.64 KCAL/MOL
REMARK 922        TOTAL FREE ENERGY PREDICTED BY IDOCK:   -6.05 KCAL/MOL
REMARK 923 INTER-LIGAND FREE ENERGY PREDICTED BY IDOCK:   -5.32 KCAL/MOL
REMARK 924 INTRA-LIGAND FREE ENERGY PREDICTED BY IDOCK:   -0.72 KCAL/MOL
REMARK 927      BINDING AFFINITY PREDICTED BY RF-SCORE:    0.00 PKD
ROOT
HETATM    1  C   UNL     1     -10.540  10.588  65.623  1.00  0.00    -0.132 C  
HETATM    2  C   UNL     1     -10.073  10.298  67.050  1.00  0.00    -0.268 C  
HETATM    3  C   UNL     1      -8.550  10.721  67.166  1.00  0.00    -0.128 C  
HETATM    4  C   UNL     1      -8.313  12.276  67.201  1.00  0.00    -0.183 C  
HETATM    5  C   UNL     1      -9.310  13.165  68.035  1.00  0.00    -0.219 C  
HETATM    6  C   UNL     1     -10.695  12.533  67.952  1.00  0.00    -0.239 C  
HETATM    7  C   UNL     1     -11.833  13.322  68.588  1.00  0.00    -0.380 C  
HETATM    8  C   UNL     1     -10.743  11.040  68.235  1.00  0.00    -0.235 C  
HETATM    9  C   UNL     1     -11.958  14.642  67.842  1.00  0.00    -0.299 C  
HETATM   10  C   UNL     1     -10.142  10.220  69.451  1.00  0.00    -0.255 C  
HETATM   11  C   UNL     1     -10.679  15.428  67.951  1.00  0.00    -0.286 C  
HETATM   12  C   UNL     1      -9.925   8.762  68.870  1.00  0.00    -0.200 C  
HETATM   13  C   UNL     1     -10.788  16.753  68.175  1.00  0.00    -0.353 C  
HETATM   14  C   UNL     1     -10.595   8.904  67.519  1.00  0.00    -0.237 C  
HETATM   15  C   UNL     1      -9.219  14.886  66.069  1.00  0.00    -0.210 C  
HETATM   16  C   UNL     1      -9.557  17.557  68.257  1.00  0.00    -0.299 C  
HETATM   17  O   UNL     1      -9.582  18.750  67.982  1.00  0.00    -0.299 OA 
HETATM   18  C   UNL     1      -9.346  14.722  67.611  1.00  0.00    -0.195 C  
HETATM   19  C   UNL     1      -8.367  16.864  68.831  1.00  0.00    -0.208 C  
HETATM   20  C   UNL     1      -8.124  15.461  68.254  1.00  0.00    -0.136 C  
ENDROOT
BRANCH  14  21
HETATM   21  O   UNL     1     -10.692   7.823  66.602  1.00  0.00    -0.231 OA 
BRANCH  21  22
HETATM   22  C   UNL     1      -9.942   6.748  67.052  1.00  0.00    -0.177 C  
HETATM   23  O   UNL     1     -10.243   6.057  68.022  1.00  0.00    -0.149 OA 
BRANCH  22  24
HETATM   24  C   UNL     1      -8.842   6.312  66.107  1.00  0.00    -0.160 C  
BRANCH  24  25
HETATM   25  C   UNL     1      -8.886   7.041  64.781  1.00  0.00     0.478 C  
BRANCH  25  26
HETATM   26  C   UNL     1      -7.516   7.503  64.283  1.00  0.00    -0.098 C  
HETATM   27  C   UNL     1      -7.166   8.858  64.891  1.00  0.00    -0.091 C  
HETATM   28  C   UNL     1      -5.666   8.954  64.699  1.00  0.00    -0.063 C  
HETATM   29  C   UNL     1      -5.165   7.542  64.979  1.00  0.00    -0.029 C  
HETATM   30  C   UNL     1      -6.337   6.604  64.682  1.00  0.00    -0.038 C  
ENDBRANCH  25  26
ENDBRANCH  24  25
ENDBRANCH  22  24
ENDBRANCH  21  22
ENDBRANCH  14  21
TORSDOF 5
ENDMDL
MODEL      131
REMARK 921   NORMALIZED FREE ENERGY PREDICTED BY IDOCK:   -3.59 KCAL/MOL
REMARK 922        TOTAL FREE ENERGY PREDICTED BY IDOCK:   -5.98 KCAL/MOL
REMARK 923 INTER-LIGAND FREE ENERGY PREDICTED BY IDOCK:   -5.23 KCAL/MOL
REMARK 924 INTRA-LIGAND FREE ENERGY PREDICTED BY IDOCK:   -0.75 KCAL/MOL
REMARK 927      BINDING AFFINITY PREDICTED BY RF-SCORE:    0.00 PKD
ROOT
HETATM    1  C   UNL     1      -8.462   6.902  67.968  1.00  0.00    -0.124 C  
HETATM    2  C   UNL     1      -7.710   7.725  69.015  1.00  0.00    -0.109 C  
HETATM    3  C   UNL     1      -6.717   8.699  68.256  1.00  0.00    -0.065 C  
HETATM    4  C   UNL     1      -7.422   9.908  67.537  1.00  0.00    -0.091 C  
HETATM    5  C   UNL     1      -8.614  10.624  68.275  1.00  0.00    -0.128 C  
HETATM    6  C   UNL     1      -9.371   9.578  69.085  1.00  0.00    -0.163 C  
HETATM    7  C   UNL     1     -10.647  10.051  69.770  1.00  0.00    -0.301 C  
HETATM    8  C   UNL     1      -8.503   8.676  69.948  1.00  0.00    -0.129 C  
HETATM    9  C   UNL     1     -11.621  10.490  68.687  1.00  0.00    -0.241 C  
HETATM   10  C   UNL     1      -7.367   9.055  70.987  1.00  0.00    -0.125 C  
HETATM   11  C   UNL     1     -11.036  11.618  67.881  1.00  0.00    -0.277 C  
HETATM   12  C   UNL     1      -6.434   7.776  71.031  1.00  0.00    -0.038 C  
HETATM   13  C   UNL     1     -11.857  12.637  67.561  1.00  0.00    -0.396 C  
HETATM   14  C   UNL     1      -7.253   6.812  70.195  1.00  0.00    -0.076 C  
HETATM   15  C   UNL     1      -9.827  10.713  65.960  1.00  0.00    -0.280 C  
HETATM   16  C   UNL     1     -11.324  13.742  66.747  1.00  0.00    -0.330 C  
HETATM   17  O   UNL     1     -12.076  14.409  66.047  1.00  0.00    -0.396 OA 
HETATM   18  C   UNL     1      -9.607  11.454  67.311  1.00  0.00    -0.187 C  
HETATM   19  C   UNL     1      -9.884  14.070  66.961  1.00  0.00    -0.260 C  
HETATM   20  C   UNL     1      -8.961  12.841  66.974  1.00  0.00    -0.221 C  
ENDROOT
BRANCH  14  21
HETATM   21  O   UNL     1      -6.838   5.475  69.956  1.00  0.00    -0.054 OA 
BRANCH  21  22
HETATM   22  C   UNL     1      -7.888   4.600  70.191  1.00  0.00    -0.060 C  
HETATM   23  O   UNL     1      -8.790   4.809  70.999  1.00  0.00    -0.113 OA 
BRANCH  22  24
HETATM   24  C   UNL     1      -7.995   3.468  69.193  1.00  0.00    -0.060 C  
BRANCH  24  25
HETATM   25  C   UNL     1      -9.357   3.389  68.538  1.00  0.00    -0.231 C  
BRANCH  25  26
HETATM   26  C   UNL     1      -9.306   3.258  67.015  1.00  0.00    -0.198 C  
HETATM   27  C   UNL     1      -9.873   4.515  66.360  1.00  0.00    -0.245 C  
HETATM   28  C   UNL     1      -9.341   4.444  64.943  1.00  0.00    -0.163 C  
HETATM   29  C   UNL     1      -7.919   3.923  65.105  1.00  0.00    -0.093 C  
HETATM   30  C   UNL     1      -7.898   3.133  66.416  1.00  0.00    -0.077 C  
ENDBRANCH  25  26
ENDBRANCH  24  25
ENDBRANCH  22  24
ENDBRANCH  21  22
ENDBRANCH  14  21
TORSDOF 5
ENDMDL
MODEL      132
REMARK 921   NORMALIZED FREE ENERGY PREDICTED BY IDOCK:   -3.57 KCAL/MOL
REMARK 922        TOTAL FREE ENERGY PREDICTED BY IDOCK:   -5.96 KCAL/MOL
REMARK 923 INTER-LIGAND FREE ENERGY PREDICTED BY IDOCK:   -5.52 KCAL/MOL
REMARK 924 INTRA-LIGAND FREE ENERGY PREDICTED BY IDOCK:   -0.44 KCAL/MOL
REMARK 927      BINDING AFFINITY PREDICTED BY RF-SCORE:    0.00 PKD
ROOT
HETATM    1  C   UNL     1      -8.919   9.170  67.387  1.00  0.00    -0.128 C  
HETATM    2  C   UNL     1      -9.457   9.738  68.701  1.00  0.00    -0.151 C  
HETATM    3  C   UNL     1      -8.470  10.880  69.184  1.00  0.00    -0.064 C  
HETATM    4  C   UNL     1      -8.564  12.211  68.350  1.00  0.00    -0.141 C  
HETATM    5  C   UNL     1      -9.988  12.714  67.906  1.00  0.00    -0.228 C  
HETATM    6  C   UNL     1     -10.861  11.494  67.633  1.00  0.00    -0.277 C  
HETATM    7  C   UNL     1     -12.245  11.772  67.060  1.00  0.00     0.697 C  
HETATM    8  C   UNL     1     -10.844  10.430  68.719  1.00  0.00    -0.269 C  
HETATM    9  C   UNL     1     -12.061  12.435  65.702  1.00  0.00    -0.396 C  
HETATM   10  C   UNL     1     -11.060  10.576  70.283  1.00  0.00    -0.359 C  
HETATM   11  C   UNL     1     -11.309  13.730  65.849  1.00  0.00    -0.311 C  
HETATM   12  C   UNL     1     -10.288   9.338  70.901  1.00  0.00    -0.367 C  
HETATM   13  C   UNL     1     -11.747  14.781  65.129  1.00  0.00    -0.337 C  
HETATM   14  C   UNL     1      -9.927   8.583  69.638  1.00  0.00    -0.192 C  
HETATM   15  C   UNL     1      -8.913  13.320  65.600  1.00  0.00     0.798 C  
HETATM   16  C   UNL     1     -11.015  16.055  65.226  1.00  0.00    -0.299 C  
HETATM   17  O   UNL     1     -11.045  16.854  64.299  1.00  0.00    -1.135 OA 
HETATM   18  C   UNL     1      -9.986  13.729  66.651  1.00  0.00    -0.279 C  
HETATM   19  C   UNL     1     -10.396  16.348  66.552  1.00  0.00    -0.306 C  
HETATM   20  C   UNL     1      -9.617  15.167  67.150  1.00  0.00    -0.224 C  
ENDROOT
BRANCH  14  21
HETATM   21  O   UNL     1      -9.230   7.345  69.667  1.00  0.00    -0.147 OA 
BRANCH  21  22
HETATM   22  C   UNL     1      -8.393   7.294  70.771  1.00  0.00    -0.124 C  
HETATM   23  O   UNL     1      -7.476   8.086  70.977  1.00  0.00    -0.066 OA 
BRANCH  22  24
HETATM   24  C   UNL     1      -8.845   6.340  71.855  1.00  0.00    -0.139 C  
BRANCH  24  25
HETATM   25  C   UNL     1     -10.124   5.613  71.501  1.00  0.00    -0.253 C  
BRANCH  25  26
HETATM   26  C   UNL     1     -10.013   4.090  71.580  1.00  0.00    -0.232 C  
HETATM   27  C   UNL     1      -9.435   3.538  70.280  1.00  0.00    -0.254 C  
HETATM   28  C   UNL     1      -8.962   2.151  70.667  1.00  0.00    -0.145 C  
HETATM   29  C   UNL     1      -8.368   2.335  72.058  1.00  0.00    -0.062 C  
HETATM   30  C   UNL     1      -9.063   3.558  72.662  1.00  0.00    -0.128 C  
ENDBRANCH  25  26
ENDBRANCH  24  25
ENDBRANCH  22  24
ENDBRANCH  21  22
ENDBRANCH  14  21
TORSDOF 5
ENDMDL
MODEL      133
REMARK 921   NORMALIZED FREE ENERGY PREDICTED BY IDOCK:   -3.24 KCAL/MOL
REMARK 922        TOTAL FREE ENERGY PREDICTED BY IDOCK:   -5.52 KCAL/MOL
REMARK 923 INTER-LIGAND FREE ENERGY PREDICTED BY IDOCK:   -4.74 KCAL/MOL
REMARK 924 INTRA-LIGAND FREE ENERGY PREDICTED BY IDOCK:   -0.78 KCAL/MOL
REMARK 927      BINDING AFFINITY PREDICTED BY RF-SCORE:    0.00 PKD
ROOT
HETATM    1  C   UNL     1      -8.772  13.271  68.942  1.00  0.00     0.272 C  
HETATM    2  C   UNL     1      -9.052  13.508  67.457  1.00  0.00    -0.214 C  
HETATM    3  C   UNL     1      -7.724  13.198  66.650  1.00  0.00     0.666 C  
HETATM    4  C   UNL     1      -7.380  11.668  66.535  1.00  0.00     0.044 C  
HETATM    5  C   UNL     1      -8.558  10.655  66.281  1.00  0.00    -0.156 C  
HETATM    6  C   UNL     1      -9.800  11.180  66.991  1.00  0.00    -0.212 C  
HETATM    7  C   UNL     1     -11.020  10.267  66.976  1.00  0.00    -0.189 C  
HETATM    8  C   UNL     1     -10.120  12.644  66.737  1.00  0.00    -0.243 C  
HETATM    9  C   UNL     1     -10.655   8.989  67.717  1.00  0.00    -0.278 C  
HETATM   10  C   UNL     1     -10.236  13.433  65.367  1.00  0.00    -0.311 C  
HETATM   11  C   UNL     1      -9.503   8.300  67.037  1.00  0.00    -0.226 C  
HETATM   12  C   UNL     1      -9.917  14.936  65.753  1.00  0.00    -0.376 C  
HETATM   13  C   UNL     1      -9.574   6.960  66.913  1.00  0.00    -0.205 C  
HETATM   14  C   UNL     1      -9.865  14.825  67.263  1.00  0.00    -0.230 C  
HETATM   15  C   UNL     1      -7.397   9.070  68.006  1.00  0.00    -0.084 C  
HETATM   16  C   UNL     1      -8.450   6.251  66.278  1.00  0.00    -0.133 C  
HETATM   17  O   UNL     1      -8.228   5.079  66.554  1.00  0.00    -0.108 OA 
HETATM   18  C   UNL     1      -8.241   9.128  66.700  1.00  0.00    -0.115 C  
HETATM   19  C   UNL     1      -7.737   6.998  65.202  1.00  0.00    -0.113 C  
HETATM   20  C   UNL     1      -7.392   8.448  65.573  1.00  0.00    -0.083 C  
ENDROOT
BRANCH  14  21
HETATM   21  O   UNL     1      -9.630  15.950  68.099  1.00  0.00    -0.206 OA 
BRANCH  21  22
HETATM   22  C   UNL     1     -10.809  16.343  68.713  1.00  0.00    -0.338 C  
HETATM   23  O   UNL     1     -11.928  16.144  68.246  1.00  0.00    -0.107 OA 
BRANCH  22  24
HETATM   24  C   UNL     1     -10.643  16.819  70.140  1.00  0.00     0.068 C  
BRANCH  24  25
HETATM   25  C   UNL     1     -10.861  15.717  71.154  1.00  0.00    -0.111 C  
BRANCH  25  26
HETATM   26  C   UNL     1     -12.199  14.992  71.003  1.00  0.00    -0.386 C  
HETATM   27  C   UNL     1     -11.973  13.485  70.916  1.00  0.00    -0.179 C  
HETATM   28  C   UNL     1     -13.335  12.906  71.237  1.00  0.00    -0.038 C  
HETATM   29  C   UNL     1     -13.869  13.801  72.347  1.00  0.00    -0.681 C  
HETATM   30  C   UNL     1     -13.168  15.152  72.183  1.00  0.00    -0.470 C  
ENDBRANCH  25  26
ENDBRANCH  24  25
ENDBRANCH  22  24
ENDBRANCH  21  22
ENDBRANCH  14  21
TORSDOF 5
ENDMDL
MODEL      134
REMARK 921   NORMALIZED FREE ENERGY PREDICTED BY IDOCK:   -3.10 KCAL/MOL
REMARK 922        TOTAL FREE ENERGY PREDICTED BY IDOCK:   -5.35 KCAL/MOL
REMARK 923 INTER-LIGAND FREE ENERGY PREDICTED BY IDOCK:   -4.63 KCAL/MOL
REMARK 924 INTRA-LIGAND FREE ENERGY PREDICTED BY IDOCK:   -0.72 KCAL/MOL
REMARK 927      BINDING AFFINITY PREDICTED BY RF-SCORE:    0.00 PKD
ROOT
HETATM    1  C   UNL     1      -7.189  12.702  67.456  1.00  0.00    -0.155 C  
HETATM    2  C   UNL     1      -6.469  13.298  68.666  1.00  0.00    -0.087 C  
HETATM    3  C   UNL     1      -5.397  14.338  68.138  1.00  0.00    -0.120 C  
HETATM    4  C   UNL     1      -6.011  15.684  67.601  1.00  0.00    -0.159 C  
HETATM    5  C   UNL     1      -7.216  16.321  68.389  1.00  0.00    -0.152 C  
HETATM    6  C   UNL     1      -8.059  15.190  68.967  1.00  0.00    -0.191 C  
HETATM    7  C   UNL     1      -9.354  15.601  69.658  1.00  0.00    -0.217 C  
HETATM    8  C   UNL     1      -7.279  14.114  69.706  1.00  0.00     0.175 C  
HETATM    9  C   UNL     1     -10.245  16.263  68.617  1.00  0.00    -0.254 C  
HETATM   10  C   UNL     1      -6.192  14.257  70.852  1.00  0.00    -0.080 C  
HETATM   11  C   UNL     1      -9.570  17.482  68.048  1.00  0.00    -0.282 C  
HETATM   12  C   UNL     1      -5.313  12.946  70.724  1.00  0.00    -0.166 C  
HETATM   13  C   UNL     1     -10.331  18.579  67.866  1.00  0.00    -0.424 C  
HETATM   14  C   UNL     1      -6.117  12.178  69.694  1.00  0.00    -0.129 C  
HETATM   15  C   UNL     1      -8.286  16.858  66.065  1.00  0.00    -0.180 C  
HETATM   16  C   UNL     1      -9.709  19.779  67.283  1.00  0.00    -0.370 C  
HETATM   17  O   UNL     1     -10.392  20.590  66.670  1.00  0.00    -0.284 OA 
HETATM   18  C   UNL     1      -8.118  17.349  67.532  1.00  0.00    -0.205 C  
HETATM   19  C   UNL     1      -8.273  19.996  67.623  1.00  0.00    -0.347 C  
HETATM   20  C   UNL     1      -7.401  18.740  67.472  1.00  0.00    -0.235 C  
ENDROOT
BRANCH  14  21
HETATM   21  O   UNL     1      -5.741  10.882  69.250  1.00  0.00    -0.041 OA 
BRANCH  21  22
HETATM   22  C   UNL     1      -6.400   9.914  69.992  1.00  0.00    -0.071 C  
HETATM   23  O   UNL     1      -6.871  10.106  71.111  1.00  0.00    -0.314 OA 
BRANCH  22  24
HETATM   24  C   UNL     1      -6.730   8.653  69.223  1.00  0.00    -0.050 C  
BRANCH  24  25
HETATM   25  C   UNL     1      -5.684   8.308  68.184  1.00  0.00    -0.035 C  
BRANCH  25  26
HETATM   26  C   UNL     1      -6.239   8.187  66.765  1.00  0.00    -0.054 C  
HETATM   27  C   UNL     1      -6.155   9.534  66.051  1.00  0.00    -0.063 C  
HETATM   28  C   UNL     1      -6.284   9.165  64.588  1.00  0.00    -0.070 C  
HETATM   29  C   UNL     1      -5.475   7.881  64.455  1.00  0.00    -0.040 C  
HETATM   30  C   UNL     1      -5.471   7.231  65.841  1.00  0.00    -0.028 C  
ENDBRANCH  25  26
ENDBRANCH  24  25
ENDBRANCH  22  24
ENDBRANCH  21  22
ENDBRANCH  14  21
TORSDOF 5
ENDMDL
MODEL      135
REMARK 921   NORMALIZED FREE ENERGY PREDICTED BY IDOCK:   -3.06 KCAL/MOL
REMARK 922        TOTAL FREE ENERGY PREDICTED BY IDOCK:   -5.29 KCAL/MOL
REMARK 923 INTER-LIGAND FREE ENERGY PREDICTED BY IDOCK:   -3.36 KCAL/MOL
REMARK 924 INTRA-LIGAND FREE ENERGY PREDICTED BY IDOCK:   -1.93 KCAL/MOL
REMARK 927      BINDING AFFINITY PREDICTED BY RF-SCORE:    0.00 PKD
ROOT
HETATM    1  C   UNL     1      -9.567   3.739  67.456  1.00  0.00    -0.205 C  
HETATM    2  C   UNL     1      -8.255   4.153  68.125  1.00  0.00    -0.094 C  
HETATM    3  C   UNL     1      -7.073   3.867  67.109  1.00  0.00    -0.063 C  
HETATM    4  C   UNL     1      -6.997   4.875  65.904  1.00  0.00    -0.066 C  
HETATM    5  C   UNL     1      -7.267   6.400  66.189  1.00  0.00    -0.072 C  
HETATM    6  C   UNL     1      -8.308   6.500  67.298  1.00  0.00    -0.113 C  
HETATM    7  C   UNL     1      -8.806   7.902  67.628  1.00  0.00    -0.128 C  
HETATM    8  C   UNL     1      -8.038   5.636  68.519  1.00  0.00    -0.103 C  
HETATM    9  C   UNL     1      -9.496   8.455  66.390  1.00  0.00    -0.293 C  
HETATM   10  C   UNL     1      -6.721   5.500  69.392  1.00  0.00    -0.059 C  
HETATM   11  C   UNL     1      -8.531   8.522  65.238  1.00  0.00    -0.192 C  
HETATM   12  C   UNL     1      -6.823   4.054  70.030  1.00  0.00    -0.034 C  
HETATM   13  C   UNL     1      -8.572   9.625  64.464  1.00  0.00    -0.205 C  
HETATM   14  C   UNL     1      -8.226   3.666  69.606  1.00  0.00    -0.052 C  
HETATM   15  C   UNL     1      -8.632   6.443  63.959  1.00  0.00     0.357 C  
HETATM   16  C   UNL     1      -7.661   9.711  63.311  1.00  0.00    -0.130 C  
HETATM   17  O   UNL     1      -7.957  10.401  62.343  1.00  0.00    -0.141 OA 
HETATM   18  C   UNL     1      -7.699   7.264  64.896  1.00  0.00    -0.117 C  
HETATM   19  C   UNL     1      -6.336   9.046  63.479  1.00  0.00    -0.089 C  
HETATM   20  C   UNL     1      -6.421   7.629  64.067  1.00  0.00    -0.053 C  
ENDROOT
BRANCH  14  21
HETATM   21  O   UNL     1      -8.813   2.426  69.972  1.00  0.00    -0.064 OA 
BRANCH  21  22
HETATM   22  C   UNL     1      -9.447   2.541  71.199  1.00  0.00    -0.152 C  
HETATM   23  O   UNL     1      -9.256   1.783  72.147  1.00  0.00    -0.072 OA 
BRANCH  22  24
HETATM   24  C   UNL     1     -10.217   3.831  71.388  1.00  0.00     0.024 C  
BRANCH  24  25
HETATM   25  C   UNL     1      -9.617   4.721  72.455  1.00  0.00    -0.184 C  
BRANCH  25  26
HETATM   26  C   UNL     1      -9.980   6.199  72.304  1.00  0.00    -0.186 C  
HETATM   27  C   UNL     1      -8.758   6.997  71.856  1.00  0.00    -0.127 C  
HETATM   28  C   UNL     1      -9.355   8.280  71.315  1.00  0.00    -0.218 C  
HETATM   29  C   UNL     1     -10.611   7.826  70.581  1.00  0.00    -0.222 C  
HETATM   30  C   UNL     1     -11.035   6.508  71.233  1.00  0.00    -0.309 C  
ENDBRANCH  25  26
ENDBRANCH  24  25
ENDBRANCH  22  24
ENDBRANCH  21  22
ENDBRANCH  14  21
TORSDOF 5
ENDMDL
MODEL      136
REMARK 921   NORMALIZED FREE ENERGY PREDICTED BY IDOCK:   -3.04 KCAL/MOL
REMARK 922        TOTAL FREE ENERGY PREDICTED BY IDOCK:   -5.27 KCAL/MOL
REMARK 923 INTER-LIGAND FREE ENERGY PREDICTED BY IDOCK:   -4.56 KCAL/MOL
REMARK 924 INTRA-LIGAND FREE ENERGY PREDICTED BY IDOCK:   -0.71 KCAL/MOL
REMARK 927      BINDING AFFINITY PREDICTED BY RF-SCORE:    0.00 PKD
ROOT
HETATM    1  C   UNL     1      -7.398  10.628  67.012  1.00  0.00    -0.102 C  
HETATM    2  C   UNL     1      -7.071  11.186  68.398  1.00  0.00    -0.076 C  
HETATM    3  C   UNL     1      -8.385  11.114  69.280  1.00  0.00     0.099 C  
HETATM    4  C   UNL     1      -8.771   9.663  69.747  1.00  0.00    -0.221 C  
HETATM    5  C   UNL     1      -7.618   8.693  70.202  1.00  0.00    -0.069 C  
HETATM    6  C   UNL     1      -6.380   8.999  69.366  1.00  0.00    -0.044 C  
HETATM    7  C   UNL     1      -5.188   8.072  69.565  1.00  0.00    -0.026 C  
HETATM    8  C   UNL     1      -6.011  10.471  69.274  1.00  0.00    -0.038 C  
HETATM    9  C   UNL     1      -5.611   6.673  69.141  1.00  0.00    -0.017 C  
HETATM   10  C   UNL     1      -5.834  11.546  70.427  1.00  0.00    -0.155 C  
HETATM   11  C   UNL     1      -6.763   6.197  69.983  1.00  0.00    -0.056 C  
HETATM   12  C   UNL     1      -6.119  12.932  69.716  1.00  0.00    -0.125 C  
HETATM   13  C   UNL     1      -6.730   4.918  70.407  1.00  0.00    -0.036 C  
HETATM   14  C   UNL     1      -6.214  12.484  68.271  1.00  0.00    -0.065 C  
HETATM   15  C   UNL     1      -8.871   6.800  68.905  1.00  0.00    -0.128 C  
HETATM   16  C   UNL     1      -7.856   4.411  71.208  1.00  0.00    -0.080 C  
HETATM   17  O   UNL     1      -8.120   3.215  71.210  1.00  0.00    -0.060 OA 
HETATM   18  C   UNL     1      -7.991   7.123  70.147  1.00  0.00    -0.113 C  
HETATM   19  C   UNL     1      -8.518   5.407  72.100  1.00  0.00    -0.126 C  
HETATM   20  C   UNL     1      -8.830   6.747  71.415  1.00  0.00    -0.131 C  
ENDROOT
BRANCH  14  21
HETATM   21  O   UNL     1      -6.438  13.397  67.206  1.00  0.00    -0.267 OA 
BRANCH  21  22
HETATM   22  C   UNL     1      -7.206  14.464  67.646  1.00  0.00    -0.184 C  
HETATM   23  O   UNL     1      -6.794  15.618  67.735  1.00  0.00    -0.129 OA 
BRANCH  22  24
HETATM   24  C   UNL     1      -8.683  14.162  67.773  1.00  0.00    -0.182 C  
BRANCH  24  25
HETATM   25  C   UNL     1      -9.295  13.668  66.479  1.00  0.00    -0.242 C  
BRANCH  25  26
HETATM   26  C   UNL     1     -10.686  14.237  66.196  1.00  0.00    -0.295 C  
HETATM   27  C   UNL     1     -10.836  14.539  64.707  1.00  0.00    -0.410 C  
HETATM   28  C   UNL     1     -12.336  14.634  64.517  1.00  0.00    -0.416 C  
HETATM   29  C   UNL     1     -12.894  13.527  65.402  1.00  0.00    -0.420 C  
HETATM   30  C   UNL     1     -11.855  13.290  66.500  1.00  0.00    -0.450 C  
ENDBRANCH  25  26
ENDBRANCH  24  25
ENDBRANCH  22  24
ENDBRANCH  21  22
ENDBRANCH  14  21
TORSDOF 5
ENDMDL
MODEL      137
REMARK 921   NORMALIZED FREE ENERGY PREDICTED BY IDOCK:   -3.04 KCAL/MOL
REMARK 922        TOTAL FREE ENERGY PREDICTED BY IDOCK:   -5.26 KCAL/MOL
REMARK 923 INTER-LIGAND FREE ENERGY PREDICTED BY IDOCK:   -5.43 KCAL/MOL
REMARK 924 INTRA-LIGAND FREE ENERGY PREDICTED BY IDOCK:    0.17 KCAL/MOL
REMARK 927      BINDING AFFINITY PREDICTED BY RF-SCORE:    0.00 PKD
ROOT
HETATM    1  C   UNL     1      -9.694  13.687  66.105  1.00  0.00    -0.269 C  
HETATM    2  C   UNL     1      -8.854  13.557  67.377  1.00  0.00    -0.221 C  
HETATM    3  C   UNL     1      -9.792  13.014  68.533  1.00  0.00    -0.153 C  
HETATM    4  C   UNL     1     -10.169  11.493  68.399  1.00  0.00    -0.211 C  
HETATM    5  C   UNL     1      -9.055  10.486  67.927  1.00  0.00    -0.136 C  
HETATM    6  C   UNL     1      -8.145  11.211  66.942  1.00  0.00    -0.150 C  
HETATM    7  C   UNL     1      -7.075  10.362  66.265  1.00  0.00    -0.123 C  
HETATM    8  C   UNL     1      -7.654  12.575  67.398  1.00  0.00    -0.156 C  
HETATM    9  C   UNL     1      -7.781   9.298  65.437  1.00  0.00    -0.099 C  
HETATM   10  C   UNL     1      -6.972  13.002  68.764  1.00  0.00    -0.103 C  
HETATM   11  C   UNL     1      -8.631   8.425  66.321  1.00  0.00    -0.149 C  
HETATM   12  C   UNL     1      -7.311  14.543  68.906  1.00  0.00    -0.128 C  
HETATM   13  C   UNL     1      -8.609   7.099  66.081  1.00  0.00    -0.151 C  
HETATM   14  C   UNL     1      -7.941  14.810  67.554  1.00  0.00    -0.188 C  
HETATM   15  C   UNL     1     -10.890   9.344  66.455  1.00  0.00     0.131 C  
HETATM   16  C   UNL     1      -9.452   6.219  66.908  1.00  0.00    -0.138 C  
HETATM   17  O   UNL     1      -9.841   5.146  66.465  1.00  0.00    -0.155 OA 
HETATM   18  C   UNL     1      -9.611   9.103  67.307  1.00  0.00    -0.200 C  
HETATM   19  C   UNL     1      -9.649   6.652  68.322  1.00  0.00    -0.125 C  
HETATM   20  C   UNL     1     -10.010   8.138  68.474  1.00  0.00    -0.204 C  
ENDROOT
BRANCH  14  21
HETATM   21  O   UNL     1      -8.400  16.098  67.172  1.00  0.00    -0.171 OA 
BRANCH  21  22
HETATM   22  C   UNL     1      -8.389  16.953  68.264  1.00  0.00    -0.224 C  
HETATM   23  O   UNL     1      -9.366  17.170  68.977  1.00  0.00    -0.237 OA 
BRANCH  22  24
HETATM   24  C   UNL     1      -7.010  17.416  68.682  1.00  0.00    -0.226 C  
BRANCH  24  25
HETATM   25  C   UNL     1      -6.985  18.868  69.111  1.00  0.00    -0.314 C  
BRANCH  25  26
HETATM   26  C   UNL     1      -7.081  19.858  67.949  1.00  0.00    -0.314 C  
HETATM   27  C   UNL     1      -6.440  19.263  66.698  1.00  0.00    -0.195 C  
HETATM   28  C   UNL     1      -7.007  20.109  65.577  1.00  0.00    -0.332 C  
HETATM   29  C   UNL     1      -8.460  20.334  65.978  1.00  0.00    -0.095 C  
HETATM   30  C   UNL     1      -8.508  20.207  67.503  1.00  0.00    -0.394 C  
ENDBRANCH  25  26
ENDBRANCH  24  25
ENDBRANCH  22  24
ENDBRANCH  21  22
ENDBRANCH  14  21
TORSDOF 5
ENDMDL
MODEL      138
REMARK 921   NORMALIZED FREE ENERGY PREDICTED BY IDOCK:   -2.99 KCAL/MOL
REMARK 922        TOTAL FREE ENERGY PREDICTED BY IDOCK:   -5.20 KCAL/MOL
REMARK 923 INTER-LIGAND FREE ENERGY PREDICTED BY IDOCK:   -3.65 KCAL/MOL
REMARK 924 INTRA-LIGAND FREE ENERGY PREDICTED BY IDOCK:   -1.55 KCAL/MOL
REMARK 927      BINDING AFFINITY PREDICTED BY RF-SCORE:    0.00 PKD
ROOT
HETATM    1  C   UNL     1     -10.172   6.281  68.526  1.00  0.00    -0.205 C  
HETATM    2  C   UNL     1      -9.025   6.082  67.534  1.00  0.00    -0.111 C  
HETATM    3  C   UNL     1      -9.288   7.019  66.283  1.00  0.00    -0.146 C  
HETATM    4  C   UNL     1      -9.038   8.548  66.557  1.00  0.00    -0.217 C  
HETATM    5  C   UNL     1      -7.799   8.956  67.438  1.00  0.00    -0.097 C  
HETATM    6  C   UNL     1      -7.584   7.873  68.490  1.00  0.00    -0.105 C  
HETATM    7  C   UNL     1      -6.506   8.151  69.531  1.00  0.00    -0.034 C  
HETATM    8  C   UNL     1      -7.580   6.448  67.959  1.00  0.00    -0.103 C  
HETATM    9  C   UNL     1      -6.926   9.384  70.317  1.00  0.00    -0.087 C  
HETATM   10  C   UNL     1      -6.768   5.820  66.751  1.00  0.00    -0.058 C  
HETATM   11  C   UNL     1      -7.056  10.570  69.400  1.00  0.00    -0.110 C  
HETATM   12  C   UNL     1      -7.645   4.583  66.292  1.00  0.00    -0.090 C  
HETATM   13  C   UNL     1      -6.570  11.747  69.842  1.00  0.00    -0.000 C  
HETATM   14  C   UNL     1      -8.689   4.565  67.391  1.00  0.00    -0.104 C  
HETATM   15  C   UNL     1      -9.352  10.724  68.578  1.00  0.00    -0.174 C  
HETATM   16  C   UNL     1      -6.708  12.934  68.983  1.00  0.00    -0.095 C  
HETATM   17  O   UNL     1      -6.739  14.053  69.480  1.00  0.00    -0.122 OA 
HETATM   18  C   UNL     1      -7.899  10.419  68.112  1.00  0.00    -0.108 C  
HETATM   19  C   UNL     1      -6.649  12.682  67.514  1.00  0.00    -0.156 C  
HETATM   20  C   UNL     1      -7.520  11.505  67.048  1.00  0.00    -0.151 C  
ENDROOT
BRANCH  14  21
HETATM   21  O   UNL     1      -9.718   3.588  67.444  1.00  0.00    -0.180 OA 
BRANCH  21  22
HETATM   22  C   UNL     1      -9.453   2.668  68.446  1.00  0.00    -0.149 C  
HETATM   23  O   UNL     1      -9.713   1.470  68.367  1.00  0.00    -0.188 OA 
BRANCH  22  24
HETATM   24  C   UNL     1      -8.578   3.195  69.564  1.00  0.00    -0.113 C  
BRANCH  24  25
HETATM   25  C   UNL     1      -9.015   2.709  70.929  1.00  0.00    -0.159 C  
BRANCH  25  26
HETATM   26  C   UNL     1      -8.873   3.757  72.033  1.00  0.00    -0.131 C  
HETATM   27  C   UNL     1      -7.398   4.072  72.270  1.00  0.00    -0.058 C  
HETATM   28  C   UNL     1      -7.435   5.396  73.006  1.00  0.00    -0.093 C  
HETATM   29  C   UNL     1      -8.553   6.172  72.321  1.00  0.00    -0.119 C  
HETATM   30  C   UNL     1      -9.497   5.125  71.723  1.00  0.00    -0.188 C  
ENDBRANCH  25  26
ENDBRANCH  24  25
ENDBRANCH  22  24
ENDBRANCH  21  22
ENDBRANCH  14  21
TORSDOF 5
ENDMDL
MODEL      139
REMARK 921   NORMALIZED FREE ENERGY PREDICTED BY IDOCK:   -2.98 KCAL/MOL
REMARK 922        TOTAL FREE ENERGY PREDICTED BY IDOCK:   -5.19 KCAL/MOL
REMARK 923 INTER-LIGAND FREE ENERGY PREDICTED BY IDOCK:   -3.20 KCAL/MOL
REMARK 924 INTRA-LIGAND FREE ENERGY PREDICTED BY IDOCK:   -1.99 KCAL/MOL
REMARK 927      BINDING AFFINITY PREDICTED BY RF-SCORE:    0.00 PKD
ROOT
HETATM    1  C   UNL     1      -9.533   3.493  69.584  1.00  0.00    -0.235 C  
HETATM    2  C   UNL     1      -8.307   4.156  70.213  1.00  0.00    -0.079 C  
HETATM    3  C   UNL     1      -7.014   3.427  69.658  1.00  0.00    -0.041 C  
HETATM    4  C   UNL     1      -6.669   3.772  68.163  1.00  0.00    -0.046 C  
HETATM    5  C   UNL     1      -6.845   5.260  67.680  1.00  0.00    -0.060 C  
HETATM    6  C   UNL     1      -8.030   5.866  68.425  1.00  0.00    -0.105 C  
HETATM    7  C   UNL     1      -8.448   7.268  67.998  1.00  0.00    -0.123 C  
HETATM    8  C   UNL     1      -8.024   5.654  69.930  1.00  0.00    -0.095 C  
HETATM    9  C   UNL     1      -8.892   7.198  66.544  1.00  0.00    -0.154 C  
HETATM   10  C   UNL     1      -6.872   5.922  70.987  1.00  0.00    -0.065 C  
HETATM   11  C   UNL     1      -7.761   6.723  65.673  1.00  0.00    -0.102 C  
HETATM   12  C   UNL     1      -7.195   4.928  72.177  1.00  0.00    -0.080 C  
HETATM   13  C   UNL     1      -7.588   7.350  64.492  1.00  0.00    -0.110 C  
HETATM   14  C   UNL     1      -8.545   4.401  71.735  1.00  0.00    -0.114 C  
HETATM   15  C   UNL     1      -7.847   4.290  65.468  1.00  0.00    -0.090 C  
HETATM   16  C   UNL     1      -6.509   6.891  63.602  1.00  0.00    -0.043 C  
HETATM   17  O   UNL     1      -6.593   7.064  62.393  1.00  0.00    -0.050 OA 
HETATM   18  C   UNL     1      -6.999   5.441  66.083  1.00  0.00    -0.063 C  
HETATM   19  C   UNL     1      -5.287   6.366  64.280  1.00  0.00    -0.022 C  
HETATM   20  C   UNL     1      -5.583   5.376  65.417  1.00  0.00    -0.013 C  
ENDROOT
BRANCH  14  21
HETATM   21  O   UNL     1      -9.287   3.471  72.510  1.00  0.00    -0.111 OA 
BRANCH  21  22
HETATM   22  C   UNL     1     -10.176   4.139  73.338  1.00  0.00    -0.152 C  
HETATM   23  O   UNL     1     -10.203   4.017  74.560  1.00  0.00    -0.173 OA 
BRANCH  22  24
HETATM   24  C   UNL     1     -10.960   5.239  72.655  1.00  0.00    -0.316 C  
BRANCH  24  25
HETATM   25  C   UNL     1     -11.145   6.459  73.533  1.00  0.00     0.026 C  
BRANCH  25  26
HETATM   26  C   UNL     1     -10.733   7.771  72.863  1.00  0.00    -0.446 C  
HETATM   27  C   UNL     1      -9.290   8.113  73.224  1.00  0.00    -0.308 C  
HETATM   28  C   UNL     1      -8.893   9.121  72.165  1.00  0.00     0.464 C  
HETATM   29  C   UNL     1      -9.535   8.592  70.888  1.00  0.00    -0.242 C  
HETATM   30  C   UNL     1     -10.736   7.751  71.328  1.00  0.00    -0.251 C  
ENDBRANCH  25  26
ENDBRANCH  24  25
ENDBRANCH  22  24
ENDBRANCH  21  22
ENDBRANCH  14  21
TORSDOF 5
ENDMDL
MODEL      140
REMARK 921   NORMALIZED FREE ENERGY PREDICTED BY IDOCK:   -2.95 KCAL/MOL
REMARK 922        TOTAL FREE ENERGY PREDICTED BY IDOCK:   -5.15 KCAL/MOL
REMARK 923 INTER-LIGAND FREE ENERGY PREDICTED BY IDOCK:   -4.92 KCAL/MOL
REMARK 924 INTRA-LIGAND FREE ENERGY PREDICTED BY IDOCK:   -0.23 KCAL/MOL
REMARK 927      BINDING AFFINITY PREDICTED BY RF-SCORE:    0.00 PKD
ROOT
HETATM    1  C   UNL     1      -9.079   9.274  68.122  1.00  0.00    -0.130 C  
HETATM    2  C   UNL     1      -8.360   9.461  66.784  1.00  0.00    -0.123 C  
HETATM    3  C   UNL     1      -9.457   9.711  65.667  1.00  0.00    -0.318 C  
HETATM    4  C   UNL     1     -10.125  11.134  65.724  1.00  0.00    -0.299 C  
HETATM    5  C   UNL     1      -9.210  12.376  66.041  1.00  0.00    -0.055 C  
HETATM    6  C   UNL     1      -8.115  11.929  67.002  1.00  0.00    -0.167 C  
HETATM    7  C   UNL     1      -7.200  13.024  67.536  1.00  0.00    -0.154 C  
HETATM    8  C   UNL     1      -7.387  10.654  66.605  1.00  0.00    -0.129 C  
HETATM    9  C   UNL     1      -8.055  13.994  68.339  1.00  0.00    -0.148 C  
HETATM   10  C   UNL     1      -6.716  10.259  65.224  1.00  0.00    -0.126 C  
HETATM   11  C   UNL     1      -9.114  14.606  67.464  1.00  0.00    -0.192 C  
HETATM   12  C   UNL     1      -6.745   8.675  65.214  1.00  0.00    -0.067 C  
HETATM   13  C   UNL     1      -9.347  15.926  67.609  1.00  0.00    -0.217 C  
HETATM   14  C   UNL     1      -7.226   8.402  66.625  1.00  0.00    -0.077 C  
HETATM   15  C   UNL     1     -11.146  13.252  67.564  1.00  0.00    -0.292 C  
HETATM   16  C   UNL     1     -10.398  16.551  66.790  1.00  0.00    -0.296 C  
HETATM   17  O   UNL     1     -10.968  17.560  67.186  1.00  0.00    -0.161 OA 
HETATM   18  C   UNL     1      -9.995  13.669  66.604  1.00  0.00    -0.283 C  
HETATM   19  C   UNL     1     -10.589  15.972  65.428  1.00  0.00    -0.428 C  
HETATM   20  C   UNL     1     -10.651  14.437  65.406  1.00  0.00    -0.380 C  
ENDROOT
BRANCH  14  21
HETATM   21  O   UNL     1      -7.391   7.084  67.129  1.00  0.00    -0.086 OA 
BRANCH  21  22
HETATM   22  C   UNL     1      -8.249   6.364  66.312  1.00  0.00    -0.118 C  
HETATM   23  O   UNL     1      -9.474   6.425  66.377  1.00  0.00    -0.163 OA 
BRANCH  22  24
HETATM   24  C   UNL     1      -7.572   5.678  65.145  1.00  0.00    -0.078 C  
BRANCH  24  25
HETATM   25  C   UNL     1      -8.558   5.109  64.147  1.00  0.00    -0.101 C  
BRANCH  25  26
HETATM   26  C   UNL     1      -8.270   3.661  63.749  1.00  0.00    -0.090 C  
HETATM   27  C   UNL     1      -6.764   3.412  63.729  1.00  0.00    -0.039 C  
HETATM   28  C   UNL     1      -6.657   1.902  63.787  1.00  0.00    -0.022 C  
HETATM   29  C   UNL     1      -7.753   1.488  64.761  1.00  0.00    -0.063 C  
HETATM   30  C   UNL     1      -8.807   2.597  64.717  1.00  0.00    -0.118 C  
ENDBRANCH  25  26
ENDBRANCH  24  25
ENDBRANCH  22  24
ENDBRANCH  21  22
ENDBRANCH  14  21
TORSDOF 5
ENDMDL
MODEL      141
REMARK 921   NORMALIZED FREE ENERGY PREDICTED BY IDOCK:   -2.83 KCAL/MOL
REMARK 922        TOTAL FREE ENERGY PREDICTED BY IDOCK:   -5.00 KCAL/MOL
REMARK 923 INTER-LIGAND FREE ENERGY PREDICTED BY IDOCK:   -5.35 KCAL/MOL
REMARK 924 INTRA-LIGAND FREE ENERGY PREDICTED BY IDOCK:    0.35 KCAL/MOL
REMARK 927      BINDING AFFINITY PREDICTED BY RF-SCORE:    0.00 PKD
ROOT
HETATM    1  C   UNL     1      -9.145  13.307  67.430  1.00  0.00    -0.216 C  
HETATM    2  C   UNL     1     -10.145  12.771  66.404  1.00  0.00    -0.266 C  
HETATM    3  C   UNL     1      -9.367  11.804  65.418  1.00  0.00    -0.095 C  
HETATM    4  C   UNL     1      -8.978  10.416  66.047  1.00  0.00    -0.178 C  
HETATM    5  C   UNL     1     -10.022   9.701  66.983  1.00  0.00    -0.263 C  
HETATM    6  C   UNL     1     -10.795  10.775  67.742  1.00  0.00    -0.320 C  
HETATM    7  C   UNL     1     -11.768  10.279  68.805  1.00  0.00    -0.021 C  
HETATM    8  C   UNL     1     -11.339  11.907  66.885  1.00  0.00    -0.392 C  
HETATM    9  C   UNL     1     -10.962   9.549  69.869  1.00  0.00    -0.263 C  
HETATM   10  C   UNL     1     -12.193  11.848  65.551  1.00  0.00     0.281 C  
HETATM   11  C   UNL     1     -10.237   8.377  69.266  1.00  0.00    -0.211 C  
HETATM   12  C   UNL     1     -11.873  13.216  64.821  1.00  0.00    -0.413 C  
HETATM   13  C   UNL     1     -10.229   7.228  69.970  1.00  0.00    -0.206 C  
HETATM   14  C   UNL     1     -11.071  13.919  65.897  1.00  0.00    -0.291 C  
HETATM   15  C   UNL     1      -8.013   9.075  68.535  1.00  0.00    -0.103 C  
HETATM   16  C   UNL     1      -9.504   6.070  69.423  1.00  0.00    -0.134 C  
HETATM   17  O   UNL     1      -9.062   5.210  70.173  1.00  0.00    -0.122 OA 
HETATM   18  C   UNL     1      -9.393   8.607  67.990  1.00  0.00    -0.147 C  
HETATM   19  C   UNL     1      -9.492   5.956  67.935  1.00  0.00    -0.112 C  
HETATM   20  C   UNL     1      -9.151   7.269  67.212  1.00  0.00    -0.133 C  
ENDROOT
BRANCH  14  21
HETATM   21  O   UNL     1     -10.564  15.235  65.728  1.00  0.00    -0.308 OA 
BRANCH  21  22
HETATM   22  C   UNL     1     -10.738  15.968  66.892  1.00  0.00    -0.262 C  
HETATM   23  O   UNL     1     -11.727  15.883  67.616  1.00  0.00    -0.076 OA 
BRANCH  22  24
HETATM   24  C   UNL     1      -9.503  16.707  67.357  1.00  0.00    -0.232 C  
BRANCH  24  25
HETATM   25  C   UNL     1      -8.250  15.862  67.281  1.00  0.00    -0.211 C  
BRANCH  25  26
HETATM   26  C   UNL     1      -7.033  16.496  67.957  1.00  0.00    -0.153 C  
HETATM   27  C   UNL     1      -7.353  16.821  69.414  1.00  0.00    -0.067 C  
HETATM   28  C   UNL     1      -5.986  16.986  70.046  1.00  0.00    -0.184 C  
HETATM   29  C   UNL     1      -5.143  15.895  69.399  1.00  0.00    -0.106 C  
HETATM   30  C   UNL     1      -5.791  15.599  68.044  1.00  0.00    -0.151 C  
ENDBRANCH  25  26
ENDBRANCH  24  25
ENDBRANCH  22  24
ENDBRANCH  21  22
ENDBRANCH  14  21
TORSDOF 5
ENDMDL
MODEL      142
REMARK 921   NORMALIZED FREE ENERGY PREDICTED BY IDOCK:   -2.79 KCAL/MOL
REMARK 922        TOTAL FREE ENERGY PREDICTED BY IDOCK:   -4.94 KCAL/MOL
REMARK 923 INTER-LIGAND FREE ENERGY PREDICTED BY IDOCK:   -4.84 KCAL/MOL
REMARK 924 INTRA-LIGAND FREE ENERGY PREDICTED BY IDOCK:   -0.10 KCAL/MOL
REMARK 927      BINDING AFFINITY PREDICTED BY RF-SCORE:    0.00 PKD
ROOT
HETATM    1  C   UNL     1      -9.202   7.378  68.027  1.00  0.00    -0.132 C  
HETATM    2  C   UNL     1      -8.648   7.891  69.358  1.00  0.00    -0.137 C  
HETATM    3  C   UNL     1      -7.370   8.776  69.050  1.00  0.00    -0.073 C  
HETATM    4  C   UNL     1      -7.694  10.183  68.425  1.00  0.00    -0.089 C  
HETATM    5  C   UNL     1      -8.930  10.981  68.982  1.00  0.00    -0.071 C  
HETATM    6  C   UNL     1     -10.006   9.977  69.380  1.00  0.00    -0.239 C  
HETATM    7  C   UNL     1     -11.342  10.561  69.822  1.00  0.00    -0.367 C  
HETATM    8  C   UNL     1      -9.523   8.818  70.238  1.00  0.00    -0.194 C  
HETATM    9  C   UNL     1     -11.930  11.321  68.642  1.00  0.00    -0.314 C  
HETATM   10  C   UNL     1      -8.660   8.833  71.568  1.00  0.00    -0.253 C  
HETATM   11  C   UNL     1     -11.009  12.434  68.223  1.00  0.00    -0.269 C  
HETATM   12  C   UNL     1      -7.950   7.417  71.589  1.00  0.00    -0.098 C  
HETATM   13  C   UNL     1     -11.573  13.618  67.915  1.00  0.00    -0.376 C  
HETATM   14  C   UNL     1      -8.642   6.747  70.419  1.00  0.00    -0.146 C  
HETATM   15  C   UNL     1      -9.471  11.624  66.506  1.00  0.00    -0.219 C  
HETATM   16  C   UNL     1     -10.703  14.720  67.473  1.00  0.00    -0.269 C  
HETATM   17  O   UNL     1     -11.149  15.605  66.753  1.00  0.00    -0.284 OA 
HETATM   18  C   UNL     1      -9.516  12.107  67.985  1.00  0.00    -0.201 C  
HETATM   19  C   UNL     1      -9.339  14.752  68.077  1.00  0.00    -0.196 C  
HETATM   20  C   UNL     1      -8.625  13.392  68.076  1.00  0.00    -0.174 C  
ENDROOT
BRANCH  14  21
HETATM   21  O   UNL     1      -8.362   5.408  70.038  1.00  0.00    -0.103 OA 
BRANCH  21  22
HETATM   22  C   UNL     1      -9.477   4.610  70.243  1.00  0.00    -0.170 C  
HETATM   23  O   UNL     1     -10.312   4.358  69.377  1.00  0.00     0.028 OA 
BRANCH  22  24
HETATM   24  C   UNL     1      -9.470   3.850  71.552  1.00  0.00    -0.226 C  
BRANCH  24  25
HETATM   25  C   UNL     1      -9.068   2.400  71.386  1.00  0.00    -0.164 C  
BRANCH  25  26
HETATM   26  C   UNL     1      -7.588   2.133  71.662  1.00  0.00    -0.040 C  
HETATM   27  C   UNL     1      -6.786   3.425  71.520  1.00  0.00    -0.031 C  
HETATM   28  C   UNL     1      -5.495   3.119  72.252  1.00  0.00    -0.004 C  
HETATM   29  C   UNL     1      -5.937   2.313  73.467  1.00  0.00    -0.004 C  
HETATM   30  C   UNL     1      -7.263   1.652  73.083  1.00  0.00    -0.027 C  
ENDBRANCH  25  26
ENDBRANCH  24  25
ENDBRANCH  22  24
ENDBRANCH  21  22
ENDBRANCH  14  21
TORSDOF 5
ENDMDL
MODEL      143
REMARK 921   NORMALIZED FREE ENERGY PREDICTED BY IDOCK:   -2.74 KCAL/MOL
REMARK 922        TOTAL FREE ENERGY PREDICTED BY IDOCK:   -4.88 KCAL/MOL
REMARK 923 INTER-LIGAND FREE ENERGY PREDICTED BY IDOCK:   -4.40 KCAL/MOL
REMARK 924 INTRA-LIGAND FREE ENERGY PREDICTED BY IDOCK:   -0.48 KCAL/MOL
REMARK 927      BINDING AFFINITY PREDICTED BY RF-SCORE:    0.00 PKD
ROOT
HETATM    1  C   UNL     1      -9.310  11.222  68.459  1.00  0.00    -0.182 C  
HETATM    2  C   UNL     1      -7.807  11.031  68.669  1.00  0.00    -0.136 C  
HETATM    3  C   UNL     1      -7.603   9.934  69.795  1.00  0.00    -0.151 C  
HETATM    4  C   UNL     1      -7.918   8.465  69.330  1.00  0.00    -0.112 C  
HETATM    5  C   UNL     1      -7.462   8.023  67.890  1.00  0.00    -0.094 C  
HETATM    6  C   UNL     1      -7.566   9.231  66.966  1.00  0.00    -0.091 C  
HETATM    7  C   UNL     1      -7.294   8.973  65.489  1.00  0.00    -0.085 C  
HETATM    8  C   UNL     1      -6.936  10.508  67.497  1.00  0.00    -0.080 C  
HETATM    9  C   UNL     1      -8.349   8.000  64.984  1.00  0.00    -0.121 C  
HETATM   10  C   UNL     1      -5.489  10.750  68.099  1.00  0.00    -0.036 C  
HETATM   11  C   UNL     1      -8.272   6.703  65.743  1.00  0.00    -0.135 C  
HETATM   12  C   UNL     1      -5.664  12.010  69.043  1.00  0.00    -0.057 C  
HETATM   13  C   UNL     1      -8.394   5.565  65.031  1.00  0.00    -0.146 C  
HETATM   14  C   UNL     1      -7.084  12.413  68.701  1.00  0.00    -0.103 C  
HETATM   15  C   UNL     1      -9.760   6.795  67.678  1.00  0.00    -0.146 C  
HETATM   16  C   UNL     1      -8.352   4.279  65.746  1.00  0.00    -0.109 C  
HETATM   17  O   UNL     1      -8.911   3.296  65.277  1.00  0.00    -0.121 OA 
HETATM   18  C   UNL     1      -8.254   6.752  67.289  1.00  0.00    -0.121 C  
HETATM   19  C   UNL     1      -7.478   4.237  66.955  1.00  0.00    -0.081 C  
HETATM   20  C   UNL     1      -7.659   5.437  67.897  1.00  0.00    -0.088 C  
ENDROOT
BRANCH  14  21
HETATM   21  O   UNL     1      -7.713  13.544  69.286  1.00  0.00     0.136 OA 
BRANCH  21  22
HETATM   22  C   UNL     1      -7.666  14.620  68.413  1.00  0.00    -0.125 C  
HETATM   23  O   UNL     1      -6.686  14.911  67.731  1.00  0.00    -0.144 OA 
BRANCH  22  24
HETATM   24  C   UNL     1      -9.005  15.279  68.159  1.00  0.00    -0.173 C  
BRANCH  24  25
HETATM   25  C   UNL     1      -9.036  16.730  68.589  1.00  0.00    -0.251 C  
BRANCH  25  26
HETATM   26  C   UNL     1      -8.595  17.708  67.499  1.00  0.00    -0.222 C  
HETATM   27  C   UNL     1      -9.809  18.438  66.927  1.00  0.00    -0.347 C  
HETATM   28  C   UNL     1      -9.202  19.645  66.243  1.00  0.00    -0.437 C  
HETATM   29  C   UNL     1      -8.088  20.086  67.184  1.00  0.00    -0.357 C  
HETATM   30  C   UNL     1      -7.672  18.840  67.970  1.00  0.00    -0.286 C  
ENDBRANCH  25  26
ENDBRANCH  24  25
ENDBRANCH  22  24
ENDBRANCH  21  22
ENDBRANCH  14  21
TORSDOF 5
ENDMDL
MODEL      144
REMARK 921   NORMALIZED FREE ENERGY PREDICTED BY IDOCK:   -2.74 KCAL/MOL
REMARK 922        TOTAL FREE ENERGY PREDICTED BY IDOCK:   -4.88 KCAL/MOL
REMARK 923 INTER-LIGAND FREE ENERGY PREDICTED BY IDOCK:   -5.10 KCAL/MOL
REMARK 924 INTRA-LIGAND FREE ENERGY PREDICTED BY IDOCK:    0.22 KCAL/MOL
REMARK 927      BINDING AFFINITY PREDICTED BY RF-SCORE:    0.00 PKD
ROOT
HETATM    1  C   UNL     1      -7.748  10.424  67.124  1.00  0.00    -0.100 C  
HETATM    2  C   UNL     1      -8.804  10.535  68.226  1.00  0.00    -0.139 C  
HETATM    3  C   UNL     1      -8.212  11.439  69.385  1.00  0.00     0.359 C  
HETATM    4  C   UNL     1      -8.139  12.972  69.038  1.00  0.00     0.344 C  
HETATM    5  C   UNL     1      -9.338  13.615  68.247  1.00  0.00    -0.204 C  
HETATM    6  C   UNL     1      -9.896  12.568  67.290  1.00  0.00    -0.204 C  
HETATM    7  C   UNL     1     -10.984  13.041  66.334  1.00  0.00    -0.301 C  
HETATM    8  C   UNL     1     -10.166  11.205  67.909  1.00  0.00    -0.202 C  
HETATM    9  C   UNL     1     -10.381  14.111  65.436  1.00  0.00    -0.384 C  
HETATM   10  C   UNL     1     -10.971  10.830  69.222  1.00  0.00    -0.292 C  
HETATM   11  C   UNL     1      -9.896  15.273  66.260  1.00  0.00    -0.316 C  
HETATM   12  C   UNL     1     -10.351   9.446  69.679  1.00  0.00    -0.229 C  
HETATM   13  C   UNL     1     -10.148  16.510  65.789  1.00  0.00    -0.328 C  
HETATM   14  C   UNL     1      -9.455   9.144  68.494  1.00  0.00    -0.146 C  
HETATM   15  C   UNL     1      -7.553  14.931  66.862  1.00  0.00     0.141 C  
HETATM   16  C   UNL     1      -9.661  17.669  66.555  1.00  0.00    -0.304 C  
HETATM   17  O   UNL     1      -9.431  18.730  65.987  1.00  0.00    -0.480 OA 
HETATM   18  C   UNL     1      -8.982  14.987  67.475  1.00  0.00    -0.189 C  
HETATM   19  C   UNL     1      -9.626  17.499  68.037  1.00  0.00    -0.282 C  
HETATM   20  C   UNL     1      -8.998  16.175  68.497  1.00  0.00    -0.204 C  
ENDROOT
BRANCH  14  21
HETATM   21  O   UNL     1      -8.681   7.955  68.412  1.00  0.00    -0.131 OA 
BRANCH  21  22
HETATM   22  C   UNL     1      -7.611   8.020  69.291  1.00  0.00    -0.096 C  
HETATM   23  O   UNL     1      -6.439   8.129  68.941  1.00  0.00    -0.046 OA 
BRANCH  22  24
HETATM   24  C   UNL     1      -8.003   8.205  70.741  1.00  0.00    -0.097 C  
BRANCH  24  25
HETATM   25  C   UNL     1      -8.267   6.893  71.449  1.00  0.00    -0.110 C  
BRANCH  25  26
HETATM   26  C   UNL     1      -9.641   6.817  72.117  1.00  0.00    -0.152 C  
HETATM   27  C   UNL     1     -10.656   6.195  71.161  1.00  0.00    -0.300 C  
HETATM   28  C   UNL     1     -11.784   5.767  72.076  1.00  0.00    -0.175 C  
HETATM   29  C   UNL     1     -11.077   5.229  73.314  1.00  0.00    -0.376 C  
HETATM   30  C   UNL     1      -9.713   5.924  73.364  1.00  0.00    -0.158 C  
ENDBRANCH  25  26
ENDBRANCH  24  25
ENDBRANCH  22  24
ENDBRANCH  21  22
ENDBRANCH  14  21
TORSDOF 5
ENDMDL
MODEL      145
REMARK 921   NORMALIZED FREE ENERGY PREDICTED BY IDOCK:   -2.72 KCAL/MOL
REMARK 922        TOTAL FREE ENERGY PREDICTED BY IDOCK:   -4.86 KCAL/MOL
REMARK 923 INTER-LIGAND FREE ENERGY PREDICTED BY IDOCK:   -4.49 KCAL/MOL
REMARK 924 INTRA-LIGAND FREE ENERGY PREDICTED BY IDOCK:   -0.37 KCAL/MOL
REMARK 927      BINDING AFFINITY PREDICTED BY RF-SCORE:    0.00 PKD
ROOT
HETATM    1  C   UNL     1      -8.137  12.334  66.974  1.00  0.00    -0.141 C  
HETATM    2  C   UNL     1      -7.199  12.512  68.169  1.00  0.00    -0.106 C  
HETATM    3  C   UNL     1      -5.908  13.284  67.671  1.00  0.00    -0.107 C  
HETATM    4  C   UNL     1      -6.140  14.813  67.383  1.00  0.00     0.176 C  
HETATM    5  C   UNL     1      -7.055  15.628  68.371  1.00  0.00    -0.115 C  
HETATM    6  C   UNL     1      -8.151  14.699  68.882  1.00  0.00    -0.147 C  
HETATM    7  C   UNL     1      -9.224  15.340  69.754  1.00  0.00    -0.060 C  
HETATM    8  C   UNL     1      -7.669  13.349  69.387  1.00  0.00     0.527 C  
HETATM    9  C   UNL     1      -9.951  16.377  68.909  1.00  0.00    -0.257 C  
HETATM   10  C   UNL     1      -6.517  13.005  70.420  1.00  0.00     0.357 C  
HETATM   11  C   UNL     1      -8.990  17.434  68.436  1.00  0.00    -0.277 C  
HETATM   12  C   UNL     1      -6.065  11.538  70.029  1.00  0.00    -0.151 C  
HETATM   13  C   UNL     1      -9.411  18.713  68.480  1.00  0.00    -0.386 C  
HETATM   14  C   UNL     1      -7.121  11.193  68.998  1.00  0.00    -0.113 C  
HETATM   15  C   UNL     1      -8.072  16.796  66.264  1.00  0.00    -0.365 C  
HETATM   16  C   UNL     1      -8.508  19.770  67.997  1.00  0.00    -0.296 C  
HETATM   17  O   UNL     1      -8.964  20.823  67.571  1.00  0.00    -0.277 OA 
HETATM   18  C   UNL     1      -7.675  16.986  67.756  1.00  0.00    -0.181 C  
HETATM   19  C   UNL     1      -7.051  19.525  68.209  1.00  0.00    -0.330 C  
HETATM   20  C   UNL     1      -6.591  18.116  67.803  1.00  0.00    -0.189 C  
ENDROOT
BRANCH  14  21
HETATM   21  O   UNL     1      -7.166   9.929  68.351  1.00  0.00    -0.072 OA 
BRANCH  21  22
HETATM   22  C   UNL     1      -7.869   9.020  69.127  1.00  0.00    -0.093 C  
HETATM   23  O   UNL     1      -7.700   7.804  69.085  1.00  0.00    -0.097 OA 
BRANCH  22  24
HETATM   24  C   UNL     1      -8.696   9.646  70.229  1.00  0.00    -0.248 C  
BRANCH  24  25
HETATM   25  C   UNL     1     -10.027   8.954  70.429  1.00  0.00    -0.230 C  
BRANCH  25  26
HETATM   26  C   UNL     1      -9.933   7.647  71.217  1.00  0.00    -0.195 C  
HETATM   27  C   UNL     1      -9.584   7.937  72.674  1.00  0.00    -0.290 C  
HETATM   28  C   UNL     1      -9.979   6.662  73.391  1.00  0.00    -0.231 C  
HETATM   29  C   UNL     1     -11.274   6.238  72.711  1.00  0.00    -0.272 C  
HETATM   30  C   UNL     1     -11.236   6.840  71.303  1.00  0.00    -0.319 C  
ENDBRANCH  25  26
ENDBRANCH  24  25
ENDBRANCH  22  24
ENDBRANCH  21  22
ENDBRANCH  14  21
TORSDOF 5
ENDMDL
MODEL      146
REMARK 921   NORMALIZED FREE ENERGY PREDICTED BY IDOCK:   -2.62 KCAL/MOL
REMARK 922        TOTAL FREE ENERGY PREDICTED BY IDOCK:   -4.73 KCAL/MOL
REMARK 923 INTER-LIGAND FREE ENERGY PREDICTED BY IDOCK:   -4.36 KCAL/MOL
REMARK 924 INTRA-LIGAND FREE ENERGY PREDICTED BY IDOCK:   -0.36 KCAL/MOL
REMARK 927      BINDING AFFINITY PREDICTED BY RF-SCORE:    0.00 PKD
ROOT
HETATM    1  C   UNL     1      -6.165  12.030  66.806  1.00  0.00     0.023 C  
HETATM    2  C   UNL     1      -6.408  12.591  68.208  1.00  0.00    -0.062 C  
HETATM    3  C   UNL     1      -7.973  12.619  68.462  1.00  0.00    -0.093 C  
HETATM    4  C   UNL     1      -8.613  11.204  68.710  1.00  0.00    -0.133 C  
HETATM    5  C   UNL     1      -7.820  10.170  69.594  1.00  0.00    -0.181 C  
HETATM    6  C   UNL     1      -6.329  10.382  69.353  1.00  0.00    -0.053 C  
HETATM    7  C   UNL     1      -5.392   9.383  70.021  1.00  0.00    -0.032 C  
HETATM    8  C   UNL     1      -5.859  11.825  69.439  1.00  0.00    -0.074 C  
HETATM    9  C   UNL     1      -5.691   8.007  69.444  1.00  0.00    -0.027 C  
HETATM   10  C   UNL     1      -6.108  12.906  70.571  1.00  0.00     0.018 C  
HETATM   11  C   UNL     1      -7.118   7.621  69.724  1.00  0.00    -0.067 C  
HETATM   12  C   UNL     1      -5.978  14.295  69.821  1.00  0.00    -0.120 C  
HETATM   13  C   UNL     1      -7.348   6.350  70.111  1.00  0.00    -0.086 C  
HETATM   14  C   UNL     1      -5.494  13.828  68.463  1.00  0.00    -0.093 C  
HETATM   15  C   UNL     1      -8.541   8.339  67.873  1.00  0.00    -0.132 C  
HETATM   16  C   UNL     1      -8.736   5.931  70.364  1.00  0.00    -0.139 C  
HETATM   17  O   UNL     1      -9.055   4.755  70.244  1.00  0.00    -0.105 OA 
HETATM   18  C   UNL     1      -8.239   8.627  69.372  1.00  0.00    -0.113 C  
HETATM   19  C   UNL     1      -9.642   6.983  70.910  1.00  0.00    -0.167 C  
HETATM   20  C   UNL     1      -9.552   8.328  70.172  1.00  0.00    -0.167 C  
ENDROOT
BRANCH  14  21
HETATM   21  O   UNL     1      -5.193  14.735  67.412  1.00  0.00    -0.334 OA 
BRANCH  21  22
HETATM   22  C   UNL     1      -5.793  15.961  67.653  1.00  0.00    -0.146 C  
HETATM   23  O   UNL     1      -5.191  17.032  67.657  1.00  0.00    -0.110 OA 
BRANCH  22  24
HETATM   24  C   UNL     1      -7.306  15.927  67.662  1.00  0.00    -0.180 C  
BRANCH  24  25
HETATM   25  C   UNL     1      -7.919  16.766  66.562  1.00  0.00    -0.334 C  
BRANCH  25  26
HETATM   26  C   UNL     1      -8.903  17.823  67.065  1.00  0.00    -0.260 C  
HETATM   27  C   UNL     1      -9.309  17.519  68.505  1.00  0.00    -0.286 C  
HETATM   28  C   UNL     1      -9.873  18.836  68.997  1.00  0.00    -0.351 C  
HETATM   29  C   UNL     1      -8.950  19.886  68.390  1.00  0.00    -0.255 C  
HETATM   30  C   UNL     1      -8.350  19.254  67.132  1.00  0.00    -0.305 C  
ENDBRANCH  25  26
ENDBRANCH  24  25
ENDBRANCH  22  24
ENDBRANCH  21  22
ENDBRANCH  14  21
TORSDOF 5
ENDMDL
MODEL      147
REMARK 921   NORMALIZED FREE ENERGY PREDICTED BY IDOCK:   -2.58 KCAL/MOL
REMARK 922        TOTAL FREE ENERGY PREDICTED BY IDOCK:   -4.68 KCAL/MOL
REMARK 923 INTER-LIGAND FREE ENERGY PREDICTED BY IDOCK:   -4.92 KCAL/MOL
REMARK 924 INTRA-LIGAND FREE ENERGY PREDICTED BY IDOCK:    0.24 KCAL/MOL
REMARK 927      BINDING AFFINITY PREDICTED BY RF-SCORE:    0.00 PKD
ROOT
HETATM    1  C   UNL     1      -8.563   6.933  68.050  1.00  0.00    -0.123 C  
HETATM    2  C   UNL     1      -7.676   7.708  69.026  1.00  0.00    -0.117 C  
HETATM    3  C   UNL     1      -6.719   8.647  68.181  1.00  0.00    -0.065 C  
HETATM    4  C   UNL     1      -7.435   9.895  67.544  1.00  0.00    -0.091 C  
HETATM    5  C   UNL     1      -8.515  10.654  68.400  1.00  0.00    -0.132 C  
HETATM    6  C   UNL     1      -9.237   9.632  69.272  1.00  0.00    -0.186 C  
HETATM    7  C   UNL     1     -10.417  10.153  70.082  1.00  0.00    -0.311 C  
HETATM    8  C   UNL     1      -8.331   8.682  70.039  1.00  0.00    -0.124 C  
HETATM    9  C   UNL     1     -11.472  10.648  69.103  1.00  0.00    -0.349 C  
HETATM   10  C   UNL     1      -7.084   8.998  70.965  1.00  0.00    -0.103 C  
HETATM   11  C   UNL     1     -10.917  11.759  68.253  1.00  0.00    -0.274 C  
HETATM   12  C   UNL     1      -6.210   7.678  70.907  1.00  0.00    -0.035 C  
HETATM   13  C   UNL     1     -11.718  12.817  68.022  1.00  0.00    -0.405 C  
HETATM   14  C   UNL     1      -7.148   6.762  70.148  1.00  0.00    -0.071 C  
HETATM   15  C   UNL     1      -9.943  10.825  66.216  1.00  0.00    -0.272 C  
HETATM   16  C   UNL     1     -11.217  13.908  67.169  1.00  0.00    -0.313 C  
HETATM   17  O   UNL     1     -12.002  14.616  66.551  1.00  0.00    -0.362 OA 
HETATM   18  C   UNL     1      -9.559  11.539  67.544  1.00  0.00    -0.179 C  
HETATM   19  C   UNL     1      -9.750  14.168  67.244  1.00  0.00    -0.236 C  
HETATM   20  C   UNL     1      -8.887  12.900  67.157  1.00  0.00    -0.210 C  
ENDROOT
BRANCH  14  21
HETATM   21  O   UNL     1      -6.820   5.410  69.859  1.00  0.00    -0.054 OA 
BRANCH  21  22
HETATM   22  C   UNL     1      -6.279   4.800  70.980  1.00  0.00    -0.019 C  
HETATM   23  O   UNL     1      -5.449   5.327  71.716  1.00  0.00    -0.008 OA 
BRANCH  22  24
HETATM   24  C   UNL     1      -6.973   3.519  71.391  1.00  0.00    -0.032 C  
BRANCH  24  25
HETATM   25  C   UNL     1      -7.262   3.460  72.876  1.00  0.00    -0.046 C  
BRANCH  25  26
HETATM   26  C   UNL     1      -8.451   2.569  73.239  1.00  0.00    -0.070 C  
HETATM   27  C   UNL     1      -9.648   3.428  73.638  1.00  0.00    -0.137 C  
HETATM   28  C   UNL     1     -10.821   2.478  73.511  1.00  0.00    -0.289 C  
HETATM   29  C   UNL     1     -10.510   1.668  72.258  1.00  0.00    -0.208 C  
HETATM   30  C   UNL     1      -8.987   1.695  72.097  1.00  0.00    -0.101 C  
ENDBRANCH  25  26
ENDBRANCH  24  25
ENDBRANCH  22  24
ENDBRANCH  21  22
ENDBRANCH  14  21
TORSDOF 5
ENDMDL
MODEL      148
REMARK 921   NORMALIZED FREE ENERGY PREDICTED BY IDOCK:   -2.28 KCAL/MOL
REMARK 922        TOTAL FREE ENERGY PREDICTED BY IDOCK:   -4.29 KCAL/MOL
REMARK 923 INTER-LIGAND FREE ENERGY PREDICTED BY IDOCK:   -3.90 KCAL/MOL
REMARK 924 INTRA-LIGAND FREE ENERGY PREDICTED BY IDOCK:   -0.40 KCAL/MOL
REMARK 927      BINDING AFFINITY PREDICTED BY RF-SCORE:    0.00 PKD
ROOT
HETATM    1  C   UNL     1      -6.336   8.699  66.318  1.00  0.00    -0.061 C  
HETATM    2  C   UNL     1      -7.505   7.716  66.227  1.00  0.00    -0.083 C  
HETATM    3  C   UNL     1      -8.533   8.066  67.382  1.00  0.00    -0.126 C  
HETATM    4  C   UNL     1      -9.367   9.376  67.129  1.00  0.00    -0.172 C  
HETATM    5  C   UNL     1      -9.891   9.658  65.672  1.00  0.00    -0.369 C  
HETATM    6  C   UNL     1      -8.863   9.120  64.683  1.00  0.00    -0.183 C  
HETATM    7  C   UNL     1      -9.125   9.416  63.212  1.00  0.00    -0.059 C  
HETATM    8  C   UNL     1      -8.388   7.701  64.953  1.00  0.00    -0.054 C  
HETATM    9  C   UNL     1      -9.092  10.927  63.029  1.00  0.00    -0.306 C  
HETATM   10  C   UNL     1      -9.230   6.383  65.216  1.00  0.00     0.389 C  
HETATM   11  C   UNL     1     -10.155  11.580  63.871  1.00  0.00    -0.388 C  
HETATM   12  C   UNL     1      -8.256   5.458  66.056  1.00  0.00    -0.116 C  
HETATM   13  C   UNL     1     -10.857  12.583  63.307  1.00  0.00    -0.205 C  
HETATM   14  C   UNL     1      -6.978   6.269  65.982  1.00  0.00    -0.065 C  
HETATM   15  C   UNL     1      -9.230  12.159  66.057  1.00  0.00    -0.119 C  
HETATM   16  C   UNL     1     -11.884  13.263  64.113  1.00  0.00    -0.443 C  
HETATM   17  O   UNL     1     -12.196  14.421  63.862  1.00  0.00    -0.595 OA 
HETATM   18  C   UNL     1     -10.247  11.203  65.368  1.00  0.00    -0.327 C  
HETATM   19  C   UNL     1     -12.595  12.413  65.112  1.00  0.00    -0.215 C  
HETATM   20  C   UNL     1     -11.660  11.533  65.957  1.00  0.00     0.024 C  
ENDROOT
BRANCH  14  21
HETATM   21  O   UNL     1      -5.765   5.830  66.578  1.00  0.00    -0.016 OA 
BRANCH  21  22
HETATM   22  C   UNL     1      -6.025   4.851  67.524  1.00  0.00    -0.023 C  
HETATM   23  O   UNL     1      -5.521   3.730  67.511  1.00  0.00    -0.018 OA 
BRANCH  22  24
HETATM   24  C   UNL     1      -6.789   5.338  68.737  1.00  0.00    -0.055 C  
BRANCH  24  25
HETATM   25  C   UNL     1      -5.881   5.734  69.881  1.00  0.00    -0.024 C  
BRANCH  25  26
HETATM   26  C   UNL     1      -6.588   5.809  71.235  1.00  0.00    -0.046 C  
HETATM   27  C   UNL     1      -5.578   5.631  72.365  1.00  0.00    -0.026 C  
HETATM   28  C   UNL     1      -6.305   6.179  73.576  1.00  0.00    -0.065 C  
HETATM   29  C   UNL     1      -7.047   7.399  73.044  1.00  0.00    -0.074 C  
HETATM   30  C   UNL     1      -7.260   7.153  71.549  1.00  0.00    -0.077 C  
ENDBRANCH  25  26
ENDBRANCH  24  25
ENDBRANCH  22  24
ENDBRANCH  21  22
ENDBRANCH  14  21
TORSDOF 5
ENDMDL
MODEL      149
REMARK 921   NORMALIZED FREE ENERGY PREDICTED BY IDOCK:   -2.25 KCAL/MOL
REMARK 922        TOTAL FREE ENERGY PREDICTED BY IDOCK:   -4.25 KCAL/MOL
REMARK 923 INTER-LIGAND FREE ENERGY PREDICTED BY IDOCK:   -4.65 KCAL/MOL
REMARK 924 INTRA-LIGAND FREE ENERGY PREDICTED BY IDOCK:    0.40 KCAL/MOL
REMARK 927      BINDING AFFINITY PREDICTED BY RF-SCORE:    0.00 PKD
ROOT
HETATM    1  C   UNL     1     -10.623   8.997  68.713  1.00  0.00    -0.196 C  
HETATM    2  C   UNL     1      -9.287   9.212  69.426  1.00  0.00    -0.160 C  
HETATM    3  C   UNL     1      -9.590   9.661  70.916  1.00  0.00    -0.085 C  
HETATM    4  C   UNL     1     -10.117   8.506  71.844  1.00  0.00    -0.367 C  
HETATM    5  C   UNL     1      -9.465   7.080  71.705  1.00  0.00    -0.157 C  
HETATM    6  C   UNL     1      -9.087   6.869  70.244  1.00  0.00    -0.153 C  
HETATM    7  C   UNL     1      -8.559   5.487  69.878  1.00  0.00    -0.120 C  
HETATM    8  C   UNL     1      -8.319   8.014  69.603  1.00  0.00    -0.126 C  
HETATM    9  C   UNL     1      -9.668   4.480  70.146  1.00  0.00    -0.287 C  
HETATM   10  C   UNL     1      -7.025   8.776  70.112  1.00  0.00    -0.044 C  
HETATM   11  C   UNL     1     -10.055   4.501  71.599  1.00  0.00    -0.249 C  
HETATM   12  C   UNL     1      -7.116  10.201  69.426  1.00  0.00    -0.085 C  
HETATM   13  C   UNL     1     -10.269   3.313  72.198  1.00  0.00    -0.143 C  
HETATM   14  C   UNL     1      -8.296   9.984  68.501  1.00  0.00    -0.113 C  
HETATM   15  C   UNL     1     -11.875   6.095  71.941  1.00  0.00    -0.316 C  
HETATM   16  C   UNL     1     -10.679   3.299  73.611  1.00  0.00    -0.212 C  
HETATM   17  O   UNL     1     -11.326   2.359  74.055  1.00  0.00    -0.156 OA 
HETATM   18  C   UNL     1     -10.370   5.864  72.260  1.00  0.00    -0.236 C  
HETATM   19  C   UNL     1     -10.127   4.397  74.458  1.00  0.00    -0.258 C  
HETATM   20  C   UNL     1     -10.237   5.790  73.819  1.00  0.00    -0.245 C  
ENDROOT
BRANCH  14  21
HETATM   21  O   UNL     1      -8.768  10.996  67.622  1.00  0.00    -0.127 OA 
BRANCH  21  22
HETATM   22  C   UNL     1      -8.843  10.507  66.327  1.00  0.00    -0.159 C  
HETATM   23  O   UNL     1      -8.623  11.181  65.324  1.00  0.00    -0.108 OA 
BRANCH  22  24
HETATM   24  C   UNL     1      -8.970   9.002  66.233  1.00  0.00    -0.199 C  
BRANCH  24  25
HETATM   25  C   UNL     1      -8.027   8.397  65.215  1.00  0.00    -0.125 C  
BRANCH  25  26
HETATM   26  C   UNL     1      -7.280   7.162  65.720  1.00  0.00    -0.073 C  
HETATM   27  C   UNL     1      -5.829   7.197  65.248  1.00  0.00    -0.037 C  
HETATM   28  C   UNL     1      -5.135   6.218  66.173  1.00  0.00    -0.013 C  
HETATM   29  C   UNL     1      -5.780   6.468  67.531  1.00  0.00    -0.012 C  
HETATM   30  C   UNL     1      -7.170   7.043  67.246  1.00  0.00    -0.089 C  
ENDBRANCH  25  26
ENDBRANCH  24  25
ENDBRANCH  22  24
ENDBRANCH  21  22
ENDBRANCH  14  21
TORSDOF 5
ENDMDL
MODEL      150
REMARK 921   NORMALIZED FREE ENERGY PREDICTED BY IDOCK:   -2.07 KCAL/MOL
REMARK 922        TOTAL FREE ENERGY PREDICTED BY IDOCK:   -4.02 KCAL/MOL
REMARK 923 INTER-LIGAND FREE ENERGY PREDICTED BY IDOCK:   -3.65 KCAL/MOL
REMARK 924 INTRA-LIGAND FREE ENERGY PREDICTED BY IDOCK:   -0.37 KCAL/MOL
REMARK 927      BINDING AFFINITY PREDICTED BY RF-SCORE:    0.00 PKD
ROOT
HETATM    1  C   UNL     1      -9.925   7.503  66.276  1.00  0.00    -0.000 C  
HETATM    2  C   UNL     1      -8.747   7.890  67.172  1.00  0.00    -0.133 C  
HETATM    3  C   UNL     1      -7.721   8.726  66.301  1.00  0.00    -0.098 C  
HETATM    4  C   UNL     1      -8.195  10.189  65.970  1.00  0.00    -0.131 C  
HETATM    5  C   UNL     1      -8.925  11.010  67.097  1.00  0.00    -0.145 C  
HETATM    6  C   UNL     1      -9.742  10.038  67.941  1.00  0.00    -0.168 C  
HETATM    7  C   UNL     1     -10.633  10.660  69.010  1.00  0.00    -0.249 C  
HETATM    8  C   UNL     1      -8.995   8.798  68.404  1.00  0.00    -0.141 C  
HETATM    9  C   UNL     1     -11.663  11.531  68.307  1.00  0.00    -0.371 C  
HETATM   10  C   UNL     1      -7.589   8.672  69.127  1.00  0.00    -0.089 C  
HETATM   11  C   UNL     1     -10.982  12.621  67.525  1.00  0.00    -0.280 C  
HETATM   12  C   UNL     1      -7.080   7.222  68.742  1.00  0.00    -0.084 C  
HETATM   13  C   UNL     1     -11.526  13.853  67.581  1.00  0.00    -0.354 C  
HETATM   14  C   UNL     1      -8.311   6.675  68.048  1.00  0.00    -0.117 C  
HETATM   15  C   UNL     1     -10.564  11.855  65.243  1.00  0.00    -0.320 C  
HETATM   16  C   UNL     1     -10.902  14.935  66.804  1.00  0.00    -0.320 C  
HETATM   17  O   UNL     1     -11.571  15.892  66.433  1.00  0.00     0.226 OA 
HETATM   18  C   UNL     1      -9.834  12.233  66.564  1.00  0.00    -0.240 C  
HETATM   19  C   UNL     1      -9.420  14.853  66.650  1.00  0.00    -0.286 C  
HETATM   20  C   UNL     1      -8.913  13.460  66.245  1.00  0.00     0.109 C  
ENDROOT
BRANCH  14  21
HETATM   21  O   UNL     1      -8.366   5.353  67.531  1.00  0.00    -0.104 OA 
BRANCH  21  22
HETATM   22  C   UNL     1      -7.111   4.959  67.093  1.00  0.00    -0.066 C  
HETATM   23  O   UNL     1      -6.372   5.659  66.404  1.00  0.00    -0.033 OA 
BRANCH  22  24
HETATM   24  C   UNL     1      -6.593   3.691  67.736  1.00  0.00    -0.042 C  
BRANCH  24  25
HETATM   25  C   UNL     1      -7.494   2.500  67.492  1.00  0.00    -0.057 C  
BRANCH  25  26
HETATM   26  C   UNL     1      -8.159   1.957  68.758  1.00  0.00    -0.062 C  
HETATM   27  C   UNL     1      -7.515   2.576  69.995  1.00  0.00    -0.043 C  
HETATM   28  C   UNL     1      -8.537   2.326  71.086  1.00  0.00    -0.098 C  
HETATM   29  C   UNL     1      -9.877   2.560  70.400  1.00  0.00     0.118 C  
HETATM   30  C   UNL     1      -9.649   2.293  68.910  1.00  0.00    -0.075 C  
ENDBRANCH  25  26
ENDBRANCH  24  25
ENDBRANCH  22  24
ENDBRANCH  21  22
ENDBRANCH  14  21
TORSDOF 5
ENDMDL
MODEL      151
REMARK 921   NORMALIZED FREE ENERGY PREDICTED BY IDOCK:   -1.58 KCAL/MOL
REMARK 922        TOTAL FREE ENERGY PREDICTED BY IDOCK:   -3.38 KCAL/MOL
REMARK 923 INTER-LIGAND FREE ENERGY PREDICTED BY IDOCK:   -3.73 KCAL/MOL
REMARK 924 INTRA-LIGAND FREE ENERGY PREDICTED BY IDOCK:    0.35 KCAL/MOL
REMARK 927      BINDING AFFINITY PREDICTED BY RF-SCORE:    0.00 PKD
ROOT
HETATM    1  C   UNL     1      -8.435   5.478  66.957  1.00  0.00    -0.110 C  
HETATM    2  C   UNL     1      -7.822   5.877  68.301  1.00  0.00    -0.105 C  
HETATM    3  C   UNL     1      -6.563   6.796  68.014  1.00  0.00    -0.059 C  
HETATM    4  C   UNL     1      -6.920   8.249  67.530  1.00  0.00    -0.075 C  
HETATM    5  C   UNL     1      -8.132   8.986  68.212  1.00  0.00    -0.109 C  
HETATM    6  C   UNL     1      -9.185   7.943  68.568  1.00  0.00    -0.138 C  
HETATM    7  C   UNL     1     -10.501   8.476  69.121  1.00  0.00    -0.217 C  
HETATM    8  C   UNL     1      -8.659   6.717  69.299  1.00  0.00    -0.129 C  
HETATM    9  C   UNL     1     -11.146   9.331  68.040  1.00  0.00     0.055 C  
HETATM   10  C   UNL     1      -7.735   6.623  70.584  1.00  0.00    -0.104 C  
HETATM   11  C   UNL     1     -10.249  10.484  67.679  1.00  0.00    -0.234 C  
HETATM   12  C   UNL     1      -7.020   5.215  70.448  1.00  0.00    -0.049 C  
HETATM   13  C   UNL     1     -10.832  11.686  67.502  1.00  0.00    -0.287 C  
HETATM   14  C   UNL     1      -7.763   4.645  69.256  1.00  0.00    -0.063 C  
HETATM   15  C   UNL     1      -8.789   9.839  65.829  1.00  0.00    -0.180 C  
HETATM   16  C   UNL     1      -9.987  12.829  67.119  1.00  0.00    -0.218 C  
HETATM   17  O   UNL     1     -10.468  13.770  66.500  1.00  0.00    -0.276 OA 
HETATM   18  C   UNL     1      -8.768  10.190  67.344  1.00  0.00    -0.125 C  
HETATM   19  C   UNL     1      -8.596  12.819  67.660  1.00  0.00    -0.181 C  
HETATM   20  C   UNL     1      -7.878  11.470  67.507  1.00  0.00    -0.133 C  
ENDROOT
BRANCH  14  21
HETATM   21  O   UNL     1      -7.496   3.347  68.746  1.00  0.00    -0.050 OA 
BRANCH  21  22
HETATM   22  C   UNL     1      -8.646   2.805  68.194  1.00  0.00    -0.090 C  
HETATM   23  O   UNL     1      -9.756   3.326  68.268  1.00  0.00    -0.127 OA 
BRANCH  22  24
HETATM   24  C   UNL     1      -8.403   1.639  67.260  1.00  0.00    -0.083 C  
BRANCH  24  25
HETATM   25  C   UNL     1      -8.157   2.073  65.831  1.00  0.00    -0.084 C  
BRANCH  25  26
HETATM   26  C   UNL     1      -9.394   1.981  64.936  1.00  0.00    -0.083 C  
HETATM   27  C   UNL     1     -10.028   3.361  64.774  1.00  0.00    -0.087 C  
HETATM   28  C   UNL     1     -10.903   3.203  63.547  1.00  0.00    -0.206 C  
HETATM   29  C   UNL     1     -10.073   2.338  62.607  1.00  0.00    -0.094 C  
HETATM   30  C   UNL     1      -9.126   1.527  63.494  1.00  0.00    -0.089 C  
ENDBRANCH  25  26
ENDBRANCH  24  25
ENDBRANCH  22  24
ENDBRANCH  21  22
ENDBRANCH  14  21
TORSDOF 5
ENDMDL
MODEL      152
REMARK 921   NORMALIZED FREE ENERGY PREDICTED BY IDOCK:   -1.23 KCAL/MOL
REMARK 922        TOTAL FREE ENERGY PREDICTED BY IDOCK:   -2.93 KCAL/MOL
REMARK 923 INTER-LIGAND FREE ENERGY PREDICTED BY IDOCK:   -4.10 KCAL/MOL
REMARK 924 INTRA-LIGAND FREE ENERGY PREDICTED BY IDOCK:    1.17 KCAL/MOL
REMARK 927      BINDING AFFINITY PREDICTED BY RF-SCORE:    0.00 PKD
ROOT
HETATM    1  C   UNL     1      -9.494   7.091  65.641  1.00  0.00     0.390 C  
HETATM    2  C   UNL     1      -9.593   7.019  67.166  1.00  0.00    -0.187 C  
HETATM    3  C   UNL     1      -8.148   7.272  67.766  1.00  0.00    -0.115 C  
HETATM    4  C   UNL     1      -7.663   8.766  67.677  1.00  0.00    -0.101 C  
HETATM    5  C   UNL     1      -8.707   9.908  67.969  1.00  0.00    -0.125 C  
HETATM    6  C   UNL     1     -10.072   9.443  67.477  1.00  0.00    -0.268 C  
HETATM    7  C   UNL     1     -11.198  10.467  67.549  1.00  0.00    -0.254 C  
HETATM    8  C   UNL     1     -10.478   8.046  67.919  1.00  0.00    -0.259 C  
HETATM    9  C   UNL     1     -10.828  11.629  66.639  1.00  0.00    -0.327 C  
HETATM   10  C   UNL     1     -10.477   7.401  69.368  1.00  0.00    -0.220 C  
HETATM   11  C   UNL     1      -9.542  12.263  67.096  1.00  0.00    -0.200 C  
HETATM   12  C   UNL     1     -10.340   5.845  69.104  1.00  0.00    -0.303 C  
HETATM   13  C   UNL     1      -9.482  13.609  67.088  1.00  0.00    -0.244 C  
HETATM   14  C   UNL     1     -10.481   5.811  67.595  1.00  0.00    -0.235 C  
HETATM   15  C   UNL     1      -7.656  11.207  65.958  1.00  0.00     0.023 C  
HETATM   16  C   UNL     1      -8.228  14.261  67.501  1.00  0.00    -0.189 C  
HETATM   17  O   UNL     1      -7.946  15.376  67.079  1.00  0.00    -0.203 OA 
HETATM   18  C   UNL     1      -8.321  11.351  67.357  1.00  0.00    -0.144 C  
HETATM   19  C   UNL     1      -7.443  13.551  68.552  1.00  0.00    -0.122 C  
HETATM   20  C   UNL     1      -7.274  12.046  68.293  1.00  0.00    -0.090 C  
ENDROOT
BRANCH  14  21
HETATM   21  O   UNL     1     -10.455   4.597  66.858  1.00  0.00    -0.163 OA 
BRANCH  21  22
HETATM   22  C   UNL     1      -9.277   3.911  67.109  1.00  0.00    -0.176 C  
HETATM   23  O   UNL     1      -8.156   4.394  66.964  1.00  0.00    -0.101 OA 
BRANCH  22  24
HETATM   24  C   UNL     1      -9.461   2.590  67.824  1.00  0.00    -0.158 C  
BRANCH  24  25
HETATM   25  C   UNL     1      -9.652   2.753  69.317  1.00  0.00    -0.046 C  
BRANCH  25  26
HETATM   26  C   UNL     1      -8.343   2.789  70.108  1.00  0.00    -0.077 C  
HETATM   27  C   UNL     1      -7.249   3.461  69.281  1.00  0.00    -0.049 C  
HETATM   28  C   UNL     1      -6.207   3.834  70.316  1.00  0.00    -0.027 C  
HETATM   29  C   UNL     1      -7.023   4.304  71.513  1.00  0.00    -0.038 C  
HETATM   30  C   UNL     1      -8.384   3.611  71.404  1.00  0.00    -0.086 C  
ENDBRANCH  25  26
ENDBRANCH  24  25
ENDBRANCH  22  24
ENDBRANCH  21  22
ENDBRANCH  14  21
TORSDOF 5
ENDMDL
MODEL      153
REMARK 921   NORMALIZED FREE ENERGY PREDICTED BY IDOCK:   -0.95 KCAL/MOL
REMARK 922        TOTAL FREE ENERGY PREDICTED BY IDOCK:   -2.57 KCAL/MOL
REMARK 923 INTER-LIGAND FREE ENERGY PREDICTED BY IDOCK:   -4.32 KCAL/MOL
REMARK 924 INTRA-LIGAND FREE ENERGY PREDICTED BY IDOCK:    1.75 KCAL/MOL
REMARK 927      BINDING AFFINITY PREDICTED BY RF-SCORE:    0.00 PKD
ROOT
HETATM    1  C   UNL     1     -10.259  13.026  68.425  1.00  0.00    -0.246 C  
HETATM    2  C   UNL     1      -9.893  13.656  67.080  1.00  0.00    -0.242 C  
HETATM    3  C   UNL     1      -8.314  13.759  66.999  1.00  0.00    -0.107 C  
HETATM    4  C   UNL     1      -7.587  12.384  66.768  1.00  0.00     0.143 C  
HETATM    5  C   UNL     1      -8.233  11.357  65.764  1.00  0.00     0.153 C  
HETATM    6  C   UNL     1      -9.748  11.497  65.850  1.00  0.00    -0.260 C  
HETATM    7  C   UNL     1     -10.563  10.490  65.046  1.00  0.00    -0.109 C  
HETATM    8  C   UNL     1     -10.272  12.922  65.769  1.00  0.00    -0.298 C  
HETATM    9  C   UNL     1     -10.264   9.104  65.598  1.00  0.00     0.352 C  
HETATM   10  C   UNL     1      -9.953  14.060  64.712  1.00  0.00    -0.074 C  
HETATM   11  C   UNL     1      -8.800   8.790  65.460  1.00  0.00    -0.229 C  
HETATM   12  C   UNL     1     -10.225  15.409  65.497  1.00  0.00    -0.411 C  
HETATM   13  C   UNL     1      -8.472   7.547  65.052  1.00  0.00    -0.008 C  
HETATM   14  C   UNL     1     -10.831  14.864  66.775  1.00  0.00    -0.320 C  
HETATM   15  C   UNL     1      -7.617   9.485  67.482  1.00  0.00    -0.095 C  
HETATM   16  C   UNL     1      -7.047   7.197  64.936  1.00  0.00    -0.064 C  
HETATM   17  O   UNL     1      -6.689   6.031  65.045  1.00  0.00    -0.041 OA 
HETATM   18  C   UNL     1      -7.770   9.825  65.971  1.00  0.00    -0.104 C  
HETATM   19  C   UNL     1      -6.136   8.308  64.532  1.00  0.00    -0.064 C  
HETATM   20  C   UNL     1      -6.367   9.615  65.307  1.00  0.00    -0.081 C  
ENDROOT
BRANCH  14  21
HETATM   21  O   UNL     1     -11.283  15.712  67.822  1.00  0.00    -0.329 OA 
BRANCH  21  22
HETATM   22  C   UNL     1     -10.231  16.029  68.667  1.00  0.00    -0.231 C  
HETATM   23  O   UNL     1      -9.571  15.198  69.287  1.00  0.00    -0.221 OA 
BRANCH  22  24
HETATM   24  C   UNL     1      -9.774  17.470  68.583  1.00  0.00    -0.319 C  
BRANCH  24  25
HETATM   25  C   UNL     1      -8.374  17.673  69.122  1.00  0.00     0.096 C  
BRANCH  25  26
HETATM   26  C   UNL     1      -7.523  18.631  68.287  1.00  0.00    -0.302 C  
HETATM   27  C   UNL     1      -7.782  18.403  66.800  1.00  0.00    -0.248 C  
HETATM   28  C   UNL     1      -7.265  19.672  66.155  1.00  0.00    -0.287 C  
HETATM   29  C   UNL     1      -7.691  20.778  67.113  1.00  0.00    -0.316 C  
HETATM   30  C   UNL     1      -7.826  20.122  68.490  1.00  0.00    -0.060 C  
ENDBRANCH  25  26
ENDBRANCH  24  25
ENDBRANCH  22  24
ENDBRANCH  21  22
ENDBRANCH  14  21
TORSDOF 5
ENDMDL
MODEL      154
REMARK 921   NORMALIZED FREE ENERGY PREDICTED BY IDOCK:   -0.92 KCAL/MOL
REMARK 922        TOTAL FREE ENERGY PREDICTED BY IDOCK:   -2.53 KCAL/MOL
REMARK 923 INTER-LIGAND FREE ENERGY PREDICTED BY IDOCK:   -3.11 KCAL/MOL
REMARK 924 INTRA-LIGAND FREE ENERGY PREDICTED BY IDOCK:    0.58 KCAL/MOL
REMARK 927      BINDING AFFINITY PREDICTED BY RF-SCORE:    0.00 PKD
ROOT
HETATM    1  C   UNL     1     -10.257   5.511  67.643  1.00  0.00    -0.241 C  
HETATM    2  C   UNL     1      -8.824   5.934  67.969  1.00  0.00    -0.109 C  
HETATM    3  C   UNL     1      -8.339   6.940  66.844  1.00  0.00    -0.114 C  
HETATM    4  C   UNL     1      -8.985   8.372  66.937  1.00  0.00    -0.168 C  
HETATM    5  C   UNL     1      -9.173   9.015  68.361  1.00  0.00    -0.137 C  
HETATM    6  C   UNL     1      -9.475   7.898  69.353  1.00  0.00    -0.156 C  
HETATM    7  C   UNL     1      -9.822   8.333  70.771  1.00  0.00    -0.205 C  
HETATM    8  C   UNL     1      -8.538   6.702  69.285  1.00  0.00    -0.131 C  
HETATM    9  C   UNL     1     -11.101   9.156  70.705  1.00  0.00    -0.336 C  
HETATM   10  C   UNL     1      -6.954   6.654  69.295  1.00  0.00    -0.074 C  
HETATM   11  C   UNL     1     -10.898  10.371  69.842  1.00  0.00    -0.353 C  
HETATM   12  C   UNL     1      -6.598   5.301  68.552  1.00  0.00    -0.045 C  
HETATM   13  C   UNL     1     -11.420  11.533  70.282  1.00  0.00    -0.192 C  
HETATM   14  C   UNL     1      -7.981   4.697  68.409  1.00  0.00    -0.080 C  
HETATM   15  C   UNL     1     -11.508   9.851  67.535  1.00  0.00     0.589 C  
HETATM   16  C   UNL     1     -11.265  12.736  69.447  1.00  0.00    -0.132 C  
HETATM   17  O   UNL     1     -12.076  13.650  69.528  1.00  0.00    -0.318 OA 
HETATM   18  C   UNL     1     -10.284  10.184  68.435  1.00  0.00    -0.192 C  
HETATM   19  C   UNL     1     -10.007  12.814  68.649  1.00  0.00    -0.099 C  
HETATM   20  C   UNL     1      -9.666  11.519  67.896  1.00  0.00    -0.187 C  
ENDROOT
BRANCH  14  21
HETATM   21  O   UNL     1      -8.195   3.426  67.812  1.00  0.00    -0.079 OA 
BRANCH  21  22
HETATM   22  C   UNL     1      -9.168   2.728  68.510  1.00  0.00    -0.183 C  
HETATM   23  O   UNL     1     -10.146   2.200  67.986  1.00  0.00     0.518 OA 
BRANCH  22  24
HETATM   24  C   UNL     1      -8.815   2.436  69.953  1.00  0.00    -0.139 C  
BRANCH  24  25
HETATM   25  C   UNL     1      -8.510   3.688  70.747  1.00  0.00    -0.101 C  
BRANCH  25  26
HETATM   26  C   UNL     1      -8.196   3.426  72.220  1.00  0.00    -0.075 C  
HETATM   27  C   UNL     1      -7.188   4.451  72.733  1.00  0.00    -0.073 C  
HETATM   28  C   UNL     1      -7.334   4.365  74.238  1.00  0.00    -0.073 C  
HETATM   29  C   UNL     1      -8.833   4.201  74.458  1.00  0.00    -0.100 C  
HETATM   30  C   UNL     1      -9.386   3.568  73.179  1.00  0.00    -0.124 C  
ENDBRANCH  25  26
ENDBRANCH  24  25
ENDBRANCH  22  24
ENDBRANCH  21  22
ENDBRANCH  14  21
TORSDOF 5
ENDMDL
MODEL      155
REMARK 921   NORMALIZED FREE ENERGY PREDICTED BY IDOCK:   -0.18 KCAL/MOL
REMARK 922        TOTAL FREE ENERGY PREDICTED BY IDOCK:   -1.57 KCAL/MOL
REMARK 923 INTER-LIGAND FREE ENERGY PREDICTED BY IDOCK:   -0.39 KCAL/MOL
REMARK 924 INTRA-LIGAND FREE ENERGY PREDICTED BY IDOCK:   -1.18 KCAL/MOL
REMARK 927      BINDING AFFINITY PREDICTED BY RF-SCORE:    0.00 PKD
ROOT
HETATM    1  C   UNL     1      -7.877   7.572  72.709  1.00  0.00    -0.119 C  
HETATM    2  C   UNL     1      -9.206   7.262  72.018  1.00  0.00    -0.149 C  
HETATM    3  C   UNL     1     -10.156   8.518  72.190  1.00  0.00    -0.393 C  
HETATM    4  C   UNL     1      -9.763   9.753  71.298  1.00  0.00     0.494 C  
HETATM    5  C   UNL     1      -9.283   9.486  69.823  1.00  0.00    -0.224 C  
HETATM    6  C   UNL     1      -8.524   8.164  69.800  1.00  0.00    -0.125 C  
HETATM    7  C   UNL     1      -7.861   7.792  68.480  1.00  0.00    -0.120 C  
HETATM    8  C   UNL     1      -9.225   7.004  70.489  1.00  0.00    -0.159 C  
HETATM    9  C   UNL     1      -6.814   8.852  68.170  1.00  0.00    -0.069 C  
HETATM   10  C   UNL     1     -10.707   6.470  70.317  1.00  0.00    -0.307 C  
HETATM   11  C   UNL     1      -7.459  10.205  68.044  1.00  0.00    -0.087 C  
HETATM   12  C   UNL     1     -11.028   5.756  71.695  1.00  0.00    -0.308 C  
HETATM   13  C   UNL     1      -7.036  10.999  67.041  1.00  0.00    -0.117 C  
HETATM   14  C   UNL     1      -9.665   5.809  72.354  1.00  0.00    -0.159 C  
HETATM   15  C   UNL     1      -7.461  11.319  70.219  1.00  0.00     1.352 C  
HETATM   16  C   UNL     1      -7.625  12.341  66.907  1.00  0.00     0.004 C  
HETATM   17  O   UNL     1      -6.992  13.241  66.370  1.00  0.00     1.152 OA 
HETATM   18  C   UNL     1      -8.412  10.677  69.168  1.00  0.00    -0.134 C  
HETATM   19  C   UNL     1      -9.054  12.466  67.317  1.00  0.00    -0.187 C  
HETATM   20  C   UNL     1      -9.375  11.807  68.667  1.00  0.00    -0.096 C  
ENDROOT
BRANCH  14  21
HETATM   21  O   UNL     1      -9.420   5.252  73.637  1.00  0.00    -0.132 OA 
BRANCH  21  22
HETATM   22  C   UNL     1      -8.837   4.001  73.512  1.00  0.00    -0.093 C  
HETATM   23  O   UNL     1      -8.311   3.391  74.440  1.00  0.00    -0.076 OA 
BRANCH  22  24
HETATM   24  C   UNL     1      -9.114   3.310  72.194  1.00  0.00    -0.150 C  
BRANCH  24  25
HETATM   25  C   UNL     1      -7.923   2.531  71.678  1.00  0.00    -0.048 C  
BRANCH  25  26
HETATM   26  C   UNL     1      -6.841   3.405  71.042  1.00  0.00    -0.032 C  
HETATM   27  C   UNL     1      -5.872   2.539  70.240  1.00  0.00    -0.018 C  
HETATM   28  C   UNL     1      -5.183   3.534  69.329  1.00  0.00    -0.011 C  
HETATM   29  C   UNL     1      -6.295   4.487  68.910  1.00  0.00    -0.032 C  
HETATM   30  C   UNL     1      -7.347   4.434  70.021  1.00  0.00    -0.046 C  
ENDBRANCH  25  26
ENDBRANCH  24  25
ENDBRANCH  22  24
ENDBRANCH  21  22
ENDBRANCH  14  21
TORSDOF 5
ENDMDL
MODEL      156
REMARK 921   NORMALIZED FREE ENERGY PREDICTED BY IDOCK:    1.03 KCAL/MOL
REMARK 922        TOTAL FREE ENERGY PREDICTED BY IDOCK:   -0.00 KCAL/MOL
REMARK 923 INTER-LIGAND FREE ENERGY PREDICTED BY IDOCK:   -3.90 KCAL/MOL
REMARK 924 INTRA-LIGAND FREE ENERGY PREDICTED BY IDOCK:    3.90 KCAL/MOL
REMARK 927      BINDING AFFINITY PREDICTED BY RF-SCORE:    0.00 PKD
ROOT
HETATM    1  C   UNL     1      -9.266  13.263  67.432  1.00  0.00    -0.216 C  
HETATM    2  C   UNL     1     -10.380  12.626  66.600  1.00  0.00    -0.249 C  
HETATM    3  C   UNL     1      -9.965  11.130  66.282  1.00  0.00    -0.261 C  
HETATM    4  C   UNL     1     -10.067  10.156  67.513  1.00  0.00    -0.244 C  
HETATM    5  C   UNL     1     -11.297  10.307  68.484  1.00  0.00    -0.231 C  
HETATM    6  C   UNL     1     -11.670  11.783  68.555  1.00  0.00    -0.390 C  
HETATM    7  C   UNL     1     -12.760  12.154  69.553  1.00  0.00     0.608 C  
HETATM    8  C   UNL     1     -11.798  12.483  67.211  1.00  0.00    -0.381 C  
HETATM    9  C   UNL     1     -12.252  11.810  70.946  1.00  0.00    -0.378 C  
HETATM   10  C   UNL     1     -12.614  12.057  65.920  1.00  0.00     1.300 C  
HETATM   11  C   UNL     1     -11.957  10.338  71.047  1.00  0.00    -0.483 C  
HETATM   12  C   UNL     1     -11.849  12.760  64.725  1.00  0.00    -0.423 C  
HETATM   13  C   UNL     1     -12.339   9.710  72.177  1.00  0.00    -0.290 C  
HETATM   14  C   UNL     1     -10.865  13.616  65.496  1.00  0.00    -0.294 C  
HETATM   15  C   UNL     1      -9.623   9.925  70.456  1.00  0.00    -0.035 C  
HETATM   16  C   UNL     1     -12.040   8.276  72.322  1.00  0.00    -0.379 C  
HETATM   17  O   UNL     1     -11.916   7.783  73.436  1.00  0.00     0.154 OA 
HETATM   18  C   UNL     1     -11.077   9.684  69.957  1.00  0.00    -0.293 C  
HETATM   19  C   UNL     1     -12.057   7.479  71.061  1.00  0.00    -0.305 C  
HETATM   20  C   UNL     1     -11.292   8.133  69.900  1.00  0.00     0.062 C  
ENDROOT
BRANCH  14  21
HETATM   21  O   UNL     1      -9.945  14.484  64.849  1.00  0.00    -0.307 OA 
BRANCH  21  22
HETATM   22  C   UNL     1      -9.739  15.619  65.617  1.00  0.00    -0.313 C  
HETATM   23  O   UNL     1     -10.637  16.371  65.989  1.00  0.00    -0.319 OA 
BRANCH  22  24
HETATM   24  C   UNL     1      -8.344  15.741  66.191  1.00  0.00     0.006 C  
BRANCH  24  25
HETATM   25  C   UNL     1      -7.845  14.449  66.800  1.00  0.00     0.376 C  
BRANCH  25  26
HETATM   26  C   UNL     1      -6.581  14.610  67.645  1.00  0.00    -0.177 C  
HETATM   27  C   UNL     1      -6.810  15.651  68.738  1.00  0.00    -0.118 C  
HETATM   28  C   UNL     1      -5.702  15.368  69.732  1.00  0.00    -0.126 C  
HETATM   29  C   UNL     1      -5.612  13.847  69.765  1.00  0.00    -0.103 C  
HETATM   30  C   UNL     1      -6.144  13.357  68.416  1.00  0.00    -0.092 C  
ENDBRANCH  25  26
ENDBRANCH  24  25
ENDBRANCH  22  24
ENDBRANCH  21  22
ENDBRANCH  14  21
TORSDOF 5
ENDMDL
MODEL      157
REMARK 921   NORMALIZED FREE ENERGY PREDICTED BY IDOCK:    2.27 KCAL/MOL
REMARK 922        TOTAL FREE ENERGY PREDICTED BY IDOCK:    1.59 KCAL/MOL
REMARK 923 INTER-LIGAND FREE ENERGY PREDICTED BY IDOCK:    0.69 KCAL/MOL
REMARK 924 INTRA-LIGAND FREE ENERGY PREDICTED BY IDOCK:    0.90 KCAL/MOL
REMARK 927      BINDING AFFINITY PREDICTED BY RF-SCORE:    0.00 PKD
ROOT
HETATM    1  C   UNL     1      -9.752   6.973  64.808  1.00  0.00     2.496 C  
HETATM    2  C   UNL     1      -9.719   6.220  66.139  1.00  0.00    -0.021 C  
HETATM    3  C   UNL     1      -8.204   5.937  66.508  1.00  0.00    -0.110 C  
HETATM    4  C   UNL     1      -7.409   7.206  66.989  1.00  0.00    -0.089 C  
HETATM    5  C   UNL     1      -8.138   8.230  67.936  1.00  0.00    -0.127 C  
HETATM    6  C   UNL     1      -9.613   8.265  67.555  1.00  0.00    -0.194 C  
HETATM    7  C   UNL     1     -10.470   9.301  68.273  1.00  0.00    -0.260 C  
HETATM    8  C   UNL     1     -10.277   6.905  67.413  1.00  0.00    -0.262 C  
HETATM    9  C   UNL     1      -9.937  10.679  67.908  1.00  0.00    -0.189 C  
HETATM   10  C   UNL     1     -10.283   5.671  68.410  1.00  0.00    -0.247 C  
HETATM   11  C   UNL     1      -8.504  10.819  68.346  1.00  0.00    -0.137 C  
HETATM   12  C   UNL     1     -10.523   4.415  67.475  1.00  0.00     0.371 C  
HETATM   13  C   UNL     1      -8.146  11.988  68.913  1.00  0.00     0.101 C  
HETATM   14  C   UNL     1     -10.811   5.105  66.157  1.00  0.00    -0.097 C  
HETATM   15  C   UNL     1      -7.019  10.131  66.532  1.00  0.00    -0.102 C  
HETATM   16  C   UNL     1      -6.745  12.171  69.326  1.00  0.00    -0.084 C  
HETATM   17  O   UNL     1      -6.262  13.294  69.387  1.00  0.00    -0.099 OA 
HETATM   18  C   UNL     1      -7.499   9.712  67.952  1.00  0.00    -0.083 C  
HETATM   19  C   UNL     1      -6.042  10.942  69.798  1.00  0.00    -0.087 C  
HETATM   20  C   UNL     1      -6.240   9.722  68.884  1.00  0.00    -0.041 C  
ENDROOT
BRANCH  14  21
HETATM   21  O   UNL     1     -11.127   4.383  64.976  1.00  0.00    -0.236 OA 
BRANCH  21  22
HETATM   22  C   UNL     1     -10.035   3.633  64.568  1.00  0.00    -0.190 C  
HETATM   23  O   UNL     1      -9.001   4.115  64.111  1.00  0.00    -0.132 OA 
BRANCH  22  24
HETATM   24  C   UNL     1     -10.097   2.173  64.960  1.00  0.00     0.599 C  
BRANCH  24  25
HETATM   25  C   UNL     1      -9.351   1.878  66.243  1.00  0.00     0.128 C  
BRANCH  25  26
HETATM   26  C   UNL     1      -7.957   2.503  66.306  1.00  0.00    -0.082 C  
HETATM   27  C   UNL     1      -7.634   2.922  67.738  1.00  0.00    -0.057 C  
HETATM   28  C   UNL     1      -6.127   3.072  67.729  1.00  0.00    -0.028 C  
HETATM   29  C   UNL     1      -5.643   1.915  66.864  1.00  0.00    -0.018 C  
HETATM   30  C   UNL     1      -6.802   1.567  65.926  1.00  0.00    -0.034 C  
ENDBRANCH  25  26
ENDBRANCH  24  25
ENDBRANCH  22  24
ENDBRANCH  21  22
ENDBRANCH  14  21
TORSDOF 5
ENDMDL
MODEL      158
REMARK 921   NORMALIZED FREE ENERGY PREDICTED BY IDOCK:    5.47 KCAL/MOL
REMARK 922        TOTAL FREE ENERGY PREDICTED BY IDOCK:    5.73 KCAL/MOL
REMARK 923 INTER-LIGAND FREE ENERGY PREDICTED BY IDOCK:   -1.70 KCAL/MOL
REMARK 924 INTRA-LIGAND FREE ENERGY PREDICTED BY IDOCK:    7.42 KCAL/MOL
REMARK 927      BINDING AFFINITY PREDICTED BY RF-SCORE:    0.00 PKD
ROOT
HETATM    1  C   UNL     1      -7.323   6.532  65.065  1.00  0.00    -0.078 C  
HETATM    2  C   UNL     1      -7.441   6.679  66.583  1.00  0.00    -0.079 C  
HETATM    3  C   UNL     1      -6.335   7.705  67.067  1.00  0.00    -0.054 C  
HETATM    4  C   UNL     1      -6.644   9.205  66.707  1.00  0.00    -0.068 C  
HETATM    5  C   UNL     1      -8.125   9.717  66.849  1.00  0.00    -0.113 C  
HETATM    6  C   UNL     1      -9.063   8.566  66.504  1.00  0.00    -0.217 C  
HETATM    7  C   UNL     1     -10.549   8.900  66.454  1.00  0.00     0.107 C  
HETATM    8  C   UNL     1      -8.749   7.247  67.193  1.00  0.00    -0.121 C  
HETATM    9  C   UNL     1     -10.758   9.923  65.346  1.00  0.00     0.683 C  
HETATM   10  C   UNL     1      -8.495   6.941  68.727  1.00  0.00    -0.121 C  
HETATM   11  C   UNL     1      -9.971  11.173  65.632  1.00  0.00    -0.297 C  
HETATM   12  C   UNL     1      -7.600   5.634  68.722  1.00  0.00    -0.088 C  
HETATM   13  C   UNL     1     -10.580  12.352  65.395  1.00  0.00    -0.316 C  
HETATM   14  C   UNL     1      -7.639   5.282  67.249  1.00  0.00    -0.092 C  
HETATM   15  C   UNL     1      -7.761  11.005  64.603  1.00  0.00     0.541 C  
HETATM   16  C   UNL     1      -9.828  13.594  65.636  1.00  0.00    -0.175 C  
HETATM   17  O   UNL     1     -10.112  14.614  65.021  1.00  0.00    -0.384 OA 
HETATM   18  C   UNL     1      -8.472  11.037  65.987  1.00  0.00    -0.158 C  
HETATM   19  C   UNL     1      -8.842  13.550  66.755  1.00  0.00    -0.146 C  
HETATM   20  C   UNL     1      -7.945  12.303  66.745  1.00  0.00     0.010 C  
ENDROOT
BRANCH  14  21
HETATM   21  O   UNL     1      -6.987   4.133  66.726  1.00  0.00    -0.057 OA 
BRANCH  21  22
HETATM   22  C   UNL     1      -5.962   3.739  67.571  1.00  0.00    -0.024 C  
HETATM   23  O   UNL     1      -5.138   2.870  67.295  1.00  0.00    -0.007 OA 
BRANCH  22  24
HETATM   24  C   UNL     1      -5.761   4.637  68.773  1.00  0.00    -0.020 C  
BRANCH  24  25
HETATM   25  C   UNL     1      -6.039   3.933  70.083  1.00  0.00    -0.019 C  
BRANCH  25  26
HETATM   26  C   UNL     1      -7.223   2.967  70.028  1.00  0.00    -0.040 C  
HETATM   27  C   UNL     1      -8.509   3.730  69.720  1.00  0.00    -0.092 C  
HETATM   28  C   UNL     1      -9.456   2.646  69.247  1.00  0.00    -0.140 C  
HETATM   29  C   UNL     1      -8.579   1.728  68.404  1.00  0.00    -0.094 C  
HETATM   30  C   UNL     1      -7.150   1.905  68.923  1.00  0.00    -0.039 C  
ENDBRANCH  25  26
ENDBRANCH  24  25
ENDBRANCH  22  24
ENDBRANCH  21  22
ENDBRANCH  14  21
TORSDOF 5
ENDMDL
MODEL      159
REMARK 921   NORMALIZED FREE ENERGY PREDICTED BY IDOCK:    7.08 KCAL/MOL
REMARK 922        TOTAL FREE ENERGY PREDICTED BY IDOCK:    7.81 KCAL/MOL
REMARK 923 INTER-LIGAND FREE ENERGY PREDICTED BY IDOCK:    7.14 KCAL/MOL
REMARK 924 INTRA-LIGAND FREE ENERGY PREDICTED BY IDOCK:    0.67 KCAL/MOL
REMARK 927      BINDING AFFINITY PREDICTED BY RF-SCORE:    0.00 PKD
ROOT
HETATM    1  C   UNL     1      -8.991  17.860  69.417  1.00  0.00     0.445 C  
HETATM    2  C   UNL     1      -7.725  17.047  69.693  1.00  0.00     0.566 C  
HETATM    3  C   UNL     1      -8.036  16.038  70.876  1.00  0.00     3.411 C  
HETATM    4  C   UNL     1      -8.954  14.828  70.468  1.00  0.00     1.650 C  
HETATM    5  C   UNL     1      -8.716  14.149  69.068  1.00  0.00     0.116 C  
HETATM    6  C   UNL     1      -8.270  15.225  68.086  1.00  0.00    -0.141 C  
HETATM    7  C   UNL     1      -8.116  14.789  66.634  1.00  0.00     0.196 C  
HETATM    8  C   UNL     1      -7.153  16.130  68.581  1.00  0.00    -0.147 C  
HETATM    9  C   UNL     1      -9.483  14.345  66.135  1.00  0.00    -0.271 C  
HETATM   10  C   UNL     1      -5.754  15.752  69.227  1.00  0.00    -0.111 C  
HETATM   11  C   UNL     1      -9.990  13.190  66.955  1.00  0.00    -0.244 C  
HETATM   12  C   UNL     1      -5.375  17.016  70.104  1.00  0.00    -0.208 C  
HETATM   13  C   UNL     1     -10.586  12.179  66.293  1.00  0.00    -0.285 C  
HETATM   14  C   UNL     1      -6.472  17.976  69.689  1.00  0.00    -0.133 C  
HETATM   15  C   UNL     1     -11.317  14.032  68.826  1.00  0.00    -0.309 C  
HETATM   16  C   UNL     1     -11.121  11.047  67.068  1.00  0.00    -0.244 C  
HETATM   17  O   UNL     1     -12.046  10.379  66.624  1.00  0.00     1.590 OA 
HETATM   18  C   UNL     1      -9.975  13.316  68.497  1.00  0.00    -0.189 C  
HETATM   19  C   UNL     1     -10.370  10.699  68.310  1.00  0.00    -0.201 C  
HETATM   20  C   UNL     1     -10.023  11.911  69.188  1.00  0.00     0.196 C  
ENDROOT
BRANCH  14  21
HETATM   21  O   UNL     1      -6.552  19.300  70.196  1.00  0.00    -0.120 OA 
BRANCH  21  22
HETATM   22  C   UNL     1      -6.598  20.210  69.151  1.00  0.00    -0.276 C  
HETATM   23  O   UNL     1      -6.035  21.302  69.164  1.00  0.00    -0.090 OA 
BRANCH  22  24
HETATM   24  C   UNL     1      -7.186  19.661  67.869  1.00  0.00    -0.308 C  
BRANCH  24  25
HETATM   25  C   UNL     1      -8.647  20.016  67.695  1.00  0.00    -0.385 C  
BRANCH  25  26
HETATM   26  C   UNL     1      -9.250  19.528  66.376  1.00  0.00    -0.426 C  
HETATM   27  C   UNL     1     -10.659  18.990  66.611  1.00  0.00    -0.499 C  
HETATM   28  C   UNL     1     -11.271  18.993  65.225  1.00  0.00     1.037 C  
HETATM   29  C   UNL     1     -10.755  20.279  64.592  1.00  0.00     1.597 C  
HETATM   30  C   UNL     1      -9.441  20.610  65.304  1.00  0.00     0.922 C  
ENDBRANCH  25  26
ENDBRANCH  24  25
ENDBRANCH  22  24
ENDBRANCH  21  22
ENDBRANCH  14  21
TORSDOF 5
ENDMDL
MODEL      160
REMARK 921   NORMALIZED FREE ENERGY PREDICTED BY IDOCK:    8.33 KCAL/MOL
REMARK 922        TOTAL FREE ENERGY PREDICTED BY IDOCK:    9.42 KCAL/MOL
REMARK 923 INTER-LIGAND FREE ENERGY PREDICTED BY IDOCK:    4.91 KCAL/MOL
REMARK 924 INTRA-LIGAND FREE ENERGY PREDICTED BY IDOCK:    4.51 KCAL/MOL
REMARK 927      BINDING AFFINITY PREDICTED BY RF-SCORE:    0.00 PKD
ROOT
HETATM    1  C   UNL     1     -10.115  16.447  68.702  1.00  0.00    -0.244 C  
HETATM    2  C   UNL     1      -9.600  15.916  67.362  1.00  0.00    -0.221 C  
HETATM    3  C   UNL     1      -8.241  15.146  67.627  1.00  0.00    -0.178 C  
HETATM    4  C   UNL     1      -8.416  13.749  68.330  1.00  0.00    -0.173 C  
HETATM    5  C   UNL     1      -9.616  12.834  67.883  1.00  0.00    -0.211 C  
HETATM    6  C   UNL     1     -10.789  13.734  67.511  1.00  0.00    -0.274 C  
HETATM    7  C   UNL     1     -12.098  13.029  67.177  1.00  0.00    -0.325 C  
HETATM    8  C   UNL     1     -10.450  14.884  66.577  1.00  0.00    -0.297 C  
HETATM    9  C   UNL     1     -12.555  12.283  68.422  1.00  0.00     1.181 C  
HETATM   10  C   UNL     1      -9.667  14.873  65.198  1.00  0.00    -0.023 C  
HETATM   11  C   UNL     1     -11.526  11.264  68.829  1.00  0.00    -0.359 C  
HETATM   12  C   UNL     1      -9.074  16.337  65.074  1.00  0.00     2.081 C  
HETATM   13  C   UNL     1     -11.976  10.055  69.221  1.00  0.00     0.210 C  
HETATM   14  C   UNL     1      -9.747  17.006  66.256  1.00  0.00    -0.283 C  
HETATM   15  C   UNL     1      -9.959  12.268  70.413  1.00  0.00     4.104 C  
HETATM   16  C   UNL     1     -10.997   9.045  69.654  1.00  0.00    -0.136 C  
HETATM   17  O   UNL     1     -11.329   8.163  70.437  1.00  0.00    -0.259 OA 
HETATM   18  C   UNL     1     -10.052  11.714  68.961  1.00  0.00    -0.034 C  
HETATM   19  C   UNL     1      -9.673   9.088  68.969  1.00  0.00    -0.167 C  
HETATM   20  C   UNL     1      -9.069  10.498  68.869  1.00  0.00    -0.180 C  
ENDROOT
BRANCH  14  21
HETATM   21  O   UNL     1      -9.551  18.379  66.563  1.00  0.00    -0.307 OA 
BRANCH  21  22
HETATM   22  C   UNL     1      -8.262  18.764  66.230  1.00  0.00    -0.252 C  
HETATM   23  O   UNL     1      -7.968  19.363  65.198  1.00  0.00     0.020 OA 
BRANCH  22  24
HETATM   24  C   UNL     1      -7.257  18.622  67.353  1.00  0.00    -0.211 C  
BRANCH  24  25
HETATM   25  C   UNL     1      -7.908  18.543  68.717  1.00  0.00    -0.301 C  
BRANCH  25  26
HETATM   26  C   UNL     1      -8.979  19.609  68.954  1.00  0.00    -0.264 C  
HETATM   27  C   UNL     1      -8.962  20.632  67.820  1.00  0.00    -0.170 C  
HETATM   28  C   UNL     1     -10.312  21.308  67.936  1.00  0.00     1.032 C  
HETATM   29  C   UNL     1     -11.269  20.172  68.279  1.00  0.00     1.026 C  
HETATM   30  C   UNL     1     -10.425  19.093  68.962  1.00  0.00     0.122 C  
ENDBRANCH  25  26
ENDBRANCH  24  25
ENDBRANCH  22  24
ENDBRANCH  21  22
ENDBRANCH  14  21
TORSDOF 5
ENDMDL
MODEL      161
REMARK 921   NORMALIZED FREE ENERGY PREDICTED BY IDOCK:   25.59 KCAL/MOL
REMARK 922        TOTAL FREE ENERGY PREDICTED BY IDOCK:   31.73 KCAL/MOL
REMARK 923 INTER-LIGAND FREE ENERGY PREDICTED BY IDOCK:   31.47 KCAL/MOL
REMARK 924 INTRA-LIGAND FREE ENERGY PREDICTED BY IDOCK:    0.26 KCAL/MOL
REMARK 927      BINDING AFFINITY PREDICTED BY RF-SCORE:    0.00 PKD
ROOT
HETATM    1  C   UNL     1      -8.605  12.642  68.646  1.00  0.00     0.046 C  
HETATM    2  C   UNL     1      -9.289  11.884  69.785  1.00  0.00     1.899 C  
HETATM    3  C   UNL     1     -10.356  10.899  69.150  1.00  0.00    -0.228 C  
HETATM    4  C   UNL     1      -9.733   9.644  68.435  1.00  0.00    -0.163 C  
HETATM    5  C   UNL     1      -8.502   8.934  69.112  1.00  0.00    -0.132 C  
HETATM    6  C   UNL     1      -7.664   9.998  69.812  1.00  0.00    -0.173 C  
HETATM    7  C   UNL     1      -6.348   9.527  70.418  1.00  0.00    -0.073 C  
HETATM    8  C   UNL     1      -8.444  10.957  70.697  1.00  0.00     3.032 C  
HETATM    9  C   UNL     1      -5.469   9.018  69.285  1.00  0.00    -0.036 C  
HETATM   10  C   UNL     1      -9.503  10.650  71.837  1.00  0.00     7.698 C  
HETATM   11  C   UNL     1      -6.137   7.869  68.579  1.00  0.00    -0.040 C  
HETATM   12  C   UNL     1     -10.405  11.951  71.893  1.00  0.00    11.271 C  
HETATM   13  C   UNL     1      -5.363   6.818  68.243  1.00  0.00    -0.012 C  
HETATM   14  C   UNL     1      -9.636  12.858  70.953  1.00  0.00     8.659 C  
HETATM   15  C   UNL     1      -7.474   8.716  66.717  1.00  0.00    -0.086 C  
HETATM   16  C   UNL     1      -5.979   5.690  67.525  1.00  0.00    -0.021 C  
HETATM   17  O   UNL     1      -5.298   4.976  66.801  1.00  0.00    -0.008 OA 
HETATM   18  C   UNL     1      -7.602   8.040  68.113  1.00  0.00    -0.109 C  
HETATM   19  C   UNL     1      -7.404   5.406  67.864  1.00  0.00    -0.073 C  
HETATM   20  C   UNL     1      -8.299   6.655  67.891  1.00  0.00    -0.119 C  
ENDROOT
BRANCH  14  21
HETATM   21  O   UNL     1     -10.041  14.192  70.686  1.00  0.00     1.540 OA 
BRANCH  21  22
HETATM   22  C   UNL     1     -11.394  14.343  70.951  1.00  0.00     0.067 C  
HETATM   23  O   UNL     1     -11.956  13.880  71.940  1.00  0.00     0.043 OA 
BRANCH  22  24
HETATM   24  C   UNL     1     -12.099  15.343  70.061  1.00  0.00    -0.388 C  
BRANCH  24  25
HETATM   25  C   UNL     1     -11.294  15.703  68.830  1.00  0.00    -0.341 C  
BRANCH  25  26
HETATM   26  C   UNL     1     -10.769  17.139  68.832  1.00  0.00    -0.257 C  
HETATM   27  C   UNL     1      -9.371  17.185  69.445  1.00  0.00     0.199 C  
HETATM   28  C   UNL     1      -8.821  18.513  68.965  1.00  0.00    -0.081 C  
HETATM   29  C   UNL     1      -9.317  18.624  67.529  1.00  0.00    -0.301 C  
HETATM   30  C   UNL     1     -10.585  17.771  67.446  1.00  0.00    -0.341 C  
ENDBRANCH  25  26
ENDBRANCH  24  25
ENDBRANCH  22  24
ENDBRANCH  21  22
ENDBRANCH  14  21
TORSDOF 5
ENDMDL
MODEL      162
REMARK 921   NORMALIZED FREE ENERGY PREDICTED BY IDOCK:   32.51 KCAL/MOL
REMARK 922        TOTAL FREE ENERGY PREDICTED BY IDOCK:   40.67 KCAL/MOL
REMARK 923 INTER-LIGAND FREE ENERGY PREDICTED BY IDOCK:   25.49 KCAL/MOL
REMARK 924 INTRA-LIGAND FREE ENERGY PREDICTED BY IDOCK:   15.18 KCAL/MOL
REMARK 927      BINDING AFFINITY PREDICTED BY RF-SCORE:    0.00 PKD
ROOT
HETATM    1  C   UNL     1      -7.150  12.133  70.254  1.00  0.00     1.452 C  
HETATM    2  C   UNL     1      -7.906  12.836  69.125  1.00  0.00     0.388 C  
HETATM    3  C   UNL     1      -7.086  12.637  67.784  1.00  0.00    -0.126 C  
HETATM    4  C   UNL     1      -7.165  11.183  67.188  1.00  0.00    -0.120 C  
HETATM    5  C   UNL     1      -8.548  10.432  67.234  1.00  0.00    -0.126 C  
HETATM    6  C   UNL     1      -9.279  10.855  68.503  1.00  0.00    -0.181 C  
HETATM    7  C   UNL     1     -10.588  10.133  68.798  1.00  0.00    -0.236 C  
HETATM    8  C   UNL     1      -9.331  12.354  68.749  1.00  0.00     0.109 C  
HETATM    9  C   UNL     1     -10.270   8.659  69.001  1.00  0.00    -0.218 C  
HETATM   10  C   UNL     1      -9.772  13.527  67.777  1.00  0.00    -0.226 C  
HETATM   11  C   UNL     1      -9.646   8.081  67.760  1.00  0.00    -0.179 C  
HETATM   12  C   UNL     1      -9.001  14.798  68.323  1.00  0.00    -0.181 C  
HETATM   13  C   UNL     1     -10.058   6.857  67.375  1.00  0.00    -0.237 C  
HETATM   14  C   UNL     1      -8.412  14.234  69.600  1.00  0.00     0.661 C  
HETATM   15  C   UNL     1      -7.214   8.282  67.893  1.00  0.00    -0.095 C  
HETATM   16  C   UNL     1      -9.447   6.250  66.182  1.00  0.00    -0.055 C  
HETATM   17  O   UNL     1      -9.408   5.032  66.062  1.00  0.00    -0.146 OA 
HETATM   18  C   UNL     1      -8.450   8.825  67.119  1.00  0.00    -0.110 C  
HETATM   19  C   UNL     1      -9.041   7.201  65.106  1.00  0.00     0.500 C  
HETATM   20  C   UNL     1      -8.264   8.424  65.616  1.00  0.00    -0.132 C  
ENDROOT
BRANCH  14  21
HETATM   21  O   UNL     1      -7.633  15.021  70.489  1.00  0.00     0.412 OA 
BRANCH  21  22
HETATM   22  C   UNL     1      -7.429  14.337  71.678  1.00  0.00     3.842 C  
HETATM   23  O   UNL     1      -7.132  14.879  72.740  1.00  0.00     2.431 OA 
BRANCH  22  24
HETATM   24  C   UNL     1      -7.846  12.883  71.643  1.00  0.00    10.758 C  
BRANCH  24  25
HETATM   25  C   UNL     1      -6.697  11.951  71.325  1.00  0.00     3.179 C  
BRANCH  25  26
HETATM   26  C   UNL     1      -7.127  10.507  71.060  1.00  0.00     1.244 C  
HETATM   27  C   UNL     1      -6.042   9.542  71.531  1.00  0.00    -0.000 C  
HETATM   28  C   UNL     1      -6.771   8.219  71.641  1.00  0.00    -0.067 C  
HETATM   29  C   UNL     1      -8.133   8.591  72.214  1.00  0.00    -0.150 C  
HETATM   30  C   UNL     1      -8.382  10.048  71.816  1.00  0.00     3.100 C  
ENDBRANCH  25  26
ENDBRANCH  24  25
ENDBRANCH  22  24
ENDBRANCH  21  22
ENDBRANCH  14  21
TORSDOF 5
ENDMDL
