MODEL        1
REMARK 921   NORMALIZED FREE ENERGY PREDICTED BY IDOCK:   -6.87 KCAL/MOL
REMARK 922        TOTAL FREE ENERGY PREDICTED BY IDOCK:  -11.83 KCAL/MOL
REMARK 923 INTER-LIGAND FREE ENERGY PREDICTED BY IDOCK:   -9.68 KCAL/MOL
REMARK 924 INTRA-LIGAND FREE ENERGY PREDICTED BY IDOCK:   -2.15 KCAL/MOL
REMARK 927      BINDING AFFINITY PREDICTED BY RF-SCORE:    0.00 PKD
ROOT
HETATM    1  C   UNL     1     -11.430  15.848  68.801  1.00  0.00    -0.393 C  
HETATM    2  C   UNL     1     -10.435  16.188  69.763  1.00  0.00    -0.286 C  
HETATM    3  C   UNL     1      -9.769  15.437  68.654  1.00  0.00    -0.210 C  
HETATM    4  C   UNL     1     -11.000  15.037  67.072  1.00  0.00    -0.318 C  
HETATM    5  C   UNL     1     -10.534   9.148  70.537  1.00  0.00    -0.236 C  
HETATM    6  C   UNL     1     -10.351  16.227  67.305  1.00  0.00    -0.285 C  
HETATM    7  C   UNL     1      -8.997  15.000  66.736  1.00  0.00    -0.293 C  
HETATM    8  C   UNL     1     -11.511  10.171  70.947  1.00  0.00    -0.444 C  
HETATM    9  C   UNL     1     -10.423  17.597  66.711  1.00  0.00    -0.289 C  
HETATM   10  C   UNL     1      -9.252   9.688  69.996  1.00  0.00    -0.275 C  
HETATM   11  C   UNL     1      -9.443  13.323  67.262  1.00  0.00    -0.233 C  
HETATM   12  C   UNL     1     -11.621  11.287  70.202  1.00  0.00    -0.393 C  
HETATM   13  O   UNL     1     -10.755   7.957  70.713  1.00  0.00    -0.216 OA 
HETATM   14  C   UNL     1     -10.443  13.005  68.670  1.00  0.00    -0.236 C  
HETATM   15  C   UNL     1     -11.770  11.000  67.753  1.00  0.00    -0.172 C  
HETATM   16  C   UNL     1     -11.718  14.053  69.051  1.00  0.00    -0.368 C  
HETATM   17  C   UNL     1     -10.837  11.488  68.877  1.00  0.00    -0.263 C  
HETATM   18  C   UNL     1     -12.188  13.756  70.481  1.00  0.00    -0.440 C  
HETATM   19  C   UNL     1      -9.513  10.633  68.831  1.00  0.00    -0.199 C  
HETATM   20  C   UNL     1     -12.660  12.311  70.609  1.00  0.00    -0.241 C  
ENDROOT
BRANCH   4  21
HETATM   21  O   UNL     1     -10.931  15.253  65.577  1.00  0.00    -0.336 OA 
BRANCH  21  22
HETATM   22  C   UNL     1     -11.993  15.048  64.752  1.00  0.00    -0.311 C  
HETATM   23  O   UNL     1     -12.282  15.757  63.802  1.00  0.00    -0.699 OA 
BRANCH  22  24
HETATM   24  C   UNL     1     -12.785  13.839  65.246  1.00  0.00    -0.481 C  
BRANCH  24  25
HETATM   25  C   UNL     1     -12.605  12.552  64.437  1.00  0.00    -0.497 C  
BRANCH  25  26
HETATM   26  C   UNL     1     -11.507  12.585  63.367  1.00  0.00    -0.523 C  
BRANCH  26  27
HETATM   27  C   UNL     1     -10.174  11.985  63.819  1.00  0.00    -0.447 C  
BRANCH  27  28
HETATM   28  C   UNL     1     -10.389  10.664  64.564  1.00  0.00    -0.352 C  
HETATM   29  C   UNL     1      -9.082  10.106  65.105  1.00  0.00    -0.242 C  
ENDBRANCH  27  28
ENDBRANCH  26  27
ENDBRANCH  25  26
ENDBRANCH  24  25
ENDBRANCH  22  24
ENDBRANCH  21  22
ENDBRANCH   4  21
TORSDOF 7
ENDMDL
MODEL        2
REMARK 921   NORMALIZED FREE ENERGY PREDICTED BY IDOCK:   -6.32 KCAL/MOL
REMARK 922        TOTAL FREE ENERGY PREDICTED BY IDOCK:  -11.06 KCAL/MOL
REMARK 923 INTER-LIGAND FREE ENERGY PREDICTED BY IDOCK:   -9.69 KCAL/MOL
REMARK 924 INTRA-LIGAND FREE ENERGY PREDICTED BY IDOCK:   -1.36 KCAL/MOL
REMARK 927      BINDING AFFINITY PREDICTED BY RF-SCORE:    0.00 PKD
ROOT
HETATM    1  C   UNL     1     -10.517   9.506  66.845  1.00  0.00    -0.279 C  
HETATM    2  C   UNL     1      -9.441   9.341  65.924  1.00  0.00    -0.325 C  
HETATM    3  C   UNL     1      -8.978  10.248  67.020  1.00  0.00    -0.147 C  
HETATM    4  C   UNL     1     -10.319  10.445  68.550  1.00  0.00    -0.176 C  
HETATM    5  C   UNL     1     -10.924  16.186  64.867  1.00  0.00    -0.349 C  
HETATM    6  C   UNL     1      -9.436   9.403  68.383  1.00  0.00    -0.148 C  
HETATM    7  C   UNL     1      -8.376  10.896  68.940  1.00  0.00    -0.139 C  
HETATM    8  C   UNL     1     -11.660  14.974  64.472  1.00  0.00    -0.346 C  
HETATM    9  C   UNL     1      -9.252   8.067  69.029  1.00  0.00    -0.148 C  
HETATM   10  C   UNL     1      -9.579  15.935  65.464  1.00  0.00    -0.159 C  
HETATM   11  C   UNL     1      -9.132  12.430  68.335  1.00  0.00    -0.141 C  
HETATM   12  C   UNL     1     -11.570  13.884  65.257  1.00  0.00    -0.332 C  
HETATM   13  O   UNL     1     -11.372  17.302  64.637  1.00  0.00    -0.905 OA 
HETATM   14  C   UNL     1     -10.125  12.492  66.889  1.00  0.00    -0.232 C  
HETATM   15  C   UNL     1     -11.859  14.218  67.688  1.00  0.00    -0.420 C  
HETATM   16  C   UNL     1     -11.150  11.197  66.515  1.00  0.00    -0.233 C  
HETATM   17  C   UNL     1     -10.808  13.890  66.610  1.00  0.00    -0.289 C  
HETATM   18  C   UNL     1     -11.620  11.344  65.062  1.00  0.00     0.073 C  
HETATM   19  C   UNL     1      -9.685  14.996  66.658  1.00  0.00    -0.273 C  
HETATM   20  C   UNL     1     -12.367  12.658  64.864  1.00  0.00    -0.563 C  
ENDROOT
BRANCH   4  21
HETATM   21  O   UNL     1     -10.260  10.298  70.054  1.00  0.00    -0.246 OA 
BRANCH  21  22
HETATM   22  C   UNL     1     -11.372  10.200  70.831  1.00  0.00    -0.340 C  
HETATM   23  O   UNL     1     -11.506   9.420  71.758  1.00  0.00    -0.380 OA 
BRANCH  22  24
HETATM   24  C   UNL     1     -12.431  11.172  70.312  1.00  0.00    -0.354 C  
BRANCH  24  25
HETATM   25  C   UNL     1     -12.423  12.564  70.951  1.00  0.00    -0.361 C  
BRANCH  25  26
HETATM   26  C   UNL     1     -13.290  12.729  72.204  1.00  0.00    -0.593 C  
BRANCH  26  27
HETATM   27  C   UNL     1     -13.833  14.144  72.408  1.00  0.00    -0.638 C  
BRANCH  27  28
HETATM   28  C   UNL     1     -12.885  14.979  73.274  1.00  0.00    -0.647 C  
HETATM   29  C   UNL     1     -12.058  15.941  72.436  1.00  0.00    -0.605 C  
ENDBRANCH  27  28
ENDBRANCH  26  27
ENDBRANCH  25  26
ENDBRANCH  24  25
ENDBRANCH  22  24
ENDBRANCH  21  22
ENDBRANCH   4  21
TORSDOF 7
ENDMDL
MODEL        3
REMARK 921   NORMALIZED FREE ENERGY PREDICTED BY IDOCK:   -6.30 KCAL/MOL
REMARK 922        TOTAL FREE ENERGY PREDICTED BY IDOCK:  -11.02 KCAL/MOL
REMARK 923 INTER-LIGAND FREE ENERGY PREDICTED BY IDOCK:   -9.77 KCAL/MOL
REMARK 924 INTRA-LIGAND FREE ENERGY PREDICTED BY IDOCK:   -1.25 KCAL/MOL
REMARK 927      BINDING AFFINITY PREDICTED BY RF-SCORE:    0.00 PKD
ROOT
HETATM    1  C   UNL     1     -10.568   9.579  66.705  1.00  0.00    -0.208 C  
HETATM    2  C   UNL     1      -9.401   9.460  65.897  1.00  0.00    -0.290 C  
HETATM    3  C   UNL     1      -9.063  10.320  67.074  1.00  0.00    -0.154 C  
HETATM    4  C   UNL     1     -10.558  10.441  68.462  1.00  0.00    -0.209 C  
HETATM    5  C   UNL     1     -10.827  16.339  64.992  1.00  0.00    -0.320 C  
HETATM    6  C   UNL     1      -9.654   9.413  68.343  1.00  0.00    -0.157 C  
HETATM    7  C   UNL     1      -8.672  10.884  69.073  1.00  0.00    -0.108 C  
HETATM    8  C   UNL     1     -11.507  15.142  64.469  1.00  0.00    -0.319 C  
HETATM    9  C   UNL     1      -9.526   8.050  68.946  1.00  0.00    -0.151 C  
HETATM   10  C   UNL     1      -9.549  16.067  65.715  1.00  0.00    -0.311 C  
HETATM   11  C   UNL     1      -9.374  12.440  68.460  1.00  0.00    -0.090 C  
HETATM   12  C   UNL     1     -11.489  14.019  65.211  1.00  0.00    -0.322 C  
HETATM   13  O   UNL     1     -11.259  17.462  64.766  1.00  0.00    -0.895 OA 
HETATM   14  C   UNL     1     -10.211  12.562  66.922  1.00  0.00    -0.237 C  
HETATM   15  C   UNL     1     -12.034  14.243  67.609  1.00  0.00    -0.400 C  
HETATM   16  C   UNL     1     -11.179  11.280  66.386  1.00  0.00    -0.190 C  
HETATM   17  C   UNL     1     -10.874  13.968  66.635  1.00  0.00    -0.297 C  
HETATM   18  C   UNL     1     -11.495  11.490  64.899  1.00  0.00    -0.123 C  
HETATM   19  C   UNL     1      -9.771  15.076  66.849  1.00  0.00    -0.247 C  
HETATM   20  C   UNL     1     -12.230  12.809  64.682  1.00  0.00    -0.510 C  
ENDROOT
BRANCH   4  21
HETATM   21  O   UNL     1     -10.656  10.228  69.956  1.00  0.00    -0.271 OA 
BRANCH  21  22
HETATM   22  C   UNL     1     -11.837  10.257  70.631  1.00  0.00    -0.347 C  
HETATM   23  O   UNL     1     -12.427   9.273  71.043  1.00  0.00    -0.288 OA 
BRANCH  22  24
HETATM   24  C   UNL     1     -12.323  11.703  70.725  1.00  0.00    -0.454 C  
BRANCH  24  25
HETATM   25  C   UNL     1     -13.192  12.032  71.942  1.00  0.00    -0.469 C  
BRANCH  25  26
HETATM   26  C   UNL     1     -13.432  13.523  72.208  1.00  0.00    -0.669 C  
BRANCH  26  27
HETATM   27  C   UNL     1     -12.426  14.450  71.524  1.00  0.00    -0.430 C  
BRANCH  27  28
HETATM   28  C   UNL     1     -12.144  15.687  72.382  1.00  0.00    -0.557 C  
HETATM   29  C   UNL     1     -12.649  15.511  73.805  1.00  0.00    -0.750 C  
ENDBRANCH  27  28
ENDBRANCH  26  27
ENDBRANCH  25  26
ENDBRANCH  24  25
ENDBRANCH  22  24
ENDBRANCH  21  22
ENDBRANCH   4  21
TORSDOF 7
ENDMDL
MODEL        4
REMARK 921   NORMALIZED FREE ENERGY PREDICTED BY IDOCK:   -5.96 KCAL/MOL
REMARK 922        TOTAL FREE ENERGY PREDICTED BY IDOCK:  -10.55 KCAL/MOL
REMARK 923 INTER-LIGAND FREE ENERGY PREDICTED BY IDOCK:   -8.99 KCAL/MOL
REMARK 924 INTRA-LIGAND FREE ENERGY PREDICTED BY IDOCK:   -1.57 KCAL/MOL
REMARK 927      BINDING AFFINITY PREDICTED BY RF-SCORE:    0.00 PKD
ROOT
HETATM    1  C   UNL     1     -11.095  12.863  63.715  1.00  0.00    -0.424 C  
HETATM    2  C   UNL     1     -12.303  12.184  63.387  1.00  0.00    -0.648 C  
HETATM    3  C   UNL     1     -12.365  12.565  64.832  1.00  0.00    -0.539 C  
HETATM    4  C   UNL     1     -10.804  13.734  65.444  1.00  0.00    -0.312 C  
HETATM    5  C   UNL     1      -9.389   7.454  67.781  1.00  0.00    -0.136 C  
HETATM    6  C   UNL     1     -11.926  14.174  64.782  1.00  0.00    -0.441 C  
HETATM    7  C   UNL     1     -12.500  13.771  66.563  1.00  0.00    -0.356 C  
HETATM    8  C   UNL     1      -9.034   7.827  66.402  1.00  0.00    -0.196 C  
HETATM    9  C   UNL     1     -12.328  15.461  64.135  1.00  0.00    -0.015 C  
HETATM   10  C   UNL     1     -10.650   8.069  68.290  1.00  0.00    -0.155 C  
HETATM   11  C   UNL     1     -11.496  12.413  67.226  1.00  0.00    -0.421 C  
HETATM   12  C   UNL     1      -9.266   9.090  65.998  1.00  0.00    -0.284 C  
HETATM   13  O   UNL     1      -8.724   6.639  68.408  1.00  0.00    -0.123 OA 
HETATM   14  C   UNL     1     -10.743  11.202  66.202  1.00  0.00    -0.285 C  
HETATM   15  C   UNL     1      -8.546  10.907  67.509  1.00  0.00    -0.127 C  
HETATM   16  C   UNL     1     -10.129  11.643  64.688  1.00  0.00    -0.305 C  
HETATM   17  C   UNL     1      -9.793  10.189  66.959  1.00  0.00    -0.238 C  
HETATM   18  C   UNL     1      -9.859  10.369  63.876  1.00  0.00    -0.332 C  
HETATM   19  C   UNL     1     -10.597   9.586  68.174  1.00  0.00    -0.265 C  
HETATM   20  C   UNL     1      -8.855   9.472  64.592  1.00  0.00    -0.250 C  
ENDROOT
BRANCH   4  21
HETATM   21  O   UNL     1     -10.671  15.055  66.167  1.00  0.00    -0.310 OA 
BRANCH  21  22
HETATM   22  C   UNL     1      -9.484  15.703  66.310  1.00  0.00    -0.319 C  
HETATM   23  O   UNL     1      -9.154  16.696  65.684  1.00  0.00    -0.477 OA 
BRANCH  22  24
HETATM   24  C   UNL     1      -8.622  14.951  67.324  1.00  0.00    -0.232 C  
BRANCH  24  25
HETATM   25  C   UNL     1      -9.299  14.626  68.658  1.00  0.00    -0.206 C  
BRANCH  25  26
HETATM   26  C   UNL     1      -9.883  15.822  69.418  1.00  0.00    -0.286 C  
BRANCH  26  27
HETATM   27  C   UNL     1     -11.412  15.851  69.461  1.00  0.00    -0.342 C  
BRANCH  27  28
HETATM   28  C   UNL     1     -11.945  15.091  70.679  1.00  0.00    -0.370 C  
HETATM   29  C   UNL     1     -11.835  15.920  71.950  1.00  0.00    -0.595 C  
ENDBRANCH  27  28
ENDBRANCH  26  27
ENDBRANCH  25  26
ENDBRANCH  24  25
ENDBRANCH  22  24
ENDBRANCH  21  22
ENDBRANCH   4  21
TORSDOF 7
ENDMDL
MODEL        5
REMARK 921   NORMALIZED FREE ENERGY PREDICTED BY IDOCK:   -5.95 KCAL/MOL
REMARK 922        TOTAL FREE ENERGY PREDICTED BY IDOCK:  -10.54 KCAL/MOL
REMARK 923 INTER-LIGAND FREE ENERGY PREDICTED BY IDOCK:   -8.44 KCAL/MOL
REMARK 924 INTRA-LIGAND FREE ENERGY PREDICTED BY IDOCK:   -2.10 KCAL/MOL
REMARK 927      BINDING AFFINITY PREDICTED BY RF-SCORE:    0.00 PKD
ROOT
HETATM    1  C   UNL     1      -8.762  13.077  67.305  1.00  0.00    -0.209 C  
HETATM    2  C   UNL     1      -8.008  12.332  68.258  1.00  0.00    -0.163 C  
HETATM    3  C   UNL     1      -9.379  11.737  68.184  1.00  0.00    -0.190 C  
HETATM    4  C   UNL     1     -10.551  12.544  66.717  1.00  0.00    -0.233 C  
HETATM    5  C   UNL     1     -12.746  15.380  72.551  1.00  0.00    -0.389 C  
HETATM    6  C   UNL     1      -9.594  11.572  66.538  1.00  0.00    -0.225 C  
HETATM    7  C   UNL     1     -11.056  10.704  67.418  1.00  0.00    -0.341 C  
HETATM    8  C   UNL     1     -11.589  15.951  71.841  1.00  0.00    -0.542 C  
HETATM    9  C   UNL     1      -8.949  10.938  65.347  1.00  0.00    -0.209 C  
HETATM   10  C   UNL     1     -12.861  13.894  72.466  1.00  0.00    -0.371 C  
HETATM   11  C   UNL     1     -11.907  11.896  68.489  1.00  0.00    -0.357 C  
HETATM   12  C   UNL     1     -11.228  15.409  70.663  1.00  0.00    -0.370 C  
HETATM   13  O   UNL     1     -13.492  16.087  73.216  1.00  0.00    -0.598 OA 
HETATM   14  C   UNL     1     -11.097  13.284  69.196  1.00  0.00    -0.259 C  
HETATM   15  C   UNL     1     -13.021  14.983  69.019  1.00  0.00     0.973 C  
HETATM   16  C   UNL     1      -9.902  14.099  68.316  1.00  0.00    -0.235 C  
HETATM   17  C   UNL     1     -12.043  14.279  69.979  1.00  0.00    -0.400 C  
HETATM   18  C   UNL     1      -9.129  15.019  69.271  1.00  0.00    -0.157 C  
HETATM   19  C   UNL     1     -12.882  13.436  71.014  1.00  0.00    -0.329 C  
HETATM   20  C   UNL     1     -10.064  16.033  69.922  1.00  0.00    -0.142 C  
ENDROOT
BRANCH   4  21
HETATM   21  O   UNL     1     -11.374  11.990  65.576  1.00  0.00    -0.336 OA 
BRANCH  21  22
HETATM   22  C   UNL     1     -12.413  12.669  65.017  1.00  0.00    -0.487 C  
HETATM   23  O   UNL     1     -13.159  12.218  64.164  1.00  0.00    -0.749 OA 
BRANCH  22  24
HETATM   24  C   UNL     1     -12.445  14.088  65.583  1.00  0.00    -0.531 C  
BRANCH  24  25
HETATM   25  C   UNL     1     -11.736  15.152  64.742  1.00  0.00    -0.331 C  
BRANCH  25  26
HETATM   26  C   UNL     1     -10.449  15.730  65.342  1.00  0.00    -0.438 C  
BRANCH  26  27
HETATM   27  C   UNL     1     -10.647  17.038  66.109  1.00  0.00    -0.194 C  
BRANCH  27  28
HETATM   28  C   UNL     1      -9.307  17.725  66.385  1.00  0.00    -0.264 C  
HETATM   29  C   UNL     1      -8.139  16.766  66.219  1.00  0.00    -0.365 C  
ENDBRANCH  27  28
ENDBRANCH  26  27
ENDBRANCH  25  26
ENDBRANCH  24  25
ENDBRANCH  22  24
ENDBRANCH  21  22
ENDBRANCH   4  21
TORSDOF 7
ENDMDL
MODEL        6
REMARK 921   NORMALIZED FREE ENERGY PREDICTED BY IDOCK:   -5.93 KCAL/MOL
REMARK 922        TOTAL FREE ENERGY PREDICTED BY IDOCK:  -10.50 KCAL/MOL
REMARK 923 INTER-LIGAND FREE ENERGY PREDICTED BY IDOCK:   -8.46 KCAL/MOL
REMARK 924 INTRA-LIGAND FREE ENERGY PREDICTED BY IDOCK:   -2.04 KCAL/MOL
REMARK 927      BINDING AFFINITY PREDICTED BY RF-SCORE:    0.00 PKD
ROOT
HETATM    1  C   UNL     1     -11.585  14.933  68.486  1.00  0.00    -0.347 C  
HETATM    2  C   UNL     1     -10.745  15.506  69.485  1.00  0.00    -0.272 C  
HETATM    3  C   UNL     1      -9.881  14.726  68.545  1.00  0.00    -0.218 C  
HETATM    4  C   UNL     1     -10.881  13.994  66.920  1.00  0.00    -0.290 C  
HETATM    5  C   UNL     1     -10.101   8.646  71.126  1.00  0.00    -0.226 C  
HETATM    6  C   UNL     1     -10.404  15.276  67.059  1.00  0.00    -0.277 C  
HETATM    7  C   UNL     1      -8.863  14.178  66.776  1.00  0.00    -0.190 C  
HETATM    8  C   UNL     1     -11.229   9.574  71.312  1.00  0.00    -0.452 C  
HETATM    9  C   UNL     1     -10.572  16.550  66.294  1.00  0.00    -0.223 C  
HETATM   10  C   UNL     1      -8.841   9.282  70.642  1.00  0.00    -0.287 C  
HETATM   11  C   UNL     1      -9.164  12.527  67.466  1.00  0.00    -0.188 C  
HETATM   12  C   UNL     1     -11.389  10.575  70.426  1.00  0.00    -0.411 C  
HETATM   13  O   UNL     1     -10.198   7.464  71.430  1.00  0.00    -0.188 OA 
HETATM   14  C   UNL     1     -10.264  12.246  68.805  1.00  0.00    -0.119 C  
HETATM   15  C   UNL     1     -11.242   9.995  68.030  1.00  0.00    -0.190 C  
HETATM   16  C   UNL     1     -11.685  13.156  68.932  1.00  0.00    -0.368 C  
HETATM   17  C   UNL     1     -10.497  10.724  69.164  1.00  0.00    -0.243 C  
HETATM   18  C   UNL     1     -12.267  12.966  70.340  1.00  0.00    -0.381 C  
HETATM   19  C   UNL     1      -9.085  10.047  69.348  1.00  0.00    -0.228 C  
HETATM   20  C   UNL     1     -12.578  11.496  70.604  1.00  0.00    -0.337 C  
ENDROOT
BRANCH   4  21
HETATM   21  O   UNL     1     -10.679  14.046  65.422  1.00  0.00    -0.306 OA 
BRANCH  21  22
HETATM   22  C   UNL     1     -11.615  13.613  64.535  1.00  0.00    -0.390 C  
HETATM   23  O   UNL     1     -12.749  14.053  64.451  1.00  0.00    -0.663 OA 
BRANCH  22  24
HETATM   24  C   UNL     1     -11.035  12.457  63.720  1.00  0.00    -0.501 C  
BRANCH  24  25
HETATM   25  C   UNL     1     -10.765  11.168  64.499  1.00  0.00    -0.368 C  
BRANCH  25  26
HETATM   26  C   UNL     1      -9.360  10.574  64.341  1.00  0.00    -0.307 C  
BRANCH  26  27
HETATM   27  C   UNL     1      -9.141   9.271  65.112  1.00  0.00    -0.263 C  
BRANCH  27  28
HETATM   28  C   UNL     1      -7.850   9.328  65.934  1.00  0.00    -0.099 C  
HETATM   29  C   UNL     1      -6.813  10.234  65.290  1.00  0.00    -0.131 C  
ENDBRANCH  27  28
ENDBRANCH  26  27
ENDBRANCH  25  26
ENDBRANCH  24  25
ENDBRANCH  22  24
ENDBRANCH  21  22
ENDBRANCH   4  21
TORSDOF 7
ENDMDL
MODEL        7
REMARK 921   NORMALIZED FREE ENERGY PREDICTED BY IDOCK:   -5.82 KCAL/MOL
REMARK 922        TOTAL FREE ENERGY PREDICTED BY IDOCK:  -10.35 KCAL/MOL
REMARK 923 INTER-LIGAND FREE ENERGY PREDICTED BY IDOCK:   -9.44 KCAL/MOL
REMARK 924 INTRA-LIGAND FREE ENERGY PREDICTED BY IDOCK:   -0.90 KCAL/MOL
REMARK 927      BINDING AFFINITY PREDICTED BY RF-SCORE:    0.00 PKD
ROOT
HETATM    1  C   UNL     1     -11.090  12.829  63.709  1.00  0.00    -0.475 C  
HETATM    2  C   UNL     1     -12.338  12.182  63.475  1.00  0.00    -0.682 C  
HETATM    3  C   UNL     1     -12.274  12.551  64.923  1.00  0.00    -0.534 C  
HETATM    4  C   UNL     1     -10.640  13.676  65.415  1.00  0.00    -0.317 C  
HETATM    5  C   UNL     1      -9.200   7.342  67.585  1.00  0.00    -0.126 C  
HETATM    6  C   UNL     1     -11.800  14.149  64.849  1.00  0.00    -0.407 C  
HETATM    7  C   UNL     1     -12.238  13.744  66.668  1.00  0.00    -0.454 C  
HETATM    8  C   UNL     1      -8.947   7.718  66.184  1.00  0.00    -0.201 C  
HETATM    9  C   UNL     1     -12.220  15.451  64.246  1.00  0.00    -0.140 C  
HETATM   10  C   UNL     1     -10.400   7.983  68.199  1.00  0.00    -0.250 C  
HETATM   11  C   UNL     1     -11.219  12.356  67.238  1.00  0.00    -0.357 C  
HETATM   12  C   UNL     1      -9.179   8.990  65.810  1.00  0.00    -0.293 C  
HETATM   13  O   UNL     1      -8.507   6.505  68.150  1.00  0.00    -0.116 OA 
HETATM   14  C   UNL     1     -10.582  11.136  66.148  1.00  0.00    -0.305 C  
HETATM   15  C   UNL     1      -8.295  10.775  67.270  1.00  0.00    -0.124 C  
HETATM   16  C   UNL     1     -10.081  11.576  64.592  1.00  0.00    -0.318 C  
HETATM   17  C   UNL     1      -9.599  10.094  66.818  1.00  0.00    -0.222 C  
HETATM   18  C   UNL     1      -9.909  10.304  63.752  1.00  0.00    -0.219 C  
HETATM   19  C   UNL     1     -10.318   9.499  68.090  1.00  0.00    -0.251 C  
HETATM   20  C   UNL     1      -8.874   9.375  64.378  1.00  0.00    -0.225 C  
ENDROOT
BRANCH   4  21
HETATM   21  O   UNL     1     -10.416  14.986  66.135  1.00  0.00    -0.283 OA 
BRANCH  21  22
HETATM   22  C   UNL     1      -9.177  15.472  66.419  1.00  0.00    -0.305 C  
HETATM   23  O   UNL     1      -8.270  14.820  66.908  1.00  0.00    -0.203 OA 
BRANCH  22  24
HETATM   24  C   UNL     1      -9.137  16.963  66.088  1.00  0.00    -0.265 C  
BRANCH  24  25
HETATM   25  C   UNL     1     -10.319  17.788  66.602  1.00  0.00    -0.345 C  
BRANCH  25  26
HETATM   26  C   UNL     1     -10.361  19.251  66.145  1.00  0.00    -0.578 C  
BRANCH  26  27
HETATM   27  C   UNL     1      -9.700  20.230  67.117  1.00  0.00    -0.592 C  
BRANCH  27  28
HETATM   28  C   UNL     1      -9.433  19.567  68.472  1.00  0.00    -0.455 C  
HETATM   29  C   UNL     1      -7.947  19.340  68.703  1.00  0.00    -0.405 C  
ENDBRANCH  27  28
ENDBRANCH  26  27
ENDBRANCH  25  26
ENDBRANCH  24  25
ENDBRANCH  22  24
ENDBRANCH  21  22
ENDBRANCH   4  21
TORSDOF 7
ENDMDL
MODEL        8
REMARK 921   NORMALIZED FREE ENERGY PREDICTED BY IDOCK:   -5.65 KCAL/MOL
REMARK 922        TOTAL FREE ENERGY PREDICTED BY IDOCK:  -10.11 KCAL/MOL
REMARK 923 INTER-LIGAND FREE ENERGY PREDICTED BY IDOCK:   -8.37 KCAL/MOL
REMARK 924 INTRA-LIGAND FREE ENERGY PREDICTED BY IDOCK:   -1.74 KCAL/MOL
REMARK 927      BINDING AFFINITY PREDICTED BY RF-SCORE:    0.00 PKD
ROOT
HETATM    1  C   UNL     1      -8.389   9.593  66.397  1.00  0.00    -0.120 C  
HETATM    2  C   UNL     1      -7.239  10.049  65.689  1.00  0.00    -0.120 C  
HETATM    3  C   UNL     1      -7.483  10.987  66.828  1.00  0.00    -0.139 C  
HETATM    4  C   UNL     1      -8.975  10.384  68.089  1.00  0.00    -0.132 C  
HETATM    5  C   UNL     1     -11.752  15.306  64.221  1.00  0.00    -0.215 C  
HETATM    6  C   UNL     1      -7.676   9.934  68.107  1.00  0.00    -0.082 C  
HETATM    7  C   UNL     1      -7.617  11.713  68.809  1.00  0.00    -0.119 C  
HETATM    8  C   UNL     1     -11.704  13.919  63.729  1.00  0.00    -0.138 C  
HETATM    9  C   UNL     1      -6.958   8.824  68.807  1.00  0.00    -0.063 C  
HETATM   10  C   UNL     1     -10.584  15.716  65.054  1.00  0.00    -0.422 C  
HETATM   11  C   UNL     1      -8.927  12.707  68.042  1.00  0.00    -0.200 C  
HETATM   12  C   UNL     1     -11.213  12.967  64.544  1.00  0.00    -0.372 C  
HETATM   13  O   UNL     1     -12.654  16.065  63.888  1.00  0.00    -0.706 OA 
HETATM   14  C   UNL     1      -9.560  12.367  66.440  1.00  0.00    -0.249 C  
HETATM   15  C   UNL     1     -12.030  12.943  66.874  1.00  0.00    -0.402 C  
HETATM   16  C   UNL     1      -9.719  10.763  65.920  1.00  0.00    -0.272 C  
HETATM   17  C   UNL     1     -10.795  13.257  66.010  1.00  0.00    -0.284 C  
HETATM   18  C   UNL     1      -9.949  10.758  64.403  1.00  0.00    -0.400 C  
HETATM   19  C   UNL     1     -10.403  14.768  66.233  1.00  0.00    -0.305 C  
HETATM   20  C   UNL     1     -11.210  11.538  64.043  1.00  0.00    -0.414 C  
ENDROOT
BRANCH   4  21
HETATM   21  O   UNL     1      -9.103  10.182  69.582  1.00  0.00    -0.206 OA 
BRANCH  21  22
HETATM   22  C   UNL     1     -10.249   9.750  70.174  1.00  0.00    -0.275 C  
HETATM   23  O   UNL     1     -10.307   8.870  71.016  1.00  0.00    -0.213 OA 
BRANCH  22  24
HETATM   24  C   UNL     1     -11.437  10.496  69.566  1.00  0.00    -0.339 C  
BRANCH  24  25
HETATM   25  C   UNL     1     -12.236  11.369  70.536  1.00  0.00    -0.478 C  
BRANCH  25  26
HETATM   26  C   UNL     1     -12.041  12.883  70.387  1.00  0.00    -0.385 C  
BRANCH  26  27
HETATM   27  C   UNL     1     -12.861  13.719  71.371  1.00  0.00    -0.449 C  
BRANCH  27  28
HETATM   28  C   UNL     1     -12.958  15.176  70.910  1.00  0.00    -0.488 C  
HETATM   29  C   UNL     1     -11.943  15.490  69.822  1.00  0.00    -0.384 C  
ENDBRANCH  27  28
ENDBRANCH  26  27
ENDBRANCH  25  26
ENDBRANCH  24  25
ENDBRANCH  22  24
ENDBRANCH  21  22
ENDBRANCH   4  21
TORSDOF 7
ENDMDL
MODEL        9
REMARK 921   NORMALIZED FREE ENERGY PREDICTED BY IDOCK:   -5.64 KCAL/MOL
REMARK 922        TOTAL FREE ENERGY PREDICTED BY IDOCK:  -10.10 KCAL/MOL
REMARK 923 INTER-LIGAND FREE ENERGY PREDICTED BY IDOCK:   -8.93 KCAL/MOL
REMARK 924 INTRA-LIGAND FREE ENERGY PREDICTED BY IDOCK:   -1.17 KCAL/MOL
REMARK 927      BINDING AFFINITY PREDICTED BY RF-SCORE:    0.00 PKD
ROOT
HETATM    1  C   UNL     1     -10.900  13.010  64.638  1.00  0.00    -0.373 C  
HETATM    2  C   UNL     1     -12.272  12.651  64.498  1.00  0.00    -0.514 C  
HETATM    3  C   UNL     1     -12.100  13.305  65.832  1.00  0.00    -0.493 C  
HETATM    4  C   UNL     1     -10.232  14.078  66.137  1.00  0.00    -0.302 C  
HETATM    5  C   UNL     1     -10.371   8.226  69.691  1.00  0.00    -0.218 C  
HETATM    6  C   UNL     1     -11.247  14.682  65.433  1.00  0.00    -0.347 C  
HETATM    7  C   UNL     1     -11.748  14.809  67.276  1.00  0.00    -0.366 C  
HETATM    8  C   UNL     1     -10.052   8.210  68.254  1.00  0.00    -0.230 C  
HETATM    9  C   UNL     1     -11.341  15.881  64.543  1.00  0.00    -0.316 C  
HETATM   10  C   UNL     1     -11.368   9.259  70.099  1.00  0.00    -0.193 C  
HETATM   11  C   UNL     1     -11.095  13.376  68.177  1.00  0.00    -0.284 C  
HETATM   12  C   UNL     1      -9.968   9.385  67.602  1.00  0.00    -0.238 C  
HETATM   13  O   UNL     1      -9.899   7.392  70.453  1.00  0.00    -0.183 OA 
HETATM   14  C   UNL     1     -10.793  11.828  67.406  1.00  0.00    -0.299 C  
HETATM   15  C   UNL     1      -8.651  11.178  68.676  1.00  0.00    -0.151 C  
HETATM   16  C   UNL     1     -10.219  11.777  65.814  1.00  0.00    -0.276 C  
HETATM   17  C   UNL     1     -10.090  10.752  68.327  1.00  0.00    -0.187 C  
HETATM   18  C   UNL     1     -10.379  10.348  65.279  1.00  0.00    -0.267 C  
HETATM   19  C   UNL     1     -10.916  10.647  69.667  1.00  0.00    -0.331 C  
HETATM   20  C   UNL     1      -9.596   9.357  66.135  1.00  0.00    -0.311 C  
ENDROOT
BRANCH   4  21
HETATM   21  O   UNL     1      -9.683  15.421  66.563  1.00  0.00    -0.244 OA 
BRANCH  21  22
HETATM   22  C   UNL     1      -8.362  15.634  66.809  1.00  0.00    -0.278 C  
HETATM   23  O   UNL     1      -7.650  14.899  67.472  1.00  0.00    -0.163 OA 
BRANCH  22  24
HETATM   24  C   UNL     1      -7.944  16.962  66.179  1.00  0.00    -0.290 C  
BRANCH  24  25
HETATM   25  C   UNL     1      -7.394  18.011  67.148  1.00  0.00    -0.214 C  
BRANCH  25  26
HETATM   26  C   UNL     1      -8.295  19.226  67.400  1.00  0.00    -0.317 C  
BRANCH  26  27
HETATM   27  C   UNL     1      -9.562  18.910  68.197  1.00  0.00    -0.386 C  
BRANCH  27  28
HETATM   28  C   UNL     1     -10.819  19.167  67.360  1.00  0.00    -0.533 C  
HETATM   29  C   UNL     1     -10.472  19.640  65.957  1.00  0.00    -0.622 C  
ENDBRANCH  27  28
ENDBRANCH  26  27
ENDBRANCH  25  26
ENDBRANCH  24  25
ENDBRANCH  22  24
ENDBRANCH  21  22
ENDBRANCH   4  21
TORSDOF 7
ENDMDL
MODEL       10
REMARK 921   NORMALIZED FREE ENERGY PREDICTED BY IDOCK:   -5.55 KCAL/MOL
REMARK 922        TOTAL FREE ENERGY PREDICTED BY IDOCK:   -9.98 KCAL/MOL
REMARK 923 INTER-LIGAND FREE ENERGY PREDICTED BY IDOCK:   -8.44 KCAL/MOL
REMARK 924 INTRA-LIGAND FREE ENERGY PREDICTED BY IDOCK:   -1.53 KCAL/MOL
REMARK 927      BINDING AFFINITY PREDICTED BY RF-SCORE:    0.00 PKD
ROOT
HETATM    1  C   UNL     1      -9.950   9.555  65.978  1.00  0.00    -0.348 C  
HETATM    2  C   UNL     1      -9.043   9.594  64.880  1.00  0.00    -0.284 C  
HETATM    3  C   UNL     1      -8.343  10.153  66.078  1.00  0.00    -0.130 C  
HETATM    4  C   UNL     1      -9.417   9.993  67.810  1.00  0.00    -0.140 C  
HETATM    5  C   UNL     1     -10.062  16.532  65.880  1.00  0.00    -0.337 C  
HETATM    6  C   UNL     1      -8.664   8.996  67.236  1.00  0.00    -0.122 C  
HETATM    7  C   UNL     1      -7.406  10.236  67.971  1.00  0.00    -0.086 C  
HETATM    8  C   UNL     1     -10.952  15.504  65.316  1.00  0.00    -0.391 C  
HETATM    9  C   UNL     1      -8.503   7.528  67.476  1.00  0.00    -0.119 C  
HETATM   10  C   UNL     1      -8.670  16.070  66.157  1.00  0.00    -0.348 C  
HETATM   11  C   UNL     1      -8.106  11.909  67.915  1.00  0.00    -0.147 C  
HETATM   12  C   UNL     1     -10.841  14.241  65.768  1.00  0.00    -0.303 C  
HETATM   13  O   UNL     1     -10.440  17.687  66.023  1.00  0.00    -0.387 OA 
HETATM   14  C   UNL     1      -9.296  12.399  66.721  1.00  0.00    -0.220 C  
HETATM   15  C   UNL     1     -10.733  13.925  68.216  1.00  0.00    -0.261 C  
HETATM   16  C   UNL     1     -10.475  11.299  66.205  1.00  0.00    -0.308 C  
HETATM   17  C   UNL     1      -9.888  13.851  66.930  1.00  0.00    -0.268 C  
HETATM   18  C   UNL     1     -11.143  11.850  64.938  1.00  0.00    -0.363 C  
HETATM   19  C   UNL     1      -8.678  14.851  67.071  1.00  0.00    -0.263 C  
HETATM   20  C   UNL     1     -11.793  13.202  65.213  1.00  0.00    -0.400 C  
ENDROOT
BRANCH   4  21
HETATM   21  O   UNL     1      -9.147   9.446  69.194  1.00  0.00    -0.139 OA 
BRANCH  21  22
HETATM   22  C   UNL     1     -10.028   9.571  70.222  1.00  0.00    -0.259 C  
HETATM   23  O   UNL     1      -9.871   9.095  71.334  1.00  0.00    -0.298 OA 
BRANCH  22  24
HETATM   24  C   UNL     1     -11.257  10.339  69.737  1.00  0.00    -0.339 C  
BRANCH  24  25
HETATM   25  C   UNL     1     -12.055  11.065  70.823  1.00  0.00    -0.467 C  
BRANCH  25  26
HETATM   26  C   UNL     1     -13.396  10.427  71.206  1.00  0.00    -0.334 C  
BRANCH  26  27
HETATM   27  C   UNL     1     -13.278   9.277  72.208  1.00  0.00    -0.535 C  
BRANCH  27  28
HETATM   28  C   UNL     1     -13.785   7.964  71.604  1.00  0.00    -0.422 C  
HETATM   29  C   UNL     1     -12.654   6.970  71.391  1.00  0.00    -0.428 C  
ENDBRANCH  27  28
ENDBRANCH  26  27
ENDBRANCH  25  26
ENDBRANCH  24  25
ENDBRANCH  22  24
ENDBRANCH  21  22
ENDBRANCH   4  21
TORSDOF 7
ENDMDL
MODEL       11
REMARK 921   NORMALIZED FREE ENERGY PREDICTED BY IDOCK:   -5.51 KCAL/MOL
REMARK 922        TOTAL FREE ENERGY PREDICTED BY IDOCK:   -9.91 KCAL/MOL
REMARK 923 INTER-LIGAND FREE ENERGY PREDICTED BY IDOCK:   -8.58 KCAL/MOL
REMARK 924 INTRA-LIGAND FREE ENERGY PREDICTED BY IDOCK:   -1.33 KCAL/MOL
REMARK 927      BINDING AFFINITY PREDICTED BY RF-SCORE:    0.00 PKD
ROOT
HETATM    1  C   UNL     1     -11.280   6.225  69.898  1.00  0.00    -0.498 C  
HETATM    2  C   UNL     1     -10.198   5.299  69.940  1.00  0.00    -0.364 C  
HETATM    3  C   UNL     1      -9.901   6.402  70.906  1.00  0.00    -0.204 C  
HETATM    4  C   UNL     1     -11.437   7.730  71.140  1.00  0.00    -0.274 C  
HETATM    5  C   UNL     1      -6.922  10.885  67.071  1.00  0.00    -0.105 C  
HETATM    6  C   UNL     1     -11.330   6.506  71.759  1.00  0.00    -0.325 C  
HETATM    7  C   UNL     1     -10.043   7.635  72.616  1.00  0.00    -0.298 C  
HETATM    8  C   UNL     1      -7.909   9.954  66.498  1.00  0.00    -0.110 C  
HETATM    9  C   UNL     1     -12.251   5.658  72.578  1.00  0.00     0.051 C  
HETATM   10  C   UNL     1      -6.425  10.513  68.428  1.00  0.00    -0.055 C  
HETATM   11  C   UNL     1      -9.423   8.854  71.425  1.00  0.00    -0.344 C  
HETATM   12  C   UNL     1      -8.823   9.404  67.318  1.00  0.00    -0.136 C  
HETATM   13  O   UNL     1      -6.502  11.838  66.426  1.00  0.00    -0.003 OA 
HETATM   14  C   UNL     1      -9.382   8.554  69.696  1.00  0.00    -0.157 C  
HETATM   15  C   UNL     1      -9.992  10.918  68.882  1.00  0.00    -0.208 C  
HETATM   16  C   UNL     1     -10.621   7.662  68.966  1.00  0.00    -0.186 C  
HETATM   17  C   UNL     1      -8.942   9.793  68.816  1.00  0.00    -0.133 C  
HETATM   18  C   UNL     1     -10.170   7.254  67.557  1.00  0.00    -0.284 C  
HETATM   19  C   UNL     1      -7.585  10.344  69.401  1.00  0.00    -0.140 C  
HETATM   20  C   UNL     1      -9.860   8.484  66.709  1.00  0.00    -0.327 C  
ENDROOT
BRANCH   4  21
HETATM   21  O   UNL     1     -12.193   8.298  72.320  1.00  0.00    -0.344 OA 
BRANCH  21  22
HETATM   22  C   UNL     1     -13.261   9.129  72.181  1.00  0.00    -0.458 C  
HETATM   23  O   UNL     1     -14.335   8.979  72.740  1.00  0.00    -0.596 OA 
BRANCH  22  24
HETATM   24  C   UNL     1     -12.916  10.225  71.174  1.00  0.00    -0.503 C  
BRANCH  24  25
HETATM   25  C   UNL     1     -13.024  11.660  71.693  1.00  0.00    -0.483 C  
BRANCH  25  26
HETATM   26  C   UNL     1     -12.464  12.749  70.770  1.00  0.00    -0.357 C  
BRANCH  26  27
HETATM   27  C   UNL     1     -12.723  14.176  71.255  1.00  0.00    -0.434 C  
BRANCH  27  28
HETATM   28  C   UNL     1     -13.369  14.177  72.644  1.00  0.00    -0.638 C  
HETATM   29  C   UNL     1     -12.566  15.004  73.636  1.00  0.00    -0.666 C  
ENDBRANCH  27  28
ENDBRANCH  26  27
ENDBRANCH  25  26
ENDBRANCH  24  25
ENDBRANCH  22  24
ENDBRANCH  21  22
ENDBRANCH   4  21
TORSDOF 7
ENDMDL
MODEL       12
REMARK 921   NORMALIZED FREE ENERGY PREDICTED BY IDOCK:   -5.48 KCAL/MOL
REMARK 922        TOTAL FREE ENERGY PREDICTED BY IDOCK:   -9.87 KCAL/MOL
REMARK 923 INTER-LIGAND FREE ENERGY PREDICTED BY IDOCK:   -8.32 KCAL/MOL
REMARK 924 INTRA-LIGAND FREE ENERGY PREDICTED BY IDOCK:   -1.55 KCAL/MOL
REMARK 927      BINDING AFFINITY PREDICTED BY RF-SCORE:    0.00 PKD
ROOT
HETATM    1  C   UNL     1      -7.879   9.410  66.584  1.00  0.00    -0.104 C  
HETATM    2  C   UNL     1      -6.823   9.916  65.772  1.00  0.00    -0.104 C  
HETATM    3  C   UNL     1      -7.071  10.897  66.874  1.00  0.00    -0.120 C  
HETATM    4  C   UNL     1      -8.419  10.250  68.267  1.00  0.00    -0.121 C  
HETATM    5  C   UNL     1     -11.859  14.688  64.347  1.00  0.00    -0.390 C  
HETATM    6  C   UNL     1      -7.088   9.909  68.218  1.00  0.00    -0.076 C  
HETATM    7  C   UNL     1      -7.136  11.726  68.817  1.00  0.00    -0.111 C  
HETATM    8  C   UNL     1     -11.724  13.282  63.928  1.00  0.00    -0.486 C  
HETATM    9  C   UNL     1      -6.232   8.906  68.924  1.00  0.00    -0.044 C  
HETATM   10  C   UNL     1     -10.678  15.241  65.072  1.00  0.00    -0.461 C  
HETATM   11  C   UNL     1      -8.574  12.562  68.092  1.00  0.00    -0.189 C  
HETATM   12  C   UNL     1     -11.100  12.424  64.756  1.00  0.00    -0.345 C  
HETATM   13  O   UNL     1     -12.843  15.348  64.038  1.00  0.00    -0.577 OA 
HETATM   14  C   UNL     1      -9.280  12.076  66.560  1.00  0.00    -0.216 C  
HETATM   15  C   UNL     1     -11.757  12.471  67.136  1.00  0.00    -0.425 C  
HETATM   16  C   UNL     1      -9.334  10.437  66.139  1.00  0.00    -0.210 C  
HETATM   17  C   UNL     1     -10.612  12.834  66.171  1.00  0.00    -0.286 C  
HETATM   18  C   UNL     1      -9.663  10.322  64.645  1.00  0.00    -0.398 C  
HETATM   19  C   UNL     1     -10.338  14.383  66.284  1.00  0.00    -0.300 C  
HETATM   20  C   UNL     1     -11.007  10.973  64.334  1.00  0.00    -0.157 C  
ENDROOT
BRANCH   4  21
HETATM   21  O   UNL     1      -8.430  10.127  69.774  1.00  0.00    -0.177 OA 
BRANCH  21  22
HETATM   22  C   UNL     1      -9.467   9.578  70.463  1.00  0.00    -0.246 C  
HETATM   23  O   UNL     1      -9.349   8.864  71.444  1.00  0.00    -0.234 OA 
BRANCH  22  24
HETATM   24  C   UNL     1     -10.778   9.950  69.772  1.00  0.00    -0.298 C  
BRANCH  24  25
HETATM   25  C   UNL     1     -11.700  10.885  70.559  1.00  0.00    -0.441 C  
BRANCH  25  26
HETATM   26  C   UNL     1     -13.105  10.346  70.854  1.00  0.00    -0.412 C  
BRANCH  26  27
HETATM   27  C   UNL     1     -13.173   9.403  72.056  1.00  0.00    -0.529 C  
BRANCH  27  28
HETATM   28  C   UNL     1     -13.815   8.066  71.673  1.00  0.00    -0.444 C  
HETATM   29  C   UNL     1     -12.776   6.968  71.517  1.00  0.00    -0.425 C  
ENDBRANCH  27  28
ENDBRANCH  26  27
ENDBRANCH  25  26
ENDBRANCH  24  25
ENDBRANCH  22  24
ENDBRANCH  21  22
ENDBRANCH   4  21
TORSDOF 7
ENDMDL
MODEL       13
REMARK 921   NORMALIZED FREE ENERGY PREDICTED BY IDOCK:   -5.41 KCAL/MOL
REMARK 922        TOTAL FREE ENERGY PREDICTED BY IDOCK:   -9.78 KCAL/MOL
REMARK 923 INTER-LIGAND FREE ENERGY PREDICTED BY IDOCK:   -8.84 KCAL/MOL
REMARK 924 INTRA-LIGAND FREE ENERGY PREDICTED BY IDOCK:   -0.94 KCAL/MOL
REMARK 927      BINDING AFFINITY PREDICTED BY RF-SCORE:    0.00 PKD
ROOT
HETATM    1  C   UNL     1     -10.482   9.560  66.490  1.00  0.00    -0.201 C  
HETATM    2  C   UNL     1      -9.318   9.466  65.673  1.00  0.00    -0.309 C  
HETATM    3  C   UNL     1      -8.961  10.244  66.901  1.00  0.00    -0.149 C  
HETATM    4  C   UNL     1     -10.452  10.312  68.296  1.00  0.00    -0.199 C  
HETATM    5  C   UNL     1     -10.592  16.417  65.197  1.00  0.00    -0.264 C  
HETATM    6  C   UNL     1      -9.571   9.273  68.112  1.00  0.00    -0.159 C  
HETATM    7  C   UNL     1      -8.556  10.674  68.930  1.00  0.00    -0.158 C  
HETATM    8  C   UNL     1     -11.298  15.270  64.603  1.00  0.00    -0.364 C  
HETATM    9  C   UNL     1      -9.473   7.873  68.629  1.00  0.00    -0.149 C  
HETATM   10  C   UNL     1      -9.321  16.073  65.899  1.00  0.00    -0.335 C  
HETATM   11  C   UNL     1      -9.223  12.281  68.415  1.00  0.00    -0.145 C  
HETATM   12  C   UNL     1     -11.306  14.103  65.273  1.00  0.00    -0.328 C  
HETATM   13  O   UNL     1     -10.999  17.561  65.041  1.00  0.00    -0.754 OA 
HETATM   14  C   UNL     1     -10.059  12.515  66.889  1.00  0.00    -0.232 C  
HETATM   15  C   UNL     1     -11.844  14.190  67.683  1.00  0.00    -0.427 C  
HETATM   16  C   UNL     1     -11.055  11.291  66.277  1.00  0.00    -0.229 C  
HETATM   17  C   UNL     1     -10.690  13.951  66.690  1.00  0.00    -0.281 C  
HETATM   18  C   UNL     1     -11.368  11.599  64.807  1.00  0.00    -0.270 C  
HETATM   19  C   UNL     1      -9.564  15.019  66.971  1.00  0.00    -0.233 C  
HETATM   20  C   UNL     1     -12.073  12.945  64.673  1.00  0.00    -0.474 C  
ENDROOT
BRANCH   4  21
HETATM   21  O   UNL     1     -10.554  10.009  69.774  1.00  0.00    -0.229 OA 
BRANCH  21  22
HETATM   22  C   UNL     1     -11.513  10.548  70.575  1.00  0.00    -0.345 C  
HETATM   23  O   UNL     1     -11.945  11.683  70.474  1.00  0.00    -0.360 OA 
BRANCH  22  24
HETATM   24  C   UNL     1     -11.901   9.528  71.645  1.00  0.00    -0.468 C  
BRANCH  24  25
HETATM   25  C   UNL     1     -13.173   8.724  71.364  1.00  0.00    -0.290 C  
BRANCH  25  26
HETATM   26  C   UNL     1     -13.043   7.202  71.494  1.00  0.00    -0.427 C  
BRANCH  26  27
HETATM   27  C   UNL     1     -11.902   6.599  70.673  1.00  0.00    -0.443 C  
BRANCH  27  28
HETATM   28  C   UNL     1     -10.897   5.875  71.574  1.00  0.00    -0.325 C  
HETATM   29  C   UNL     1     -10.013   4.926  70.780  1.00  0.00    -0.292 C  
ENDBRANCH  27  28
ENDBRANCH  26  27
ENDBRANCH  25  26
ENDBRANCH  24  25
ENDBRANCH  22  24
ENDBRANCH  21  22
ENDBRANCH   4  21
TORSDOF 7
ENDMDL
MODEL       14
REMARK 921   NORMALIZED FREE ENERGY PREDICTED BY IDOCK:   -5.33 KCAL/MOL
REMARK 922        TOTAL FREE ENERGY PREDICTED BY IDOCK:   -9.66 KCAL/MOL
REMARK 923 INTER-LIGAND FREE ENERGY PREDICTED BY IDOCK:   -7.93 KCAL/MOL
REMARK 924 INTRA-LIGAND FREE ENERGY PREDICTED BY IDOCK:   -1.73 KCAL/MOL
REMARK 927      BINDING AFFINITY PREDICTED BY RF-SCORE:    0.00 PKD
ROOT
HETATM    1  C   UNL     1      -8.916  14.360  68.572  1.00  0.00    -0.187 C  
HETATM    2  C   UNL     1      -8.431  15.290  67.608  1.00  0.00    -0.172 C  
HETATM    3  C   UNL     1      -9.796  14.852  67.182  1.00  0.00    -0.231 C  
HETATM    4  C   UNL     1     -10.747  13.667  68.549  1.00  0.00    -0.255 C  
HETATM    5  C   UNL     1      -8.514   9.391  63.688  1.00  0.00    -0.200 C  
HETATM    6  C   UNL     1     -10.672  15.040  68.589  1.00  0.00    -0.244 C  
HETATM    7  C   UNL     1     -11.898  14.628  67.178  1.00  0.00    -0.367 C  
HETATM    8  C   UNL     1      -7.615   9.804  64.779  1.00  0.00    -0.129 C  
HETATM    9  C   UNL     1     -11.016  16.082  69.605  1.00  0.00    -0.326 C  
HETATM   10  C   UNL     1      -9.477  10.439  63.240  1.00  0.00    -0.361 C  
HETATM   11  C   UNL     1     -11.432  13.049  66.416  1.00  0.00    -0.384 C  
HETATM   12  C   UNL     1      -8.108  10.592  65.753  1.00  0.00    -0.158 C  
HETATM   13  O   UNL     1      -8.402   8.293  63.158  1.00  0.00    -0.149 OA 
HETATM   14  C   UNL     1      -9.782  12.450  66.409  1.00  0.00    -0.246 C  
HETATM   15  C   UNL     1     -10.281   9.947  66.734  1.00  0.00    -0.301 C  
HETATM   16  C   UNL     1      -8.780  12.726  67.746  1.00  0.00    -0.184 C  
HETATM   17  C   UNL     1      -9.606  10.991  65.825  1.00  0.00    -0.260 C  
HETATM   18  C   UNL     1      -7.330  12.422  67.346  1.00  0.00    -0.149 C  
HETATM   19  C   UNL     1     -10.306  10.948  64.412  1.00  0.00    -0.430 C  
HETATM   20  C   UNL     1      -7.185  10.974  66.891  1.00  0.00    -0.133 C  
ENDROOT
BRANCH   4  21
HETATM   21  O   UNL     1     -12.095  13.687  69.233  1.00  0.00    -0.334 OA 
BRANCH  21  22
HETATM   22  C   UNL     1     -12.372  12.950  70.342  1.00  0.00    -0.258 C  
HETATM   23  O   UNL     1     -12.876  13.390  71.361  1.00  0.00    -0.347 OA 
BRANCH  22  24
HETATM   24  C   UNL     1     -11.891  11.516  70.123  1.00  0.00    -0.440 C  
BRANCH  24  25
HETATM   25  C   UNL     1     -12.334  10.500  71.178  1.00  0.00    -0.510 C  
BRANCH  25  26
HETATM   26  C   UNL     1     -11.699   9.108  71.073  1.00  0.00    -0.363 C  
BRANCH  26  27
HETATM   27  C   UNL     1     -10.226   9.059  71.482  1.00  0.00    -0.414 C  
BRANCH  27  28
HETATM   28  C   UNL     1      -9.327   8.782  70.273  1.00  0.00    -0.193 C  
HETATM   29  C   UNL     1      -8.097   9.677  70.272  1.00  0.00    -0.206 C  
ENDBRANCH  27  28
ENDBRANCH  26  27
ENDBRANCH  25  26
ENDBRANCH  24  25
ENDBRANCH  22  24
ENDBRANCH  21  22
ENDBRANCH   4  21
TORSDOF 7
ENDMDL
MODEL       15
REMARK 921   NORMALIZED FREE ENERGY PREDICTED BY IDOCK:   -5.32 KCAL/MOL
REMARK 922        TOTAL FREE ENERGY PREDICTED BY IDOCK:   -9.64 KCAL/MOL
REMARK 923 INTER-LIGAND FREE ENERGY PREDICTED BY IDOCK:   -7.95 KCAL/MOL
REMARK 924 INTRA-LIGAND FREE ENERGY PREDICTED BY IDOCK:   -1.69 KCAL/MOL
REMARK 927      BINDING AFFINITY PREDICTED BY RF-SCORE:    0.00 PKD
ROOT
HETATM    1  C   UNL     1      -8.911  12.718  67.203  1.00  0.00    -0.214 C  
HETATM    2  C   UNL     1      -8.507  12.699  68.570  1.00  0.00    -0.051 C  
HETATM    3  C   UNL     1      -9.930  13.157  68.514  1.00  0.00    -0.182 C  
HETATM    4  C   UNL     1     -10.758  13.055  66.648  1.00  0.00    -0.274 C  
HETATM    5  C   UNL     1      -9.292  19.674  67.617  1.00  0.00    -0.338 C  
HETATM    6  C   UNL     1     -10.624  12.005  67.527  1.00  0.00    -0.250 C  
HETATM    7  C   UNL     1     -12.025  13.100  68.236  1.00  0.00    -0.328 C  
HETATM    8  C   UNL     1      -8.254  18.751  67.129  1.00  0.00    -0.275 C  
HETATM    9  C   UNL     1     -10.803  10.524  67.430  1.00  0.00    -0.349 C  
HETATM   10  C   UNL     1     -10.260  19.073  68.582  1.00  0.00    -0.379 C  
HETATM   11  C   UNL     1     -11.716  14.833  67.796  1.00  0.00    -0.368 C  
HETATM   12  C   UNL     1      -8.596  17.471  66.886  1.00  0.00    -0.267 C  
HETATM   13  O   UNL     1      -9.288  20.856  67.299  1.00  0.00    -0.369 OA 
HETATM   14  C   UNL     1     -10.104  15.466  67.512  1.00  0.00    -0.233 C  
HETATM   15  C   UNL     1     -10.660  17.082  65.588  1.00  0.00    -0.206 C  
HETATM   16  C   UNL     1      -8.940  14.497  66.755  1.00  0.00    -0.270 C  
HETATM   17  C   UNL     1     -10.057  16.962  67.000  1.00  0.00    -0.289 C  
HETATM   18  C   UNL     1      -7.561  15.143  66.947  1.00  0.00     0.011 C  
HETATM   19  C   UNL     1     -10.921  17.838  67.987  1.00  0.00    -0.088 C  
HETATM   20  C   UNL     1      -7.529  16.544  66.343  1.00  0.00    -0.205 C  
ENDROOT
BRANCH   4  21
HETATM   21  O   UNL     1     -12.013  12.449  66.063  1.00  0.00    -0.537 OA 
BRANCH  21  22
HETATM   22  C   UNL     1     -12.272  12.430  64.727  1.00  0.00    -0.423 C  
HETATM   23  O   UNL     1     -13.387  12.391  64.235  1.00  0.00    -0.716 OA 
BRANCH  22  24
HETATM   24  C   UNL     1     -10.949  12.401  63.963  1.00  0.00    -0.442 C  
BRANCH  24  25
HETATM   25  C   UNL     1     -10.440  11.011  63.572  1.00  0.00    -0.365 C  
BRANCH  25  26
HETATM   26  C   UNL     1      -8.927  10.795  63.694  1.00  0.00    -0.179 C  
BRANCH  26  27
HETATM   27  C   UNL     1      -8.520   9.842  64.819  1.00  0.00    -0.172 C  
BRANCH  27  28
HETATM   28  C   UNL     1      -7.003   9.849  65.027  1.00  0.00    -0.130 C  
HETATM   29  C   UNL     1      -6.599   9.032  66.244  1.00  0.00    -0.066 C  
ENDBRANCH  27  28
ENDBRANCH  26  27
ENDBRANCH  25  26
ENDBRANCH  24  25
ENDBRANCH  22  24
ENDBRANCH  21  22
ENDBRANCH   4  21
TORSDOF 7
ENDMDL
MODEL       16
REMARK 921   NORMALIZED FREE ENERGY PREDICTED BY IDOCK:   -5.30 KCAL/MOL
REMARK 922        TOTAL FREE ENERGY PREDICTED BY IDOCK:   -9.62 KCAL/MOL
REMARK 923 INTER-LIGAND FREE ENERGY PREDICTED BY IDOCK:   -8.39 KCAL/MOL
REMARK 924 INTRA-LIGAND FREE ENERGY PREDICTED BY IDOCK:   -1.24 KCAL/MOL
REMARK 927      BINDING AFFINITY PREDICTED BY RF-SCORE:    0.00 PKD
ROOT
HETATM    1  C   UNL     1     -10.844   9.889  66.512  1.00  0.00     0.024 C  
HETATM    2  C   UNL     1      -9.658   9.725  65.739  1.00  0.00    -0.318 C  
HETATM    3  C   UNL     1      -9.293  10.441  67.001  1.00  0.00    -0.176 C  
HETATM    4  C   UNL     1     -10.831  10.591  68.339  1.00  0.00    -0.240 C  
HETATM    5  C   UNL     1     -10.375  16.763  65.409  1.00  0.00    -0.146 C  
HETATM    6  C   UNL     1     -10.025   9.491  68.160  1.00  0.00    -0.191 C  
HETATM    7  C   UNL     1      -8.940  10.788  69.056  1.00  0.00    -0.141 C  
HETATM    8  C   UNL     1     -11.142  15.690  64.755  1.00  0.00    -0.426 C  
HETATM    9  C   UNL     1     -10.056   8.075  68.641  1.00  0.00    -0.212 C  
HETATM   10  C   UNL     1      -9.164  16.304  66.150  1.00  0.00    -0.376 C  
HETATM   11  C   UNL     1      -9.461  12.454  68.560  1.00  0.00    -0.101 C  
HETATM   12  C   UNL     1     -11.266  14.511  65.392  1.00  0.00    -0.342 C  
HETATM   13  O   UNL     1     -10.687  17.939  65.270  1.00  0.00    -0.640 OA 
HETATM   14  C   UNL     1     -10.212  12.791  67.010  1.00  0.00    -0.245 C  
HETATM   15  C   UNL     1     -11.895  14.579  67.780  1.00  0.00    -0.390 C  
HETATM   16  C   UNL     1     -11.273  11.663  66.326  1.00  0.00    -0.332 C  
HETATM   17  C   UNL     1     -10.723  14.276  66.828  1.00  0.00    -0.287 C  
HETATM   18  C   UNL     1     -11.501  12.031  64.854  1.00  0.00    -0.352 C  
HETATM   19  C   UNL     1      -9.530  15.245  67.181  1.00  0.00    -0.223 C  
HETATM   20  C   UNL     1     -12.095  13.431  64.730  1.00  0.00    -0.448 C  
ENDROOT
BRANCH   4  21
HETATM   21  O   UNL     1     -11.016  10.259  69.803  1.00  0.00    -0.249 OA 
BRANCH  21  22
HETATM   22  C   UNL     1     -11.932  10.883  70.591  1.00  0.00    -0.368 C  
HETATM   23  O   UNL     1     -12.235  12.061  70.507  1.00  0.00    -0.364 OA 
BRANCH  22  24
HETATM   24  C   UNL     1     -12.460   9.889  71.625  1.00  0.00    -0.507 C  
BRANCH  24  25
HETATM   25  C   UNL     1     -11.946   8.454  71.488  1.00  0.00    -0.344 C  
BRANCH  25  26
HETATM   26  C   UNL     1     -10.909   8.015  72.529  1.00  0.00    -0.415 C  
BRANCH  26  27
HETATM   27  C   UNL     1      -9.547   8.696  72.381  1.00  0.00    -0.305 C  
BRANCH  27  28
HETATM   28  C   UNL     1      -8.463   7.685  71.994  1.00  0.00    -0.133 C  
HETATM   29  C   UNL     1      -9.016   6.270  71.920  1.00  0.00    -0.139 C  
ENDBRANCH  27  28
ENDBRANCH  26  27
ENDBRANCH  25  26
ENDBRANCH  24  25
ENDBRANCH  22  24
ENDBRANCH  21  22
ENDBRANCH   4  21
TORSDOF 7
ENDMDL
MODEL       17
REMARK 921   NORMALIZED FREE ENERGY PREDICTED BY IDOCK:   -5.26 KCAL/MOL
REMARK 922        TOTAL FREE ENERGY PREDICTED BY IDOCK:   -9.57 KCAL/MOL
REMARK 923 INTER-LIGAND FREE ENERGY PREDICTED BY IDOCK:   -7.64 KCAL/MOL
REMARK 924 INTRA-LIGAND FREE ENERGY PREDICTED BY IDOCK:   -1.93 KCAL/MOL
REMARK 927      BINDING AFFINITY PREDICTED BY RF-SCORE:    0.00 PKD
ROOT
HETATM    1  C   UNL     1      -9.542  18.668  66.088  1.00  0.00    -0.214 C  
HETATM    2  C   UNL     1     -10.905  19.036  65.891  1.00  0.00    -0.272 C  
HETATM    3  C   UNL     1     -10.658  18.943  67.364  1.00  0.00    -0.534 C  
HETATM    4  C   UNL     1      -8.699  18.624  67.854  1.00  0.00    -0.288 C  
HETATM    5  C   UNL     1     -11.761  12.542  68.587  1.00  0.00    -0.325 C  
HETATM    6  C   UNL     1      -9.261  19.838  67.536  1.00  0.00    -0.428 C  
HETATM    7  C   UNL     1      -9.909  19.408  69.285  1.00  0.00    -0.330 C  
HETATM    8  C   UNL     1     -11.285  12.975  67.263  1.00  0.00    -0.325 C  
HETATM    9  C   UNL     1      -8.722  21.203  67.248  1.00  0.00     0.146 C  
HETATM   10  C   UNL     1     -12.279  13.640  69.455  1.00  0.00    -0.316 C  
HETATM   11  C   UNL     1     -10.046  17.607  69.451  1.00  0.00    -0.033 C  
HETATM   12  C   UNL     1     -10.628  14.146  67.168  1.00  0.00    -0.278 C  
HETATM   13  O   UNL     1     -11.791  11.357  68.892  1.00  0.00    -0.316 OA 
HETATM   14  C   UNL     1     -10.319  16.546  68.079  1.00  0.00    -0.294 C  
HETATM   15  C   UNL     1      -8.841  14.574  68.819  1.00  0.00    -0.153 C  
HETATM   16  C   UNL     1      -9.608  16.903  66.584  1.00  0.00    -0.282 C  
HETATM   17  C   UNL     1     -10.264  15.002  68.411  1.00  0.00    -0.228 C  
HETATM   18  C   UNL     1     -10.276  16.043  65.503  1.00  0.00    -0.389 C  
HETATM   19  C   UNL     1     -11.232  14.733  69.627  1.00  0.00    -0.305 C  
HETATM   20  C   UNL     1     -10.106  14.559  65.808  1.00  0.00    -0.365 C  
ENDROOT
BRANCH   4  21
HETATM   21  O   UNL     1      -7.702  19.288  68.776  1.00  0.00    -0.344 OA 
BRANCH  21  22
HETATM   22  C   UNL     1      -6.479  18.757  69.047  1.00  0.00    -0.272 C  
HETATM   23  O   UNL     1      -5.594  19.329  69.661  1.00  0.00    -0.203 OA 
BRANCH  22  24
HETATM   24  C   UNL     1      -6.381  17.374  68.405  1.00  0.00    -0.175 C  
BRANCH  24  25
HETATM   25  C   UNL     1      -5.310  17.220  67.322  1.00  0.00    -0.158 C  
BRANCH  25  26
HETATM   26  C   UNL     1      -5.666  17.792  65.944  1.00  0.00    -0.217 C  
BRANCH  26  27
HETATM   27  C   UNL     1      -5.584  19.317  65.859  1.00  0.00    -0.178 C  
BRANCH  27  28
HETATM   28  C   UNL     1      -6.265  19.836  64.589  1.00  0.00    -0.308 C  
HETATM   29  C   UNL     1      -5.614  21.114  64.085  1.00  0.00    -0.257 C  
ENDBRANCH  27  28
ENDBRANCH  26  27
ENDBRANCH  25  26
ENDBRANCH  24  25
ENDBRANCH  22  24
ENDBRANCH  21  22
ENDBRANCH   4  21
TORSDOF 7
ENDMDL
MODEL       18
REMARK 921   NORMALIZED FREE ENERGY PREDICTED BY IDOCK:   -5.18 KCAL/MOL
REMARK 922        TOTAL FREE ENERGY PREDICTED BY IDOCK:   -9.45 KCAL/MOL
REMARK 923 INTER-LIGAND FREE ENERGY PREDICTED BY IDOCK:   -7.51 KCAL/MOL
REMARK 924 INTRA-LIGAND FREE ENERGY PREDICTED BY IDOCK:   -1.94 KCAL/MOL
REMARK 927      BINDING AFFINITY PREDICTED BY RF-SCORE:    0.00 PKD
ROOT
HETATM    1  C   UNL     1      -9.527   9.918  63.315  1.00  0.00    -0.118 C  
HETATM    2  C   UNL     1      -8.691  10.856  62.642  1.00  0.00    -0.308 C  
HETATM    3  C   UNL     1      -8.119  10.619  64.004  1.00  0.00     0.066 C  
HETATM    4  C   UNL     1      -9.068   9.144  65.052  1.00  0.00    -0.156 C  
HETATM    5  C   UNL     1     -11.383  15.019  67.701  1.00  0.00    -0.334 C  
HETATM    6  C   UNL     1      -8.107   8.953  64.087  1.00  0.00    -0.160 C  
HETATM    7  C   UNL     1      -7.178   9.631  65.618  1.00  0.00    -0.097 C  
HETATM    8  C   UNL     1     -12.004  14.459  66.489  1.00  0.00    -0.406 C  
HETATM    9  C   UNL     1      -7.577   7.765  63.351  1.00  0.00    -0.123 C  
HETATM   10  C   UNL     1      -9.913  14.790  67.813  1.00  0.00    -0.223 C  
HETATM   11  C   UNL     1      -8.275  10.735  66.549  1.00  0.00    -0.148 C  
HETATM   12  C   UNL     1     -11.568  13.269  66.036  1.00  0.00    -0.384 C  
HETATM   13  O   UNL     1     -12.034  15.685  68.496  1.00  0.00    -0.313 OA 
HETATM   14  C   UNL     1      -9.585  11.628  65.793  1.00  0.00    -0.255 C  
HETATM   15  C   UNL     1     -11.312  11.455  67.693  1.00  0.00    -0.359 C  
HETATM   16  C   UNL     1     -10.465  10.925  64.530  1.00  0.00    -0.393 C  
HETATM   17  C   UNL     1     -10.514  12.421  66.797  1.00  0.00    -0.242 C  
HETATM   18  C   UNL     1     -11.286  12.019  63.833  1.00  0.00    -0.490 C  
HETATM   19  C   UNL     1      -9.589  13.305  67.719  1.00  0.00    -0.214 C  
HETATM   20  C   UNL     1     -12.246  12.684  64.815  1.00  0.00    -0.528 C  
ENDROOT
BRANCH   4  21
HETATM   21  O   UNL     1      -8.629   7.895  65.783  1.00  0.00    -0.141 OA 
BRANCH  21  22
HETATM   22  C   UNL     1      -9.507   7.024  66.350  1.00  0.00    -0.124 C  
HETATM   23  O   UNL     1      -9.481   5.814  66.199  1.00  0.00    -0.159 OA 
BRANCH  22  24
HETATM   24  C   UNL     1     -10.552   7.810  67.140  1.00  0.00    -0.401 C  
BRANCH  24  25
HETATM   25  C   UNL     1     -10.468   7.679  68.663  1.00  0.00    -0.203 C  
BRANCH  25  26
HETATM   26  C   UNL     1      -9.512   8.652  69.365  1.00  0.00    -0.161 C  
BRANCH  26  27
HETATM   27  C   UNL     1     -10.168   9.489  70.464  1.00  0.00    -0.349 C  
BRANCH  27  28
HETATM   28  C   UNL     1     -11.593   9.006  70.750  1.00  0.00    -0.313 C  
HETATM   29  C   UNL     1     -12.549  10.170  70.959  1.00  0.00    -0.478 C  
ENDBRANCH  27  28
ENDBRANCH  26  27
ENDBRANCH  25  26
ENDBRANCH  24  25
ENDBRANCH  22  24
ENDBRANCH  21  22
ENDBRANCH   4  21
TORSDOF 7
ENDMDL
MODEL       19
REMARK 921   NORMALIZED FREE ENERGY PREDICTED BY IDOCK:   -5.11 KCAL/MOL
REMARK 922        TOTAL FREE ENERGY PREDICTED BY IDOCK:   -9.35 KCAL/MOL
REMARK 923 INTER-LIGAND FREE ENERGY PREDICTED BY IDOCK:   -8.44 KCAL/MOL
REMARK 924 INTRA-LIGAND FREE ENERGY PREDICTED BY IDOCK:   -0.91 KCAL/MOL
REMARK 927      BINDING AFFINITY PREDICTED BY RF-SCORE:    0.00 PKD
ROOT
HETATM    1  C   UNL     1     -10.353  10.380  65.329  1.00  0.00    -0.267 C  
HETATM    2  C   UNL     1      -9.204  10.451  64.489  1.00  0.00    -0.287 C  
HETATM    3  C   UNL     1      -8.812  10.930  65.851  1.00  0.00    -0.197 C  
HETATM    4  C   UNL     1     -10.279  10.712  67.256  1.00  0.00    -0.208 C  
HETATM    5  C   UNL     1     -10.343  17.354  65.591  1.00  0.00    -0.149 C  
HETATM    6  C   UNL     1      -9.422   9.725  66.829  1.00  0.00    -0.209 C  
HETATM    7  C   UNL     1      -8.366  10.893  67.916  1.00  0.00    -0.119 C  
HETATM    8  C   UNL     1     -11.083  16.380  64.772  1.00  0.00    -0.246 C  
HETATM    9  C   UNL     1      -9.345   8.244  67.020  1.00  0.00    -0.203 C  
HETATM   10  C   UNL     1      -9.068  16.842  66.174  1.00  0.00    -0.288 C  
HETATM   11  C   UNL     1      -9.008  12.584  67.784  1.00  0.00    -0.184 C  
HETATM   12  C   UNL     1     -11.103  15.093  65.167  1.00  0.00    -0.410 C  
HETATM   13  O   UNL     1     -10.730  18.511  65.701  1.00  0.00    -0.549 OA 
HETATM   14  C   UNL     1      -9.863  13.166  66.365  1.00  0.00    -0.279 C  
HETATM   15  C   UNL     1     -11.601  14.651  67.546  1.00  0.00    -0.396 C  
HETATM   16  C   UNL     1     -10.894  12.124  65.517  1.00  0.00    -0.324 C  
HETATM   17  C   UNL     1     -10.468  14.620  66.502  1.00  0.00    -0.290 C  
HETATM   18  C   UNL     1     -11.223  12.756  64.158  1.00  0.00    -0.435 C  
HETATM   19  C   UNL     1      -9.316  15.580  66.990  1.00  0.00    -0.239 C  
HETATM   20  C   UNL     1     -11.903  14.109  64.340  1.00  0.00    -0.447 C  
ENDROOT
BRANCH   4  21
HETATM   21  O   UNL     1     -10.363  10.089  68.632  1.00  0.00    -0.174 OA 
BRANCH  21  22
HETATM   22  C   UNL     1     -11.396  10.322  69.486  1.00  0.00    -0.241 C  
HETATM   23  O   UNL     1     -12.274  11.148  69.306  1.00  0.00    -0.345 OA 
BRANCH  22  24
HETATM   24  C   UNL     1     -11.234   9.435  70.720  1.00  0.00    -0.367 C  
BRANCH  24  25
HETATM   25  C   UNL     1     -10.672   8.035  70.460  1.00  0.00    -0.231 C  
BRANCH  25  26
HETATM   26  C   UNL     1     -11.553   6.867  70.918  1.00  0.00    -0.384 C  
BRANCH  26  27
HETATM   27  C   UNL     1     -10.788   5.743  71.620  1.00  0.00    -0.316 C  
BRANCH  27  28
HETATM   28  C   UNL     1     -11.244   5.589  73.073  1.00  0.00    -0.346 C  
HETATM   29  C   UNL     1     -10.226   6.163  74.046  1.00  0.00    -0.309 C  
ENDBRANCH  27  28
ENDBRANCH  26  27
ENDBRANCH  25  26
ENDBRANCH  24  25
ENDBRANCH  22  24
ENDBRANCH  21  22
ENDBRANCH   4  21
TORSDOF 7
ENDMDL
MODEL       20
REMARK 921   NORMALIZED FREE ENERGY PREDICTED BY IDOCK:   -5.10 KCAL/MOL
REMARK 922        TOTAL FREE ENERGY PREDICTED BY IDOCK:   -9.34 KCAL/MOL
REMARK 923 INTER-LIGAND FREE ENERGY PREDICTED BY IDOCK:   -7.21 KCAL/MOL
REMARK 924 INTRA-LIGAND FREE ENERGY PREDICTED BY IDOCK:   -2.13 KCAL/MOL
REMARK 927      BINDING AFFINITY PREDICTED BY RF-SCORE:    0.00 PKD
ROOT
HETATM    1  C   UNL     1     -11.438  11.146  70.794  1.00  0.00     0.119 C  
HETATM    2  C   UNL     1     -12.784  10.680  70.767  1.00  0.00    -0.468 C  
HETATM    3  C   UNL     1     -12.011   9.920  69.736  1.00  0.00     0.059 C  
HETATM    4  C   UNL     1     -10.004  10.304  69.762  1.00  0.00    -0.181 C  
HETATM    5  C   UNL     1     -12.459  13.848  64.441  1.00  0.00    -0.279 C  
HETATM    6  C   UNL     1     -10.667   9.439  70.600  1.00  0.00    -0.353 C  
HETATM    7  C   UNL     1     -10.618   8.572  68.894  1.00  0.00    -0.166 C  
HETATM    8  C   UNL     1     -12.513  14.419  65.797  1.00  0.00    -0.334 C  
HETATM    9  C   UNL     1     -10.299   8.685  71.838  1.00  0.00    -0.405 C  
HETATM   10  C   UNL     1     -12.643  12.369  64.377  1.00  0.00    -0.489 C  
HETATM   11  C   UNL     1     -10.648   9.824  67.581  1.00  0.00    -0.333 C  
HETATM   12  C   UNL     1     -11.960  13.724  66.808  1.00  0.00    -0.465 C  
HETATM   13  O   UNL     1     -12.350  14.567  63.455  1.00  0.00    -0.648 OA 
HETATM   14  C   UNL     1     -11.385  11.403  67.793  1.00  0.00    -0.354 C  
HETATM   15  C   UNL     1      -9.700  12.798  66.439  1.00  0.00    -0.261 C  
HETATM   16  C   UNL     1     -11.281  12.187  69.290  1.00  0.00    -0.288 C  
HETATM   17  C   UNL     1     -11.181  12.400  66.583  1.00  0.00    -0.366 C  
HETATM   18  C   UNL     1     -12.284  13.349  69.308  1.00  0.00    -0.222 C  
HETATM   19  C   UNL     1     -11.628  11.660  65.265  1.00  0.00    -0.105 C  
HETATM   20  C   UNL     1     -11.983  14.342  68.190  1.00  0.00    -0.320 C  
ENDROOT
BRANCH   4  21
HETATM   21  O   UNL     1      -8.750   9.461  69.828  1.00  0.00    -0.149 OA 
BRANCH  21  22
HETATM   22  C   UNL     1      -7.501   9.997  69.881  1.00  0.00    -0.167 C  
HETATM   23  O   UNL     1      -6.612   9.615  70.623  1.00  0.00    -0.092 OA 
BRANCH  22  24
HETATM   24  C   UNL     1      -7.424  11.181  68.918  1.00  0.00    -0.125 C  
BRANCH  24  25
HETATM   25  C   UNL     1      -6.756  10.897  67.571  1.00  0.00    -0.074 C  
BRANCH  25  26
HETATM   26  C   UNL     1      -7.382   9.771  66.739  1.00  0.00    -0.091 C  
BRANCH  26  27
HETATM   27  C   UNL     1      -7.449  10.064  65.240  1.00  0.00    -0.137 C  
BRANCH  27  28
HETATM   28  C   UNL     1      -8.720   9.475  64.619  1.00  0.00    -0.233 C  
HETATM   29  C   UNL     1      -9.149  10.246  63.381  1.00  0.00    -0.284 C  
ENDBRANCH  27  28
ENDBRANCH  26  27
ENDBRANCH  25  26
ENDBRANCH  24  25
ENDBRANCH  22  24
ENDBRANCH  21  22
ENDBRANCH   4  21
TORSDOF 7
ENDMDL
MODEL       21
REMARK 921   NORMALIZED FREE ENERGY PREDICTED BY IDOCK:   -5.07 KCAL/MOL
REMARK 922        TOTAL FREE ENERGY PREDICTED BY IDOCK:   -9.30 KCAL/MOL
REMARK 923 INTER-LIGAND FREE ENERGY PREDICTED BY IDOCK:   -7.83 KCAL/MOL
REMARK 924 INTRA-LIGAND FREE ENERGY PREDICTED BY IDOCK:   -1.47 KCAL/MOL
REMARK 927      BINDING AFFINITY PREDICTED BY RF-SCORE:    0.00 PKD
ROOT
HETATM    1  C   UNL     1     -11.510  10.758  68.597  1.00  0.00    -0.365 C  
HETATM    2  C   UNL     1     -10.667  10.626  69.738  1.00  0.00    -0.283 C  
HETATM    3  C   UNL     1     -10.022  11.593  68.796  1.00  0.00    -0.147 C  
HETATM    4  C   UNL     1     -11.183  12.071  67.183  1.00  0.00    -0.316 C  
HETATM    5  C   UNL     1      -6.554   7.609  64.824  1.00  0.00    -0.044 C  
HETATM    6  C   UNL     1     -11.287  12.621  68.439  1.00  0.00    -0.329 C  
HETATM    7  C   UNL     1      -9.692  13.358  67.681  1.00  0.00    -0.222 C  
HETATM    8  C   UNL     1      -7.783   7.125  65.474  1.00  0.00    -0.108 C  
HETATM    9  C   UNL     1     -12.278  13.511  69.119  1.00  0.00    -0.236 C  
HETATM   10  C   UNL     1      -6.006   8.878  65.388  1.00  0.00    -0.052 C  
HETATM   11  C   UNL     1      -8.949  12.151  66.549  1.00  0.00    -0.179 C  
HETATM   12  C   UNL     1      -8.701   8.028  65.865  1.00  0.00    -0.184 C  
HETATM   13  O   UNL     1      -6.005   6.958  63.945  1.00  0.00    -0.034 OA 
HETATM   14  C   UNL     1      -9.169  10.419  66.732  1.00  0.00    -0.176 C  
HETATM   15  C   UNL     1      -9.316   9.786  64.242  1.00  0.00    -0.253 C  
HETATM   16  C   UNL     1     -10.651   9.812  67.279  1.00  0.00    -0.320 C  
HETATM   17  C   UNL     1      -8.562   9.545  65.563  1.00  0.00    -0.163 C  
HETATM   18  C   UNL     1     -10.464   8.342  67.679  1.00  0.00    -0.303 C  
HETATM   19  C   UNL     1      -7.059   9.979  65.364  1.00  0.00    -0.138 C  
HETATM   20  C   UNL     1      -9.980   7.514  66.492  1.00  0.00    -0.209 C  
ENDROOT
BRANCH   4  21
HETATM   21  O   UNL     1     -11.655  13.358  66.544  1.00  0.00    -0.327 OA 
BRANCH  21  22
HETATM   22  C   UNL     1     -12.333  13.392  65.365  1.00  0.00    -0.477 C  
HETATM   23  O   UNL     1     -13.041  12.493  64.944  1.00  0.00    -0.833 OA 
BRANCH  22  24
HETATM   24  C   UNL     1     -12.009  14.698  64.640  1.00  0.00    -0.472 C  
BRANCH  24  25
HETATM   25  C   UNL     1     -10.593  15.240  64.851  1.00  0.00    -0.379 C  
BRANCH  25  26
HETATM   26  C   UNL     1     -10.490  16.545  65.650  1.00  0.00    -0.341 C  
BRANCH  26  27
HETATM   27  C   UNL     1      -9.130  16.765  66.314  1.00  0.00    -0.320 C  
BRANCH  27  28
HETATM   28  C   UNL     1      -9.292  17.174  67.781  1.00  0.00    -0.245 C  
HETATM   29  C   UNL     1     -10.726  17.000  68.257  1.00  0.00    -0.372 C  
ENDBRANCH  27  28
ENDBRANCH  26  27
ENDBRANCH  25  26
ENDBRANCH  24  25
ENDBRANCH  22  24
ENDBRANCH  21  22
ENDBRANCH   4  21
TORSDOF 7
ENDMDL
MODEL       22
REMARK 921   NORMALIZED FREE ENERGY PREDICTED BY IDOCK:   -5.07 KCAL/MOL
REMARK 922        TOTAL FREE ENERGY PREDICTED BY IDOCK:   -9.29 KCAL/MOL
REMARK 923 INTER-LIGAND FREE ENERGY PREDICTED BY IDOCK:   -8.02 KCAL/MOL
REMARK 924 INTRA-LIGAND FREE ENERGY PREDICTED BY IDOCK:   -1.27 KCAL/MOL
REMARK 927      BINDING AFFINITY PREDICTED BY RF-SCORE:    0.00 PKD
ROOT
HETATM    1  C   UNL     1      -8.257  16.154  68.615  1.00  0.00    -0.202 C  
HETATM    2  C   UNL     1      -7.718  16.539  67.353  1.00  0.00    -0.174 C  
HETATM    3  C   UNL     1      -9.182  16.286  67.174  1.00  0.00    -0.226 C  
HETATM    4  C   UNL     1     -10.176  15.918  68.922  1.00  0.00    -0.226 C  
HETATM    5  C   UNL     1      -9.366   9.789  65.978  1.00  0.00    -0.196 C  
HETATM    6  C   UNL     1      -9.839  17.159  68.434  1.00  0.00    -0.296 C  
HETATM    7  C   UNL     1     -11.275  16.541  67.330  1.00  0.00     0.080 C  
HETATM    8  C   UNL     1      -8.286  10.364  66.796  1.00  0.00    -0.126 C  
HETATM    9  C   UNL     1      -9.860  18.548  68.989  1.00  0.00    -0.313 C  
HETATM   10  C   UNL     1     -10.159  10.785  65.199  1.00  0.00    -0.363 C  
HETATM   11  C   UNL     1     -11.206  14.732  67.211  1.00  0.00    -0.351 C  
HETATM   12  C   UNL     1      -8.505  11.539  67.414  1.00  0.00    -0.147 C  
HETATM   13  O   UNL     1      -9.525   8.577  65.901  1.00  0.00    -0.208 OA 
HETATM   14  C   UNL     1      -9.711  13.827  67.374  1.00  0.00    -0.235 C  
HETATM   15  C   UNL     1     -10.633  11.787  68.643  1.00  0.00    -0.250 C  
HETATM   16  C   UNL     1      -8.528  14.345  68.468  1.00  0.00    -0.170 C  
HETATM   17  C   UNL     1      -9.883  12.255  67.382  1.00  0.00    -0.199 C  
HETATM   18  C   UNL     1      -7.217  13.607  68.163  1.00  0.00    -0.117 C  
HETATM   19  C   UNL     1     -10.736  11.854  66.118  1.00  0.00    -0.318 C  
HETATM   20  C   UNL     1      -7.402  12.098  68.288  1.00  0.00    -0.100 C  
ENDROOT
BRANCH   4  21
HETATM   21  O   UNL     1     -11.408  16.480  69.595  1.00  0.00    -0.246 OA 
BRANCH  21  22
HETATM   22  C   UNL     1     -11.846  16.053  70.810  1.00  0.00    -0.340 C  
HETATM   23  O   UNL     1     -11.426  16.455  71.881  1.00  0.00    -0.363 OA 
BRANCH  22  24
HETATM   24  C   UNL     1     -12.889  14.954  70.607  1.00  0.00    -0.406 C  
BRANCH  24  25
HETATM   25  C   UNL     1     -13.767  14.643  71.822  1.00  0.00    -0.502 C  
BRANCH  25  26
HETATM   26  C   UNL     1     -13.580  13.254  72.443  1.00  0.00    -0.694 C  
BRANCH  26  27
HETATM   27  C   UNL     1     -12.795  12.277  71.565  1.00  0.00    -0.384 C  
BRANCH  27  28
HETATM   28  C   UNL     1     -13.205  10.829  71.849  1.00  0.00    -0.524 C  
HETATM   29  C   UNL     1     -12.034   9.872  71.686  1.00  0.00    -0.427 C  
ENDBRANCH  27  28
ENDBRANCH  26  27
ENDBRANCH  25  26
ENDBRANCH  24  25
ENDBRANCH  22  24
ENDBRANCH  21  22
ENDBRANCH   4  21
TORSDOF 7
ENDMDL
MODEL       23
REMARK 921   NORMALIZED FREE ENERGY PREDICTED BY IDOCK:   -5.04 KCAL/MOL
REMARK 922        TOTAL FREE ENERGY PREDICTED BY IDOCK:   -9.25 KCAL/MOL
REMARK 923 INTER-LIGAND FREE ENERGY PREDICTED BY IDOCK:   -7.84 KCAL/MOL
REMARK 924 INTRA-LIGAND FREE ENERGY PREDICTED BY IDOCK:   -1.41 KCAL/MOL
REMARK 927      BINDING AFFINITY PREDICTED BY RF-SCORE:    0.00 PKD
ROOT
HETATM    1  C   UNL     1     -11.110  12.700  63.927  1.00  0.00    -0.476 C  
HETATM    2  C   UNL     1     -12.321  11.994  63.669  1.00  0.00    -0.648 C  
HETATM    3  C   UNL     1     -12.374  12.506  65.074  1.00  0.00    -0.522 C  
HETATM    4  C   UNL     1     -10.809  13.725  65.567  1.00  0.00    -0.299 C  
HETATM    5  C   UNL     1      -9.382   7.684  68.461  1.00  0.00    -0.147 C  
HETATM    6  C   UNL     1     -11.935  14.103  64.874  1.00  0.00    -0.424 C  
HETATM    7  C   UNL     1     -12.499  13.865  66.688  1.00  0.00    -0.313 C  
HETATM    8  C   UNL     1      -9.035   7.929  67.051  1.00  0.00    -0.145 C  
HETATM    9  C   UNL     1     -12.341  15.326  64.114  1.00  0.00    -0.065 C  
HETATM   10  C   UNL     1     -10.641   8.344  68.918  1.00  0.00    -0.162 C  
HETATM   11  C   UNL     1     -11.491  12.574  67.467  1.00  0.00    -0.397 C  
HETATM   12  C   UNL     1      -9.269   9.150  66.535  1.00  0.00    -0.221 C  
HETATM   13  O   UNL     1      -8.714   6.929  69.156  1.00  0.00    -0.134 OA 
HETATM   14  C   UNL     1     -10.745  11.273  66.554  1.00  0.00    -0.323 C  
HETATM   15  C   UNL     1      -8.540  11.097  67.869  1.00  0.00    -0.135 C  
HETATM   16  C   UNL     1     -10.139  11.573  65.002  1.00  0.00    -0.315 C  
HETATM   17  C   UNL     1      -9.790  10.333  67.394  1.00  0.00    -0.214 C  
HETATM   18  C   UNL     1      -9.874  10.230  64.308  1.00  0.00    -0.357 C  
HETATM   19  C   UNL     1     -10.588   9.844  68.664  1.00  0.00    -0.244 C  
HETATM   20  C   UNL     1      -8.866   9.402  65.097  1.00  0.00    -0.233 C  
ENDROOT
BRANCH   4  21
HETATM   21  O   UNL     1     -10.673  15.107  66.166  1.00  0.00    -0.310 OA 
BRANCH  21  22
HETATM   22  C   UNL     1      -9.492  15.781  66.206  1.00  0.00    -0.317 C  
HETATM   23  O   UNL     1      -9.303  16.882  65.716  1.00  0.00    -0.521 OA 
BRANCH  22  24
HETATM   24  C   UNL     1      -8.443  14.912  66.899  1.00  0.00    -0.255 C  
BRANCH  24  25
HETATM   25  C   UNL     1      -8.156  15.260  68.362  1.00  0.00    -0.137 C  
BRANCH  25  26
HETATM   26  C   UNL     1      -7.519  14.145  69.201  1.00  0.00    -0.037 C  
BRANCH  26  27
HETATM   27  C   UNL     1      -6.169  14.519  69.814  1.00  0.00    -0.140 C  
BRANCH  27  28
HETATM   28  C   UNL     1      -5.708  13.459  70.820  1.00  0.00    -0.184 C  
HETATM   29  C   UNL     1      -5.871  12.052  70.268  1.00  0.00    -0.164 C  
ENDBRANCH  27  28
ENDBRANCH  26  27
ENDBRANCH  25  26
ENDBRANCH  24  25
ENDBRANCH  22  24
ENDBRANCH  21  22
ENDBRANCH   4  21
TORSDOF 7
ENDMDL
MODEL       24
REMARK 921   NORMALIZED FREE ENERGY PREDICTED BY IDOCK:   -5.02 KCAL/MOL
REMARK 922        TOTAL FREE ENERGY PREDICTED BY IDOCK:   -9.23 KCAL/MOL
REMARK 923 INTER-LIGAND FREE ENERGY PREDICTED BY IDOCK:   -7.71 KCAL/MOL
REMARK 924 INTRA-LIGAND FREE ENERGY PREDICTED BY IDOCK:   -1.53 KCAL/MOL
REMARK 927      BINDING AFFINITY PREDICTED BY RF-SCORE:    0.00 PKD
ROOT
HETATM    1  C   UNL     1      -8.712   9.402  66.543  1.00  0.00    -0.148 C  
HETATM    2  C   UNL     1      -7.541   9.783  65.825  1.00  0.00    -0.108 C  
HETATM    3  C   UNL     1      -7.722  10.744  66.958  1.00  0.00    -0.121 C  
HETATM    4  C   UNL     1      -9.240  10.241  68.231  1.00  0.00    -0.139 C  
HETATM    5  C   UNL     1     -11.740  15.290  64.337  1.00  0.00    -0.285 C  
HETATM    6  C   UNL     1      -7.970   9.714  68.246  1.00  0.00    -0.096 C  
HETATM    7  C   UNL     1      -7.801  11.492  68.933  1.00  0.00    -0.071 C  
HETATM    8  C   UNL     1     -11.778  13.899  63.857  1.00  0.00    -0.241 C  
HETATM    9  C   UNL     1      -7.316   8.569  68.951  1.00  0.00    -0.086 C  
HETATM   10  C   UNL     1     -10.544  15.635  65.161  1.00  0.00    -0.449 C  
HETATM   11  C   UNL     1      -9.053  12.556  68.164  1.00  0.00    -0.204 C  
HETATM   12  C   UNL     1     -11.339  12.925  64.676  1.00  0.00    -0.361 C  
HETATM   13  O   UNL     1     -12.597  16.099  64.003  1.00  0.00    -0.586 OA 
HETATM   14  C   UNL     1      -9.715  12.242  66.569  1.00  0.00    -0.242 C  
HETATM   15  C   UNL     1     -12.144  12.969  67.012  1.00  0.00    -0.330 C  
HETATM   16  C   UNL     1      -9.972  10.647  66.063  1.00  0.00    -0.295 C  
HETATM   17  C   UNL     1     -10.896  13.201  66.138  1.00  0.00    -0.293 C  
HETATM   18  C   UNL     1     -10.212  10.644  64.547  1.00  0.00    -0.399 C  
HETATM   19  C   UNL     1     -10.413  14.688  66.346  1.00  0.00    -0.296 C  
HETATM   20  C   UNL     1     -11.425  11.494  64.188  1.00  0.00    -0.299 C  
ENDROOT
BRANCH   4  21
HETATM   21  O   UNL     1      -9.371  10.059  69.726  1.00  0.00    -0.220 OA 
BRANCH  21  22
HETATM   22  C   UNL     1     -10.572   9.990  70.360  1.00  0.00    -0.280 C  
HETATM   23  O   UNL     1     -11.566  10.618  70.035  1.00  0.00    -0.271 OA 
BRANCH  22  24
HETATM   24  C   UNL     1     -10.449   9.061  71.566  1.00  0.00    -0.410 C  
BRANCH  24  25
HETATM   25  C   UNL     1     -11.001   7.646  71.372  1.00  0.00    -0.257 C  
BRANCH  25  26
HETATM   26  C   UNL     1     -10.291   6.791  70.316  1.00  0.00    -0.224 C  
BRANCH  26  27
HETATM   27  C   UNL     1     -11.215   6.253  69.222  1.00  0.00    -0.458 C  
BRANCH  27  28
HETATM   28  C   UNL     1     -10.922   6.922  67.875  1.00  0.00    -0.260 C  
HETATM   29  C   UNL     1     -10.917   5.913  66.737  1.00  0.00    -0.280 C  
ENDBRANCH  27  28
ENDBRANCH  26  27
ENDBRANCH  25  26
ENDBRANCH  24  25
ENDBRANCH  22  24
ENDBRANCH  21  22
ENDBRANCH   4  21
TORSDOF 7
ENDMDL
MODEL       25
REMARK 921   NORMALIZED FREE ENERGY PREDICTED BY IDOCK:   -4.97 KCAL/MOL
REMARK 922        TOTAL FREE ENERGY PREDICTED BY IDOCK:   -9.15 KCAL/MOL
REMARK 923 INTER-LIGAND FREE ENERGY PREDICTED BY IDOCK:   -7.07 KCAL/MOL
REMARK 924 INTRA-LIGAND FREE ENERGY PREDICTED BY IDOCK:   -2.08 KCAL/MOL
REMARK 927      BINDING AFFINITY PREDICTED BY RF-SCORE:    0.00 PKD
ROOT
HETATM    1  C   UNL     1     -12.010   9.900  71.749  1.00  0.00    -0.329 C  
HETATM    2  C   UNL     1     -13.329   9.509  71.376  1.00  0.00    -0.435 C  
HETATM    3  C   UNL     1     -12.374   8.921  70.386  1.00  0.00     0.360 C  
HETATM    4  C   UNL     1     -10.408   9.201  70.868  1.00  0.00    -0.280 C  
HETATM    5  C   UNL     1     -11.741  13.786  65.958  1.00  0.00    -0.363 C  
HETATM    6  C   UNL     1     -11.230   8.226  71.381  1.00  0.00    -0.304 C  
HETATM    7  C   UNL     1     -10.854   7.692  69.582  1.00  0.00    -0.195 C  
HETATM    8  C   UNL     1     -12.055  14.095  67.363  1.00  0.00    -0.379 C  
HETATM    9  C   UNL     1     -11.119   7.238  72.499  1.00  0.00    -0.334 C  
HETATM   10  C   UNL     1     -11.920  12.354  65.578  1.00  0.00    -0.453 C  
HETATM   11  C   UNL     1     -10.615   9.167  68.554  1.00  0.00    -0.209 C  
HETATM   12  C   UNL     1     -11.718  13.198  68.309  1.00  0.00    -0.384 C  
HETATM   13  O   UNL     1     -11.435  14.671  65.169  1.00  0.00    -0.349 OA 
HETATM   14  C   UNL     1     -11.367  10.711  68.920  1.00  0.00    -0.337 C  
HETATM   15  C   UNL     1      -9.437  12.256  68.207  1.00  0.00    -0.209 C  
HETATM   16  C   UNL     1     -11.553  11.195  70.532  1.00  0.00    -0.287 C  
HETATM   17  C   UNL     1     -10.920  11.906  67.987  1.00  0.00    -0.271 C  
HETATM   18  C   UNL     1     -12.529  12.378  70.581  1.00  0.00    -0.320 C  
HETATM   19  C   UNL     1     -11.106  11.446  66.489  1.00  0.00    -0.312 C  
HETATM   20  C   UNL     1     -12.007  13.548  69.753  1.00  0.00    -0.405 C  
ENDROOT
BRANCH   4  21
HETATM   21  O   UNL     1      -9.199   8.304  71.009  1.00  0.00    -0.145 OA 
BRANCH  21  22
HETATM   22  C   UNL     1      -7.969   8.771  71.355  1.00  0.00    -0.133 C  
HETATM   23  O   UNL     1      -7.469   8.660  72.462  1.00  0.00    -0.300 OA 
BRANCH  22  24
HETATM   24  C   UNL     1      -7.359   9.505  70.161  1.00  0.00    -0.124 C  
BRANCH  24  25
HETATM   25  C   UNL     1      -6.664   8.619  69.124  1.00  0.00    -0.047 C  
BRANCH  25  26
HETATM   26  C   UNL     1      -7.284   8.622  67.722  1.00  0.00    -0.088 C  
BRANCH  26  27
HETATM   27  C   UNL     1      -7.102   9.936  66.960  1.00  0.00    -0.089 C  
BRANCH  27  28
HETATM   28  C   UNL     1      -7.888   9.925  65.645  1.00  0.00    -0.127 C  
HETATM   29  C   UNL     1      -8.786   8.702  65.538  1.00  0.00    -0.219 C  
ENDBRANCH  27  28
ENDBRANCH  26  27
ENDBRANCH  25  26
ENDBRANCH  24  25
ENDBRANCH  22  24
ENDBRANCH  21  22
ENDBRANCH   4  21
TORSDOF 7
ENDMDL
MODEL       26
REMARK 921   NORMALIZED FREE ENERGY PREDICTED BY IDOCK:   -4.96 KCAL/MOL
REMARK 922        TOTAL FREE ENERGY PREDICTED BY IDOCK:   -9.13 KCAL/MOL
REMARK 923 INTER-LIGAND FREE ENERGY PREDICTED BY IDOCK:   -7.64 KCAL/MOL
REMARK 924 INTRA-LIGAND FREE ENERGY PREDICTED BY IDOCK:   -1.49 KCAL/MOL
REMARK 927      BINDING AFFINITY PREDICTED BY RF-SCORE:    0.00 PKD
ROOT
HETATM    1  C   UNL     1      -8.519   8.108  65.348  1.00  0.00    -0.164 C  
HETATM    2  C   UNL     1      -7.226   8.517  64.912  1.00  0.00    -0.084 C  
HETATM    3  C   UNL     1      -7.413   8.994  66.318  1.00  0.00    -0.092 C  
HETATM    4  C   UNL     1      -9.135   8.326  67.193  1.00  0.00    -0.139 C  
HETATM    5  C   UNL     1     -10.393  14.829  65.453  1.00  0.00    -0.386 C  
HETATM    6  C   UNL     1      -7.963   7.616  67.078  1.00  0.00    -0.116 C  
HETATM    7  C   UNL     1      -7.636   8.942  68.419  1.00  0.00    -0.091 C  
HETATM    8  C   UNL     1     -10.564  13.753  64.463  1.00  0.00    -0.405 C  
HETATM    9  C   UNL     1      -7.570   6.192  67.315  1.00  0.00    -0.093 C  
HETATM   10  C   UNL     1      -9.275  14.619  66.419  1.00  0.00    -0.280 C  
HETATM   11  C   UNL     1      -8.620  10.422  68.055  1.00  0.00    -0.123 C  
HETATM   12  C   UNL     1     -10.373  12.481  64.859  1.00  0.00    -0.323 C  
HETATM   13  O   UNL     1     -11.080  15.843  65.412  1.00  0.00    -0.285 OA 
HETATM   14  C   UNL     1      -9.112  10.857  66.427  1.00  0.00    -0.188 C  
HETATM   15  C   UNL     1     -11.452  11.781  66.967  1.00  0.00    -0.368 C  
HETATM   16  C   UNL     1      -9.523   9.644  65.319  1.00  0.00    -0.342 C  
HETATM   17  C   UNL     1     -10.084  12.100  66.336  1.00  0.00    -0.242 C  
HETATM   18  C   UNL     1      -9.566  10.256  63.912  1.00  0.00    -0.354 C  
HETATM   19  C   UNL     1      -9.429  13.287  67.142  1.00  0.00    -0.240 C  
HETATM   20  C   UNL     1     -10.594  11.381  63.842  1.00  0.00    -0.452 C  
ENDROOT
BRANCH   4  21
HETATM   21  O   UNL     1      -9.478   7.618  68.484  1.00  0.00    -0.146 OA 
BRANCH  21  22
HETATM   22  C   UNL     1     -10.637   6.930  68.664  1.00  0.00    -0.223 C  
HETATM   23  O   UNL     1     -11.180   6.249  67.811  1.00  0.00    -0.325 OA 
BRANCH  22  24
HETATM   24  C   UNL     1     -11.168   7.202  70.071  1.00  0.00    -0.271 C  
BRANCH  24  25
HETATM   25  C   UNL     1     -10.243   8.012  70.982  1.00  0.00    -0.217 C  
BRANCH  25  26
HETATM   26  C   UNL     1     -10.723   9.425  71.336  1.00  0.00    -0.407 C  
BRANCH  26  27
HETATM   27  C   UNL     1     -11.579  10.084  70.254  1.00  0.00    -0.354 C  
BRANCH  27  28
HETATM   28  C   UNL     1     -13.027  10.257  70.724  1.00  0.00    -0.408 C  
HETATM   29  C   UNL     1     -13.139  11.303  71.822  1.00  0.00    -0.527 C  
ENDBRANCH  27  28
ENDBRANCH  26  27
ENDBRANCH  25  26
ENDBRANCH  24  25
ENDBRANCH  22  24
ENDBRANCH  21  22
ENDBRANCH   4  21
TORSDOF 7
ENDMDL
MODEL       27
REMARK 921   NORMALIZED FREE ENERGY PREDICTED BY IDOCK:   -4.95 KCAL/MOL
REMARK 922        TOTAL FREE ENERGY PREDICTED BY IDOCK:   -9.13 KCAL/MOL
REMARK 923 INTER-LIGAND FREE ENERGY PREDICTED BY IDOCK:   -6.83 KCAL/MOL
REMARK 924 INTRA-LIGAND FREE ENERGY PREDICTED BY IDOCK:   -2.30 KCAL/MOL
REMARK 927      BINDING AFFINITY PREDICTED BY RF-SCORE:    0.00 PKD
ROOT
HETATM    1  C   UNL     1     -10.173  10.120  69.975  1.00  0.00    -0.271 C  
HETATM    2  C   UNL     1     -11.376   9.362  69.893  1.00  0.00    -0.121 C  
HETATM    3  C   UNL     1     -10.583   9.108  68.649  1.00  0.00    -0.207 C  
HETATM    4  C   UNL     1      -8.722   9.951  68.672  1.00  0.00    -0.124 C  
HETATM    5  C   UNL     1     -12.515  14.042  64.700  1.00  0.00    -0.335 C  
HETATM    6  C   UNL     1      -9.073   8.763  69.269  1.00  0.00    -0.145 C  
HETATM    7  C   UNL     1      -9.038   8.408  67.389  1.00  0.00    -0.152 C  
HETATM    8  C   UNL     1     -12.531  14.210  66.162  1.00  0.00    -0.426 C  
HETATM    9  C   UNL     1      -8.403   7.828  70.225  1.00  0.00    -0.127 C  
HETATM   10  C   UNL     1     -12.375  12.631  64.234  1.00  0.00    -0.517 C  
HETATM   11  C   UNL     1      -9.500   9.910  66.483  1.00  0.00    -0.230 C  
HETATM   12  C   UNL     1     -11.722  13.433  66.906  1.00  0.00    -0.434 C  
HETATM   13  O   UNL     1     -12.686  14.995  63.951  1.00  0.00    -0.775 OA 
HETATM   14  C   UNL     1     -10.537  11.150  67.169  1.00  0.00    -0.286 C  
HETATM   15  C   UNL     1      -9.374  13.217  66.170  1.00  0.00    -0.081 C  
HETATM   16  C   UNL     1     -10.430  11.520  68.817  1.00  0.00    -0.227 C  
HETATM   17  C   UNL     1     -10.703  12.446  66.277  1.00  0.00    -0.287 C  
HETATM   18  C   UNL     1     -11.654  12.356  69.215  1.00  0.00    -0.379 C  
HETATM   19  C   UNL     1     -11.130  11.986  64.831  1.00  0.00    -0.368 C  
HETATM   20  C   UNL     1     -11.715  13.647  68.405  1.00  0.00    -0.393 C  
ENDROOT
BRANCH   4  21
HETATM   21  O   UNL     1      -7.315   9.453  68.431  1.00  0.00    -0.076 OA 
BRANCH  21  22
HETATM   22  C   UNL     1      -6.220  10.253  68.536  1.00  0.00    -0.047 C  
HETATM   23  O   UNL     1      -5.298  10.070  69.313  1.00  0.00    -0.035 OA 
BRANCH  22  24
HETATM   24  C   UNL     1      -6.370  11.434  67.579  1.00  0.00    -0.069 C  
BRANCH  24  25
HETATM   25  C   UNL     1      -6.142  12.818  68.193  1.00  0.00    -0.085 C  
BRANCH  25  26
HETATM   26  C   UNL     1      -7.284  13.359  69.061  1.00  0.00    -0.018 C  
BRANCH  26  27
HETATM   27  C   UNL     1      -7.351  14.886  69.125  1.00  0.00    -0.158 C  
BRANCH  27  28
HETATM   28  C   UNL     1      -8.796  15.368  69.283  1.00  0.00    -0.258 C  
HETATM   29  C   UNL     1      -9.224  16.252  68.122  1.00  0.00    -0.199 C  
ENDBRANCH  27  28
ENDBRANCH  26  27
ENDBRANCH  25  26
ENDBRANCH  24  25
ENDBRANCH  22  24
ENDBRANCH  21  22
ENDBRANCH   4  21
TORSDOF 7
ENDMDL
MODEL       28
REMARK 921   NORMALIZED FREE ENERGY PREDICTED BY IDOCK:   -4.94 KCAL/MOL
REMARK 922        TOTAL FREE ENERGY PREDICTED BY IDOCK:   -9.11 KCAL/MOL
REMARK 923 INTER-LIGAND FREE ENERGY PREDICTED BY IDOCK:   -7.98 KCAL/MOL
REMARK 924 INTRA-LIGAND FREE ENERGY PREDICTED BY IDOCK:   -1.13 KCAL/MOL
REMARK 927      BINDING AFFINITY PREDICTED BY RF-SCORE:    0.00 PKD
ROOT
HETATM    1  C   UNL     1     -11.321  11.650  67.139  1.00  0.00    -0.373 C  
HETATM    2  C   UNL     1     -11.528  11.910  65.754  1.00  0.00    -0.326 C  
HETATM    3  C   UNL     1     -10.053  11.841  65.996  1.00  0.00    -0.263 C  
HETATM    4  C   UNL     1      -9.555  11.272  67.895  1.00  0.00    -0.178 C  
HETATM    5  C   UNL     1      -8.608  18.052  67.732  1.00  0.00    -0.244 C  
HETATM    6  C   UNL     1      -9.914  10.427  66.870  1.00  0.00    -0.254 C  
HETATM    7  C   UNL     1      -8.150  11.038  66.445  1.00  0.00    -0.166 C  
HETATM    8  C   UNL     1      -9.947  17.499  67.994  1.00  0.00    -0.310 C  
HETATM    9  C   UNL     1     -10.250   8.973  66.775  1.00  0.00    -0.341 C  
HETATM   10  C   UNL     1      -7.778  17.256  66.781  1.00  0.00    -0.279 C  
HETATM   11  C   UNL     1      -7.922  12.717  67.093  1.00  0.00    -0.112 C  
HETATM   12  C   UNL     1     -10.083  16.163  68.086  1.00  0.00    -0.237 C  
HETATM   13  O   UNL     1      -8.262  19.125  68.210  1.00  0.00    -0.307 OA 
HETATM   14  C   UNL     1      -9.256  13.835  67.321  1.00  0.00    -0.239 C  
HETATM   15  C   UNL     1      -8.450  14.957  69.493  1.00  0.00    -0.004 C  
HETATM   16  C   UNL     1     -10.763  13.255  67.831  1.00  0.00    -0.252 C  
HETATM   17  C   UNL     1      -8.871  15.195  68.030  1.00  0.00    -0.170 C  
HETATM   18  C   UNL     1     -11.813  14.353  67.612  1.00  0.00    -0.412 C  
HETATM   19  C   UNL     1      -7.646  15.815  67.255  1.00  0.00    -0.244 C  
HETATM   20  C   UNL     1     -11.457  15.609  68.399  1.00  0.00    -0.374 C  
ENDROOT
BRANCH   4  21
HETATM   21  O   UNL     1      -8.658  10.214  68.498  1.00  0.00    -0.111 OA 
BRANCH  21  22
HETATM   22  C   UNL     1      -8.551  10.012  69.839  1.00  0.00    -0.146 C  
HETATM   23  O   UNL     1      -7.513  10.093  70.473  1.00  0.00    -0.281 OA 
BRANCH  22  24
HETATM   24  C   UNL     1      -9.917   9.610  70.394  1.00  0.00    -0.330 C  
BRANCH  24  25
HETATM   25  C   UNL     1     -10.296   8.137  70.219  1.00  0.00    -0.209 C  
BRANCH  25  26
HETATM   26  C   UNL     1     -11.622   7.709  70.858  1.00  0.00    -0.299 C  
BRANCH  26  27
HETATM   27  C   UNL     1     -11.966   8.456  72.148  1.00  0.00    -0.438 C  
BRANCH  27  28
HETATM   28  C   UNL     1     -13.320   9.163  72.031  1.00  0.00    -0.507 C  
HETATM   29  C   UNL     1     -13.156  10.661  71.828  1.00  0.00    -0.571 C  
ENDBRANCH  27  28
ENDBRANCH  26  27
ENDBRANCH  25  26
ENDBRANCH  24  25
ENDBRANCH  22  24
ENDBRANCH  21  22
ENDBRANCH   4  21
TORSDOF 7
ENDMDL
MODEL       29
REMARK 921   NORMALIZED FREE ENERGY PREDICTED BY IDOCK:   -4.92 KCAL/MOL
REMARK 922        TOTAL FREE ENERGY PREDICTED BY IDOCK:   -9.08 KCAL/MOL
REMARK 923 INTER-LIGAND FREE ENERGY PREDICTED BY IDOCK:   -8.36 KCAL/MOL
REMARK 924 INTRA-LIGAND FREE ENERGY PREDICTED BY IDOCK:   -0.72 KCAL/MOL
REMARK 927      BINDING AFFINITY PREDICTED BY RF-SCORE:    0.00 PKD
ROOT
HETATM    1  C   UNL     1     -11.542   6.714  70.274  1.00  0.00    -0.454 C  
HETATM    2  C   UNL     1     -10.707   5.746  70.903  1.00  0.00    -0.333 C  
HETATM    3  C   UNL     1      -9.977   7.052  70.897  1.00  0.00    -0.200 C  
HETATM    4  C   UNL     1     -11.098   8.619  70.216  1.00  0.00    -0.217 C  
HETATM    5  C   UNL     1      -6.957   6.963  65.019  1.00  0.00    -0.051 C  
HETATM    6  C   UNL     1     -11.136   8.096  71.487  1.00  0.00    -0.302 C  
HETATM    7  C   UNL     1      -9.481   9.051  71.369  1.00  0.00    -0.334 C  
HETATM    8  C   UNL     1      -8.223   6.236  65.216  1.00  0.00    -0.138 C  
HETATM    9  C   UNL     1     -12.028   8.280  72.674  1.00  0.00    -0.360 C  
HETATM   10  C   UNL     1      -6.281   7.394  66.278  1.00  0.00    -0.041 C  
HETATM   11  C   UNL     1      -8.872   8.992  69.662  1.00  0.00    -0.145 C  
HETATM   12  C   UNL     1      -9.043   6.634  66.207  1.00  0.00    -0.168 C  
HETATM   13  O   UNL     1      -6.483   7.115  63.901  1.00  0.00    -0.043 OA 
HETATM   14  C   UNL     1      -9.262   7.682  68.560  1.00  0.00    -0.143 C  
HETATM   15  C   UNL     1      -9.493   9.055  66.396  1.00  0.00    -0.288 C  
HETATM   16  C   UNL     1     -10.793   6.961  68.617  1.00  0.00    -0.236 C  
HETATM   17  C   UNL     1      -8.755   7.886  67.077  1.00  0.00    -0.132 C  
HETATM   18  C   UNL     1     -10.750   5.649  67.823  1.00  0.00    -0.250 C  
HETATM   19  C   UNL     1      -7.218   8.235  67.134  1.00  0.00    -0.084 C  
HETATM   20  C   UNL     1     -10.361   5.907  66.370  1.00  0.00    -0.170 C  
ENDROOT
BRANCH   4  21
HETATM   21  O   UNL     1     -11.444   9.996  70.736  1.00  0.00    -0.303 OA 
BRANCH  21  22
HETATM   22  C   UNL     1     -12.068  10.937  69.977  1.00  0.00    -0.355 C  
HETATM   23  O   UNL     1     -12.229  10.862  68.770  1.00  0.00    -0.518 OA 
BRANCH  22  24
HETATM   24  C   UNL     1     -12.465  12.115  70.866  1.00  0.00    -0.374 C  
BRANCH  24  25
HETATM   25  C   UNL     1     -11.988  13.491  70.396  1.00  0.00    -0.367 C  
BRANCH  25  26
HETATM   26  C   UNL     1     -12.068  14.616  71.435  1.00  0.00    -0.416 C  
BRANCH  26  27
HETATM   27  C   UNL     1     -13.430  15.309  71.503  1.00  0.00    -0.577 C  
BRANCH  27  28
HETATM   28  C   UNL     1     -13.767  15.724  72.939  1.00  0.00    -0.631 C  
HETATM   29  C   UNL     1     -12.518  15.834  73.799  1.00  0.00    -0.727 C  
ENDBRANCH  27  28
ENDBRANCH  26  27
ENDBRANCH  25  26
ENDBRANCH  24  25
ENDBRANCH  22  24
ENDBRANCH  21  22
ENDBRANCH   4  21
TORSDOF 7
ENDMDL
MODEL       30
REMARK 921   NORMALIZED FREE ENERGY PREDICTED BY IDOCK:   -4.88 KCAL/MOL
REMARK 922        TOTAL FREE ENERGY PREDICTED BY IDOCK:   -9.03 KCAL/MOL
REMARK 923 INTER-LIGAND FREE ENERGY PREDICTED BY IDOCK:   -6.90 KCAL/MOL
REMARK 924 INTRA-LIGAND FREE ENERGY PREDICTED BY IDOCK:   -2.13 KCAL/MOL
REMARK 927      BINDING AFFINITY PREDICTED BY RF-SCORE:    0.00 PKD
ROOT
HETATM    1  C   UNL     1      -7.685   9.602  70.335  1.00  0.00    -0.178 C  
HETATM    2  C   UNL     1      -6.450   9.077  70.812  1.00  0.00    -0.058 C  
HETATM    3  C   UNL     1      -6.946   8.177  69.724  1.00  0.00    -0.052 C  
HETATM    4  C   UNL     1      -8.611   8.878  68.770  1.00  0.00    -0.136 C  
HETATM    5  C   UNL     1     -10.873   4.001  73.013  1.00  0.00    -0.143 C  
HETATM    6  C   UNL     1      -7.317   9.268  68.518  1.00  0.00    -0.076 C  
HETATM    7  C   UNL     1      -7.477   7.505  67.792  1.00  0.00    -0.101 C  
HETATM    8  C   UNL     1     -10.667   5.373  73.507  1.00  0.00    -0.331 C  
HETATM    9  C   UNL     1      -6.685  10.359  67.714  1.00  0.00    -0.070 C  
HETATM   10  C   UNL     1      -9.900   3.558  71.972  1.00  0.00    -0.238 C  
HETATM   11  C   UNL     1      -8.671   6.555  68.774  1.00  0.00    -0.123 C  
HETATM   12  C   UNL     1     -10.286   6.320  72.629  1.00  0.00    -0.203 C  
HETATM   13  O   UNL     1     -11.736   3.278  73.495  1.00  0.00    -0.113 OA 
HETATM   14  C   UNL     1      -8.982   6.887  70.469  1.00  0.00    -0.155 C  
HETATM   15  C   UNL     1     -11.516   6.437  70.490  1.00  0.00    -0.444 C  
HETATM   16  C   UNL     1      -8.962   8.484  71.033  1.00  0.00    -0.219 C  
HETATM   17  C   UNL     1     -10.159   6.046  71.107  1.00  0.00    -0.241 C  
HETATM   18  C   UNL     1      -8.909   8.464  72.566  1.00  0.00    -0.296 C  
HETATM   19  C   UNL     1      -9.891   4.524  70.794  1.00  0.00    -0.280 C  
HETATM   20  C   UNL     1     -10.120   7.736  73.141  1.00  0.00    -0.390 C  
ENDROOT
BRANCH   4  21
HETATM   21  O   UNL     1      -9.001   9.121  67.329  1.00  0.00    -0.123 OA 
BRANCH  21  22
HETATM   22  C   UNL     1     -10.145   9.764  66.971  1.00  0.00    -0.218 C  
HETATM   23  O   UNL     1     -10.353  10.253  65.873  1.00  0.00    -0.237 OA 
BRANCH  22  24
HETATM   24  C   UNL     1     -11.081   9.827  68.177  1.00  0.00    -0.169 C  
BRANCH  24  25
HETATM   25  C   UNL     1     -11.658  11.208  68.496  1.00  0.00    -0.385 C  
BRANCH  25  26
HETATM   26  C   UNL     1     -11.711  11.584  69.982  1.00  0.00    -0.414 C  
BRANCH  26  27
HETATM   27  C   UNL     1     -11.822  10.385  70.926  1.00  0.00    -0.475 C  
BRANCH  27  28
HETATM   28  C   UNL     1     -13.171  10.377  71.651  1.00  0.00    -0.502 C  
HETATM   29  C   UNL     1     -13.469   9.019  72.267  1.00  0.00    -0.529 C  
ENDBRANCH  27  28
ENDBRANCH  26  27
ENDBRANCH  25  26
ENDBRANCH  24  25
ENDBRANCH  22  24
ENDBRANCH  21  22
ENDBRANCH   4  21
TORSDOF 7
ENDMDL
MODEL       31
REMARK 921   NORMALIZED FREE ENERGY PREDICTED BY IDOCK:   -4.87 KCAL/MOL
REMARK 922        TOTAL FREE ENERGY PREDICTED BY IDOCK:   -9.01 KCAL/MOL
REMARK 923 INTER-LIGAND FREE ENERGY PREDICTED BY IDOCK:   -7.48 KCAL/MOL
REMARK 924 INTRA-LIGAND FREE ENERGY PREDICTED BY IDOCK:   -1.53 KCAL/MOL
REMARK 927      BINDING AFFINITY PREDICTED BY RF-SCORE:    0.00 PKD
ROOT
HETATM    1  C   UNL     1     -10.921   5.984  70.550  1.00  0.00    -0.388 C  
HETATM    2  C   UNL     1      -9.632   5.379  70.603  1.00  0.00    -0.228 C  
HETATM    3  C   UNL     1      -9.509   6.777  71.122  1.00  0.00    -0.164 C  
HETATM    4  C   UNL     1     -11.298   7.745  71.316  1.00  0.00    -0.264 C  
HETATM    5  C   UNL     1      -8.492  10.259  65.598  1.00  0.00    -0.160 C  
HETATM    6  C   UNL     1     -10.767   6.850  72.215  1.00  0.00    -0.253 C  
HETATM    7  C   UNL     1      -9.728   8.447  72.398  1.00  0.00    -0.376 C  
HETATM    8  C   UNL     1      -9.258   9.003  65.554  1.00  0.00    -0.262 C  
HETATM    9  C   UNL     1     -11.285   6.145  73.428  1.00  0.00     0.028 C  
HETATM   10  C   UNL     1      -7.714  10.475  66.853  1.00  0.00    -0.114 C  
HETATM   11  C   UNL     1      -9.655   9.304  70.801  1.00  0.00    -0.341 C  
HETATM   12  C   UNL     1      -9.852   8.574  66.684  1.00  0.00    -0.342 C  
HETATM   13  O   UNL     1      -8.453  11.010  64.631  1.00  0.00    -0.008 OA 
HETATM   14  C   UNL     1      -9.791   8.463  69.266  1.00  0.00    -0.186 C  
HETATM   15  C   UNL     1     -11.145  10.233  67.979  1.00  0.00    -0.336 C  
HETATM   16  C   UNL     1     -10.831   7.135  69.123  1.00  0.00    -0.185 C  
HETATM   17  C   UNL     1      -9.847   9.403  67.996  1.00  0.00    -0.191 C  
HETATM   18  C   UNL     1     -10.502   6.389  67.823  1.00  0.00    -0.281 C  
HETATM   19  C   UNL     1      -8.623  10.394  68.073  1.00  0.00    -0.123 C  
HETATM   20  C   UNL     1     -10.673   7.304  66.615  1.00  0.00    -0.049 C  
ENDROOT
BRANCH   4  21
HETATM   21  O   UNL     1     -11.997   8.497  72.427  1.00  0.00    -0.376 OA 
BRANCH  21  22
HETATM   22  C   UNL     1     -13.184   9.137  72.253  1.00  0.00    -0.461 C  
HETATM   23  O   UNL     1     -14.253   8.752  72.697  1.00  0.00    -0.527 OA 
BRANCH  22  24
HETATM   24  C   UNL     1     -12.967  10.362  71.366  1.00  0.00    -0.545 C  
BRANCH  24  25
HETATM   25  C   UNL     1     -13.076  11.717  72.069  1.00  0.00    -0.433 C  
BRANCH  25  26
HETATM   26  C   UNL     1     -13.226  12.936  71.151  1.00  0.00    -0.062 C  
BRANCH  26  27
HETATM   27  C   UNL     1     -11.902  13.478  70.610  1.00  0.00    -0.200 C  
BRANCH  27  28
HETATM   28  C   UNL     1     -11.956  13.648  69.089  1.00  0.00    -0.394 C  
HETATM   29  C   UNL     1     -10.571  13.860  68.498  1.00  0.00    -0.260 C  
ENDBRANCH  27  28
ENDBRANCH  26  27
ENDBRANCH  25  26
ENDBRANCH  24  25
ENDBRANCH  22  24
ENDBRANCH  21  22
ENDBRANCH   4  21
TORSDOF 7
ENDMDL
MODEL       32
REMARK 921   NORMALIZED FREE ENERGY PREDICTED BY IDOCK:   -4.85 KCAL/MOL
REMARK 922        TOTAL FREE ENERGY PREDICTED BY IDOCK:   -8.99 KCAL/MOL
REMARK 923 INTER-LIGAND FREE ENERGY PREDICTED BY IDOCK:   -7.61 KCAL/MOL
REMARK 924 INTRA-LIGAND FREE ENERGY PREDICTED BY IDOCK:   -1.38 KCAL/MOL
REMARK 927      BINDING AFFINITY PREDICTED BY RF-SCORE:    0.00 PKD
ROOT
HETATM    1  C   UNL     1      -7.941   9.992  69.085  1.00  0.00    -0.116 C  
HETATM    2  C   UNL     1      -7.035   9.010  68.592  1.00  0.00    -0.063 C  
HETATM    3  C   UNL     1      -8.421   8.589  68.220  1.00  0.00    -0.135 C  
HETATM    4  C   UNL     1      -9.852   9.979  68.663  1.00  0.00    -0.160 C  
HETATM    5  C   UNL     1     -10.370   5.223  73.563  1.00  0.00    -0.220 C  
HETATM    6  C   UNL     1      -9.038   9.988  67.554  1.00  0.00    -0.144 C  
HETATM    7  C   UNL     1     -10.303   8.583  67.257  1.00  0.00    -0.372 C  
HETATM    8  C   UNL     1      -9.381   6.306  73.686  1.00  0.00    -0.143 C  
HETATM    9  C   UNL     1      -8.746  10.979  66.473  1.00  0.00    -0.169 C  
HETATM   10  C   UNL     1     -10.607   4.748  72.168  1.00  0.00    -0.204 C  
HETATM   11  C   UNL     1     -10.784   7.858  68.849  1.00  0.00    -0.098 C  
HETATM   12  C   UNL     1      -9.353   7.261  72.738  1.00  0.00    -0.186 C  
HETATM   13  O   UNL     1     -10.882   4.717  74.554  1.00  0.00    -0.347 OA 
HETATM   14  C   UNL     1      -9.731   7.870  70.253  1.00  0.00    -0.183 C  
HETATM   15  C   UNL     1     -11.516   8.249  72.068  1.00  0.00    -0.399 C  
HETATM   16  C   UNL     1      -8.729   9.204  70.543  1.00  0.00    -0.258 C  
HETATM   17  C   UNL     1     -10.388   7.319  71.582  1.00  0.00    -0.214 C  
HETATM   18  C   UNL     1      -7.685   8.815  71.599  1.00  0.00    -0.117 C  
HETATM   19  C   UNL     1     -11.010   5.906  71.264  1.00  0.00    -0.325 C  
HETATM   20  C   UNL     1      -8.361   8.394  72.900  1.00  0.00    -0.205 C  
ENDROOT
BRANCH   4  21
HETATM   21  O   UNL     1     -10.964  10.657  67.894  1.00  0.00    -0.250 OA 
BRANCH  21  22
HETATM   22  C   UNL     1     -11.703  11.677  68.409  1.00  0.00    -0.307 C  
HETATM   23  O   UNL     1     -12.364  12.459  67.748  1.00  0.00    -0.281 OA 
BRANCH  22  24
HETATM   24  C   UNL     1     -11.514  11.715  69.925  1.00  0.00    -0.308 C  
BRANCH  24  25
HETATM   25  C   UNL     1     -12.674  11.155  70.752  1.00  0.00    -0.388 C  
BRANCH  25  26
HETATM   26  C   UNL     1     -13.234  12.087  71.834  1.00  0.00    -0.469 C  
BRANCH  26  27
HETATM   27  C   UNL     1     -13.174  13.572  71.472  1.00  0.00    -0.402 C  
BRANCH  27  28
HETATM   28  C   UNL     1     -13.046  14.440  72.728  1.00  0.00    -0.595 C  
HETATM   29  C   UNL     1     -11.995  15.526  72.555  1.00  0.00    -0.557 C  
ENDBRANCH  27  28
ENDBRANCH  26  27
ENDBRANCH  25  26
ENDBRANCH  24  25
ENDBRANCH  22  24
ENDBRANCH  21  22
ENDBRANCH   4  21
TORSDOF 7
ENDMDL
MODEL       33
REMARK 921   NORMALIZED FREE ENERGY PREDICTED BY IDOCK:   -4.83 KCAL/MOL
REMARK 922        TOTAL FREE ENERGY PREDICTED BY IDOCK:   -8.96 KCAL/MOL
REMARK 923 INTER-LIGAND FREE ENERGY PREDICTED BY IDOCK:   -6.99 KCAL/MOL
REMARK 924 INTRA-LIGAND FREE ENERGY PREDICTED BY IDOCK:   -1.97 KCAL/MOL
REMARK 927      BINDING AFFINITY PREDICTED BY RF-SCORE:    0.00 PKD
ROOT
HETATM    1  C   UNL     1      -7.606  10.269  68.389  1.00  0.00    -0.092 C  
HETATM    2  C   UNL     1      -7.921  10.122  69.771  1.00  0.00    -0.172 C  
HETATM    3  C   UNL     1      -9.204  10.279  69.017  1.00  0.00    -0.188 C  
HETATM    4  C   UNL     1      -8.971  10.299  66.987  1.00  0.00    -0.136 C  
HETATM    5  C   UNL     1      -9.910  16.845  68.764  1.00  0.00    -0.269 C  
HETATM    6  C   UNL     1      -9.014   9.176  67.780  1.00  0.00    -0.132 C  
HETATM    7  C   UNL     1     -10.810   9.834  67.716  1.00  0.00    -0.306 C  
HETATM    8  C   UNL     1      -8.568  16.244  68.841  1.00  0.00    -0.260 C  
HETATM    9  C   UNL     1      -8.736   7.723  67.562  1.00  0.00    -0.125 C  
HETATM   10  C   UNL     1     -11.032  15.916  69.088  1.00  0.00    -0.284 C  
HETATM   11  C   UNL     1     -10.784  11.640  67.546  1.00  0.00    -0.257 C  
HETATM   12  C   UNL     1      -8.409  14.975  68.420  1.00  0.00    -0.154 C  
HETATM   13  O   UNL     1     -10.057  18.038  68.527  1.00  0.00    -0.357 OA 
HETATM   14  C   UNL     1      -9.459  12.629  68.135  1.00  0.00    -0.218 C  
HETATM   15  C   UNL     1      -9.412  14.374  66.244  1.00  0.00    -0.297 C  
HETATM   16  C   UNL     1      -7.870  12.051  68.043  1.00  0.00    -0.145 C  
HETATM   17  C   UNL     1      -9.557  14.163  67.763  1.00  0.00    -0.219 C  
HETATM   18  C   UNL     1      -6.974  12.931  68.925  1.00  0.00    -0.084 C  
HETATM   19  C   UNL     1     -10.981  14.678  68.203  1.00  0.00    -0.269 C  
HETATM   20  C   UNL     1      -7.015  14.384  68.463  1.00  0.00    -0.100 C  
ENDROOT
BRANCH   4  21
HETATM   21  O   UNL     1      -9.584   9.545  65.829  1.00  0.00    -0.232 OA 
BRANCH  21  22
HETATM   22  C   UNL     1      -9.134   9.661  64.550  1.00  0.00    -0.236 C  
HETATM   23  O   UNL     1      -8.552   8.783  63.936  1.00  0.00    -0.150 OA 
BRANCH  22  24
HETATM   24  C   UNL     1      -9.419  11.075  64.046  1.00  0.00    -0.278 C  
BRANCH  24  25
HETATM   25  C   UNL     1     -10.746  11.260  63.306  1.00  0.00    -0.278 C  
BRANCH  25  26
HETATM   26  C   UNL     1     -11.446  12.608  63.518  1.00  0.00    -0.557 C  
BRANCH  26  27
HETATM   27  C   UNL     1     -12.569  12.572  64.557  1.00  0.00    -0.503 C  
BRANCH  27  28
HETATM   28  C   UNL     1     -12.804  13.959  65.163  1.00  0.00    -0.383 C  
HETATM   29  C   UNL     1     -12.195  15.058  64.306  1.00  0.00    -0.312 C  
ENDBRANCH  27  28
ENDBRANCH  26  27
ENDBRANCH  25  26
ENDBRANCH  24  25
ENDBRANCH  22  24
ENDBRANCH  21  22
ENDBRANCH   4  21
TORSDOF 7
ENDMDL
MODEL       34
REMARK 921   NORMALIZED FREE ENERGY PREDICTED BY IDOCK:   -4.82 KCAL/MOL
REMARK 922        TOTAL FREE ENERGY PREDICTED BY IDOCK:   -8.94 KCAL/MOL
REMARK 923 INTER-LIGAND FREE ENERGY PREDICTED BY IDOCK:   -7.96 KCAL/MOL
REMARK 924 INTRA-LIGAND FREE ENERGY PREDICTED BY IDOCK:   -0.98 KCAL/MOL
REMARK 927      BINDING AFFINITY PREDICTED BY RF-SCORE:    0.00 PKD
ROOT
HETATM    1  C   UNL     1     -10.891  11.637  65.975  1.00  0.00    -0.339 C  
HETATM    2  C   UNL     1      -9.694  11.439  65.228  1.00  0.00    -0.276 C  
HETATM    3  C   UNL     1      -9.312  11.762  66.638  1.00  0.00    -0.205 C  
HETATM    4  C   UNL     1     -10.901  11.881  67.916  1.00  0.00    -0.213 C  
HETATM    5  C   UNL     1      -9.157  18.369  66.589  1.00  0.00    -0.297 C  
HETATM    6  C   UNL     1     -10.286  10.722  67.505  1.00  0.00    -0.231 C  
HETATM    7  C   UNL     1      -9.067  11.551  68.727  1.00  0.00    -0.063 C  
HETATM    8  C   UNL     1     -10.044  17.639  65.668  1.00  0.00     0.029 C  
HETATM    9  C   UNL     1     -10.599   9.265  67.627  1.00  0.00    -0.324 C  
HETATM   10  C   UNL     1      -8.106  17.533  67.239  1.00  0.00    -0.219 C  
HETATM   11  C   UNL     1      -9.252  13.353  68.632  1.00  0.00     0.001 C  
HETATM   12  C   UNL     1     -10.420  16.388  65.995  1.00  0.00    -0.333 C  
HETATM   13  O   UNL     1      -9.250  19.582  66.728  1.00  0.00    -0.315 OA 
HETATM   14  C   UNL     1      -9.810  14.174  67.184  1.00  0.00    -0.253 C  
HETATM   15  C   UNL     1     -11.214  16.017  68.304  1.00  0.00    -0.350 C  
HETATM   16  C   UNL     1     -10.992  13.454  66.209  1.00  0.00    -0.296 C  
HETATM   17  C   UNL     1     -10.041  15.730  67.349  1.00  0.00    -0.246 C  
HETATM   18  C   UNL     1     -11.035  14.190  64.863  1.00  0.00    -0.405 C  
HETATM   19  C   UNL     1      -8.731  16.351  67.969  1.00  0.00    -0.183 C  
HETATM   20  C   UNL     1     -11.368  15.665  65.061  1.00  0.00    -0.255 C  
ENDROOT
BRANCH   4  21
HETATM   21  O   UNL     1     -11.256  11.260  69.249  1.00  0.00    -0.232 OA 
BRANCH  21  22
HETATM   22  C   UNL     1     -12.119  11.837  70.127  1.00  0.00    -0.317 C  
HETATM   23  O   UNL     1     -12.402  13.023  70.145  1.00  0.00    -0.283 OA 
BRANCH  22  24
HETATM   24  C   UNL     1     -12.615  10.778  71.111  1.00  0.00    -0.532 C  
BRANCH  24  25
HETATM   25  C   UNL     1     -11.862   9.446  71.085  1.00  0.00    -0.413 C  
BRANCH  25  26
HETATM   26  C   UNL     1     -12.624   8.237  71.641  1.00  0.00    -0.355 C  
BRANCH  26  27
HETATM   27  C   UNL     1     -12.369   6.934  70.883  1.00  0.00    -0.365 C  
BRANCH  27  28
HETATM   28  C   UNL     1     -11.021   6.972  70.158  1.00  0.00    -0.306 C  
HETATM   29  C   UNL     1     -10.656   5.614  69.577  1.00  0.00    -0.384 C  
ENDBRANCH  27  28
ENDBRANCH  26  27
ENDBRANCH  25  26
ENDBRANCH  24  25
ENDBRANCH  22  24
ENDBRANCH  21  22
ENDBRANCH   4  21
TORSDOF 7
ENDMDL
MODEL       35
REMARK 921   NORMALIZED FREE ENERGY PREDICTED BY IDOCK:   -4.81 KCAL/MOL
REMARK 922        TOTAL FREE ENERGY PREDICTED BY IDOCK:   -8.93 KCAL/MOL
REMARK 923 INTER-LIGAND FREE ENERGY PREDICTED BY IDOCK:   -7.30 KCAL/MOL
REMARK 924 INTRA-LIGAND FREE ENERGY PREDICTED BY IDOCK:   -1.63 KCAL/MOL
REMARK 927      BINDING AFFINITY PREDICTED BY RF-SCORE:    0.00 PKD
ROOT
HETATM    1  C   UNL     1     -11.878  13.290  68.394  1.00  0.00    -0.395 C  
HETATM    2  C   UNL     1     -11.367  14.153  69.406  1.00  0.00    -0.318 C  
HETATM    3  C   UNL     1     -10.206  13.492  68.733  1.00  0.00    -0.139 C  
HETATM    4  C   UNL     1     -10.726  12.365  67.109  1.00  0.00    -0.235 C  
HETATM    5  C   UNL     1      -9.602   7.866  72.148  1.00  0.00    -0.197 C  
HETATM    6  C   UNL     1     -10.561  13.731  67.121  1.00  0.00    -0.277 C  
HETATM    7  C   UNL     1      -8.798  12.994  67.237  1.00  0.00    -0.208 C  
HETATM    8  C   UNL     1     -10.914   8.522  72.023  1.00  0.00    -0.410 C  
HETATM    9  C   UNL     1     -10.854  14.834  66.154  1.00  0.00    -0.321 C  
HETATM   10  C   UNL     1      -8.437   8.716  71.763  1.00  0.00    -0.221 C  
HETATM   11  C   UNL     1      -8.864  11.410  68.119  1.00  0.00    -0.162 C  
HETATM   12  C   UNL     1     -11.120   9.350  70.981  1.00  0.00    -0.414 C  
HETATM   13  O   UNL     1      -9.501   6.736  72.610  1.00  0.00    -0.140 OA 
HETATM   14  C   UNL     1     -10.101  11.037  69.308  1.00  0.00    -0.121 C  
HETATM   15  C   UNL     1     -10.432   8.547  68.749  1.00  0.00    -0.208 C  
HETATM   16  C   UNL     1     -11.681  11.602  69.085  1.00  0.00    -0.390 C  
HETATM   17  C   UNL     1     -10.070   9.554  69.857  1.00  0.00    -0.262 C  
HETATM   18  C   UNL     1     -12.451  11.445  70.404  1.00  0.00    -0.345 C  
HETATM   19  C   UNL     1      -8.602   9.250  70.346  1.00  0.00    -0.250 C  
HETATM   20  C   UNL     1     -12.488   9.984  70.840  1.00  0.00    -0.431 C  
ENDROOT
BRANCH   4  21
HETATM   21  O   UNL     1     -10.277  12.290  65.667  1.00  0.00    -0.250 OA 
BRANCH  21  22
HETATM   22  C   UNL     1     -10.727  11.341  64.802  1.00  0.00    -0.285 C  
HETATM   23  O   UNL     1     -11.513  11.545  63.894  1.00  0.00    -0.379 OA 
BRANCH  22  24
HETATM   24  C   UNL     1     -10.140   9.986  65.197  1.00  0.00    -0.268 C  
BRANCH  24  25
HETATM   25  C   UNL     1      -8.793   9.636  64.558  1.00  0.00    -0.257 C  
BRANCH  25  26
HETATM   26  C   UNL     1      -7.738   9.051  65.504  1.00  0.00    -0.091 C  
BRANCH  26  27
HETATM   27  C   UNL     1      -7.525   7.544  65.348  1.00  0.00    -0.082 C  
BRANCH  27  28
HETATM   28  C   UNL     1      -8.590   6.754  66.115  1.00  0.00    -0.146 C  
HETATM   29  C   UNL     1      -7.966   5.817  67.137  1.00  0.00    -0.102 C  
ENDBRANCH  27  28
ENDBRANCH  26  27
ENDBRANCH  25  26
ENDBRANCH  24  25
ENDBRANCH  22  24
ENDBRANCH  21  22
ENDBRANCH   4  21
TORSDOF 7
ENDMDL
MODEL       36
REMARK 921   NORMALIZED FREE ENERGY PREDICTED BY IDOCK:   -4.73 KCAL/MOL
REMARK 922        TOTAL FREE ENERGY PREDICTED BY IDOCK:   -8.82 KCAL/MOL
REMARK 923 INTER-LIGAND FREE ENERGY PREDICTED BY IDOCK:   -7.72 KCAL/MOL
REMARK 924 INTRA-LIGAND FREE ENERGY PREDICTED BY IDOCK:   -1.10 KCAL/MOL
REMARK 927      BINDING AFFINITY PREDICTED BY RF-SCORE:    0.00 PKD
ROOT
HETATM    1  C   UNL     1      -7.469   9.828  68.646  1.00  0.00    -0.075 C  
HETATM    2  C   UNL     1      -6.586   8.765  68.297  1.00  0.00    -0.060 C  
HETATM    3  C   UNL     1      -7.967   8.380  67.867  1.00  0.00    -0.115 C  
HETATM    4  C   UNL     1      -9.348   9.869  68.099  1.00  0.00    -0.131 C  
HETATM    5  C   UNL     1     -10.421   5.574  73.324  1.00  0.00    -0.225 C  
HETATM    6  C   UNL     1      -8.467   9.746  67.051  1.00  0.00    -0.117 C  
HETATM    7  C   UNL     1      -9.782   8.382  66.785  1.00  0.00    -0.309 C  
HETATM    8  C   UNL     1      -9.386   6.616  73.425  1.00  0.00    -0.155 C  
HETATM    9  C   UNL     1      -8.055  10.627  65.914  1.00  0.00    -0.159 C  
HETATM   10  C   UNL     1     -10.594   4.994  71.960  1.00  0.00    -0.243 C  
HETATM   11  C   UNL     1     -10.399   7.818  68.395  1.00  0.00    -0.231 C  
HETATM   12  C   UNL     1      -9.248   7.485  72.406  1.00  0.00    -0.188 C  
HETATM   13  O   UNL     1     -11.019   5.178  74.317  1.00  0.00    -0.283 OA 
HETATM   14  C   UNL     1      -9.437   7.899  69.861  1.00  0.00    -0.160 C  
HETATM   15  C   UNL     1     -11.310   8.513  71.515  1.00  0.00    -0.348 C  
HETATM   16  C   UNL     1      -8.386   9.203  70.107  1.00  0.00    -0.174 C  
HETATM   17  C   UNL     1     -10.204   7.494  71.183  1.00  0.00    -0.199 C  
HETATM   18  C   UNL     1      -7.433   8.857  71.259  1.00  0.00    -0.127 C  
HETATM   19  C   UNL     1     -10.878   6.089  70.940  1.00  0.00    -0.349 C  
HETATM   20  C   UNL     1      -8.210   8.579  72.542  1.00  0.00    -0.144 C  
ENDROOT
BRANCH   4  21
HETATM   21  O   UNL     1     -10.372  10.532  67.206  1.00  0.00    -0.203 OA 
BRANCH  21  22
HETATM   22  C   UNL     1     -11.270  11.445  67.663  1.00  0.00    -0.283 C  
HETATM   23  O   UNL     1     -12.242  11.180  68.351  1.00  0.00    -0.610 OA 
BRANCH  22  24
HETATM   24  C   UNL     1     -10.899  12.825  67.122  1.00  0.00    -0.282 C  
BRANCH  24  25
HETATM   25  C   UNL     1     -12.070  13.784  66.895  1.00  0.00    -0.454 C  
BRANCH  25  26
HETATM   26  C   UNL     1     -12.782  13.660  65.543  1.00  0.00    -0.514 C  
BRANCH  26  27
HETATM   27  C   UNL     1     -11.841  13.663  64.337  1.00  0.00    -0.460 C  
BRANCH  27  28
HETATM   28  C   UNL     1     -11.916  12.336  63.576  1.00  0.00    -0.625 C  
HETATM   29  C   UNL     1     -10.562  11.646  63.516  1.00  0.00    -0.496 C  
ENDBRANCH  27  28
ENDBRANCH  26  27
ENDBRANCH  25  26
ENDBRANCH  24  25
ENDBRANCH  22  24
ENDBRANCH  21  22
ENDBRANCH   4  21
TORSDOF 7
ENDMDL
MODEL       37
REMARK 921   NORMALIZED FREE ENERGY PREDICTED BY IDOCK:   -4.73 KCAL/MOL
REMARK 922        TOTAL FREE ENERGY PREDICTED BY IDOCK:   -8.82 KCAL/MOL
REMARK 923 INTER-LIGAND FREE ENERGY PREDICTED BY IDOCK:   -7.52 KCAL/MOL
REMARK 924 INTRA-LIGAND FREE ENERGY PREDICTED BY IDOCK:   -1.30 KCAL/MOL
REMARK 927      BINDING AFFINITY PREDICTED BY RF-SCORE:    0.00 PKD
ROOT
HETATM    1  C   UNL     1     -10.937  13.516  68.266  1.00  0.00    -0.280 C  
HETATM    2  C   UNL     1     -10.429  14.304  69.340  1.00  0.00    -0.049 C  
HETATM    3  C   UNL     1      -9.360  13.342  68.925  1.00  0.00     0.211 C  
HETATM    4  C   UNL     1      -9.828  12.258  67.257  1.00  0.00    -0.205 C  
HETATM    5  C   UNL     1     -10.798   7.987  72.521  1.00  0.00    -0.349 C  
HETATM    6  C   UNL     1      -9.339  13.544  67.270  1.00  0.00    -0.233 C  
HETATM    7  C   UNL     1      -7.864  12.423  67.750  1.00  0.00    -0.154 C  
HETATM    8  C   UNL     1     -11.862   8.923  72.124  1.00  0.00    -0.417 C  
HETATM    9  C   UNL     1      -9.168  14.614  66.239  1.00  0.00    -0.257 C  
HETATM   10  C   UNL     1      -9.410   8.510  72.355  1.00  0.00    -0.349 C  
HETATM   11  C   UNL     1      -8.478  10.965  68.637  1.00  0.00    -0.152 C  
HETATM   12  C   UNL     1     -11.662   9.701  71.043  1.00  0.00    -0.433 C  
HETATM   13  O   UNL     1     -11.065   6.901  73.020  1.00  0.00    -0.271 OA 
HETATM   14  C   UNL     1      -9.967  10.978  69.566  1.00  0.00     0.074 C  
HETATM   15  C   UNL     1     -10.787   8.603  69.010  1.00  0.00    -0.043 C  
HETATM   16  C   UNL     1     -11.292  11.882  69.022  1.00  0.00    -0.337 C  
HETATM   17  C   UNL     1     -10.403   9.573  70.144  1.00  0.00    -0.300 C  
HETATM   18  C   UNL     1     -12.308  12.004  70.165  1.00  0.00    -0.230 C  
HETATM   19  C   UNL     1      -9.173   8.966  70.922  1.00  0.00    -0.286 C  
HETATM   20  C   UNL     1     -12.782  10.627  70.619  1.00  0.00    -0.445 C  
ENDROOT
BRANCH   4  21
HETATM   21  O   UNL     1      -9.150  11.978  65.935  1.00  0.00    -0.164 OA 
BRANCH  21  22
HETATM   22  C   UNL     1      -9.751  11.286  64.929  1.00  0.00    -0.256 C  
HETATM   23  O   UNL     1      -9.798  10.070  64.853  1.00  0.00    -0.317 OA 
BRANCH  22  24
HETATM   24  C   UNL     1     -10.288  12.275  63.895  1.00  0.00    -0.455 C  
BRANCH  24  25
HETATM   25  C   UNL     1     -11.774  12.133  63.553  1.00  0.00    -0.579 C  
BRANCH  25  26
HETATM   26  C   UNL     1     -12.754  12.474  64.682  1.00  0.00    -0.434 C  
BRANCH  26  27
HETATM   27  C   UNL     1     -12.590  13.886  65.247  1.00  0.00    -0.508 C  
BRANCH  27  28
HETATM   28  C   UNL     1     -12.523  14.926  64.125  1.00  0.00    -0.093 C  
HETATM   29  C   UNL     1     -11.540  16.039  64.449  1.00  0.00    -0.212 C  
ENDBRANCH  27  28
ENDBRANCH  26  27
ENDBRANCH  25  26
ENDBRANCH  24  25
ENDBRANCH  22  24
ENDBRANCH  21  22
ENDBRANCH   4  21
TORSDOF 7
ENDMDL
MODEL       38
REMARK 921   NORMALIZED FREE ENERGY PREDICTED BY IDOCK:   -4.73 KCAL/MOL
REMARK 922        TOTAL FREE ENERGY PREDICTED BY IDOCK:   -8.82 KCAL/MOL
REMARK 923 INTER-LIGAND FREE ENERGY PREDICTED BY IDOCK:   -6.74 KCAL/MOL
REMARK 924 INTRA-LIGAND FREE ENERGY PREDICTED BY IDOCK:   -2.07 KCAL/MOL
REMARK 927      BINDING AFFINITY PREDICTED BY RF-SCORE:    0.00 PKD
ROOT
HETATM    1  C   UNL     1     -12.269   7.764  72.248  1.00  0.00    -0.298 C  
HETATM    2  C   UNL     1     -13.439   7.327  71.562  1.00  0.00    -0.439 C  
HETATM    3  C   UNL     1     -12.247   6.882  70.774  1.00  0.00    -0.364 C  
HETATM    4  C   UNL     1     -10.463   7.239  71.705  1.00  0.00    -0.198 C  
HETATM    5  C   UNL     1     -11.033  12.132  66.947  1.00  0.00    -0.270 C  
HETATM    6  C   UNL     1     -11.300   6.176  71.952  1.00  0.00    -0.350 C  
HETATM    7  C   UNL     1     -10.497   5.819  70.252  1.00  0.00    -0.349 C  
HETATM    8  C   UNL     1     -11.671  12.302  68.263  1.00  0.00    -0.392 C  
HETATM    9  C   UNL     1     -11.362   5.106  72.995  1.00  0.00    -0.381 C  
HETATM   10  C   UNL     1     -11.013  10.729  66.438  1.00  0.00    -0.108 C  
HETATM   11  C   UNL     1     -10.153   7.387  69.407  1.00  0.00    -0.185 C  
HETATM   12  C   UNL     1     -11.482  11.351  69.196  1.00  0.00    -0.365 C  
HETATM   13  O   UNL     1     -10.630  13.096  66.309  1.00  0.00    -0.278 OA 
HETATM   14  C   UNL     1     -11.083   8.846  69.699  1.00  0.00    -0.056 C  
HETATM   15  C   UNL     1      -9.169  10.559  69.547  1.00  0.00    -0.072 C  
HETATM   16  C   UNL     1     -11.656   9.182  71.257  1.00  0.00    -0.401 C  
HETATM   17  C   UNL     1     -10.536  10.140  68.974  1.00  0.00    -0.245 C  
HETATM   18  C   UNL     1     -12.708  10.296  71.165  1.00  0.00    -0.502 C  
HETATM   19  C   UNL     1     -10.352   9.798  67.446  1.00  0.00    -0.297 C  
HETATM   20  C   UNL     1     -12.108  11.560  70.559  1.00  0.00    -0.472 C  
ENDROOT
BRANCH   4  21
HETATM   21  O   UNL     1      -9.249   6.407  72.053  1.00  0.00    -0.148 OA 
BRANCH  21  22
HETATM   22  C   UNL     1      -8.175   6.910  72.719  1.00  0.00    -0.108 C  
HETATM   23  O   UNL     1      -7.786   6.520  73.806  1.00  0.00    -0.088 OA 
BRANCH  22  24
HETATM   24  C   UNL     1      -7.589   8.072  71.917  1.00  0.00    -0.101 C  
BRANCH  24  25
HETATM   25  C   UNL     1      -6.566   7.687  70.845  1.00  0.00    -0.038 C  
BRANCH  25  26
HETATM   26  C   UNL     1      -5.896   8.855  70.112  1.00  0.00    -0.030 C  
BRANCH  26  27
HETATM   27  C   UNL     1      -5.936   8.742  68.587  1.00  0.00    -0.045 C  
BRANCH  27  28
HETATM   28  C   UNL     1      -7.031   7.772  68.134  1.00  0.00    -0.079 C  
HETATM   29  C   UNL     1      -7.284   7.870  66.637  1.00  0.00    -0.084 C  
ENDBRANCH  27  28
ENDBRANCH  26  27
ENDBRANCH  25  26
ENDBRANCH  24  25
ENDBRANCH  22  24
ENDBRANCH  21  22
ENDBRANCH   4  21
TORSDOF 7
ENDMDL
MODEL       39
REMARK 921   NORMALIZED FREE ENERGY PREDICTED BY IDOCK:   -4.73 KCAL/MOL
REMARK 922        TOTAL FREE ENERGY PREDICTED BY IDOCK:   -8.81 KCAL/MOL
REMARK 923 INTER-LIGAND FREE ENERGY PREDICTED BY IDOCK:   -7.87 KCAL/MOL
REMARK 924 INTRA-LIGAND FREE ENERGY PREDICTED BY IDOCK:   -0.94 KCAL/MOL
REMARK 927      BINDING AFFINITY PREDICTED BY RF-SCORE:    0.00 PKD
ROOT
HETATM    1  C   UNL     1      -9.168  11.213  65.301  1.00  0.00    -0.218 C  
HETATM    2  C   UNL     1     -10.045  10.473  64.456  1.00  0.00    -0.402 C  
HETATM    3  C   UNL     1     -10.842  10.988  65.613  1.00  0.00    -0.160 C  
HETATM    4  C   UNL     1      -9.800  12.250  66.836  1.00  0.00    -0.209 C  
HETATM    5  C   UNL     1      -9.982   6.260  70.150  1.00  0.00    -0.172 C  
HETATM    6  C   UNL     1     -10.399  12.596  65.647  1.00  0.00    -0.293 C  
HETATM    7  C   UNL     1     -11.828  12.348  66.895  1.00  0.00    -0.377 C  
HETATM    8  C   UNL     1      -8.949   6.510  69.131  1.00  0.00    -0.130 C  
HETATM    9  C   UNL     1     -10.369  13.804  64.766  1.00  0.00    -0.422 C  
HETATM   10  C   UNL     1     -11.307   6.887  69.865  1.00  0.00    -0.321 C  
HETATM   11  C   UNL     1     -11.355  11.087  68.110  1.00  0.00    -0.374 C  
HETATM   12  C   UNL     1      -8.903   7.722  68.548  1.00  0.00    -0.130 C  
HETATM   13  O   UNL     1      -9.765   5.526  71.106  1.00  0.00    -0.164 OA 
HETATM   14  C   UNL     1     -10.212   9.804  67.750  1.00  0.00    -0.254 C  
HETATM   15  C   UNL     1      -9.029   9.693  70.032  1.00  0.00    -0.266 C  
HETATM   16  C   UNL     1      -8.886  10.116  66.745  1.00  0.00    -0.143 C  
HETATM   17  C   UNL     1      -9.824   8.894  68.983  1.00  0.00    -0.182 C  
HETATM   18  C   UNL     1      -8.266   8.779  66.318  1.00  0.00    -0.115 C  
HETATM   19  C   UNL     1     -11.160   8.387  69.651  1.00  0.00    -0.011 C  
HETATM   20  C   UNL     1      -7.808   7.980  67.535  1.00  0.00    -0.118 C  
ENDROOT
BRANCH   4  21
HETATM   21  O   UNL     1     -10.029  13.637  67.393  1.00  0.00    -0.229 OA 
BRANCH  21  22
HETATM   22  C   UNL     1      -9.240  14.187  68.355  1.00  0.00    -0.203 C  
HETATM   23  O   UNL     1      -8.060  13.925  68.520  1.00  0.00    -0.140 OA 
BRANCH  22  24
HETATM   24  C   UNL     1     -10.084  15.122  69.220  1.00  0.00    -0.246 C  
BRANCH  24  25
HETATM   25  C   UNL     1     -11.451  14.579  69.644  1.00  0.00    -0.332 C  
BRANCH  25  26
HETATM   26  C   UNL     1     -12.364  15.569  70.376  1.00  0.00    -0.451 C  
BRANCH  26  27
HETATM   27  C   UNL     1     -11.865  15.970  71.766  1.00  0.00    -0.599 C  
BRANCH  27  28
HETATM   28  C   UNL     1     -12.903  15.637  72.842  1.00  0.00    -0.576 C  
HETATM   29  C   UNL     1     -13.422  14.215  72.700  1.00  0.00    -0.634 C  
ENDBRANCH  27  28
ENDBRANCH  26  27
ENDBRANCH  25  26
ENDBRANCH  24  25
ENDBRANCH  22  24
ENDBRANCH  21  22
ENDBRANCH   4  21
TORSDOF 7
ENDMDL
MODEL       40
REMARK 921   NORMALIZED FREE ENERGY PREDICTED BY IDOCK:   -4.69 KCAL/MOL
REMARK 922        TOTAL FREE ENERGY PREDICTED BY IDOCK:   -8.76 KCAL/MOL
REMARK 923 INTER-LIGAND FREE ENERGY PREDICTED BY IDOCK:   -7.12 KCAL/MOL
REMARK 924 INTRA-LIGAND FREE ENERGY PREDICTED BY IDOCK:   -1.64 KCAL/MOL
REMARK 927      BINDING AFFINITY PREDICTED BY RF-SCORE:    0.00 PKD
ROOT
HETATM    1  C   UNL     1      -7.115  13.382  67.314  1.00  0.00     0.004 C  
HETATM    2  C   UNL     1      -6.419  13.523  68.549  1.00  0.00    -0.090 C  
HETATM    3  C   UNL     1      -7.312  12.327  68.655  1.00  0.00    -0.106 C  
HETATM    4  C   UNL     1      -8.245  11.838  66.903  1.00  0.00    -0.166 C  
HETATM    5  C   UNL     1     -13.015  14.984  70.679  1.00  0.00    -0.345 C  
HETATM    6  C   UNL     1      -6.956  11.507  67.246  1.00  0.00    -0.125 C  
HETATM    7  C   UNL     1      -8.080  10.387  68.316  1.00  0.00    -0.113 C  
HETATM    8  C   UNL     1     -12.071  15.775  69.872  1.00  0.00    -0.315 C  
HETATM    9  C   UNL     1      -5.790  10.923  66.514  1.00  0.00    -0.106 C  
HETATM   10  C   UNL     1     -12.445  13.734  71.260  1.00  0.00    -0.428 C  
HETATM   11  C   UNL     1      -9.630  11.259  68.677  1.00  0.00    -0.195 C  
HETATM   12  C   UNL     1     -11.191  15.122  69.090  1.00  0.00    -0.288 C  
HETATM   13  O   UNL     1     -14.149  15.388  70.902  1.00  0.00    -0.422 OA 
HETATM   14  C   UNL     1      -9.740  13.010  68.743  1.00  0.00     0.049 C  
HETATM   15  C   UNL     1     -12.071  13.288  67.689  1.00  0.00    -0.295 C  
HETATM   16  C   UNL     1      -8.821  13.952  67.677  1.00  0.00    -0.191 C  
HETATM   17  C   UNL     1     -11.204  13.578  68.928  1.00  0.00    -0.316 C  
HETATM   18  C   UNL     1      -8.831  15.405  68.171  1.00  0.00    -0.170 C  
HETATM   19  C   UNL     1     -11.851  12.852  70.170  1.00  0.00    -0.319 C  
HETATM   20  C   UNL     1     -10.256  15.947  68.232  1.00  0.00    -0.227 C  
ENDROOT
BRANCH   4  21
HETATM   21  O   UNL     1      -8.385  10.580  66.076  1.00  0.00    -0.146 OA 
BRANCH  21  22
HETATM   22  C   UNL     1      -9.453  10.341  65.269  1.00  0.00    -0.240 C  
HETATM   23  O   UNL     1     -10.493   9.815  65.630  1.00  0.00    -0.106 OA 
BRANCH  22  24
HETATM   24  C   UNL     1      -9.111  10.774  63.844  1.00  0.00    -0.207 C  
BRANCH  24  25
HETATM   25  C   UNL     1     -10.040  11.823  63.229  1.00  0.00    -0.448 C  
BRANCH  25  26
HETATM   26  C   UNL     1     -10.491  12.948  64.168  1.00  0.00    -0.429 C  
BRANCH  26  27
HETATM   27  C   UNL     1     -11.964  13.335  64.020  1.00  0.00    -0.525 C  
BRANCH  27  28
HETATM   28  C   UNL     1     -12.171  14.829  64.287  1.00  0.00    -0.402 C  
HETATM   29  C   UNL     1     -10.929  15.471  64.885  1.00  0.00    -0.452 C  
ENDBRANCH  27  28
ENDBRANCH  26  27
ENDBRANCH  25  26
ENDBRANCH  24  25
ENDBRANCH  22  24
ENDBRANCH  21  22
ENDBRANCH   4  21
TORSDOF 7
ENDMDL
MODEL       41
REMARK 921   NORMALIZED FREE ENERGY PREDICTED BY IDOCK:   -4.67 KCAL/MOL
REMARK 922        TOTAL FREE ENERGY PREDICTED BY IDOCK:   -8.73 KCAL/MOL
REMARK 923 INTER-LIGAND FREE ENERGY PREDICTED BY IDOCK:   -7.37 KCAL/MOL
REMARK 924 INTRA-LIGAND FREE ENERGY PREDICTED BY IDOCK:   -1.37 KCAL/MOL
REMARK 927      BINDING AFFINITY PREDICTED BY RF-SCORE:    0.00 PKD
ROOT
HETATM    1  C   UNL     1     -10.569  13.072  68.776  1.00  0.00    -0.218 C  
HETATM    2  C   UNL     1     -11.819  13.477  69.327  1.00  0.00    -0.392 C  
HETATM    3  C   UNL     1     -11.876  13.687  67.847  1.00  0.00    -0.402 C  
HETATM    4  C   UNL     1     -10.242  12.971  66.849  1.00  0.00    -0.244 C  
HETATM    5  C   UNL     1      -9.339  19.752  67.173  1.00  0.00    -0.351 C  
HETATM    6  C   UNL     1     -11.317  12.224  67.270  1.00  0.00    -0.392 C  
HETATM    7  C   UNL     1     -11.948  13.247  65.781  1.00  0.00    -0.463 C  
HETATM    8  C   UNL     1      -8.934  18.898  68.302  1.00  0.00    -0.364 C  
HETATM    9  C   UNL     1     -11.611  10.761  67.357  1.00  0.00     0.070 C  
HETATM   10  C   UNL     1     -10.559  19.292  66.446  1.00  0.00    -0.542 C  
HETATM   11  C   UNL     1     -11.059  14.827  65.715  1.00  0.00    -0.338 C  
HETATM   12  C   UNL     1      -9.064  17.564  68.176  1.00  0.00    -0.277 C  
HETATM   13  O   UNL     1      -8.747  20.794  66.924  1.00  0.00    -0.171 OA 
HETATM   14  C   UNL     1     -10.383  15.595  67.141  1.00  0.00    -0.285 C  
HETATM   15  C   UNL     1      -8.235  16.541  66.086  1.00  0.00    -0.279 C  
HETATM   16  C   UNL     1      -9.713  14.644  68.372  1.00  0.00    -0.217 C  
HETATM   17  C   UNL     1      -9.523  16.891  66.855  1.00  0.00    -0.261 C  
HETATM   18  C   UNL     1      -9.526  15.516  69.621  1.00  0.00    -0.244 C  
HETATM   19  C   UNL     1     -10.390  17.858  65.960  1.00  0.00    -0.318 C  
HETATM   20  C   UNL     1      -8.604  16.694  69.327  1.00  0.00    -0.016 C  
ENDROOT
BRANCH   4  21
HETATM   21  O   UNL     1     -10.023  12.052  65.669  1.00  0.00    -0.237 OA 
BRANCH  21  22
HETATM   22  C   UNL     1      -8.932  11.247  65.551  1.00  0.00    -0.129 C  
HETATM   23  O   UNL     1      -8.778  10.408  64.680  1.00  0.00    -0.174 OA 
BRANCH  22  24
HETATM   24  C   UNL     1      -7.980  11.522  66.715  1.00  0.00    -0.152 C  
BRANCH  24  25
HETATM   25  C   UNL     1      -7.236  10.303  67.264  1.00  0.00    -0.089 C  
BRANCH  25  26
HETATM   26  C   UNL     1      -8.057   9.367  68.160  1.00  0.00    -0.110 C  
BRANCH  26  27
HETATM   27  C   UNL     1      -8.546  10.012  69.458  1.00  0.00    -0.197 C  
BRANCH  27  28
HETATM   28  C   UNL     1      -9.719   9.229  70.055  1.00  0.00    -0.234 C  
HETATM   29  C   UNL     1     -10.807  10.157  70.574  1.00  0.00    -0.340 C  
ENDBRANCH  27  28
ENDBRANCH  26  27
ENDBRANCH  25  26
ENDBRANCH  24  25
ENDBRANCH  22  24
ENDBRANCH  21  22
ENDBRANCH   4  21
TORSDOF 7
ENDMDL
MODEL       42
REMARK 921   NORMALIZED FREE ENERGY PREDICTED BY IDOCK:   -4.65 KCAL/MOL
REMARK 922        TOTAL FREE ENERGY PREDICTED BY IDOCK:   -8.71 KCAL/MOL
REMARK 923 INTER-LIGAND FREE ENERGY PREDICTED BY IDOCK:   -7.11 KCAL/MOL
REMARK 924 INTRA-LIGAND FREE ENERGY PREDICTED BY IDOCK:   -1.60 KCAL/MOL
REMARK 927      BINDING AFFINITY PREDICTED BY RF-SCORE:    0.00 PKD
ROOT
HETATM    1  C   UNL     1      -6.051  12.234  68.035  1.00  0.00    -0.070 C  
HETATM    2  C   UNL     1      -5.993  12.349  69.455  1.00  0.00    -0.100 C  
HETATM    3  C   UNL     1      -7.384  11.943  69.079  1.00  0.00    -0.038 C  
HETATM    4  C   UNL     1      -7.612  11.527  67.091  1.00  0.00    -0.149 C  
HETATM    5  C   UNL     1     -10.309  17.762  67.958  1.00  0.00    -0.393 C  
HETATM    6  C   UNL     1      -7.101  10.671  68.038  1.00  0.00    -0.085 C  
HETATM    7  C   UNL     1      -8.983  10.753  68.376  1.00  0.00    -0.153 C  
HETATM    8  C   UNL     1      -8.860  17.606  67.750  1.00  0.00    -0.240 C  
HETATM    9  C   UNL     1      -6.401   9.350  67.992  1.00  0.00    -0.057 C  
HETATM   10  C   UNL     1     -10.952  16.661  68.734  1.00  0.00    -0.309 C  
HETATM   11  C   UNL     1      -9.608  12.391  67.911  1.00  0.00    -0.205 C  
HETATM   12  C   UNL     1      -8.374  16.372  67.516  1.00  0.00    -0.176 C  
HETATM   13  O   UNL     1     -10.898  18.766  67.579  1.00  0.00    -0.435 OA 
HETATM   14  C   UNL     1      -8.602  13.830  67.930  1.00  0.00    -0.183 C  
HETATM   15  C   UNL     1      -9.557  14.993  65.842  1.00  0.00    -0.356 C  
HETATM   16  C   UNL     1      -6.971  13.724  67.489  1.00  0.00    -0.161 C  
HETATM   17  C   UNL     1      -9.292  15.131  67.354  1.00  0.00    -0.200 C  
HETATM   18  C   UNL     1      -6.259  15.012  67.925  1.00  0.00    -0.174 C  
HETATM   19  C   UNL     1     -10.677  15.311  68.087  1.00  0.00    -0.257 C  
HETATM   20  C   UNL     1      -6.889  16.232  67.261  1.00  0.00    -0.230 C  
ENDROOT
BRANCH   4  21
HETATM   21  O   UNL     1      -8.168  10.368  66.294  1.00  0.00    -0.133 OA 
BRANCH  21  22
HETATM   22  C   UNL     1      -7.816  10.123  65.003  1.00  0.00    -0.140 C  
HETATM   23  O   UNL     1      -6.698  10.287  64.544  1.00  0.00    -0.128 OA 
BRANCH  22  24
HETATM   24  C   UNL     1      -9.053   9.680  64.223  1.00  0.00    -0.267 C  
BRANCH  24  25
HETATM   25  C   UNL     1     -10.274  10.596  64.340  1.00  0.00    -0.400 C  
BRANCH  25  26
HETATM   26  C   UNL     1     -10.166  11.946  63.621  1.00  0.00    -0.466 C  
BRANCH  26  27
HETATM   27  C   UNL     1     -11.473  12.740  63.582  1.00  0.00    -0.544 C  
BRANCH  27  28
HETATM   28  C   UNL     1     -12.234  12.616  64.905  1.00  0.00    -0.531 C  
HETATM   29  C   UNL     1     -12.748  13.964  65.386  1.00  0.00    -0.525 C  
ENDBRANCH  27  28
ENDBRANCH  26  27
ENDBRANCH  25  26
ENDBRANCH  24  25
ENDBRANCH  22  24
ENDBRANCH  21  22
ENDBRANCH   4  21
TORSDOF 7
ENDMDL
MODEL       43
REMARK 921   NORMALIZED FREE ENERGY PREDICTED BY IDOCK:   -4.62 KCAL/MOL
REMARK 922        TOTAL FREE ENERGY PREDICTED BY IDOCK:   -8.66 KCAL/MOL
REMARK 923 INTER-LIGAND FREE ENERGY PREDICTED BY IDOCK:   -6.64 KCAL/MOL
REMARK 924 INTRA-LIGAND FREE ENERGY PREDICTED BY IDOCK:   -2.02 KCAL/MOL
REMARK 927      BINDING AFFINITY PREDICTED BY RF-SCORE:    0.00 PKD
ROOT
HETATM    1  C   UNL     1     -10.722  12.695  65.466  1.00  0.00    -0.303 C  
HETATM    2  C   UNL     1     -12.087  12.408  65.173  1.00  0.00    -0.464 C  
HETATM    3  C   UNL     1     -12.017  12.951  66.565  1.00  0.00    -0.447 C  
HETATM    4  C   UNL     1     -10.159  13.616  67.098  1.00  0.00    -0.245 C  
HETATM    5  C   UNL     1     -10.848   7.525  70.151  1.00  0.00    -0.249 C  
HETATM    6  C   UNL     1     -11.080  14.316  66.355  1.00  0.00    -0.325 C  
HETATM    7  C   UNL     1     -11.747  14.325  68.149  1.00  0.00    -0.385 C  
HETATM    8  C   UNL     1     -10.396   7.603  68.752  1.00  0.00    -0.218 C  
HETATM    9  C   UNL     1     -11.045  15.581  65.558  1.00  0.00    -0.265 C  
HETATM   10  C   UNL     1     -11.840   8.567  70.548  1.00  0.00    -0.022 C  
HETATM   11  C   UNL     1     -11.234  12.801  68.990  1.00  0.00    -0.317 C  
HETATM   12  C   UNL     1     -10.208   8.819  68.206  1.00  0.00    -0.240 C  
HETATM   13  O   UNL     1     -10.481   6.615  70.885  1.00  0.00    -0.210 OA 
HETATM   14  C   UNL     1     -10.920  11.303  68.129  1.00  0.00    -0.284 C  
HETATM   15  C   UNL     1      -8.932  10.466  69.533  1.00  0.00    -0.127 C  
HETATM   16  C   UNL     1     -10.201  11.347  66.597  1.00  0.00    -0.258 C  
HETATM   17  C   UNL     1     -10.346  10.131  69.023  1.00  0.00    -0.230 C  
HETATM   18  C   UNL     1     -10.362   9.971  65.938  1.00  0.00    -0.202 C  
HETATM   19  C   UNL     1     -11.298   9.963  70.269  1.00  0.00    -0.357 C  
HETATM   20  C   UNL     1      -9.701   8.885  66.781  1.00  0.00    -0.282 C  
ENDROOT
BRANCH   4  21
HETATM   21  O   UNL     1      -9.602  14.897  67.677  1.00  0.00    -0.199 OA 
BRANCH  21  22
HETATM   22  C   UNL     1      -8.401  14.960  68.312  1.00  0.00    -0.148 C  
HETATM   23  O   UNL     1      -8.203  15.534  69.370  1.00  0.00    -0.239 OA 
BRANCH  22  24
HETATM   24  C   UNL     1      -7.346  14.258  67.458  1.00  0.00    -0.199 C  
BRANCH  24  25
HETATM   25  C   UNL     1      -6.752  12.980  68.056  1.00  0.00    -0.114 C  
BRANCH  25  26
HETATM   26  C   UNL     1      -6.633  11.788  67.099  1.00  0.00    -0.143 C  
BRANCH  26  27
HETATM   27  C   UNL     1      -5.873  10.594  67.679  1.00  0.00    -0.044 C  
BRANCH  27  28
HETATM   28  C   UNL     1      -5.547   9.567  66.591  1.00  0.00    -0.046 C  
HETATM   29  C   UNL     1      -6.422   9.752  65.361  1.00  0.00    -0.083 C  
ENDBRANCH  27  28
ENDBRANCH  26  27
ENDBRANCH  25  26
ENDBRANCH  24  25
ENDBRANCH  22  24
ENDBRANCH  21  22
ENDBRANCH   4  21
TORSDOF 7
ENDMDL
MODEL       44
REMARK 921   NORMALIZED FREE ENERGY PREDICTED BY IDOCK:   -4.62 KCAL/MOL
REMARK 922        TOTAL FREE ENERGY PREDICTED BY IDOCK:   -8.66 KCAL/MOL
REMARK 923 INTER-LIGAND FREE ENERGY PREDICTED BY IDOCK:   -7.21 KCAL/MOL
REMARK 924 INTRA-LIGAND FREE ENERGY PREDICTED BY IDOCK:   -1.45 KCAL/MOL
REMARK 927      BINDING AFFINITY PREDICTED BY RF-SCORE:    0.00 PKD
ROOT
HETATM    1  C   UNL     1     -11.168   6.820  69.193  1.00  0.00    -0.236 C  
HETATM    2  C   UNL     1     -10.287   5.700  69.226  1.00  0.00    -0.340 C  
HETATM    3  C   UNL     1      -9.798   6.704  70.221  1.00  0.00    -0.188 C  
HETATM    4  C   UNL     1     -11.051   8.300  70.468  1.00  0.00    -0.249 C  
HETATM    5  C   UNL     1      -5.943  10.601  66.530  1.00  0.00    -0.086 C  
HETATM    6  C   UNL     1     -11.193   7.067  71.060  1.00  0.00    -0.309 C  
HETATM    7  C   UNL     1      -9.727   7.906  71.959  1.00  0.00    -0.244 C  
HETATM    8  C   UNL     1      -7.081   9.892  65.923  1.00  0.00    -0.107 C  
HETATM    9  C   UNL     1     -12.275   6.397  71.846  1.00  0.00    -0.332 C  
HETATM   10  C   UNL     1      -5.550  10.111  67.884  1.00  0.00    -0.038 C  
HETATM   11  C   UNL     1      -8.863   9.006  70.804  1.00  0.00    -0.281 C  
HETATM   12  C   UNL     1      -8.099   9.513  66.719  1.00  0.00    -0.109 C  
HETATM   13  O   UNL     1      -5.335  11.467  65.913  1.00  0.00    -0.285 OA 
HETATM   14  C   UNL     1      -8.851   8.739  69.069  1.00  0.00    -0.137 C  
HETATM   15  C   UNL     1      -8.978  11.193  68.303  1.00  0.00    -0.166 C  
HETATM   16  C   UNL     1     -10.228   8.120  68.303  1.00  0.00    -0.245 C  
HETATM   17  C   UNL     1      -8.165   9.887  68.224  1.00  0.00    -0.109 C  
HETATM   18  C   UNL     1      -9.841   7.661  66.890  1.00  0.00    -0.304 C  
HETATM   19  C   UNL     1      -6.737  10.152  68.838  1.00  0.00    -0.053 C  
HETATM   20  C   UNL     1      -9.284   8.824  66.076  1.00  0.00    -0.282 C  
ENDROOT
BRANCH   4  21
HETATM   21  O   UNL     1     -11.702   8.980  71.651  1.00  0.00    -0.311 OA 
BRANCH  21  22
HETATM   22  C   UNL     1     -12.625   9.970  71.518  1.00  0.00    -0.425 C  
HETATM   23  O   UNL     1     -13.549  10.168  72.289  1.00  0.00    -0.355 OA 
BRANCH  22  24
HETATM   24  C   UNL     1     -12.354  10.737  70.224  1.00  0.00    -0.423 C  
BRANCH  24  25
HETATM   25  C   UNL     1     -11.917  12.193  70.397  1.00  0.00    -0.360 C  
BRANCH  25  26
HETATM   26  C   UNL     1     -11.963  13.059  69.132  1.00  0.00    -0.320 C  
BRANCH  26  27
HETATM   27  C   UNL     1     -11.850  14.561  69.396  1.00  0.00    -0.367 C  
BRANCH  27  28
HETATM   28  C   UNL     1     -11.760  15.347  68.085  1.00  0.00    -0.276 C  
HETATM   29  C   UNL     1     -10.316  15.627  67.697  1.00  0.00    -0.275 C  
ENDBRANCH  27  28
ENDBRANCH  26  27
ENDBRANCH  25  26
ENDBRANCH  24  25
ENDBRANCH  22  24
ENDBRANCH  21  22
ENDBRANCH   4  21
TORSDOF 7
ENDMDL
MODEL       45
REMARK 921   NORMALIZED FREE ENERGY PREDICTED BY IDOCK:   -4.58 KCAL/MOL
REMARK 922        TOTAL FREE ENERGY PREDICTED BY IDOCK:   -8.61 KCAL/MOL
REMARK 923 INTER-LIGAND FREE ENERGY PREDICTED BY IDOCK:   -7.83 KCAL/MOL
REMARK 924 INTRA-LIGAND FREE ENERGY PREDICTED BY IDOCK:   -0.78 KCAL/MOL
REMARK 927      BINDING AFFINITY PREDICTED BY RF-SCORE:    0.00 PKD
ROOT
HETATM    1  C   UNL     1      -8.137  10.327  69.882  1.00  0.00    -0.071 C  
HETATM    2  C   UNL     1      -7.244   9.888  68.862  1.00  0.00    -0.076 C  
HETATM    3  C   UNL     1      -8.630   9.487  68.468  1.00  0.00    -0.119 C  
HETATM    4  C   UNL     1     -10.083  10.210  69.710  1.00  0.00    -0.231 C  
HETATM    5  C   UNL     1      -9.319   3.631  71.454  1.00  0.00    -0.141 C  
HETATM    6  C   UNL     1      -9.476  10.907  68.692  1.00  0.00    -0.192 C  
HETATM    7  C   UNL     1     -10.641   9.651  67.837  1.00  0.00    -0.308 C  
HETATM    8  C   UNL     1      -8.425   4.655  72.021  1.00  0.00    -0.119 C  
HETATM    9  C   UNL     1      -9.465  12.338  68.258  1.00  0.00    -0.209 C  
HETATM   10  C   UNL     1      -9.748   3.886  70.047  1.00  0.00    -0.242 C  
HETATM   11  C   UNL     1     -10.774   8.159  68.861  1.00  0.00    -0.090 C  
HETATM   12  C   UNL     1      -8.647   5.945  71.708  1.00  0.00    -0.131 C  
HETATM   13  O   UNL     1      -9.605   2.621  72.084  1.00  0.00    -0.104 OA 
HETATM   14  C   UNL     1      -9.500   7.642  69.954  1.00  0.00    -0.160 C  
HETATM   15  C   UNL     1     -10.973   6.761  71.871  1.00  0.00    -0.270 C  
HETATM   16  C   UNL     1      -8.588   8.797  70.790  1.00  0.00    -0.218 C  
HETATM   17  C   UNL     1      -9.866   6.401  70.862  1.00  0.00    -0.204 C  
HETATM   18  C   UNL     1      -7.347   8.112  71.380  1.00  0.00    -0.076 C  
HETATM   19  C   UNL     1     -10.403   5.255  69.921  1.00  0.00    -0.374 C  
HETATM   20  C   UNL     1      -7.749   6.991  72.333  1.00  0.00    -0.094 C  
ENDROOT
BRANCH   4  21
HETATM   21  O   UNL     1     -11.367  10.986  69.522  1.00  0.00    -0.239 OA 
BRANCH  21  22
HETATM   22  C   UNL     1     -12.339  11.048  70.471  1.00  0.00    -0.373 C  
HETATM   23  O   UNL     1     -12.949  10.086  70.905  1.00  0.00    -0.356 OA 
BRANCH  22  24
HETATM   24  C   UNL     1     -12.578  12.510  70.848  1.00  0.00    -0.331 C  
BRANCH  24  25
HETATM   25  C   UNL     1     -13.403  12.741  72.117  1.00  0.00    -0.593 C  
BRANCH  25  26
HETATM   26  C   UNL     1     -13.916  14.170  72.328  1.00  0.00    -0.646 C  
BRANCH  26  27
HETATM   27  C   UNL     1     -13.047  15.249  71.681  1.00  0.00    -0.507 C  
BRANCH  27  28
HETATM   28  C   UNL     1     -11.963  15.737  72.647  1.00  0.00    -0.597 C  
HETATM   29  C   UNL     1     -12.511  15.940  74.050  1.00  0.00    -0.764 C  
ENDBRANCH  27  28
ENDBRANCH  26  27
ENDBRANCH  25  26
ENDBRANCH  24  25
ENDBRANCH  22  24
ENDBRANCH  21  22
ENDBRANCH   4  21
TORSDOF 7
ENDMDL
MODEL       46
REMARK 921   NORMALIZED FREE ENERGY PREDICTED BY IDOCK:   -4.58 KCAL/MOL
REMARK 922        TOTAL FREE ENERGY PREDICTED BY IDOCK:   -8.61 KCAL/MOL
REMARK 923 INTER-LIGAND FREE ENERGY PREDICTED BY IDOCK:   -7.44 KCAL/MOL
REMARK 924 INTRA-LIGAND FREE ENERGY PREDICTED BY IDOCK:   -1.17 KCAL/MOL
REMARK 927      BINDING AFFINITY PREDICTED BY RF-SCORE:    0.00 PKD
ROOT
HETATM    1  C   UNL     1     -10.361  10.365  65.315  1.00  0.00    -0.267 C  
HETATM    2  C   UNL     1      -9.205  10.417  64.483  1.00  0.00    -0.287 C  
HETATM    3  C   UNL     1      -8.822  10.915  65.841  1.00  0.00    -0.197 C  
HETATM    4  C   UNL     1     -10.301  10.725  67.238  1.00  0.00    -0.220 C  
HETATM    5  C   UNL     1     -10.318  17.342  65.471  1.00  0.00    -0.092 C  
HETATM    6  C   UNL     1      -9.446   9.728  66.832  1.00  0.00    -0.202 C  
HETATM    7  C   UNL     1      -8.392  10.907  67.910  1.00  0.00    -0.119 C  
HETATM    8  C   UNL     1     -11.056  16.358  64.660  1.00  0.00    -0.202 C  
HETATM    9  C   UNL     1      -9.378   8.249  67.047  1.00  0.00    -0.203 C  
HETATM   10  C   UNL     1      -9.051  16.832  66.072  1.00  0.00    -0.226 C  
HETATM   11  C   UNL     1      -9.026  12.599  67.747  1.00  0.00    -0.189 C  
HETATM   12  C   UNL     1     -11.086  15.078  65.075  1.00  0.00    -0.421 C  
HETATM   13  O   UNL     1     -10.699  18.502  65.560  1.00  0.00    -0.586 OA 
HETATM   14  C   UNL     1      -9.866  13.163  66.312  1.00  0.00    -0.284 C  
HETATM   15  C   UNL     1     -11.605  14.675  67.456  1.00  0.00    -0.396 C  
HETATM   16  C   UNL     1     -10.895  12.114  65.472  1.00  0.00    -0.324 C  
HETATM   17  C   UNL     1     -10.465  14.622  66.423  1.00  0.00    -0.296 C  
HETATM   18  C   UNL     1     -11.210  12.727  64.101  1.00  0.00    -0.435 C  
HETATM   19  C   UNL     1      -9.311  15.584  66.905  1.00  0.00    -0.252 C  
HETATM   20  C   UNL     1     -11.885  14.086  64.256  1.00  0.00    -0.435 C  
ENDROOT
BRANCH   4  21
HETATM   21  O   UNL     1     -10.400  10.124  68.622  1.00  0.00    -0.171 OA 
BRANCH  21  22
HETATM   22  C   UNL     1     -11.488  10.287  69.422  1.00  0.00    -0.186 C  
HETATM   23  O   UNL     1     -12.461  10.967  69.143  1.00  0.00    -0.432 OA 
BRANCH  22  24
HETATM   24  C   UNL     1     -11.259   9.539  70.735  1.00  0.00    -0.383 C  
BRANCH  24  25
HETATM   25  C   UNL     1     -10.356   8.306  70.646  1.00  0.00    -0.220 C  
BRANCH  25  26
HETATM   26  C   UNL     1      -8.996   8.423  71.344  1.00  0.00    -0.237 C  
BRANCH  26  27
HETATM   27  C   UNL     1      -7.864   7.675  70.638  1.00  0.00    -0.097 C  
BRANCH  27  28
HETATM   28  C   UNL     1      -6.577   8.505  70.628  1.00  0.00    -0.039 C  
HETATM   29  C   UNL     1      -6.256   9.028  69.237  1.00  0.00    -0.041 C  
ENDBRANCH  27  28
ENDBRANCH  26  27
ENDBRANCH  25  26
ENDBRANCH  24  25
ENDBRANCH  22  24
ENDBRANCH  21  22
ENDBRANCH   4  21
TORSDOF 7
ENDMDL
MODEL       47
REMARK 921   NORMALIZED FREE ENERGY PREDICTED BY IDOCK:   -4.58 KCAL/MOL
REMARK 922        TOTAL FREE ENERGY PREDICTED BY IDOCK:   -8.60 KCAL/MOL
REMARK 923 INTER-LIGAND FREE ENERGY PREDICTED BY IDOCK:   -7.06 KCAL/MOL
REMARK 924 INTRA-LIGAND FREE ENERGY PREDICTED BY IDOCK:   -1.55 KCAL/MOL
REMARK 927      BINDING AFFINITY PREDICTED BY RF-SCORE:    0.00 PKD
ROOT
HETATM    1  C   UNL     1     -11.809  10.374  71.481  1.00  0.00    -0.208 C  
HETATM    2  C   UNL     1     -13.147   9.956  71.228  1.00  0.00    -0.487 C  
HETATM    3  C   UNL     1     -12.255   9.278  70.237  1.00  0.00     0.236 C  
HETATM    4  C   UNL     1     -10.263   9.594  70.568  1.00  0.00    -0.287 C  
HETATM    5  C   UNL     1     -11.910  13.727  65.362  1.00  0.00    -0.358 C  
HETATM    6  C   UNL     1     -11.050   8.671  71.217  1.00  0.00    -0.336 C  
HETATM    7  C   UNL     1     -10.785   7.977  69.453  1.00  0.00    -0.167 C  
HETATM    8  C   UNL     1     -12.136  14.161  66.750  1.00  0.00    -0.474 C  
HETATM    9  C   UNL     1     -10.867   7.787  72.409  1.00  0.00    -0.359 C  
HETATM   10  C   UNL     1     -12.110  12.267  65.122  1.00  0.00    -0.379 C  
HETATM   11  C   UNL     1     -10.615   9.354  68.284  1.00  0.00    -0.256 C  
HETATM   12  C   UNL     1     -11.739  13.351  67.749  1.00  0.00    -0.394 C  
HETATM   13  O   UNL     1     -11.656  14.536  64.479  1.00  0.00    -0.395 OA 
HETATM   14  C   UNL     1     -11.345  10.927  68.557  1.00  0.00    -0.367 C  
HETATM   15  C   UNL     1      -9.467  12.395  67.590  1.00  0.00    -0.190 C  
HETATM   16  C   UNL     1     -11.431  11.554  70.127  1.00  0.00    -0.258 C  
HETATM   17  C   UNL     1     -10.960  12.032  67.494  1.00  0.00    -0.303 C  
HETATM   18  C   UNL     1     -12.405  12.740  70.131  1.00  0.00    -0.235 C  
HETATM   19  C   UNL     1     -11.238  11.441  66.059  1.00  0.00    -0.177 C  
HETATM   20  C   UNL     1     -11.937  13.829  69.172  1.00  0.00    -0.403 C  
ENDROOT
BRANCH   4  21
HETATM   21  O   UNL     1      -9.046   8.709  70.713  1.00  0.00    -0.151 OA 
BRANCH  21  22
HETATM   22  C   UNL     1      -7.800   9.199  70.954  1.00  0.00    -0.132 C  
HETATM   23  O   UNL     1      -7.135   8.951  71.945  1.00  0.00    -0.248 OA 
BRANCH  22  24
HETATM   24  C   UNL     1      -7.410  10.150  69.823  1.00  0.00    -0.159 C  
BRANCH  24  25
HETATM   25  C   UNL     1      -6.385  11.227  70.187  1.00  0.00    -0.120 C  
BRANCH  25  26
HETATM   26  C   UNL     1      -5.694  11.917  69.005  1.00  0.00    -0.053 C  
BRANCH  26  27
HETATM   27  C   UNL     1      -5.219  13.340  69.302  1.00  0.00    -0.074 C  
BRANCH  27  28
HETATM   28  C   UNL     1      -6.244  14.098  70.150  1.00  0.00    -0.151 C  
HETATM   29  C   UNL     1      -7.186  14.924  69.288  1.00  0.00    -0.172 C  
ENDBRANCH  27  28
ENDBRANCH  26  27
ENDBRANCH  25  26
ENDBRANCH  24  25
ENDBRANCH  22  24
ENDBRANCH  21  22
ENDBRANCH   4  21
TORSDOF 7
ENDMDL
MODEL       48
REMARK 921   NORMALIZED FREE ENERGY PREDICTED BY IDOCK:   -4.57 KCAL/MOL
REMARK 922        TOTAL FREE ENERGY PREDICTED BY IDOCK:   -8.59 KCAL/MOL
REMARK 923 INTER-LIGAND FREE ENERGY PREDICTED BY IDOCK:   -7.50 KCAL/MOL
REMARK 924 INTRA-LIGAND FREE ENERGY PREDICTED BY IDOCK:   -1.09 KCAL/MOL
REMARK 927      BINDING AFFINITY PREDICTED BY RF-SCORE:    0.00 PKD
ROOT
HETATM    1  C   UNL     1     -11.357   6.578  70.202  1.00  0.00    -0.463 C  
HETATM    2  C   UNL     1     -10.552   5.536  70.748  1.00  0.00    -0.320 C  
HETATM    3  C   UNL     1      -9.759   6.803  70.789  1.00  0.00    -0.187 C  
HETATM    4  C   UNL     1     -10.820   8.460  70.235  1.00  0.00    -0.239 C  
HETATM    5  C   UNL     1      -6.932   6.905  64.816  1.00  0.00    -0.051 C  
HETATM    6  C   UNL     1     -10.845   7.867  71.476  1.00  0.00    -0.268 C  
HETATM    7  C   UNL     1      -9.149   8.746  71.355  1.00  0.00    -0.313 C  
HETATM    8  C   UNL     1      -8.226   6.231  65.015  1.00  0.00    -0.132 C  
HETATM    9  C   UNL     1     -11.689   8.025  72.700  1.00  0.00    -0.418 C  
HETATM   10  C   UNL     1      -6.196   7.230  66.073  1.00  0.00    -0.041 C  
HETATM   11  C   UNL     1      -8.597   8.756  69.627  1.00  0.00    -0.130 C  
HETATM   12  C   UNL     1      -8.994   6.610  66.054  1.00  0.00    -0.131 C  
HETATM   13  O   UNL     1      -6.486   7.099  63.692  1.00  0.00    -0.043 OA 
HETATM   14  C   UNL     1      -9.087   7.531  68.468  1.00  0.00    -0.134 C  
HETATM   15  C   UNL     1      -9.316   9.035  66.393  1.00  0.00    -0.264 C  
HETATM   16  C   UNL     1     -10.649   6.883  68.537  1.00  0.00    -0.247 C  
HETATM   17  C   UNL     1      -8.617   7.795  66.982  1.00  0.00    -0.129 C  
HETATM   18  C   UNL     1     -10.696   5.618  67.670  1.00  0.00    -0.260 C  
HETATM   19  C   UNL     1      -7.063   8.065  67.006  1.00  0.00    -0.082 C  
HETATM   20  C   UNL     1     -10.341   5.939  66.222  1.00  0.00    -0.084 C  
ENDROOT
BRANCH   4  21
HETATM   21  O   UNL     1     -11.081   9.820  70.842  1.00  0.00    -0.308 OA 
BRANCH  21  22
HETATM   22  C   UNL     1     -11.900  10.741  70.266  1.00  0.00    -0.349 C  
HETATM   23  O   UNL     1     -13.102  10.818  70.457  1.00  0.00    -0.254 OA 
BRANCH  22  24
HETATM   24  C   UNL     1     -11.083  11.605  69.307  1.00  0.00    -0.291 C  
BRANCH  24  25
HETATM   25  C   UNL     1     -11.896  12.454  68.325  1.00  0.00    -0.364 C  
BRANCH  25  26
HETATM   26  C   UNL     1     -11.562  12.261  66.841  1.00  0.00    -0.427 C  
BRANCH  26  27
HETATM   27  C   UNL     1     -12.260  13.252  65.908  1.00  0.00    -0.497 C  
BRANCH  27  28
HETATM   28  C   UNL     1     -11.642  13.221  64.508  1.00  0.00    -0.407 C  
HETATM   29  C   UNL     1     -12.275  12.147  63.637  1.00  0.00    -0.663 C  
ENDBRANCH  27  28
ENDBRANCH  26  27
ENDBRANCH  25  26
ENDBRANCH  24  25
ENDBRANCH  22  24
ENDBRANCH  21  22
ENDBRANCH   4  21
TORSDOF 7
ENDMDL
MODEL       49
REMARK 921   NORMALIZED FREE ENERGY PREDICTED BY IDOCK:   -4.57 KCAL/MOL
REMARK 922        TOTAL FREE ENERGY PREDICTED BY IDOCK:   -8.59 KCAL/MOL
REMARK 923 INTER-LIGAND FREE ENERGY PREDICTED BY IDOCK:   -6.98 KCAL/MOL
REMARK 924 INTRA-LIGAND FREE ENERGY PREDICTED BY IDOCK:   -1.61 KCAL/MOL
REMARK 927      BINDING AFFINITY PREDICTED BY RF-SCORE:    0.00 PKD
ROOT
HETATM    1  C   UNL     1      -9.820   8.594  68.115  1.00  0.00    -0.192 C  
HETATM    2  C   UNL     1     -10.868   7.781  67.596  1.00  0.00    -0.149 C  
HETATM    3  C   UNL     1      -9.950   8.128  66.467  1.00  0.00    -0.302 C  
HETATM    4  C   UNL     1      -8.265   9.126  67.052  1.00  0.00    -0.116 C  
HETATM    5  C   UNL     1     -12.373  13.916  64.392  1.00  0.00    -0.361 C  
HETATM    6  C   UNL     1      -8.456   7.765  67.115  1.00  0.00    -0.124 C  
HETATM    7  C   UNL     1      -8.216   8.169  65.260  1.00  0.00    -0.150 C  
HETATM    8  C   UNL     1     -12.531  13.504  65.797  1.00  0.00    -0.514 C  
HETATM    9  C   UNL     1      -7.714   6.627  67.740  1.00  0.00    -0.107 C  
HETATM   10  C   UNL     1     -11.961  12.823  63.463  1.00  0.00    -0.633 C  
HETATM   11  C   UNL     1      -8.852   9.833  64.918  1.00  0.00    -0.230 C  
HETATM   12  C   UNL     1     -11.663  12.609  66.305  1.00  0.00    -0.460 C  
HETATM   13  O   UNL     1     -12.644  15.054  64.032  1.00  0.00    -0.817 OA 
HETATM   14  C   UNL     1     -10.133  10.571  65.865  1.00  0.00    -0.323 C  
HETATM   15  C   UNL     1      -9.262  12.993  65.867  1.00  0.00     0.152 C  
HETATM   16  C   UNL     1     -10.219  10.288  67.532  1.00  0.00    -0.254 C  
HETATM   17  C   UNL     1     -10.446  12.078  65.501  1.00  0.00    -0.307 C  
HETATM   18  C   UNL     1     -11.594  10.744  68.039  1.00  0.00    -0.245 C  
HETATM   19  C   UNL     1     -10.676  12.161  63.943  1.00  0.00    -0.456 C  
HETATM   20  C   UNL     1     -11.809  12.228  67.763  1.00  0.00    -0.341 C  
ENDROOT
BRANCH   4  21
HETATM   21  O   UNL     1      -6.779   8.941  66.838  1.00  0.00    -0.067 OA 
BRANCH  21  22
HETATM   22  C   UNL     1      -5.852   9.830  67.286  1.00  0.00    -0.051 C  
HETATM   23  O   UNL     1      -5.510  10.837  66.689  1.00  0.00    -0.051 OA 
BRANCH  22  24
HETATM   24  C   UNL     1      -5.275   9.327  68.608  1.00  0.00    -0.034 C  
BRANCH  24  25
HETATM   25  C   UNL     1      -5.732  10.080  69.860  1.00  0.00    -0.043 C  
BRANCH  25  26
HETATM   26  C   UNL     1      -7.173   9.815  70.310  1.00  0.00    -0.154 C  
BRANCH  26  27
HETATM   27  C   UNL     1      -7.352   8.522  71.109  1.00  0.00    -0.080 C  
BRANCH  27  28
HETATM   28  C   UNL     1      -8.796   8.368  71.594  1.00  0.00    -0.246 C  
HETATM   29  C   UNL     1      -8.861   8.110  73.091  1.00  0.00    -0.325 C  
ENDBRANCH  27  28
ENDBRANCH  26  27
ENDBRANCH  25  26
ENDBRANCH  24  25
ENDBRANCH  22  24
ENDBRANCH  21  22
ENDBRANCH   4  21
TORSDOF 7
ENDMDL
MODEL       50
REMARK 921   NORMALIZED FREE ENERGY PREDICTED BY IDOCK:   -4.57 KCAL/MOL
REMARK 922        TOTAL FREE ENERGY PREDICTED BY IDOCK:   -8.59 KCAL/MOL
REMARK 923 INTER-LIGAND FREE ENERGY PREDICTED BY IDOCK:   -6.70 KCAL/MOL
REMARK 924 INTRA-LIGAND FREE ENERGY PREDICTED BY IDOCK:   -1.88 KCAL/MOL
REMARK 927      BINDING AFFINITY PREDICTED BY RF-SCORE:    0.00 PKD
ROOT
HETATM    1  C   UNL     1     -10.811  13.172  69.082  1.00  0.00    -0.139 C  
HETATM    2  C   UNL     1     -12.090  13.626  69.514  1.00  0.00    -0.368 C  
HETATM    3  C   UNL     1     -12.051  13.707  68.021  1.00  0.00    -0.309 C  
HETATM    4  C   UNL     1     -10.362  12.904  67.196  1.00  0.00    -0.238 C  
HETATM    5  C   UNL     1      -9.428  19.685  66.989  1.00  0.00    -0.349 C  
HETATM    6  C   UNL     1     -11.468  12.199  67.610  1.00  0.00    -0.399 C  
HETATM    7  C   UNL     1     -11.995  13.090  66.000  1.00  0.00    -0.498 C  
HETATM    8  C   UNL     1      -9.103  18.931  68.212  1.00  0.00    -0.363 C  
HETATM    9  C   UNL     1     -11.779  10.749  67.804  1.00  0.00     0.021 C  
HETATM   10  C   UNL     1     -10.602  19.166  66.228  1.00  0.00    -0.521 C  
HETATM   11  C   UNL     1     -11.091  14.656  65.855  1.00  0.00    -0.338 C  
HETATM   12  C   UNL     1      -9.235  17.591  68.194  1.00  0.00    -0.277 C  
HETATM   13  O   UNL     1      -8.813  20.700  66.690  1.00  0.00    -0.127 OA 
HETATM   14  C   UNL     1     -10.501  15.543  67.250  1.00  0.00    -0.279 C  
HETATM   15  C   UNL     1      -8.283  16.389  66.257  1.00  0.00    -0.343 C  
HETATM   16  C   UNL     1      -9.918  14.702  68.599  1.00  0.00    -0.234 C  
HETATM   17  C   UNL     1      -9.615  16.807  66.909  1.00  0.00    -0.253 C  
HETATM   18  C   UNL     1      -9.805  15.678  69.777  1.00  0.00    -0.260 C  
HETATM   19  C   UNL     1     -10.414  17.696  65.880  1.00  0.00    -0.247 C  
HETATM   20  C   UNL     1      -8.856  16.824  69.443  1.00  0.00     0.168 C  
ENDROOT
BRANCH   4  21
HETATM   21  O   UNL     1     -10.076  11.885  66.116  1.00  0.00    -0.217 OA 
BRANCH  21  22
HETATM   22  C   UNL     1      -8.857  11.304  65.953  1.00  0.00    -0.169 C  
HETATM   23  O   UNL     1      -8.462  10.795  64.918  1.00  0.00    -0.150 OA 
BRANCH  22  24
HETATM   24  C   UNL     1      -8.105  11.337  67.284  1.00  0.00    -0.140 C  
BRANCH  24  25
HETATM   25  C   UNL     1      -6.718  11.983  67.245  1.00  0.00    -0.144 C  
BRANCH  25  26
HETATM   26  C   UNL     1      -6.658  13.461  67.648  1.00  0.00    -0.174 C  
BRANCH  26  27
HETATM   27  C   UNL     1      -5.278  13.926  68.116  1.00  0.00    -0.113 C  
BRANCH  27  28
HETATM   28  C   UNL     1      -5.378  15.226  68.920  1.00  0.00    -0.099 C  
HETATM   29  C   UNL     1      -5.849  14.972  70.343  1.00  0.00    -0.143 C  
ENDBRANCH  27  28
ENDBRANCH  26  27
ENDBRANCH  25  26
ENDBRANCH  24  25
ENDBRANCH  22  24
ENDBRANCH  21  22
ENDBRANCH   4  21
TORSDOF 7
ENDMDL
MODEL       51
REMARK 921   NORMALIZED FREE ENERGY PREDICTED BY IDOCK:   -4.56 KCAL/MOL
REMARK 922        TOTAL FREE ENERGY PREDICTED BY IDOCK:   -8.58 KCAL/MOL
REMARK 923 INTER-LIGAND FREE ENERGY PREDICTED BY IDOCK:   -6.40 KCAL/MOL
REMARK 924 INTRA-LIGAND FREE ENERGY PREDICTED BY IDOCK:   -2.18 KCAL/MOL
REMARK 927      BINDING AFFINITY PREDICTED BY RF-SCORE:    0.00 PKD
ROOT
HETATM    1  C   UNL     1      -8.123  10.529  69.035  1.00  0.00    -0.143 C  
HETATM    2  C   UNL     1      -7.219  10.539  67.933  1.00  0.00    -0.084 C  
HETATM    3  C   UNL     1      -8.603  10.349  67.396  1.00  0.00    -0.125 C  
HETATM    4  C   UNL     1     -10.067  10.512  68.812  1.00  0.00    -0.191 C  
HETATM    5  C   UNL     1      -9.358   3.791  67.706  1.00  0.00    -0.189 C  
HETATM    6  C   UNL     1      -9.444  11.560  68.176  1.00  0.00    -0.184 C  
HETATM    7  C   UNL     1     -10.605  10.777  66.871  1.00  0.00    -0.312 C  
HETATM    8  C   UNL     1      -8.466   4.482  68.652  1.00  0.00    -0.093 C  
HETATM    9  C   UNL     1      -9.420  13.043  68.369  1.00  0.00    -0.165 C  
HETATM   10  C   UNL     1      -9.769   4.605  66.525  1.00  0.00    -0.212 C  
HETATM   11  C   UNL     1     -10.758   8.998  67.190  1.00  0.00    -0.206 C  
HETATM   12  C   UNL     1      -8.678   5.789  68.895  1.00  0.00    -0.111 C  
HETATM   13  O   UNL     1      -9.657   2.614  67.864  1.00  0.00    -0.192 OA 
HETATM   14  C   UNL     1      -9.500   8.066  67.985  1.00  0.00    -0.157 C  
HETATM   15  C   UNL     1     -11.001   6.489  69.357  1.00  0.00    -0.395 C  
HETATM   16  C   UNL     1      -8.592   8.766  69.230  1.00  0.00    -0.130 C  
HETATM   17  C   UNL     1      -9.884   6.564  68.300  1.00  0.00    -0.132 C  
HETATM   18  C   UNL     1      -7.363   7.887  69.498  1.00  0.00    -0.087 C  
HETATM   19  C   UNL     1     -10.416   5.911  66.967  1.00  0.00    -0.341 C  
HETATM   20  C   UNL     1      -7.782   6.478  69.903  1.00  0.00    -0.109 C  
ENDROOT
BRANCH   4  21
HETATM   21  O   UNL     1     -11.344  11.310  68.948  1.00  0.00    -0.224 OA 
BRANCH  21  22
HETATM   22  C   UNL     1     -12.064  11.360  70.101  1.00  0.00    -0.357 C  
HETATM   23  O   UNL     1     -12.296  12.378  70.732  1.00  0.00    -0.377 OA 
BRANCH  22  24
HETATM   24  C   UNL     1     -12.470   9.942  70.500  1.00  0.00    -0.191 C  
BRANCH  24  25
HETATM   25  C   UNL     1     -12.084   9.517  71.919  1.00  0.00    -0.409 C  
BRANCH  25  26
HETATM   26  C   UNL     1     -10.814   8.667  72.039  1.00  0.00    -0.430 C  
BRANCH  26  27
HETATM   27  C   UNL     1     -10.919   7.523  73.049  1.00  0.00    -0.443 C  
BRANCH  27  28
HETATM   28  C   UNL     1      -9.754   6.541  72.893  1.00  0.00    -0.164 C  
HETATM   29  C   UNL     1     -10.234   5.166  72.454  1.00  0.00    -0.249 C  
ENDBRANCH  27  28
ENDBRANCH  26  27
ENDBRANCH  25  26
ENDBRANCH  24  25
ENDBRANCH  22  24
ENDBRANCH  21  22
ENDBRANCH   4  21
TORSDOF 7
ENDMDL
MODEL       52
REMARK 921   NORMALIZED FREE ENERGY PREDICTED BY IDOCK:   -4.52 KCAL/MOL
REMARK 922        TOTAL FREE ENERGY PREDICTED BY IDOCK:   -8.52 KCAL/MOL
REMARK 923 INTER-LIGAND FREE ENERGY PREDICTED BY IDOCK:   -6.27 KCAL/MOL
REMARK 924 INTRA-LIGAND FREE ENERGY PREDICTED BY IDOCK:   -2.25 KCAL/MOL
REMARK 927      BINDING AFFINITY PREDICTED BY RF-SCORE:    0.00 PKD
ROOT
HETATM    1  C   UNL     1      -9.491  17.244  66.012  1.00  0.00    -0.143 C  
HETATM    2  C   UNL     1     -10.749  17.733  65.556  1.00  0.00    -0.009 C  
HETATM    3  C   UNL     1     -10.477  18.335  66.898  1.00  0.00    -0.396 C  
HETATM    4  C   UNL     1      -8.617  17.912  67.630  1.00  0.00    -0.242 C  
HETATM    5  C   UNL     1     -12.884  13.765  71.020  1.00  0.00    -0.305 C  
HETATM    6  C   UNL     1      -8.916  18.893  66.715  1.00  0.00    -0.320 C  
HETATM    7  C   UNL     1      -9.580  19.530  68.393  1.00  0.00    -0.473 C  
HETATM    8  C   UNL     1     -12.373  13.376  69.695  1.00  0.00    -0.187 C  
HETATM    9  C   UNL     1      -8.107  19.792  65.835  1.00  0.00    -0.263 C  
HETATM   10  C   UNL     1     -13.124  15.227  71.193  1.00  0.00    -0.546 C  
HETATM   11  C   UNL     1     -10.094  18.120  69.412  1.00  0.00     0.060 C  
HETATM   12  C   UNL     1     -11.484  14.184  69.088  1.00  0.00    -0.338 C  
HETATM   13  O   UNL     1     -13.157  12.922  71.865  1.00  0.00    -0.399 OA 
HETATM   14  C   UNL     1     -10.636  16.599  68.722  1.00  0.00    -0.340 C  
HETATM   15  C   UNL     1      -9.591  15.002  70.448  1.00  0.00     0.663 C  
HETATM   16  C   UNL     1      -9.917  16.014  67.305  1.00  0.00    -0.242 C  
HETATM   17  C   UNL     1     -10.902  15.449  69.774  1.00  0.00    -0.297 C  
HETATM   18  C   UNL     1     -10.792  14.887  66.739  1.00  0.00    -0.320 C  
HETATM   19  C   UNL     1     -11.862  16.022  70.886  1.00  0.00    -0.409 C  
HETATM   20  C   UNL     1     -10.933  13.751  67.746  1.00  0.00    -0.272 C  
ENDROOT
BRANCH   4  21
HETATM   21  O   UNL     1      -7.469  18.727  68.181  1.00  0.00    -0.252 OA 
BRANCH  21  22
HETATM   22  C   UNL     1      -6.351  18.164  68.713  1.00  0.00    -0.216 C  
HETATM   23  O   UNL     1      -5.239  18.664  68.683  1.00  0.00    -0.182 OA 
BRANCH  22  24
HETATM   24  C   UNL     1      -6.707  16.793  69.287  1.00  0.00    -0.229 C  
BRANCH  24  25
HETATM   25  C   UNL     1      -5.958  15.605  68.677  1.00  0.00    -0.101 C  
BRANCH  25  26
HETATM   26  C   UNL     1      -6.664  14.898  67.514  1.00  0.00    -0.167 C  
BRANCH  26  27
HETATM   27  C   UNL     1      -6.612  13.371  67.586  1.00  0.00    -0.174 C  
BRANCH  27  28
HETATM   28  C   UNL     1      -7.264  12.856  68.873  1.00  0.00    -0.042 C  
HETATM   29  C   UNL     1      -8.023  11.559  68.639  1.00  0.00    -0.135 C  
ENDBRANCH  27  28
ENDBRANCH  26  27
ENDBRANCH  25  26
ENDBRANCH  24  25
ENDBRANCH  22  24
ENDBRANCH  21  22
ENDBRANCH   4  21
TORSDOF 7
ENDMDL
MODEL       53
REMARK 921   NORMALIZED FREE ENERGY PREDICTED BY IDOCK:   -4.51 KCAL/MOL
REMARK 922        TOTAL FREE ENERGY PREDICTED BY IDOCK:   -8.51 KCAL/MOL
REMARK 923 INTER-LIGAND FREE ENERGY PREDICTED BY IDOCK:   -7.69 KCAL/MOL
REMARK 924 INTRA-LIGAND FREE ENERGY PREDICTED BY IDOCK:   -0.82 KCAL/MOL
REMARK 927      BINDING AFFINITY PREDICTED BY RF-SCORE:    0.00 PKD
ROOT
HETATM    1  C   UNL     1      -7.743   9.580  66.582  1.00  0.00    -0.098 C  
HETATM    2  C   UNL     1      -6.652  10.220  65.926  1.00  0.00    -0.113 C  
HETATM    3  C   UNL     1      -7.095  11.099  67.052  1.00  0.00    -0.124 C  
HETATM    4  C   UNL     1      -8.525  10.256  68.244  1.00  0.00    -0.121 C  
HETATM    5  C   UNL     1     -11.883  14.691  64.251  1.00  0.00    -0.337 C  
HETATM    6  C   UNL     1      -7.173  10.020  68.322  1.00  0.00    -0.077 C  
HETATM    7  C   UNL     1      -7.433  11.781  69.024  1.00  0.00    -0.030 C  
HETATM    8  C   UNL     1     -11.591  13.333  63.763  1.00  0.00    -0.427 C  
HETATM    9  C   UNL     1      -6.317   9.036  69.054  1.00  0.00    -0.043 C  
HETATM   10  C   UNL     1     -10.835  15.278  65.136  1.00  0.00    -0.441 C  
HETATM   11  C   UNL     1      -8.850  12.556  68.198  1.00  0.00    -0.191 C  
HETATM   12  C   UNL     1     -10.989  12.467  64.600  1.00  0.00    -0.345 C  
HETATM   13  O   UNL     1     -12.880  15.297  63.877  1.00  0.00    -0.637 OA 
HETATM   14  C   UNL     1      -9.348  12.129  66.569  1.00  0.00    -0.229 C  
HETATM   15  C   UNL     1     -11.895  12.296  66.891  1.00  0.00    -0.334 C  
HETATM   16  C   UNL     1      -9.222  10.524  66.044  1.00  0.00    -0.205 C  
HETATM   17  C   UNL     1     -10.689  12.811  66.083  1.00  0.00    -0.297 C  
HETATM   18  C   UNL     1      -9.381  10.492  64.518  1.00  0.00    -0.299 C  
HETATM   19  C   UNL     1     -10.556  14.364  66.322  1.00  0.00    -0.292 C  
HETATM   20  C   UNL     1     -10.733  11.061  64.101  1.00  0.00    -0.344 C  
ENDROOT
BRANCH   4  21
HETATM   21  O   UNL     1      -8.685  10.025  69.730  1.00  0.00    -0.196 OA 
BRANCH  21  22
HETATM   22  C   UNL     1      -9.859   9.634  70.295  1.00  0.00    -0.266 C  
HETATM   23  O   UNL     1     -10.938  10.163  70.093  1.00  0.00    -0.273 OA 
BRANCH  22  24
HETATM   24  C   UNL     1      -9.588   8.479  71.260  1.00  0.00    -0.264 C  
BRANCH  24  25
HETATM   25  C   UNL     1     -10.477   8.436  72.506  1.00  0.00    -0.372 C  
BRANCH  25  26
HETATM   26  C   UNL     1     -11.635   7.432  72.465  1.00  0.00    -0.319 C  
BRANCH  26  27
HETATM   27  C   UNL     1     -11.245   6.047  71.947  1.00  0.00    -0.338 C  
BRANCH  27  28
HETATM   28  C   UNL     1     -11.510   4.969  73.002  1.00  0.00    -0.344 C  
HETATM   29  C   UNL     1     -10.444   4.968  74.086  1.00  0.00    -0.333 C  
ENDBRANCH  27  28
ENDBRANCH  26  27
ENDBRANCH  25  26
ENDBRANCH  24  25
ENDBRANCH  22  24
ENDBRANCH  21  22
ENDBRANCH   4  21
TORSDOF 7
ENDMDL
MODEL       54
REMARK 921   NORMALIZED FREE ENERGY PREDICTED BY IDOCK:   -4.50 KCAL/MOL
REMARK 922        TOTAL FREE ENERGY PREDICTED BY IDOCK:   -8.49 KCAL/MOL
REMARK 923 INTER-LIGAND FREE ENERGY PREDICTED BY IDOCK:   -7.10 KCAL/MOL
REMARK 924 INTRA-LIGAND FREE ENERGY PREDICTED BY IDOCK:   -1.39 KCAL/MOL
REMARK 927      BINDING AFFINITY PREDICTED BY RF-SCORE:    0.00 PKD
ROOT
HETATM    1  C   UNL     1     -12.335   8.218  72.271  1.00  0.00    -0.410 C  
HETATM    2  C   UNL     1     -13.536   7.807  71.625  1.00  0.00    -0.416 C  
HETATM    3  C   UNL     1     -12.381   7.301  70.819  1.00  0.00    -0.223 C  
HETATM    4  C   UNL     1     -10.563   7.617  71.697  1.00  0.00    -0.202 C  
HETATM    5  C   UNL     1     -11.083  12.412  66.836  1.00  0.00    -0.287 C  
HETATM    6  C   UNL     1     -11.430   6.591  71.991  1.00  0.00    -0.342 C  
HETATM    7  C   UNL     1     -10.683   6.165  70.281  1.00  0.00    -0.355 C  
HETATM    8  C   UNL     1     -11.682  12.637  68.162  1.00  0.00    -0.396 C  
HETATM    9  C   UNL     1     -11.501   5.549  73.061  1.00  0.00    -0.288 C  
HETATM   10  C   UNL     1     -11.125  10.998  66.361  1.00  0.00    -0.137 C  
HETATM   11  C   UNL     1     -10.306   7.699  69.389  1.00  0.00    -0.214 C  
HETATM   12  C   UNL     1     -11.502  11.702  69.114  1.00  0.00    -0.364 C  
HETATM   13  O   UNL     1     -10.664  13.347  66.165  1.00  0.00    -0.280 OA 
HETATM   14  C   UNL     1     -11.178   9.197  69.668  1.00  0.00    -0.026 C  
HETATM   15  C   UNL     1      -9.209  10.837  69.427  1.00  0.00    -0.003 C  
HETATM   16  C   UNL     1     -11.698   9.590  71.231  1.00  0.00    -0.444 C  
HETATM   17  C   UNL     1     -10.605  10.454  68.899  1.00  0.00    -0.241 C  
HETATM   18  C   UNL     1     -12.713  10.737  71.138  1.00  0.00    -0.532 C  
HETATM   19  C   UNL     1     -10.471  10.068  67.375  1.00  0.00    -0.316 C  
HETATM   20  C   UNL     1     -12.085  11.965  70.486  1.00  0.00    -0.422 C  
ENDROOT
BRANCH   4  21
HETATM   21  O   UNL     1      -9.370   6.752  72.036  1.00  0.00    -0.143 OA 
BRANCH  21  22
HETATM   22  C   UNL     1      -8.186   7.262  72.468  1.00  0.00    -0.107 C  
HETATM   23  O   UNL     1      -8.036   8.385  72.921  1.00  0.00    -0.268 OA 
BRANCH  22  24
HETATM   24  C   UNL     1      -7.081   6.232  72.234  1.00  0.00    -0.083 C  
BRANCH  24  25
HETATM   25  C   UNL     1      -7.179   5.442  70.927  1.00  0.00    -0.073 C  
BRANCH  25  26
HETATM   26  C   UNL     1      -7.404   3.933  71.074  1.00  0.00    -0.037 C  
BRANCH  26  27
HETATM   27  C   UNL     1      -8.463   3.362  70.129  1.00  0.00    -0.094 C  
BRANCH  27  28
HETATM   28  C   UNL     1      -9.167   2.154  70.754  1.00  0.00    -0.187 C  
HETATM   29  C   UNL     1      -9.751   2.488  72.118  1.00  0.00    -0.206 C  
ENDBRANCH  27  28
ENDBRANCH  26  27
ENDBRANCH  25  26
ENDBRANCH  24  25
ENDBRANCH  22  24
ENDBRANCH  21  22
ENDBRANCH   4  21
TORSDOF 7
ENDMDL
MODEL       55
REMARK 921   NORMALIZED FREE ENERGY PREDICTED BY IDOCK:   -4.48 KCAL/MOL
REMARK 922        TOTAL FREE ENERGY PREDICTED BY IDOCK:   -8.46 KCAL/MOL
REMARK 923 INTER-LIGAND FREE ENERGY PREDICTED BY IDOCK:   -7.32 KCAL/MOL
REMARK 924 INTRA-LIGAND FREE ENERGY PREDICTED BY IDOCK:   -1.14 KCAL/MOL
REMARK 927      BINDING AFFINITY PREDICTED BY RF-SCORE:    0.00 PKD
ROOT
HETATM    1  C   UNL     1      -8.295   8.004  66.102  1.00  0.00    -0.125 C  
HETATM    2  C   UNL     1      -7.004   8.429  65.673  1.00  0.00    -0.067 C  
HETATM    3  C   UNL     1      -7.293   9.081  66.989  1.00  0.00    -0.087 C  
HETATM    4  C   UNL     1      -9.020   8.432  67.869  1.00  0.00    -0.137 C  
HETATM    5  C   UNL     1     -10.540  14.547  65.186  1.00  0.00    -0.410 C  
HETATM    6  C   UNL     1      -7.806   7.787  67.908  1.00  0.00    -0.127 C  
HETATM    7  C   UNL     1      -7.625   9.301  69.064  1.00  0.00    -0.074 C  
HETATM    8  C   UNL     1     -10.597  13.338  64.348  1.00  0.00    -0.438 C  
HETATM    9  C   UNL     1      -7.348   6.437  68.358  1.00  0.00    -0.087 C  
HETATM   10  C   UNL     1      -9.466  14.540  66.222  1.00  0.00    -0.310 C  
HETATM   11  C   UNL     1      -8.669  10.654  68.454  1.00  0.00    -0.141 C  
HETATM   12  C   UNL     1     -10.358  12.146  64.925  1.00  0.00    -0.321 C  
HETATM   13  O   UNL     1     -11.279  15.501  64.973  1.00  0.00    -0.379 OA 
HETATM   14  C   UNL     1      -9.096  10.831  66.760  1.00  0.00    -0.167 C  
HETATM   15  C   UNL     1     -11.509  11.673  67.059  1.00  0.00    -0.336 C  
HETATM   16  C   UNL     1      -9.379   9.456  65.814  1.00  0.00    -0.301 C  
HETATM   17  C   UNL     1     -10.129  11.988  66.453  1.00  0.00    -0.242 C  
HETATM   18  C   UNL     1      -9.380   9.868  64.335  1.00  0.00    -0.326 C  
HETATM   19  C   UNL     1      -9.584  13.312  67.115  1.00  0.00    -0.240 C  
HETATM   20  C   UNL     1     -10.463  10.906  64.062  1.00  0.00    -0.379 C  
ENDROOT
BRANCH   4  21
HETATM   21  O   UNL     1      -9.392   7.887  69.229  1.00  0.00    -0.149 OA 
BRANCH  21  22
HETATM   22  C   UNL     1     -10.644   7.452  69.533  1.00  0.00    -0.237 C  
HETATM   23  O   UNL     1     -11.193   6.495  69.013  1.00  0.00    -0.312 OA 
BRANCH  22  24
HETATM   24  C   UNL     1     -11.261   8.388  70.571  1.00  0.00    -0.252 C  
BRANCH  24  25
HETATM   25  C   UNL     1     -10.277   9.028  71.554  1.00  0.00    -0.414 C  
BRANCH  25  26
HETATM   26  C   UNL     1      -9.867   8.159  72.749  1.00  0.00    -0.353 C  
BRANCH  26  27
HETATM   27  C   UNL     1     -10.933   7.153  73.186  1.00  0.00    -0.344 C  
BRANCH  27  28
HETATM   28  C   UNL     1     -10.432   5.714  73.030  1.00  0.00    -0.246 C  
HETATM   29  C   UNL     1     -10.450   4.966  74.354  1.00  0.00    -0.325 C  
ENDBRANCH  27  28
ENDBRANCH  26  27
ENDBRANCH  25  26
ENDBRANCH  24  25
ENDBRANCH  22  24
ENDBRANCH  21  22
ENDBRANCH   4  21
TORSDOF 7
ENDMDL
MODEL       56
REMARK 921   NORMALIZED FREE ENERGY PREDICTED BY IDOCK:   -4.46 KCAL/MOL
REMARK 922        TOTAL FREE ENERGY PREDICTED BY IDOCK:   -8.43 KCAL/MOL
REMARK 923 INTER-LIGAND FREE ENERGY PREDICTED BY IDOCK:   -6.12 KCAL/MOL
REMARK 924 INTRA-LIGAND FREE ENERGY PREDICTED BY IDOCK:   -2.31 KCAL/MOL
REMARK 927      BINDING AFFINITY PREDICTED BY RF-SCORE:    0.00 PKD
ROOT
HETATM    1  C   UNL     1      -7.884   8.136  70.720  1.00  0.00    -0.089 C  
HETATM    2  C   UNL     1      -7.637   8.814  71.949  1.00  0.00    -0.051 C  
HETATM    3  C   UNL     1      -9.109   8.566  71.845  1.00  0.00    -0.314 C  
HETATM    4  C   UNL     1      -9.641   7.419  70.239  1.00  0.00    -0.165 C  
HETATM    5  C   UNL     1     -11.204  13.846  68.467  1.00  0.00    -0.270 C  
HETATM    6  C   UNL     1      -9.157   6.949  71.438  1.00  0.00    -0.148 C  
HETATM    7  C   UNL     1     -10.948   7.526  71.792  1.00  0.00    -0.268 C  
HETATM    8  C   UNL     1      -9.833  13.342  68.283  1.00  0.00    -0.231 C  
HETATM    9  C   UNL     1      -8.684   5.620  71.933  1.00  0.00    -0.135 C  
HETATM   10  C   UNL     1     -11.911  13.312  69.668  1.00  0.00    -0.391 C  
HETATM   11  C   UNL     1     -11.361   8.912  70.696  1.00  0.00    -0.299 C  
HETATM   12  C   UNL     1      -9.578  12.054  68.579  1.00  0.00    -0.146 C  
HETATM   13  O   UNL     1     -11.671  14.698  67.721  1.00  0.00    -0.347 OA 
HETATM   14  C   UNL     1     -10.149  10.007  70.053  1.00  0.00    -0.289 C  
HETATM   15  C   UNL     1     -11.157  10.363  67.712  1.00  0.00    -0.365 C  
HETATM   16  C   UNL     1      -8.620   9.415  69.628  1.00  0.00    -0.171 C  
HETATM   17  C   UNL     1     -10.692  11.059  69.005  1.00  0.00    -0.258 C  
HETATM   18  C   UNL     1      -7.668  10.603  69.438  1.00  0.00    -0.132 C  
HETATM   19  C   UNL     1     -11.931  11.790  69.651  1.00  0.00    -0.378 C  
HETATM   20  C   UNL     1      -8.175  11.535  68.343  1.00  0.00    -0.152 C  
ENDROOT
BRANCH   4  21
HETATM   21  O   UNL     1     -10.463   6.166  70.042  1.00  0.00    -0.197 OA 
BRANCH  21  22
HETATM   22  C   UNL     1     -10.449   5.447  68.887  1.00  0.00    -0.168 C  
HETATM   23  O   UNL     1      -9.933   4.350  68.756  1.00  0.00    -0.125 OA 
BRANCH  22  24
HETATM   24  C   UNL     1     -11.120   6.263  67.782  1.00  0.00    -0.361 C  
BRANCH  24  25
HETATM   25  C   UNL     1     -10.288   6.473  66.515  1.00  0.00    -0.132 C  
BRANCH  25  26
HETATM   26  C   UNL     1      -9.363   7.696  66.518  1.00  0.00    -0.241 C  
BRANCH  26  27
HETATM   27  C   UNL     1      -7.885   7.362  66.722  1.00  0.00    -0.110 C  
BRANCH  27  28
HETATM   28  C   UNL     1      -6.989   8.512  66.251  1.00  0.00    -0.077 C  
HETATM   29  C   UNL     1      -7.743   9.479  65.352  1.00  0.00    -0.109 C  
ENDBRANCH  27  28
ENDBRANCH  26  27
ENDBRANCH  25  26
ENDBRANCH  24  25
ENDBRANCH  22  24
ENDBRANCH  21  22
ENDBRANCH   4  21
TORSDOF 7
ENDMDL
MODEL       57
REMARK 921   NORMALIZED FREE ENERGY PREDICTED BY IDOCK:   -4.43 KCAL/MOL
REMARK 922        TOTAL FREE ENERGY PREDICTED BY IDOCK:   -8.40 KCAL/MOL
REMARK 923 INTER-LIGAND FREE ENERGY PREDICTED BY IDOCK:   -6.59 KCAL/MOL
REMARK 924 INTRA-LIGAND FREE ENERGY PREDICTED BY IDOCK:   -1.81 KCAL/MOL
REMARK 927      BINDING AFFINITY PREDICTED BY RF-SCORE:    0.00 PKD
ROOT
HETATM    1  C   UNL     1      -8.232  10.233  69.310  1.00  0.00    -0.164 C  
HETATM    2  C   UNL     1      -6.824  10.021  69.247  1.00  0.00    -0.059 C  
HETATM    3  C   UNL     1      -7.359   9.995  67.850  1.00  0.00    -0.088 C  
HETATM    4  C   UNL     1      -9.339  10.486  67.716  1.00  0.00    -0.149 C  
HETATM    5  C   UNL     1      -9.120   3.668  67.117  1.00  0.00    -0.168 C  
HETATM    6  C   UNL     1      -8.295  11.376  67.814  1.00  0.00    -0.127 C  
HETATM    7  C   UNL     1      -8.209  10.672  66.037  1.00  0.00    -0.158 C  
HETATM    8  C   UNL     1      -9.129   4.293  68.450  1.00  0.00    -0.172 C  
HETATM    9  C   UNL     1      -8.188  12.850  68.047  1.00  0.00    -0.168 C  
HETATM   10  C   UNL     1      -8.384   4.437  66.071  1.00  0.00    -0.113 C  
HETATM   11  C   UNL     1      -8.828   8.967  66.034  1.00  0.00    -0.206 C  
HETATM   12  C   UNL     1      -9.240   5.632  68.531  1.00  0.00    -0.131 C  
HETATM   13  O   UNL     1      -9.618   2.564  66.932  1.00  0.00     0.020 OA 
HETATM   14  C   UNL     1      -8.743   7.925  67.444  1.00  0.00    -0.128 C  
HETATM   15  C   UNL     1     -10.989   6.703  67.153  1.00  0.00    -0.478 C  
HETATM   16  C   UNL     1      -8.962   8.580  68.990  1.00  0.00    -0.146 C  
HETATM   17  C   UNL     1      -9.464   6.527  67.282  1.00  0.00    -0.140 C  
HETATM   18  C   UNL     1      -8.497   7.553  70.031  1.00  0.00    -0.137 C  
HETATM   19  C   UNL     1      -8.927   5.855  65.961  1.00  0.00    -0.159 C  
HETATM   20  C   UNL     1      -9.293   6.258  69.908  1.00  0.00    -0.158 C  
ENDROOT
BRANCH   4  21
HETATM   21  O   UNL     1     -10.147  11.473  66.904  1.00  0.00    -0.206 OA 
BRANCH  21  22
HETATM   22  C   UNL     1     -11.463  11.723  67.142  1.00  0.00    -0.295 C  
HETATM   23  O   UNL     1     -12.167  12.450  66.461  1.00  0.00    -0.586 OA 
BRANCH  22  24
HETATM   24  C   UNL     1     -11.885  11.003  68.422  1.00  0.00    -0.254 C  
BRANCH  24  25
HETATM   25  C   UNL     1     -12.032  11.888  69.662  1.00  0.00    -0.365 C  
BRANCH  25  26
HETATM   26  C   UNL     1     -12.346  11.156  70.972  1.00  0.00    -0.487 C  
BRANCH  26  27
HETATM   27  C   UNL     1     -11.497   9.905  71.208  1.00  0.00    -0.435 C  
BRANCH  27  28
HETATM   28  C   UNL     1     -12.370   8.715  71.618  1.00  0.00    -0.384 C  
HETATM   29  C   UNL     1     -13.692   9.169  72.217  1.00  0.00    -0.548 C  
ENDBRANCH  27  28
ENDBRANCH  26  27
ENDBRANCH  25  26
ENDBRANCH  24  25
ENDBRANCH  22  24
ENDBRANCH  21  22
ENDBRANCH   4  21
TORSDOF 7
ENDMDL
MODEL       58
REMARK 921   NORMALIZED FREE ENERGY PREDICTED BY IDOCK:   -4.43 KCAL/MOL
REMARK 922        TOTAL FREE ENERGY PREDICTED BY IDOCK:   -8.39 KCAL/MOL
REMARK 923 INTER-LIGAND FREE ENERGY PREDICTED BY IDOCK:   -6.44 KCAL/MOL
REMARK 924 INTRA-LIGAND FREE ENERGY PREDICTED BY IDOCK:   -1.95 KCAL/MOL
REMARK 927      BINDING AFFINITY PREDICTED BY RF-SCORE:    0.00 PKD
ROOT
HETATM    1  C   UNL     1     -10.397   5.162  69.385  1.00  0.00    -0.265 C  
HETATM    2  C   UNL     1      -9.722   4.443  68.356  1.00  0.00    -0.172 C  
HETATM    3  C   UNL     1      -8.695   4.932  69.328  1.00  0.00    -0.107 C  
HETATM    4  C   UNL     1      -9.489   5.816  70.991  1.00  0.00    -0.165 C  
HETATM    5  C   UNL     1      -7.342  10.984  67.043  1.00  0.00    -0.123 C  
HETATM    6  C   UNL     1      -9.353   4.463  70.787  1.00  0.00    -0.224 C  
HETATM    7  C   UNL     1      -7.585   5.118  71.117  1.00  0.00    -0.095 C  
HETATM    8  C   UNL     1      -8.667  10.383  66.818  1.00  0.00    -0.132 C  
HETATM    9  C   UNL     1      -9.845   3.239  71.492  1.00  0.00    -0.206 C  
HETATM   10  C   UNL     1      -6.289  10.026  67.491  1.00  0.00    -0.059 C  
HETATM   11  C   UNL     1      -7.451   6.821  70.508  1.00  0.00    -0.086 C  
HETATM   12  C   UNL     1      -9.084   9.415  67.655  1.00  0.00    -0.131 C  
HETATM   13  O   UNL     1      -7.133  12.165  66.797  1.00  0.00    -0.053 OA 
HETATM   14  C   UNL     1      -8.433   7.438  69.190  1.00  0.00    -0.133 C  
HETATM   15  C   UNL     1      -8.812   9.823  70.076  1.00  0.00    -0.245 C  
HETATM   16  C   UNL     1     -10.038   6.926  69.025  1.00  0.00    -0.175 C  
HETATM   17  C   UNL     1      -8.269   8.984  68.905  1.00  0.00    -0.120 C  
HETATM   18  C   UNL     1     -10.542   7.325  67.631  1.00  0.00    -0.316 C  
HETATM   19  C   UNL     1      -6.729   9.287  68.747  1.00  0.00    -0.053 C  
HETATM   20  C   UNL     1     -10.466   8.836  67.439  1.00  0.00    -0.349 C  
ENDROOT
BRANCH   4  21
HETATM   21  O   UNL     1      -9.318   5.643  72.483  1.00  0.00    -0.143 OA 
BRANCH  21  22
HETATM   22  C   UNL     1     -10.169   6.191  73.393  1.00  0.00    -0.217 C  
HETATM   23  O   UNL     1     -10.667   5.590  74.329  1.00  0.00    -0.235 OA 
BRANCH  22  24
HETATM   24  C   UNL     1     -10.441   7.645  73.010  1.00  0.00    -0.414 C  
BRANCH  24  25
HETATM   25  C   UNL     1     -11.846   7.938  72.477  1.00  0.00    -0.390 C  
BRANCH  25  26
HETATM   26  C   UNL     1     -11.934   8.996  71.371  1.00  0.00    -0.400 C  
BRANCH  26  27
HETATM   27  C   UNL     1     -12.992  10.073  71.618  1.00  0.00    -0.554 C  
BRANCH  27  28
HETATM   28  C   UNL     1     -12.553  11.421  71.037  1.00  0.00    -0.487 C  
HETATM   29  C   UNL     1     -12.078  11.285  69.599  1.00  0.00    -0.391 C  
ENDBRANCH  27  28
ENDBRANCH  26  27
ENDBRANCH  25  26
ENDBRANCH  24  25
ENDBRANCH  22  24
ENDBRANCH  21  22
ENDBRANCH   4  21
TORSDOF 7
ENDMDL
MODEL       59
REMARK 921   NORMALIZED FREE ENERGY PREDICTED BY IDOCK:   -4.42 KCAL/MOL
REMARK 922        TOTAL FREE ENERGY PREDICTED BY IDOCK:   -8.39 KCAL/MOL
REMARK 923 INTER-LIGAND FREE ENERGY PREDICTED BY IDOCK:   -7.62 KCAL/MOL
REMARK 924 INTRA-LIGAND FREE ENERGY PREDICTED BY IDOCK:   -0.76 KCAL/MOL
REMARK 927      BINDING AFFINITY PREDICTED BY RF-SCORE:    0.00 PKD
ROOT
HETATM    1  C   UNL     1      -9.876   5.142  71.790  1.00  0.00    -0.228 C  
HETATM    2  C   UNL     1      -8.492   4.948  72.069  1.00  0.00    -0.124 C  
HETATM    3  C   UNL     1      -8.678   6.360  71.611  1.00  0.00    -0.133 C  
HETATM    4  C   UNL     1     -10.634   6.894  71.357  1.00  0.00    -0.219 C  
HETATM    5  C   UNL     1      -8.223   5.794  65.042  1.00  0.00    -0.137 C  
HETATM    6  C   UNL     1      -9.958   6.862  72.554  1.00  0.00    -0.187 C  
HETATM    7  C   UNL     1      -9.279   8.386  71.617  1.00  0.00    -0.271 C  
HETATM    8  C   UNL     1      -8.711   4.667  65.853  1.00  0.00    -0.121 C  
HETATM    9  C   UNL     1     -10.358   6.978  73.990  1.00  0.00    -0.310 C  
HETATM   10  C   UNL     1      -7.548   6.877  65.817  1.00  0.00    -0.091 C  
HETATM   11  C   UNL     1      -9.332   8.068  69.831  1.00  0.00    -0.156 C  
HETATM   12  C   UNL     1      -9.240   4.928  67.063  1.00  0.00    -0.127 C  
HETATM   13  O   UNL     1      -8.309   5.779  63.820  1.00  0.00    -0.106 OA 
HETATM   14  C   UNL     1      -9.242   6.451  69.153  1.00  0.00    -0.133 C  
HETATM   15  C   UNL     1     -10.889   6.762  67.201  1.00  0.00    -0.462 C  
HETATM   16  C   UNL     1      -9.980   5.158  69.958  1.00  0.00    -0.326 C  
HETATM   17  C   UNL     1      -9.450   6.374  67.587  1.00  0.00    -0.120 C  
HETATM   18  C   UNL     1      -9.461   3.844  69.359  1.00  0.00    -0.260 C  
HETATM   19  C   UNL     1      -8.460   7.403  66.917  1.00  0.00    -0.123 C  
HETATM   20  C   UNL     1      -9.778   3.765  67.869  1.00  0.00    -0.125 C  
ENDROOT
BRANCH   4  21
HETATM   21  O   UNL     1     -11.508   8.028  71.842  1.00  0.00    -0.262 OA 
BRANCH  21  22
HETATM   22  C   UNL     1     -12.864   8.013  71.735  1.00  0.00    -0.332 C  
HETATM   23  O   UNL     1     -13.520   7.064  71.341  1.00  0.00    -0.345 OA 
BRANCH  22  24
HETATM   24  C   UNL     1     -13.412   9.386  72.124  1.00  0.00    -0.543 C  
BRANCH  24  25
HETATM   25  C   UNL     1     -12.889  10.565  71.301  1.00  0.00    -0.532 C  
BRANCH  25  26
HETATM   26  C   UNL     1     -13.093  11.954  71.918  1.00  0.00    -0.474 C  
BRANCH  26  27
HETATM   27  C   UNL     1     -12.546  13.103  71.070  1.00  0.00    -0.397 C  
BRANCH  27  28
HETATM   28  C   UNL     1     -13.358  14.383  71.285  1.00  0.00    -0.409 C  
HETATM   29  C   UNL     1     -13.525  14.701  72.762  1.00  0.00    -0.570 C  
ENDBRANCH  27  28
ENDBRANCH  26  27
ENDBRANCH  25  26
ENDBRANCH  24  25
ENDBRANCH  22  24
ENDBRANCH  21  22
ENDBRANCH   4  21
TORSDOF 7
ENDMDL
MODEL       60
REMARK 921   NORMALIZED FREE ENERGY PREDICTED BY IDOCK:   -4.39 KCAL/MOL
REMARK 922        TOTAL FREE ENERGY PREDICTED BY IDOCK:   -8.34 KCAL/MOL
REMARK 923 INTER-LIGAND FREE ENERGY PREDICTED BY IDOCK:   -6.59 KCAL/MOL
REMARK 924 INTRA-LIGAND FREE ENERGY PREDICTED BY IDOCK:   -1.75 KCAL/MOL
REMARK 927      BINDING AFFINITY PREDICTED BY RF-SCORE:    0.00 PKD
ROOT
HETATM    1  C   UNL     1     -10.227   5.156  70.215  1.00  0.00    -0.342 C  
HETATM    2  C   UNL     1      -9.750   4.038  69.471  1.00  0.00    -0.227 C  
HETATM    3  C   UNL     1      -8.564   4.804  69.965  1.00  0.00    -0.102 C  
HETATM    4  C   UNL     1      -9.042   6.337  71.230  1.00  0.00    -0.146 C  
HETATM    5  C   UNL     1      -7.702   9.311  65.209  1.00  0.00    -0.103 C  
HETATM    6  C   UNL     1      -8.936   5.011  71.578  1.00  0.00    -0.157 C  
HETATM    7  C   UNL     1      -7.142   5.618  71.301  1.00  0.00    -0.072 C  
HETATM    8  C   UNL     1      -9.041   8.764  65.481  1.00  0.00    -0.221 C  
HETATM    9  C   UNL     1      -9.280   4.212  72.795  1.00  0.00    -0.137 C  
HETATM   10  C   UNL     1      -6.577   8.544  65.820  1.00  0.00    -0.056 C  
HETATM   11  C   UNL     1      -7.136   6.918  70.035  1.00  0.00    -0.074 C  
HETATM   12  C   UNL     1      -9.288   8.247  66.699  1.00  0.00    -0.246 C  
HETATM   13  O   UNL     1      -7.550  10.275  64.469  1.00  0.00    -0.144 OA 
HETATM   14  C   UNL     1      -8.350   7.017  68.771  1.00  0.00    -0.122 C  
HETATM   15  C   UNL     1      -8.575   9.577  68.654  1.00  0.00    -0.119 C  
HETATM   16  C   UNL     1      -9.954   6.595  69.109  1.00  0.00    -0.168 C  
HETATM   17  C   UNL     1      -8.252   8.301  67.854  1.00  0.00    -0.128 C  
HETATM   18  C   UNL     1     -10.710   6.432  67.784  1.00  0.00    -0.377 C  
HETATM   19  C   UNL     1      -6.771   8.407  67.324  1.00  0.00    -0.063 C  
HETATM   20  C   UNL     1     -10.682   7.728  66.980  1.00  0.00    -0.316 C  
ENDROOT
BRANCH   4  21
HETATM   21  O   UNL     1      -8.596   6.769  72.609  1.00  0.00    -0.122 OA 
BRANCH  21  22
HETATM   22  C   UNL     1      -8.911   7.980  73.141  1.00  0.00    -0.267 C  
HETATM   23  O   UNL     1      -8.451   8.424  74.180  1.00  0.00    -0.233 OA 
BRANCH  22  24
HETATM   24  C   UNL     1      -9.972   8.650  72.268  1.00  0.00    -0.361 C  
BRANCH  24  25
HETATM   25  C   UNL     1     -11.420   8.249  72.560  1.00  0.00    -0.454 C  
BRANCH  25  26
HETATM   26  C   UNL     1     -12.441   8.595  71.470  1.00  0.00    -0.364 C  
BRANCH  26  27
HETATM   27  C   UNL     1     -13.252   9.861  71.751  1.00  0.00    -0.535 C  
BRANCH  27  28
HETATM   28  C   UNL     1     -12.545  11.103  71.199  1.00  0.00    -0.513 C  
HETATM   29  C   UNL     1     -11.912  10.833  69.843  1.00  0.00    -0.418 C  
ENDBRANCH  27  28
ENDBRANCH  26  27
ENDBRANCH  25  26
ENDBRANCH  24  25
ENDBRANCH  22  24
ENDBRANCH  21  22
ENDBRANCH   4  21
TORSDOF 7
ENDMDL
MODEL       61
REMARK 921   NORMALIZED FREE ENERGY PREDICTED BY IDOCK:   -4.39 KCAL/MOL
REMARK 922        TOTAL FREE ENERGY PREDICTED BY IDOCK:   -8.34 KCAL/MOL
REMARK 923 INTER-LIGAND FREE ENERGY PREDICTED BY IDOCK:   -7.04 KCAL/MOL
REMARK 924 INTRA-LIGAND FREE ENERGY PREDICTED BY IDOCK:   -1.30 KCAL/MOL
REMARK 927      BINDING AFFINITY PREDICTED BY RF-SCORE:    0.00 PKD
ROOT
HETATM    1  C   UNL     1      -8.619   8.909  66.942  1.00  0.00    -0.121 C  
HETATM    2  C   UNL     1      -9.477   8.062  66.184  1.00  0.00    -0.193 C  
HETATM    3  C   UNL     1     -10.334   8.980  66.997  1.00  0.00    -0.339 C  
HETATM    4  C   UNL     1      -9.282  10.415  68.003  1.00  0.00    -0.140 C  
HETATM    5  C   UNL     1     -10.893   5.713  72.714  1.00  0.00    -0.261 C  
HETATM    6  C   UNL     1      -9.645  10.465  66.677  1.00  0.00    -0.219 C  
HETATM    7  C   UNL     1     -11.256  10.760  67.668  1.00  0.00    -0.370 C  
HETATM    8  C   UNL     1      -9.701   5.534  71.869  1.00  0.00    -0.197 C  
HETATM    9  C   UNL     1      -9.297  11.353  65.525  1.00  0.00    -0.228 C  
HETATM   10  C   UNL     1     -12.045   6.378  72.038  1.00  0.00    -0.353 C  
HETATM   11  C   UNL     1     -11.168   9.861  69.242  1.00  0.00    -0.174 C  
HETATM   12  C   UNL     1      -9.378   6.510  71.000  1.00  0.00    -0.164 C  
HETATM   13  O   UNL     1     -10.932   5.269  73.855  1.00  0.00    -0.275 OA 
HETATM   14  C   UNL     1     -10.208   8.406  69.450  1.00  0.00    -0.208 C  
HETATM   15  C   UNL     1      -9.389   8.828  71.853  1.00  0.00    -0.343 C  
HETATM   16  C   UNL     1      -8.722   8.256  68.654  1.00  0.00    -0.133 C  
HETATM   17  C   UNL     1     -10.149   7.855  70.932  1.00  0.00    -0.205 C  
HETATM   18  C   UNL     1      -8.274   6.789  68.720  1.00  0.00    -0.121 C  
HETATM   19  C   UNL     1     -11.629   7.724  71.459  1.00  0.00    -0.303 C  
HETATM   20  C   UNL     1      -8.125   6.332  70.168  1.00  0.00    -0.116 C  
ENDROOT
BRANCH   4  21
HETATM   21  O   UNL     1      -9.359  11.920  68.117  1.00  0.00    -0.180 OA 
BRANCH  21  22
HETATM   22  C   UNL     1      -8.281  12.695  68.415  1.00  0.00    -0.129 C  
HETATM   23  O   UNL     1      -7.188  12.268  68.747  1.00  0.00    -0.106 OA 
BRANCH  22  24
HETATM   24  C   UNL     1      -8.683  14.167  68.328  1.00  0.00    -0.181 C  
BRANCH  24  25
HETATM   25  C   UNL     1      -9.250  14.621  66.981  1.00  0.00    -0.252 C  
BRANCH  25  26
HETATM   26  C   UNL     1     -10.774  14.780  66.916  1.00  0.00    -0.308 C  
BRANCH  26  27
HETATM   27  C   UNL     1     -11.360  14.627  65.512  1.00  0.00    -0.341 C  
BRANCH  27  28
HETATM   28  C   UNL     1     -12.595  13.722  65.525  1.00  0.00    -0.551 C  
HETATM   29  C   UNL     1     -12.492  12.616  64.486  1.00  0.00    -0.525 C  
ENDBRANCH  27  28
ENDBRANCH  26  27
ENDBRANCH  25  26
ENDBRANCH  24  25
ENDBRANCH  22  24
ENDBRANCH  21  22
ENDBRANCH   4  21
TORSDOF 7
ENDMDL
MODEL       62
REMARK 921   NORMALIZED FREE ENERGY PREDICTED BY IDOCK:   -4.39 KCAL/MOL
REMARK 922        TOTAL FREE ENERGY PREDICTED BY IDOCK:   -8.33 KCAL/MOL
REMARK 923 INTER-LIGAND FREE ENERGY PREDICTED BY IDOCK:   -6.48 KCAL/MOL
REMARK 924 INTRA-LIGAND FREE ENERGY PREDICTED BY IDOCK:   -1.86 KCAL/MOL
REMARK 927      BINDING AFFINITY PREDICTED BY RF-SCORE:    0.00 PKD
ROOT
HETATM    1  C   UNL     1      -6.052   9.077  68.601  1.00  0.00    -0.045 C  
HETATM    2  C   UNL     1      -5.599  10.323  69.123  1.00  0.00    -0.037 C  
HETATM    3  C   UNL     1      -6.820   9.918  69.887  1.00  0.00    -0.096 C  
HETATM    4  C   UNL     1      -7.502   8.048  69.421  1.00  0.00    -0.096 C  
HETATM    5  C   UNL     1     -11.704  12.372  66.173  1.00  0.00    -0.400 C  
HETATM    6  C   UNL     1      -6.469   8.335  70.282  1.00  0.00    -0.036 C  
HETATM    7  C   UNL     1      -8.068   8.836  71.206  1.00  0.00    -0.195 C  
HETATM    8  C   UNL     1     -10.425  11.981  65.556  1.00  0.00    -0.307 C  
HETATM    9  C   UNL     1      -5.422   7.523  70.975  1.00  0.00    -0.027 C  
HETATM   10  C   UNL     1     -11.671  12.491  67.660  1.00  0.00    -0.423 C  
HETATM   11  C   UNL     1      -9.312   9.383  70.005  1.00  0.00    -0.253 C  
HETATM   12  C   UNL     1      -9.656  11.078  66.192  1.00  0.00    -0.240 C  
HETATM   13  O   UNL     1     -12.680  12.648  65.486  1.00  0.00    -0.597 OA 
HETATM   14  C   UNL     1      -8.888  10.080  68.451  1.00  0.00    -0.117 C  
HETATM   15  C   UNL     1     -10.771   9.042  67.037  1.00  0.00    -0.185 C  
HETATM   16  C   UNL     1      -7.536   9.504  67.610  1.00  0.00    -0.094 C  
HETATM   17  C   UNL     1     -10.113  10.359  67.490  1.00  0.00    -0.231 C  
HETATM   18  C   UNL     1      -7.193  10.495  66.490  1.00  0.00    -0.124 C  
HETATM   19  C   UNL     1     -11.178  11.197  68.295  1.00  0.00    -0.343 C  
HETATM   20  C   UNL     1      -8.365  10.651  65.526  1.00  0.00    -0.158 C  
ENDROOT
BRANCH   4  21
HETATM   21  O   UNL     1      -7.860   6.809  70.209  1.00  0.00    -0.105 OA 
BRANCH  21  22
HETATM   22  C   UNL     1      -8.320   5.669  69.626  1.00  0.00    -0.107 C  
HETATM   23  O   UNL     1      -7.680   4.637  69.516  1.00  0.00    -0.055 OA 
BRANCH  22  24
HETATM   24  C   UNL     1      -9.727   5.919  69.082  1.00  0.00    -0.176 C  
BRANCH  24  25
HETATM   25  C   UNL     1     -10.874   5.599  70.043  1.00  0.00    -0.366 C  
BRANCH  25  26
HETATM   26  C   UNL     1     -11.831   6.757  70.350  1.00  0.00    -0.395 C  
BRANCH  26  27
HETATM   27  C   UNL     1     -12.234   6.863  71.822  1.00  0.00    -0.396 C  
BRANCH  27  28
HETATM   28  C   UNL     1     -12.009   8.281  72.355  1.00  0.00    -0.447 C  
HETATM   29  C   UNL     1     -12.664   9.326  71.465  1.00  0.00    -0.426 C  
ENDBRANCH  27  28
ENDBRANCH  26  27
ENDBRANCH  25  26
ENDBRANCH  24  25
ENDBRANCH  22  24
ENDBRANCH  21  22
ENDBRANCH   4  21
TORSDOF 7
ENDMDL
MODEL       63
REMARK 921   NORMALIZED FREE ENERGY PREDICTED BY IDOCK:   -4.35 KCAL/MOL
REMARK 922        TOTAL FREE ENERGY PREDICTED BY IDOCK:   -8.28 KCAL/MOL
REMARK 923 INTER-LIGAND FREE ENERGY PREDICTED BY IDOCK:   -7.08 KCAL/MOL
REMARK 924 INTRA-LIGAND FREE ENERGY PREDICTED BY IDOCK:   -1.20 KCAL/MOL
REMARK 927      BINDING AFFINITY PREDICTED BY RF-SCORE:    0.00 PKD
ROOT
HETATM    1  C   UNL     1     -12.133  10.227  71.715  1.00  0.00    -0.188 C  
HETATM    2  C   UNL     1     -13.457   9.878  71.317  1.00  0.00    -0.353 C  
HETATM    3  C   UNL     1     -12.502   9.223  70.370  1.00  0.00     0.266 C  
HETATM    4  C   UNL     1     -10.539   9.438  70.898  1.00  0.00    -0.320 C  
HETATM    5  C   UNL     1     -11.552  13.927  65.827  1.00  0.00    -0.338 C  
HETATM    6  C   UNL     1     -11.414   8.512  71.416  1.00  0.00    -0.344 C  
HETATM    7  C   UNL     1     -11.012   7.911  69.644  1.00  0.00    -0.114 C  
HETATM    8  C   UNL     1     -11.890  14.290  67.213  1.00  0.00    -0.444 C  
HETATM    9  C   UNL     1     -11.373   7.554  72.564  1.00  0.00    -0.384 C  
HETATM   10  C   UNL     1     -11.780  12.493  65.482  1.00  0.00    -0.457 C  
HETATM   11  C   UNL     1     -10.686   9.344  68.581  1.00  0.00    -0.196 C  
HETATM   12  C   UNL     1     -11.615  13.408  68.192  1.00  0.00    -0.376 C  
HETATM   13  O   UNL     1     -11.189  14.775  65.021  1.00  0.00    -0.356 OA 
HETATM   14  C   UNL     1     -11.383  10.927  68.883  1.00  0.00    -0.354 C  
HETATM   15  C   UNL     1      -9.373  12.372  68.180  1.00  0.00    -0.209 C  
HETATM   16  C   UNL     1     -11.591  11.466  70.475  1.00  0.00    -0.168 C  
HETATM   17  C   UNL     1     -10.863  12.076  67.929  1.00  0.00    -0.254 C  
HETATM   18  C   UNL     1     -12.519  12.688  70.464  1.00  0.00    -0.273 C  
HETATM   19  C   UNL     1     -11.028  11.580  66.441  1.00  0.00    -0.336 C  
HETATM   20  C   UNL     1     -11.927  13.811  69.618  1.00  0.00    -0.399 C  
ENDROOT
BRANCH   4  21
HETATM   21  O   UNL     1      -9.372   8.497  71.098  1.00  0.00    -0.165 OA 
BRANCH  21  22
HETATM   22  C   UNL     1      -8.121   8.929  71.414  1.00  0.00    -0.108 C  
HETATM   23  O   UNL     1      -7.522   9.813  70.826  1.00  0.00    -0.295 OA 
BRANCH  22  24
HETATM   24  C   UNL     1      -7.578   8.087  72.568  1.00  0.00    -0.144 C  
BRANCH  24  25
HETATM   25  C   UNL     1      -7.715   6.571  72.404  1.00  0.00    -0.096 C  
BRANCH  25  26
HETATM   26  C   UNL     1      -7.533   5.742  73.681  1.00  0.00    -0.090 C  
BRANCH  26  27
HETATM   27  C   UNL     1      -8.842   5.250  74.300  1.00  0.00    -0.118 C  
BRANCH  27  28
HETATM   28  C   UNL     1      -9.546   4.249  73.379  1.00  0.00    -0.141 C  
HETATM   29  C   UNL     1     -10.999   4.044  73.777  1.00  0.00    -0.326 C  
ENDBRANCH  27  28
ENDBRANCH  26  27
ENDBRANCH  25  26
ENDBRANCH  24  25
ENDBRANCH  22  24
ENDBRANCH  21  22
ENDBRANCH   4  21
TORSDOF 7
ENDMDL
MODEL       64
REMARK 921   NORMALIZED FREE ENERGY PREDICTED BY IDOCK:   -4.33 KCAL/MOL
REMARK 922        TOTAL FREE ENERGY PREDICTED BY IDOCK:   -8.26 KCAL/MOL
REMARK 923 INTER-LIGAND FREE ENERGY PREDICTED BY IDOCK:   -6.42 KCAL/MOL
REMARK 924 INTRA-LIGAND FREE ENERGY PREDICTED BY IDOCK:   -1.84 KCAL/MOL
REMARK 927      BINDING AFFINITY PREDICTED BY RF-SCORE:    0.00 PKD
ROOT
HETATM    1  C   UNL     1      -9.607   9.325  67.982  1.00  0.00    -0.161 C  
HETATM    2  C   UNL     1     -10.649   8.451  67.557  1.00  0.00    -0.285 C  
HETATM    3  C   UNL     1      -9.828   8.809  66.359  1.00  0.00    -0.352 C  
HETATM    4  C   UNL     1      -8.156   9.898  66.801  1.00  0.00    -0.117 C  
HETATM    5  C   UNL     1     -12.659  14.423  64.320  1.00  0.00    -0.110 C  
HETATM    6  C   UNL     1      -8.278   8.533  66.910  1.00  0.00    -0.106 C  
HETATM    7  C   UNL     1      -8.184   8.897  65.033  1.00  0.00    -0.154 C  
HETATM    8  C   UNL     1     -12.700  14.042  65.742  1.00  0.00    -0.487 C  
HETATM    9  C   UNL     1      -7.442   7.447  67.508  1.00  0.00    -0.100 C  
HETATM   10  C   UNL     1     -12.260  13.325  63.391  1.00  0.00    -0.476 C  
HETATM   11  C   UNL     1      -8.921  10.521  64.697  1.00  0.00    -0.229 C  
HETATM   12  C   UNL     1     -11.758  13.202  66.210  1.00  0.00    -0.424 C  
HETATM   13  O   UNL     1     -13.007  15.537  63.953  1.00  0.00    -0.478 OA 
HETATM   14  C   UNL     1     -10.167  11.225  65.713  1.00  0.00    -0.301 C  
HETATM   15  C   UNL     1      -9.414  13.683  65.597  1.00  0.00     0.086 C  
HETATM   16  C   UNL     1     -10.125  10.983  67.388  1.00  0.00    -0.216 C  
HETATM   17  C   UNL     1     -10.575  12.705  65.336  1.00  0.00    -0.307 C  
HETATM   18  C   UNL     1     -11.482  11.389  67.979  1.00  0.00    -0.377 C  
HETATM   19  C   UNL     1     -10.915  12.736  63.796  1.00  0.00    -0.445 C  
HETATM   20  C   UNL     1     -11.785  12.854  67.683  1.00  0.00    -0.422 C  
ENDROOT
BRANCH   4  21
HETATM   21  O   UNL     1      -6.681   9.776  66.489  1.00  0.00    -0.077 OA 
BRANCH  21  22
HETATM   22  C   UNL     1      -5.800  10.796  66.672  1.00  0.00    -0.084 C  
HETATM   23  O   UNL     1      -5.365  11.507  65.783  1.00  0.00    -0.264 OA 
BRANCH  22  24
HETATM   24  C   UNL     1      -5.403  10.854  68.147  1.00  0.00    -0.035 C  
BRANCH  24  25
HETATM   25  C   UNL     1      -5.951  12.047  68.934  1.00  0.00    -0.060 C  
BRANCH  25  26
HETATM   26  C   UNL     1      -6.848  13.010  68.147  1.00  0.00    -0.104 C  
BRANCH  26  27
HETATM   27  C   UNL     1      -8.064  13.512  68.928  1.00  0.00     0.121 C  
BRANCH  27  28
HETATM   28  C   UNL     1      -8.135  15.042  68.915  1.00  0.00    -0.176 C  
HETATM   29  C   UNL     1      -9.486  15.546  69.400  1.00  0.00    -0.278 C  
ENDBRANCH  27  28
ENDBRANCH  26  27
ENDBRANCH  25  26
ENDBRANCH  24  25
ENDBRANCH  22  24
ENDBRANCH  21  22
ENDBRANCH   4  21
TORSDOF 7
ENDMDL
MODEL       65
REMARK 921   NORMALIZED FREE ENERGY PREDICTED BY IDOCK:   -4.33 KCAL/MOL
REMARK 922        TOTAL FREE ENERGY PREDICTED BY IDOCK:   -8.25 KCAL/MOL
REMARK 923 INTER-LIGAND FREE ENERGY PREDICTED BY IDOCK:   -6.17 KCAL/MOL
REMARK 924 INTRA-LIGAND FREE ENERGY PREDICTED BY IDOCK:   -2.08 KCAL/MOL
REMARK 927      BINDING AFFINITY PREDICTED BY RF-SCORE:    0.00 PKD
ROOT
HETATM    1  C   UNL     1      -9.778   5.267  68.845  1.00  0.00    -0.207 C  
HETATM    2  C   UNL     1     -10.470   5.479  67.617  1.00  0.00    -0.256 C  
HETATM    3  C   UNL     1      -9.474   6.582  67.783  1.00  0.00    -0.119 C  
HETATM    4  C   UNL     1      -8.236   6.342  69.391  1.00  0.00    -0.114 C  
HETATM    5  C   UNL     1     -12.844  11.020  71.335  1.00  0.00    -0.443 C  
HETATM    6  C   UNL     1      -8.086   5.739  68.165  1.00  0.00    -0.104 C  
HETATM    7  C   UNL     1      -7.611   7.574  67.901  1.00  0.00    -0.110 C  
HETATM    8  C   UNL     1     -13.155   9.585  71.450  1.00  0.00    -0.449 C  
HETATM    9  C   UNL     1      -7.212   4.650  67.628  1.00  0.00    -0.066 C  
HETATM   10  C   UNL     1     -12.002  11.386  70.158  1.00  0.00    -0.460 C  
HETATM   11  C   UNL     1      -8.571   8.614  69.036  1.00  0.00    -0.129 C  
HETATM   12  C   UNL     1     -12.200   8.695  71.121  1.00  0.00    -0.272 C  
HETATM   13  O   UNL     1     -13.321  11.835  72.115  1.00  0.00    -0.497 OA 
HETATM   14  C   UNL     1     -10.151   8.148  69.642  1.00  0.00    -0.199 C  
HETATM   15  C   UNL     1      -9.936   9.080  72.031  1.00  0.00    -0.225 C  
HETATM   16  C   UNL     1     -10.475   6.522  69.988  1.00  0.00    -0.257 C  
HETATM   17  C   UNL     1     -10.760   9.120  70.730  1.00  0.00    -0.327 C  
HETATM   18  C   UNL     1     -11.990   6.346  70.155  1.00  0.00    -0.092 C  
HETATM   19  C   UNL     1     -10.706  10.587  70.152  1.00  0.00    -0.232 C  
HETATM   20  C   UNL     1     -12.517   7.223  71.286  1.00  0.00    -0.402 C  
ENDROOT
BRANCH   4  21
HETATM   21  O   UNL     1      -6.740   6.355  69.606  1.00  0.00    -0.049 OA 
BRANCH  21  22
HETATM   22  C   UNL     1      -6.166   6.181  70.827  1.00  0.00    -0.039 C  
HETATM   23  O   UNL     1      -5.165   5.518  71.037  1.00  0.00    -0.008 OA 
BRANCH  22  24
HETATM   24  C   UNL     1      -7.014   6.891  71.883  1.00  0.00    -0.069 C  
BRANCH  24  25
HETATM   25  C   UNL     1      -7.438   6.034  73.078  1.00  0.00    -0.094 C  
BRANCH  25  26
HETATM   26  C   UNL     1      -8.224   6.761  74.175  1.00  0.00    -0.148 C  
BRANCH  26  27
HETATM   27  C   UNL     1      -9.569   6.116  74.512  1.00  0.00    -0.248 C  
BRANCH  27  28
HETATM   28  C   UNL     1     -10.164   5.409  73.291  1.00  0.00    -0.215 C  
HETATM   29  C   UNL     1     -10.814   4.087  73.668  1.00  0.00    -0.338 C  
ENDBRANCH  27  28
ENDBRANCH  26  27
ENDBRANCH  25  26
ENDBRANCH  24  25
ENDBRANCH  22  24
ENDBRANCH  21  22
ENDBRANCH   4  21
TORSDOF 7
ENDMDL
MODEL       66
REMARK 921   NORMALIZED FREE ENERGY PREDICTED BY IDOCK:   -4.30 KCAL/MOL
REMARK 922        TOTAL FREE ENERGY PREDICTED BY IDOCK:   -8.21 KCAL/MOL
REMARK 923 INTER-LIGAND FREE ENERGY PREDICTED BY IDOCK:   -7.34 KCAL/MOL
REMARK 924 INTRA-LIGAND FREE ENERGY PREDICTED BY IDOCK:   -0.87 KCAL/MOL
REMARK 927      BINDING AFFINITY PREDICTED BY RF-SCORE:    0.00 PKD
ROOT
HETATM    1  C   UNL     1     -10.555  12.436  65.935  1.00  0.00    -0.289 C  
HETATM    2  C   UNL     1     -11.930  12.280  65.594  1.00  0.00    -0.373 C  
HETATM    3  C   UNL     1     -11.856  12.778  67.003  1.00  0.00    -0.428 C  
HETATM    4  C   UNL     1      -9.964  13.259  67.609  1.00  0.00    -0.229 C  
HETATM    5  C   UNL     1     -11.286   7.176  70.463  1.00  0.00    -0.297 C  
HETATM    6  C   UNL     1     -10.796  14.058  66.860  1.00  0.00    -0.290 C  
HETATM    7  C   UNL     1     -11.516  14.080  68.633  1.00  0.00    -0.337 C  
HETATM    8  C   UNL     1     -10.785   7.251  69.081  1.00  0.00    -0.201 C  
HETATM    9  C   UNL     1     -10.624  15.336  66.101  1.00  0.00    -0.318 C  
HETATM   10  C   UNL     1     -12.194   8.292  70.860  1.00  0.00    -0.101 C  
HETATM   11  C   UNL     1     -11.168  12.495  69.444  1.00  0.00    -0.215 C  
HETATM   12  C   UNL     1     -10.472   8.459  68.576  1.00  0.00    -0.201 C  
HETATM   13  O   UNL     1     -11.025   6.219  71.181  1.00  0.00    -0.256 OA 
HETATM   14  C   UNL     1     -10.959  10.998  68.550  1.00  0.00    -0.276 C  
HETATM   15  C   UNL     1      -9.099   9.950  69.987  1.00  0.00    -0.217 C  
HETATM   16  C   UNL     1     -10.191  11.018  67.042  1.00  0.00    -0.250 C  
HETATM   17  C   UNL     1     -10.520   9.757  69.426  1.00  0.00    -0.241 C  
HETATM   18  C   UNL     1     -10.452   9.679  66.339  1.00  0.00    -0.181 C  
HETATM   19  C   UNL     1     -11.522   9.641  70.638  1.00  0.00    -0.376 C  
HETATM   20  C   UNL     1      -9.916   8.517  67.169  1.00  0.00    -0.304 C  
ENDROOT
BRANCH   4  21
HETATM   21  O   UNL     1      -9.315  14.470  68.242  1.00  0.00    -0.190 OA 
BRANCH  21  22
HETATM   22  C   UNL     1      -7.983  14.542  68.504  1.00  0.00    -0.142 C  
HETATM   23  O   UNL     1      -7.319  13.639  68.986  1.00  0.00    -0.095 OA 
BRANCH  22  24
HETATM   24  C   UNL     1      -7.480  15.943  68.159  1.00  0.00    -0.132 C  
BRANCH  24  25
HETATM   25  C   UNL     1      -7.267  16.223  66.669  1.00  0.00    -0.160 C  
BRANCH  25  26
HETATM   26  C   UNL     1      -7.371  17.692  66.244  1.00  0.00    -0.345 C  
BRANCH  26  27
HETATM   27  C   UNL     1      -6.295  18.596  66.848  1.00  0.00    -0.194 C  
BRANCH  27  28
HETATM   28  C   UNL     1      -6.903  19.589  67.843  1.00  0.00    -0.277 C  
HETATM   29  C   UNL     1      -7.001  20.987  67.253  1.00  0.00    -0.428 C  
ENDBRANCH  27  28
ENDBRANCH  26  27
ENDBRANCH  25  26
ENDBRANCH  24  25
ENDBRANCH  22  24
ENDBRANCH  21  22
ENDBRANCH   4  21
TORSDOF 7
ENDMDL
MODEL       67
REMARK 921   NORMALIZED FREE ENERGY PREDICTED BY IDOCK:   -4.29 KCAL/MOL
REMARK 922        TOTAL FREE ENERGY PREDICTED BY IDOCK:   -8.20 KCAL/MOL
REMARK 923 INTER-LIGAND FREE ENERGY PREDICTED BY IDOCK:   -6.17 KCAL/MOL
REMARK 924 INTRA-LIGAND FREE ENERGY PREDICTED BY IDOCK:   -2.03 KCAL/MOL
REMARK 927      BINDING AFFINITY PREDICTED BY RF-SCORE:    0.00 PKD
ROOT
HETATM    1  C   UNL     1      -7.799   8.937  69.518  1.00  0.00    -0.094 C  
HETATM    2  C   UNL     1      -7.391   9.345  70.821  1.00  0.00    -0.126 C  
HETATM    3  C   UNL     1      -8.871   9.126  70.847  1.00  0.00    -0.292 C  
HETATM    4  C   UNL     1      -9.618   8.336  69.117  1.00  0.00    -0.160 C  
HETATM    5  C   UNL     1     -11.213  14.993  68.906  1.00  0.00    -0.277 C  
HETATM    6  C   UNL     1      -9.009   7.628  70.126  1.00  0.00    -0.146 C  
HETATM    7  C   UNL     1     -10.730   8.121  70.805  1.00  0.00    -0.242 C  
HETATM    8  C   UNL     1      -9.887  14.536  68.457  1.00  0.00    -0.231 C  
HETATM    9  C   UNL     1      -8.515   6.224  70.276  1.00  0.00    -0.134 C  
HETATM   10  C   UNL     1     -11.787  14.222  70.048  1.00  0.00    -0.378 C  
HETATM   11  C   UNL     1     -11.233   9.704  70.076  1.00  0.00    -0.271 C  
HETATM   12  C   UNL     1      -9.633  13.214  68.450  1.00  0.00    -0.186 C  
HETATM   13  O   UNL     1     -11.742  15.981  68.413  1.00  0.00    -0.346 OA 
HETATM   14  C   UNL     1     -10.077  10.907  69.529  1.00  0.00    -0.056 C  
HETATM   15  C   UNL     1     -11.346  11.741  67.452  1.00  0.00    -0.376 C  
HETATM   16  C   UNL     1      -8.626  10.414  68.810  1.00  0.00    -0.141 C  
HETATM   17  C   UNL     1     -10.713  12.154  68.794  1.00  0.00    -0.252 C  
HETATM   18  C   UNL     1      -7.672  11.615  68.754  1.00  0.00    -0.111 C  
HETATM   19  C   UNL     1     -11.848  12.736  69.721  1.00  0.00    -0.380 C  
HETATM   20  C   UNL     1      -8.281  12.755  67.944  1.00  0.00    -0.168 C  
ENDROOT
BRANCH   4  21
HETATM   21  O   UNL     1     -10.491   7.152  68.767  1.00  0.00    -0.194 OA 
BRANCH  21  22
HETATM   22  C   UNL     1     -10.663   6.712  67.491  1.00  0.00    -0.317 C  
HETATM   23  O   UNL     1     -11.148   5.636  67.186  1.00  0.00    -0.131 OA 
BRANCH  22  24
HETATM   24  C   UNL     1     -10.096   7.751  66.524  1.00  0.00    -0.224 C  
BRANCH  24  25
HETATM   25  C   UNL     1      -8.865   7.311  65.728  1.00  0.00    -0.095 C  
BRANCH  25  26
HETATM   26  C   UNL     1      -7.822   8.401  65.455  1.00  0.00    -0.108 C  
BRANCH  26  27
HETATM   27  C   UNL     1      -8.151   9.296  64.258  1.00  0.00    -0.144 C  
BRANCH  27  28
HETATM   28  C   UNL     1      -8.710  10.646  64.716  1.00  0.00    -0.170 C  
HETATM   29  C   UNL     1     -10.149  10.841  64.264  1.00  0.00    -0.427 C  
ENDBRANCH  27  28
ENDBRANCH  26  27
ENDBRANCH  25  26
ENDBRANCH  24  25
ENDBRANCH  22  24
ENDBRANCH  21  22
ENDBRANCH   4  21
TORSDOF 7
ENDMDL
MODEL       68
REMARK 921   NORMALIZED FREE ENERGY PREDICTED BY IDOCK:   -4.28 KCAL/MOL
REMARK 922        TOTAL FREE ENERGY PREDICTED BY IDOCK:   -8.18 KCAL/MOL
REMARK 923 INTER-LIGAND FREE ENERGY PREDICTED BY IDOCK:   -6.70 KCAL/MOL
REMARK 924 INTRA-LIGAND FREE ENERGY PREDICTED BY IDOCK:   -1.48 KCAL/MOL
REMARK 927      BINDING AFFINITY PREDICTED BY RF-SCORE:    0.00 PKD
ROOT
HETATM    1  C   UNL     1      -8.391   5.957  69.643  1.00  0.00    -0.117 C  
HETATM    2  C   UNL     1      -7.147   5.886  68.952  1.00  0.00    -0.073 C  
HETATM    3  C   UNL     1      -7.092   7.054  69.885  1.00  0.00    -0.070 C  
HETATM    4  C   UNL     1      -8.715   7.201  71.119  1.00  0.00    -0.133 C  
HETATM    5  C   UNL     1      -9.713  11.908  66.246  1.00  0.00    -0.229 C  
HETATM    6  C   UNL     1      -7.630   6.379  71.313  1.00  0.00    -0.094 C  
HETATM    7  C   UNL     1      -7.012   8.150  71.691  1.00  0.00    -0.072 C  
HETATM    8  C   UNL     1     -10.107  10.509  66.013  1.00  0.00    -0.317 C  
HETATM    9  C   UNL     1      -7.315   5.256  72.249  1.00  0.00    -0.093 C  
HETATM   10  C   UNL     1      -8.486  12.083  67.078  1.00  0.00    -0.183 C  
HETATM   11  C   UNL     1      -7.923   9.337  70.665  1.00  0.00    -0.189 C  
HETATM   12  C   UNL     1      -9.957   9.625  67.017  1.00  0.00    -0.263 C  
HETATM   13  O   UNL     1     -10.319  12.832  65.719  1.00  0.00    -0.271 OA 
HETATM   14  C   UNL     1      -8.611   8.912  69.107  1.00  0.00    -0.134 C  
HETATM   15  C   UNL     1     -10.771  10.304  69.249  1.00  0.00    -0.265 C  
HETATM   16  C   UNL     1      -9.269   7.371  68.869  1.00  0.00    -0.142 C  
HETATM   17  C   UNL     1      -9.488  10.044  68.436  1.00  0.00    -0.146 C  
HETATM   18  C   UNL     1      -9.469   7.148  67.363  1.00  0.00    -0.156 C  
HETATM   19  C   UNL     1      -8.634  11.370  68.416  1.00  0.00    -0.156 C  
HETATM   20  C   UNL     1     -10.407   8.198  66.779  1.00  0.00    -0.361 C  
ENDROOT
BRANCH   4  21
HETATM   21  O   UNL     1      -8.920   7.338  72.611  1.00  0.00    -0.127 OA 
BRANCH  21  22
HETATM   22  C   UNL     1     -10.152   7.364  73.187  1.00  0.00    -0.291 C  
HETATM   23  O   UNL     1     -10.447   6.793  74.223  1.00  0.00    -0.338 OA 
BRANCH  22  24
HETATM   24  C   UNL     1     -11.104   8.164  72.298  1.00  0.00    -0.410 C  
BRANCH  24  25
HETATM   25  C   UNL     1     -12.064   7.334  71.441  1.00  0.00    -0.370 C  
BRANCH  25  26
HETATM   26  C   UNL     1     -13.557   7.576  71.688  1.00  0.00    -0.442 C  
BRANCH  26  27
HETATM   27  C   UNL     1     -13.879   8.945  72.289  1.00  0.00    -0.536 C  
BRANCH  27  28
HETATM   28  C   UNL     1     -13.657  10.063  71.266  1.00  0.00    -0.236 C  
HETATM   29  C   UNL     1     -13.280  11.373  71.939  1.00  0.00    -0.485 C  
ENDBRANCH  27  28
ENDBRANCH  26  27
ENDBRANCH  25  26
ENDBRANCH  24  25
ENDBRANCH  22  24
ENDBRANCH  21  22
ENDBRANCH   4  21
TORSDOF 7
ENDMDL
MODEL       69
REMARK 921   NORMALIZED FREE ENERGY PREDICTED BY IDOCK:   -4.28 KCAL/MOL
REMARK 922        TOTAL FREE ENERGY PREDICTED BY IDOCK:   -8.18 KCAL/MOL
REMARK 923 INTER-LIGAND FREE ENERGY PREDICTED BY IDOCK:   -7.07 KCAL/MOL
REMARK 924 INTRA-LIGAND FREE ENERGY PREDICTED BY IDOCK:   -1.10 KCAL/MOL
REMARK 927      BINDING AFFINITY PREDICTED BY RF-SCORE:    0.00 PKD
ROOT
HETATM    1  C   UNL     1     -11.716   7.891  71.245  1.00  0.00    -0.313 C  
HETATM    2  C   UNL     1     -11.473   8.397  72.555  1.00  0.00    -0.422 C  
HETATM    3  C   UNL     1     -10.326   8.800  71.682  1.00  0.00    -0.391 C  
HETATM    4  C   UNL     1     -10.590   8.340  69.709  1.00  0.00    -0.228 C  
HETATM    5  C   UNL     1      -6.302   3.576  72.122  1.00  0.00    -0.014 C  
HETATM    6  C   UNL     1     -11.111   9.436  70.355  1.00  0.00    -0.311 C  
HETATM    7  C   UNL     1      -9.239   9.789  70.163  1.00  0.00    -0.253 C  
HETATM    8  C   UNL     1      -7.757   3.410  72.281  1.00  0.00    -0.059 C  
HETATM    9  C   UNL     1     -12.115  10.487  70.001  1.00  0.00    -0.351 C  
HETATM   10  C   UNL     1      -5.821   4.986  72.204  1.00  0.00    -0.020 C  
HETATM   11  C   UNL     1      -8.324   8.223  70.209  1.00  0.00    -0.123 C  
HETATM   12  C   UNL     1      -8.571   4.332  71.735  1.00  0.00    -0.118 C  
HETATM   13  O   UNL     1      -5.563   2.606  72.011  1.00  0.00    -0.007 OA 
HETATM   14  C   UNL     1      -8.913   6.805  71.059  1.00  0.00    -0.145 C  
HETATM   15  C   UNL     1      -8.112   5.005  69.403  1.00  0.00    -0.079 C  
HETATM   16  C   UNL     1     -10.572   6.466  71.082  1.00  0.00    -0.282 C  
HETATM   17  C   UNL     1      -8.042   5.500  70.860  1.00  0.00    -0.114 C  
HETATM   18  C   UNL     1     -10.843   5.406  72.158  1.00  0.00    -0.275 C  
HETATM   19  C   UNL     1      -6.544   5.864  71.191  1.00  0.00    -0.049 C  
HETATM   20  C   UNL     1     -10.065   4.126  71.868  1.00  0.00    -0.224 C  
ENDROOT
BRANCH   4  21
HETATM   21  O   UNL     1     -10.504   9.105  68.407  1.00  0.00    -0.205 OA 
BRANCH  21  22
HETATM   22  C   UNL     1     -10.532   8.498  67.190  1.00  0.00    -0.299 C  
HETATM   23  O   UNL     1     -10.790   7.321  67.006  1.00  0.00    -0.357 OA 
BRANCH  22  24
HETATM   24  C   UNL     1     -10.126   9.509  66.118  1.00  0.00    -0.326 C  
BRANCH  24  25
HETATM   25  C   UNL     1      -9.873  10.935  66.614  1.00  0.00    -0.237 C  
BRANCH  25  26
HETATM   26  C   UNL     1     -10.401  12.058  65.714  1.00  0.00    -0.289 C  
BRANCH  26  27
HETATM   27  C   UNL     1     -11.833  12.492  66.030  1.00  0.00    -0.478 C  
BRANCH  27  28
HETATM   28  C   UNL     1     -12.649  12.678  64.747  1.00  0.00    -0.530 C  
HETATM   29  C   UNL     1     -12.037  11.922  63.578  1.00  0.00    -0.575 C  
ENDBRANCH  27  28
ENDBRANCH  26  27
ENDBRANCH  25  26
ENDBRANCH  24  25
ENDBRANCH  22  24
ENDBRANCH  21  22
ENDBRANCH   4  21
TORSDOF 7
ENDMDL
MODEL       70
REMARK 921   NORMALIZED FREE ENERGY PREDICTED BY IDOCK:   -4.27 KCAL/MOL
REMARK 922        TOTAL FREE ENERGY PREDICTED BY IDOCK:   -8.17 KCAL/MOL
REMARK 923 INTER-LIGAND FREE ENERGY PREDICTED BY IDOCK:   -6.98 KCAL/MOL
REMARK 924 INTRA-LIGAND FREE ENERGY PREDICTED BY IDOCK:   -1.19 KCAL/MOL
REMARK 927      BINDING AFFINITY PREDICTED BY RF-SCORE:    0.00 PKD
ROOT
HETATM    1  C   UNL     1      -7.835  10.430  69.240  1.00  0.00    -0.147 C  
HETATM    2  C   UNL     1      -6.739   9.606  68.851  1.00  0.00    -0.046 C  
HETATM    3  C   UNL     1      -7.957   9.129  68.125  1.00  0.00    -0.100 C  
HETATM    4  C   UNL     1      -9.598  10.317  68.396  1.00  0.00    -0.149 C  
HETATM    5  C   UNL     1     -10.611   4.882  72.437  1.00  0.00    -0.200 C  
HETATM    6  C   UNL     1      -8.572  10.553  67.511  1.00  0.00    -0.121 C  
HETATM    7  C   UNL     1      -9.575   9.104  66.766  1.00  0.00    -0.253 C  
HETATM    8  C   UNL     1      -9.800   6.015  72.912  1.00  0.00    -0.177 C  
HETATM    9  C   UNL     1      -8.169  11.710  66.653  1.00  0.00    -0.140 C  
HETATM   10  C   UNL     1     -10.488   4.594  70.978  1.00  0.00    -0.049 C  
HETATM   11  C   UNL     1     -10.301   8.122  68.107  1.00  0.00    -0.251 C  
HETATM   12  C   UNL     1      -9.678   7.095  72.118  1.00  0.00    -0.163 C  
HETATM   13  O   UNL     1     -11.262   4.198  73.217  1.00  0.00    -0.239 OA 
HETATM   14  C   UNL     1      -9.582   8.020  69.705  1.00  0.00    -0.171 C  
HETATM   15  C   UNL     1     -11.745   7.985  71.098  1.00  0.00    -0.307 C  
HETATM   16  C   UNL     1      -8.822   9.377  70.374  1.00  0.00    -0.290 C  
HETATM   17  C   UNL     1     -10.441   7.232  70.773  1.00  0.00    -0.224 C  
HETATM   18  C   UNL     1      -7.992   8.930  71.585  1.00  0.00    -0.080 C  
HETATM   19  C   UNL     1     -10.817   5.831  70.153  1.00  0.00    -0.383 C  
HETATM   20  C   UNL     1      -8.879   8.271  72.637  1.00  0.00    -0.304 C  
ENDROOT
BRANCH   4  21
HETATM   21  O   UNL     1     -10.588  11.004  67.483  1.00  0.00    -0.200 OA 
BRANCH  21  22
HETATM   22  C   UNL     1     -11.736  11.577  67.936  1.00  0.00    -0.247 C  
HETATM   23  O   UNL     1     -12.522  11.048  68.702  1.00  0.00    -0.462 OA 
BRANCH  22  24
HETATM   24  C   UNL     1     -11.902  12.948  67.280  1.00  0.00    -0.416 C  
BRANCH  24  25
HETATM   25  C   UNL     1     -11.001  14.058  67.827  1.00  0.00    -0.271 C  
BRANCH  25  26
HETATM   26  C   UNL     1     -10.958  14.190  69.354  1.00  0.00    -0.216 C  
BRANCH  26  27
HETATM   27  C   UNL     1     -12.302  14.548  69.990  1.00  0.00    -0.376 C  
BRANCH  27  28
HETATM   28  C   UNL     1     -12.217  14.508  71.519  1.00  0.00    -0.415 C  
HETATM   29  C   UNL     1     -13.309  13.637  72.120  1.00  0.00    -0.587 C  
ENDBRANCH  27  28
ENDBRANCH  26  27
ENDBRANCH  25  26
ENDBRANCH  24  25
ENDBRANCH  22  24
ENDBRANCH  21  22
ENDBRANCH   4  21
TORSDOF 7
ENDMDL
MODEL       71
REMARK 921   NORMALIZED FREE ENERGY PREDICTED BY IDOCK:   -4.24 KCAL/MOL
REMARK 922        TOTAL FREE ENERGY PREDICTED BY IDOCK:   -8.13 KCAL/MOL
REMARK 923 INTER-LIGAND FREE ENERGY PREDICTED BY IDOCK:   -6.88 KCAL/MOL
REMARK 924 INTRA-LIGAND FREE ENERGY PREDICTED BY IDOCK:   -1.25 KCAL/MOL
REMARK 927      BINDING AFFINITY PREDICTED BY RF-SCORE:    0.00 PKD
ROOT
HETATM    1  C   UNL     1      -7.678  10.708  69.345  1.00  0.00    -0.132 C  
HETATM    2  C   UNL     1      -6.661   9.929  68.722  1.00  0.00    -0.046 C  
HETATM    3  C   UNL     1      -7.970   9.567  68.094  1.00  0.00    -0.094 C  
HETATM    4  C   UNL     1      -9.531  10.731  68.715  1.00  0.00    -0.182 C  
HETATM    5  C   UNL     1     -10.212   4.825  72.116  1.00  0.00    -0.195 C  
HETATM    6  C   UNL     1      -8.612  11.067  67.749  1.00  0.00    -0.130 C  
HETATM    7  C   UNL     1      -9.739   9.742  66.952  1.00  0.00    -0.243 C  
HETATM    8  C   UNL     1      -9.317   5.876  72.630  1.00  0.00    -0.146 C  
HETATM    9  C   UNL     1      -8.281  12.321  67.004  1.00  0.00    -0.155 C  
HETATM   10  C   UNL     1     -10.273   4.730  70.627  1.00  0.00    -0.250 C  
HETATM   11  C   UNL     1     -10.328   8.602  68.234  1.00  0.00    -0.252 C  
HETATM   12  C   UNL     1      -9.260   7.049  71.972  1.00  0.00    -0.148 C  
HETATM   13  O   UNL     1     -10.785   4.054  72.875  1.00  0.00    -0.173 OA 
HETATM   14  C   UNL     1      -9.426   8.282  69.705  1.00  0.00    -0.163 C  
HETATM   15  C   UNL     1     -11.407   8.092  71.337  1.00  0.00    -0.292 C  
HETATM   16  C   UNL     1      -8.553   9.529  70.446  1.00  0.00    -0.246 C  
HETATM   17  C   UNL     1     -10.174   7.371  70.760  1.00  0.00    -0.200 C  
HETATM   18  C   UNL     1      -7.597   8.916  71.479  1.00  0.00    -0.092 C  
HETATM   19  C   UNL     1     -10.661   6.069  70.016  1.00  0.00    -0.380 C  
HETATM   20  C   UNL     1      -8.370   8.136  72.537  1.00  0.00    -0.230 C  
ENDROOT
BRANCH   4  21
HETATM   21  O   UNL     1     -10.604  11.544  68.026  1.00  0.00    -0.179 OA 
BRANCH  21  22
HETATM   22  C   UNL     1     -11.548  12.248  68.706  1.00  0.00    -0.330 C  
HETATM   23  O   UNL     1     -11.882  12.031  69.858  1.00  0.00    -0.320 OA 
BRANCH  22  24
HETATM   24  C   UNL     1     -12.157  13.297  67.775  1.00  0.00    -0.281 C  
BRANCH  24  25
HETATM   25  C   UNL     1     -11.939  13.060  66.279  1.00  0.00    -0.477 C  
BRANCH  25  26
HETATM   26  C   UNL     1     -11.950  14.314  65.396  1.00  0.00    -0.383 C  
BRANCH  26  27
HETATM   27  C   UNL     1     -10.562  14.773  64.945  1.00  0.00    -0.431 C  
BRANCH  27  28
HETATM   28  C   UNL     1     -10.156  16.073  65.646  1.00  0.00    -0.384 C  
HETATM   29  C   UNL     1      -8.724  16.013  66.154  1.00  0.00    -0.348 C  
ENDBRANCH  27  28
ENDBRANCH  26  27
ENDBRANCH  25  26
ENDBRANCH  24  25
ENDBRANCH  22  24
ENDBRANCH  21  22
ENDBRANCH   4  21
TORSDOF 7
ENDMDL
MODEL       72
REMARK 921   NORMALIZED FREE ENERGY PREDICTED BY IDOCK:   -4.24 KCAL/MOL
REMARK 922        TOTAL FREE ENERGY PREDICTED BY IDOCK:   -8.12 KCAL/MOL
REMARK 923 INTER-LIGAND FREE ENERGY PREDICTED BY IDOCK:   -7.27 KCAL/MOL
REMARK 924 INTRA-LIGAND FREE ENERGY PREDICTED BY IDOCK:   -0.86 KCAL/MOL
REMARK 927      BINDING AFFINITY PREDICTED BY RF-SCORE:    0.00 PKD
ROOT
HETATM    1  C   UNL     1      -7.841  10.525  68.426  1.00  0.00    -0.110 C  
HETATM    2  C   UNL     1      -7.355  10.582  67.087  1.00  0.00    -0.093 C  
HETATM    3  C   UNL     1      -8.834  10.366  67.034  1.00  0.00    -0.143 C  
HETATM    4  C   UNL     1      -9.748  10.459  68.860  1.00  0.00    -0.198 C  
HETATM    5  C   UNL     1      -9.321   3.785  67.389  1.00  0.00    -0.198 C  
HETATM    6  C   UNL     1      -9.392  11.537  68.083  1.00  0.00    -0.185 C  
HETATM    7  C   UNL     1     -10.905  10.750  67.215  1.00  0.00    -0.344 C  
HETATM    8  C   UNL     1      -8.179   4.480  68.005  1.00  0.00    -0.094 C  
HETATM    9  C   UNL     1      -9.332  13.015  68.300  1.00  0.00    -0.199 C  
HETATM   10  C   UNL     1     -10.116   4.612  66.434  1.00  0.00    -0.289 C  
HETATM   11  C   UNL     1     -10.910   8.961  67.516  1.00  0.00    -0.108 C  
HETATM   12  C   UNL     1      -8.322   5.775  68.341  1.00  0.00    -0.107 C  
HETATM   13  O   UNL     1      -9.529   2.597  67.602  1.00  0.00    -0.198 OA 
HETATM   14  C   UNL     1      -9.443   8.047  67.821  1.00  0.00    -0.166 C  
HETATM   15  C   UNL     1     -10.373   6.402  69.568  1.00  0.00    -0.252 C  
HETATM   16  C   UNL     1      -8.186   8.746  68.715  1.00  0.00    -0.116 C  
HETATM   17  C   UNL     1      -9.672   6.530  68.202  1.00  0.00    -0.126 C  
HETATM   18  C   UNL     1      -6.921   7.895  68.534  1.00  0.00    -0.071 C  
HETATM   19  C   UNL     1     -10.604   5.890  67.103  1.00  0.00    -0.373 C  
HETATM   20  C   UNL     1      -7.155   6.467  69.014  1.00  0.00    -0.081 C  
ENDROOT
BRANCH   4  21
HETATM   21  O   UNL     1     -10.922  11.219  69.435  1.00  0.00    -0.242 OA 
BRANCH  21  22
HETATM   22  C   UNL     1     -11.591  10.813  70.547  1.00  0.00    -0.330 C  
HETATM   23  O   UNL     1     -11.421   9.745  71.110  1.00  0.00    -0.343 OA 
BRANCH  22  24
HETATM   24  C   UNL     1     -12.621  11.877  70.927  1.00  0.00    -0.361 C  
BRANCH  24  25
HETATM   25  C   UNL     1     -12.203  13.326  70.668  1.00  0.00    -0.417 C  
BRANCH  25  26
HETATM   26  C   UNL     1     -13.219  14.398  71.080  1.00  0.00    -0.414 C  
BRANCH  26  27
HETATM   27  C   UNL     1     -12.589  15.707  71.559  1.00  0.00    -0.511 C  
BRANCH  27  28
HETATM   28  C   UNL     1     -11.913  15.528  72.922  1.00  0.00    -0.575 C  
HETATM   29  C   UNL     1     -12.897  15.718  74.066  1.00  0.00    -0.622 C  
ENDBRANCH  27  28
ENDBRANCH  26  27
ENDBRANCH  25  26
ENDBRANCH  24  25
ENDBRANCH  22  24
ENDBRANCH  21  22
ENDBRANCH   4  21
TORSDOF 7
ENDMDL
MODEL       73
REMARK 921   NORMALIZED FREE ENERGY PREDICTED BY IDOCK:   -4.23 KCAL/MOL
REMARK 922        TOTAL FREE ENERGY PREDICTED BY IDOCK:   -8.11 KCAL/MOL
REMARK 923 INTER-LIGAND FREE ENERGY PREDICTED BY IDOCK:   -6.79 KCAL/MOL
REMARK 924 INTRA-LIGAND FREE ENERGY PREDICTED BY IDOCK:   -1.32 KCAL/MOL
REMARK 927      BINDING AFFINITY PREDICTED BY RF-SCORE:    0.00 PKD
ROOT
HETATM    1  C   UNL     1      -8.920  14.407  68.124  1.00  0.00    -0.185 C  
HETATM    2  C   UNL     1      -8.614  14.781  66.783  1.00  0.00    -0.226 C  
HETATM    3  C   UNL     1      -9.789  13.856  66.749  1.00  0.00    -0.274 C  
HETATM    4  C   UNL     1     -10.509  13.369  68.598  1.00  0.00    -0.225 C  
HETATM    5  C   UNL     1      -6.913   7.909  66.560  1.00  0.00    -0.071 C  
HETATM    6  C   UNL     1     -10.787  14.524  67.906  1.00  0.00    -0.260 C  
HETATM    7  C   UNL     1     -11.760  13.140  67.013  1.00  0.00    -0.431 C  
HETATM    8  C   UNL     1      -6.232   9.044  67.204  1.00  0.00    -0.059 C  
HETATM    9  C   UNL     1     -11.457  15.818  68.245  1.00  0.00    -0.338 C  
HETATM   10  C   UNL     1      -8.073   8.282  65.699  1.00  0.00    -0.124 C  
HETATM   11  C   UNL     1     -10.855  11.575  67.163  1.00  0.00    -0.314 C  
HETATM   12  C   UNL     1      -6.979  10.071  67.652  1.00  0.00    -0.085 C  
HETATM   13  O   UNL     1      -6.488   6.766  66.679  1.00  0.00    -0.041 OA 
HETATM   14  C   UNL     1      -9.111  11.502  67.353  1.00  0.00    -0.166 C  
HETATM   15  C   UNL     1      -8.986   9.510  68.978  1.00  0.00    -0.144 C  
HETATM   16  C   UNL     1      -8.315  12.681  68.270  1.00  0.00    -0.165 C  
HETATM   17  C   UNL     1      -8.530  10.054  67.611  1.00  0.00    -0.114 C  
HETATM   18  C   UNL     1      -6.809  12.591  67.987  1.00  0.00    -0.094 C  
HETATM   19  C   UNL     1      -9.089   9.101  66.485  1.00  0.00    -0.194 C  
HETATM   20  C   UNL     1      -6.270  11.212  68.351  1.00  0.00    -0.045 C  
ENDROOT
BRANCH   4  21
HETATM   21  O   UNL     1     -11.867  13.402  69.264  1.00  0.00    -0.299 OA 
BRANCH  21  22
HETATM   22  C   UNL     1     -12.085  12.928  70.521  1.00  0.00    -0.282 C  
HETATM   23  O   UNL     1     -12.400  13.615  71.478  1.00  0.00    -0.288 OA 
BRANCH  22  24
HETATM   24  C   UNL     1     -11.807  11.426  70.544  1.00  0.00    -0.394 C  
BRANCH  24  25
HETATM   25  C   UNL     1     -12.969  10.545  71.010  1.00  0.00    -0.475 C  
BRANCH  25  26
HETATM   26  C   UNL     1     -12.587   9.336  71.872  1.00  0.00    -0.468 C  
BRANCH  26  27
HETATM   27  C   UNL     1     -11.618   8.365  71.195  1.00  0.00    -0.317 C  
BRANCH  27  28
HETATM   28  C   UNL     1     -10.386   8.115  72.070  1.00  0.00    -0.320 C  
HETATM   29  C   UNL     1     -10.678   7.118  73.180  1.00  0.00    -0.385 C  
ENDBRANCH  27  28
ENDBRANCH  26  27
ENDBRANCH  25  26
ENDBRANCH  24  25
ENDBRANCH  22  24
ENDBRANCH  21  22
ENDBRANCH   4  21
TORSDOF 7
ENDMDL
MODEL       74
REMARK 921   NORMALIZED FREE ENERGY PREDICTED BY IDOCK:   -4.22 KCAL/MOL
REMARK 922        TOTAL FREE ENERGY PREDICTED BY IDOCK:   -8.09 KCAL/MOL
REMARK 923 INTER-LIGAND FREE ENERGY PREDICTED BY IDOCK:   -6.90 KCAL/MOL
REMARK 924 INTRA-LIGAND FREE ENERGY PREDICTED BY IDOCK:   -1.19 KCAL/MOL
REMARK 927      BINDING AFFINITY PREDICTED BY RF-SCORE:    0.00 PKD
ROOT
HETATM    1  C   UNL     1     -10.843  12.066  66.462  1.00  0.00    -0.314 C  
HETATM    2  C   UNL     1     -12.160  11.923  65.936  1.00  0.00     0.211 C  
HETATM    3  C   UNL     1     -11.886  13.384  66.105  1.00  0.00    -0.427 C  
HETATM    4  C   UNL     1      -9.964  13.803  66.661  1.00  0.00    -0.279 C  
HETATM    5  C   UNL     1     -13.682  14.447  72.376  1.00  0.00    -0.490 C  
HETATM    6  C   UNL     1     -10.391  13.540  65.381  1.00  0.00    -0.329 C  
HETATM    7  C   UNL     1     -11.037  15.294  65.792  1.00  0.00    -0.301 C  
HETATM    8  C   UNL     1     -13.196  13.123  71.956  1.00  0.00    -0.543 C  
HETATM    9  C   UNL     1      -9.707  13.277  64.077  1.00  0.00     1.023 C  
HETATM   10  C   UNL     1     -14.047  15.364  71.256  1.00  0.00    -0.463 C  
HETATM   11  C   UNL     1     -11.375  15.410  67.571  1.00  0.00    -0.269 C  
HETATM   12  C   UNL     1     -12.412  13.043  70.865  1.00  0.00    -0.396 C  
HETATM   13  O   UNL     1     -13.839  14.718  73.560  1.00  0.00     0.060 OA 
HETATM   14  C   UNL     1     -11.805  14.016  68.547  1.00  0.00    -0.399 C  
HETATM   15  C   UNL     1     -10.543  14.650  70.698  1.00  0.00     0.420 C  
HETATM   16  C   UNL     1     -11.098  12.511  68.224  1.00  0.00    -0.294 C  
HETATM   17  C   UNL     1     -11.918  14.300  70.098  1.00  0.00    -0.391 C  
HETATM   18  C   UNL     1     -11.890  11.426  68.966  1.00  0.00    -0.415 C  
HETATM   19  C   UNL     1     -12.877  15.536  70.296  1.00  0.00    -0.239 C  
HETATM   20  C   UNL     1     -11.882  11.681  70.469  1.00  0.00    -0.328 C  
ENDROOT
BRANCH   4  21
HETATM   21  O   UNL     1      -8.872  14.714  66.146  1.00  0.00    -0.093 OA 
BRANCH  21  22
HETATM   22  C   UNL     1      -7.824  15.118  66.913  1.00  0.00    -0.075 C  
HETATM   23  O   UNL     1      -7.104  14.373  67.556  1.00  0.00    -0.180 OA 
BRANCH  22  24
HETATM   24  C   UNL     1      -7.744  16.644  66.886  1.00  0.00    -0.263 C  
BRANCH  24  25
HETATM   25  C   UNL     1      -8.543  17.369  67.972  1.00  0.00    -0.240 C  
BRANCH  25  26
HETATM   26  C   UNL     1      -8.055  18.777  68.332  1.00  0.00    -0.371 C  
BRANCH  26  27
HETATM   27  C   UNL     1      -8.956  19.902  67.818  1.00  0.00    -0.402 C  
BRANCH  27  28
HETATM   28  C   UNL     1     -10.296  19.352  67.321  1.00  0.00    -0.554 C  
HETATM   29  C   UNL     1     -10.576  19.767  65.885  1.00  0.00    -0.557 C  
ENDBRANCH  27  28
ENDBRANCH  26  27
ENDBRANCH  25  26
ENDBRANCH  24  25
ENDBRANCH  22  24
ENDBRANCH  21  22
ENDBRANCH   4  21
TORSDOF 7
ENDMDL
MODEL       75
REMARK 921   NORMALIZED FREE ENERGY PREDICTED BY IDOCK:   -4.20 KCAL/MOL
REMARK 922        TOTAL FREE ENERGY PREDICTED BY IDOCK:   -8.08 KCAL/MOL
REMARK 923 INTER-LIGAND FREE ENERGY PREDICTED BY IDOCK:   -6.84 KCAL/MOL
REMARK 924 INTRA-LIGAND FREE ENERGY PREDICTED BY IDOCK:   -1.23 KCAL/MOL
REMARK 927      BINDING AFFINITY PREDICTED BY RF-SCORE:    0.00 PKD
ROOT
HETATM    1  C   UNL     1     -10.831  13.743  69.813  1.00  0.00     0.166 C  
HETATM    2  C   UNL     1     -11.991  14.399  70.318  1.00  0.00    -0.388 C  
HETATM    3  C   UNL     1     -12.184  14.182  68.850  1.00  0.00    -0.257 C  
HETATM    4  C   UNL     1     -10.709  13.066  67.981  1.00  0.00    -0.232 C  
HETATM    5  C   UNL     1      -9.347  19.546  66.233  1.00  0.00    -0.372 C  
HETATM    6  C   UNL     1     -11.781  12.572  68.685  1.00  0.00    -0.368 C  
HETATM    7  C   UNL     1     -12.494  13.179  67.016  1.00  0.00     0.096 C  
HETATM    8  C   UNL     1      -8.885  19.017  67.528  1.00  0.00    -0.316 C  
HETATM    9  C   UNL     1     -12.158  11.227  69.220  1.00  0.00    -0.372 C  
HETATM   10  C   UNL     1     -10.661  19.011  65.771  1.00  0.00    -0.388 C  
HETATM   11  C   UNL     1     -11.517  14.587  66.421  1.00  0.00    -0.362 C  
HETATM   12  C   UNL     1      -9.112  17.721  67.809  1.00  0.00    -0.249 C  
HETATM   13  O   UNL     1      -8.717  20.417  65.645  1.00  0.00     0.049 OA 
HETATM   14  C   UNL     1     -10.652  15.666  67.502  1.00  0.00    -0.297 C  
HETATM   15  C   UNL     1      -8.567  16.073  66.051  1.00  0.00    -0.192 C  
HETATM   16  C   UNL     1      -9.922  15.050  68.900  1.00  0.00    -0.236 C  
HETATM   17  C   UNL     1      -9.745  16.743  66.783  1.00  0.00    -0.273 C  
HETATM   18  C   UNL     1      -9.555  16.221  69.821  1.00  0.00     0.153 C  
HETATM   19  C   UNL     1     -10.634  17.489  65.715  1.00  0.00    -0.176 C  
HETATM   20  C   UNL     1      -8.593  17.178  69.124  1.00  0.00     0.013 C  
ENDROOT
BRANCH   4  21
HETATM   21  O   UNL     1     -10.670  11.832  67.108  1.00  0.00    -0.221 OA 
BRANCH  21  22
HETATM   22  C   UNL     1      -9.590  11.008  67.042  1.00  0.00    -0.177 C  
HETATM   23  O   UNL     1      -8.561  11.158  67.678  1.00  0.00    -0.124 OA 
BRANCH  22  24
HETATM   24  C   UNL     1      -9.856   9.918  66.004  1.00  0.00    -0.330 C  
BRANCH  24  25
HETATM   25  C   UNL     1      -9.243  10.155  64.622  1.00  0.00    -0.300 C  
BRANCH  25  26
HETATM   26  C   UNL     1     -10.151  10.847  63.598  1.00  0.00    -0.414 C  
BRANCH  26  27
HETATM   27  C   UNL     1     -10.231  12.366  63.758  1.00  0.00    -0.404 C  
BRANCH  27  28
HETATM   28  C   UNL     1     -11.636  12.882  63.434  1.00  0.00    -0.463 C  
HETATM   29  C   UNL     1     -12.698  11.827  63.702  1.00  0.00    -0.407 C  
ENDBRANCH  27  28
ENDBRANCH  26  27
ENDBRANCH  25  26
ENDBRANCH  24  25
ENDBRANCH  22  24
ENDBRANCH  21  22
ENDBRANCH   4  21
TORSDOF 7
ENDMDL
MODEL       76
REMARK 921   NORMALIZED FREE ENERGY PREDICTED BY IDOCK:   -4.18 KCAL/MOL
REMARK 922        TOTAL FREE ENERGY PREDICTED BY IDOCK:   -8.04 KCAL/MOL
REMARK 923 INTER-LIGAND FREE ENERGY PREDICTED BY IDOCK:   -6.24 KCAL/MOL
REMARK 924 INTRA-LIGAND FREE ENERGY PREDICTED BY IDOCK:   -1.80 KCAL/MOL
REMARK 927      BINDING AFFINITY PREDICTED BY RF-SCORE:    0.00 PKD
ROOT
HETATM    1  C   UNL     1     -10.200   6.814  69.489  1.00  0.00    -0.202 C  
HETATM    2  C   UNL     1     -11.475   6.361  69.044  1.00  0.00    -0.203 C  
HETATM    3  C   UNL     1     -10.670   6.735  67.839  1.00  0.00    -0.320 C  
HETATM    4  C   UNL     1      -8.730   7.219  68.262  1.00  0.00    -0.125 C  
HETATM    5  C   UNL     1     -11.908  13.201  67.255  1.00  0.00    -0.367 C  
HETATM    6  C   UNL     1      -9.230   5.945  68.129  1.00  0.00    -0.116 C  
HETATM    7  C   UNL     1      -9.167   6.663  66.356  1.00  0.00    -0.180 C  
HETATM    8  C   UNL     1     -11.958  12.550  68.575  1.00  0.00    -0.266 C  
HETATM    9  C   UNL     1      -8.701   4.573  68.405  1.00  0.00    -0.114 C  
HETATM   10  C   UNL     1     -11.906  12.262  66.095  1.00  0.00    -0.398 C  
HETATM   11  C   UNL     1      -9.429   8.457  66.424  1.00  0.00    -0.293 C  
HETATM   12  C   UNL     1     -11.266  11.410  68.755  1.00  0.00    -0.308 C  
HETATM   13  O   UNL     1     -11.947  14.420  67.148  1.00  0.00    -0.405 OA 
HETATM   14  C   UNL     1     -10.348   9.234  67.702  1.00  0.00    -0.311 C  
HETATM   15  C   UNL     1      -8.931  11.368  67.950  1.00  0.00    -0.153 C  
HETATM   16  C   UNL     1     -10.260   8.637  69.284  1.00  0.00    -0.215 C  
HETATM   17  C   UNL     1     -10.339  10.815  67.661  1.00  0.00    -0.236 C  
HETATM   18  C   UNL     1     -11.400   9.254  70.107  1.00  0.00    -0.193 C  
HETATM   19  C   UNL     1     -10.762  11.263  66.210  1.00  0.00    -0.312 C  
HETATM   20  C   UNL     1     -11.290  10.775  70.129  1.00  0.00    -0.390 C  
ENDROOT
BRANCH   4  21
HETATM   21  O   UNL     1      -7.378   6.778  67.748  1.00  0.00    -0.091 OA 
BRANCH  21  22
HETATM   22  C   UNL     1      -6.207   7.287  68.217  1.00  0.00    -0.036 C  
HETATM   23  O   UNL     1      -5.238   7.553  67.526  1.00  0.00    -0.023 OA 
BRANCH  22  24
HETATM   24  C   UNL     1      -6.287   7.406  69.738  1.00  0.00    -0.031 C  
BRANCH  24  25
HETATM   25  C   UNL     1      -6.551   8.813  70.280  1.00  0.00    -0.040 C  
BRANCH  25  26
HETATM   26  C   UNL     1      -7.585   8.910  71.409  1.00  0.00    -0.118 C  
BRANCH  26  27
HETATM   27  C   UNL     1      -7.315   7.973  72.587  1.00  0.00    -0.130 C  
BRANCH  27  28
HETATM   28  C   UNL     1      -8.404   8.103  73.656  1.00  0.00    -0.305 C  
HETATM   29  C   UNL     1      -9.786   7.825  73.087  1.00  0.00    -0.361 C  
ENDBRANCH  27  28
ENDBRANCH  26  27
ENDBRANCH  25  26
ENDBRANCH  24  25
ENDBRANCH  22  24
ENDBRANCH  21  22
ENDBRANCH   4  21
TORSDOF 7
ENDMDL
MODEL       77
REMARK 921   NORMALIZED FREE ENERGY PREDICTED BY IDOCK:   -4.16 KCAL/MOL
REMARK 922        TOTAL FREE ENERGY PREDICTED BY IDOCK:   -8.02 KCAL/MOL
REMARK 923 INTER-LIGAND FREE ENERGY PREDICTED BY IDOCK:   -6.72 KCAL/MOL
REMARK 924 INTRA-LIGAND FREE ENERGY PREDICTED BY IDOCK:   -1.30 KCAL/MOL
REMARK 927      BINDING AFFINITY PREDICTED BY RF-SCORE:    0.00 PKD
ROOT
HETATM    1  C   UNL     1     -11.156  13.214  64.414  1.00  0.00    -0.407 C  
HETATM    2  C   UNL     1     -12.377  12.489  64.304  1.00  0.00    -0.541 C  
HETATM    3  C   UNL     1     -11.833  12.271  65.680  1.00  0.00    -0.423 C  
HETATM    4  C   UNL     1     -10.181  13.399  66.101  1.00  0.00    -0.301 C  
HETATM    5  C   UNL     1      -7.798   7.110  64.812  1.00  0.00    -0.126 C  
HETATM    6  C   UNL     1     -11.486  13.830  66.163  1.00  0.00    -0.350 C  
HETATM    7  C   UNL     1     -11.249  12.675  67.671  1.00  0.00    -0.329 C  
HETATM    8  C   UNL     1      -8.063   8.041  63.703  1.00  0.00    -0.099 C  
HETATM    9  C   UNL     1     -12.147  15.161  66.330  1.00  0.00     0.287 C  
HETATM   10  C   UNL     1      -8.739   7.225  65.965  1.00  0.00    -0.168 C  
HETATM   11  C   UNL     1     -10.034  11.392  67.262  1.00  0.00    -0.217 C  
HETATM   12  C   UNL     1      -8.466   9.291  63.998  1.00  0.00    -0.202 C  
HETATM   13  O   UNL     1      -6.916   6.264  64.731  1.00  0.00    -0.048 OA 
HETATM   14  C   UNL     1      -9.760  10.834  65.620  1.00  0.00    -0.287 C  
HETATM   15  C   UNL     1      -7.212  10.499  65.750  1.00  0.00    -0.135 C  
HETATM   16  C   UNL     1      -9.848  11.929  64.333  1.00  0.00    -0.203 C  
HETATM   17  C   UNL     1      -8.561   9.816  65.455  1.00  0.00    -0.158 C  
HETATM   18  C   UNL     1      -9.921  11.140  63.019  1.00  0.00    -0.347 C  
HETATM   19  C   UNL     1      -8.767   8.651  66.498  1.00  0.00    -0.143 C  
HETATM   20  C   UNL     1      -8.693  10.252  62.850  1.00  0.00    -0.212 C  
ENDROOT
BRANCH   4  21
HETATM   21  O   UNL     1      -9.781  14.343  67.212  1.00  0.00    -0.226 OA 
BRANCH  21  22
HETATM   22  C   UNL     1      -8.592  15.004  67.228  1.00  0.00    -0.206 C  
HETATM   23  O   UNL     1      -7.511  14.495  66.988  1.00  0.00    -0.061 OA 
BRANCH  22  24
HETATM   24  C   UNL     1      -8.831  16.452  67.656  1.00  0.00    -0.191 C  
BRANCH  24  25
HETATM   25  C   UNL     1      -9.079  16.669  69.151  1.00  0.00    -0.157 C  
BRANCH  25  26
HETATM   26  C   UNL     1     -10.545  16.624  69.598  1.00  0.00    -0.274 C  
BRANCH  26  27
HETATM   27  C   UNL     1     -10.950  15.318  70.284  1.00  0.00    -0.313 C  
BRANCH  27  28
HETATM   28  C   UNL     1     -12.469  15.239  70.466  1.00  0.00    -0.454 C  
HETATM   29  C   UNL     1     -12.850  14.316  71.613  1.00  0.00    -0.424 C  
ENDBRANCH  27  28
ENDBRANCH  26  27
ENDBRANCH  25  26
ENDBRANCH  24  25
ENDBRANCH  22  24
ENDBRANCH  21  22
ENDBRANCH   4  21
TORSDOF 7
ENDMDL
MODEL       78
REMARK 921   NORMALIZED FREE ENERGY PREDICTED BY IDOCK:   -4.14 KCAL/MOL
REMARK 922        TOTAL FREE ENERGY PREDICTED BY IDOCK:   -7.99 KCAL/MOL
REMARK 923 INTER-LIGAND FREE ENERGY PREDICTED BY IDOCK:   -7.02 KCAL/MOL
REMARK 924 INTRA-LIGAND FREE ENERGY PREDICTED BY IDOCK:   -0.97 KCAL/MOL
REMARK 927      BINDING AFFINITY PREDICTED BY RF-SCORE:    0.00 PKD
ROOT
HETATM    1  C   UNL     1      -8.182  11.896  67.972  1.00  0.00    -0.157 C  
HETATM    2  C   UNL     1      -7.746  11.141  66.845  1.00  0.00    -0.148 C  
HETATM    3  C   UNL     1      -9.231  11.000  66.950  1.00  0.00    -0.168 C  
HETATM    4  C   UNL     1     -10.073  12.180  68.390  1.00  0.00    -0.209 C  
HETATM    5  C   UNL     1      -9.885   5.888  71.087  1.00  0.00    -0.181 C  
HETATM    6  C   UNL     1      -9.716  12.586  67.126  1.00  0.00    -0.205 C  
HETATM    7  C   UNL     1     -11.282  11.509  66.902  1.00  0.00    -0.363 C  
HETATM    8  C   UNL     1      -8.702   6.761  71.165  1.00  0.00    -0.136 C  
HETATM    9  C   UNL     1      -9.608  13.910  66.438  1.00  0.00    -0.292 C  
HETATM   10  C   UNL     1     -10.693   6.038  69.841  1.00  0.00    -0.393 C  
HETATM   11  C   UNL     1     -11.325  10.233  68.191  1.00  0.00    -0.233 C  
HETATM   12  C   UNL     1      -8.797   8.015  70.684  1.00  0.00    -0.143 C  
HETATM   13  O   UNL     1     -10.117   5.058  71.957  1.00  0.00    -0.183 OA 
HETATM   14  C   UNL     1      -9.873   9.604  68.951  1.00  0.00    -0.179 C  
HETATM   15  C   UNL     1     -10.782   9.329  71.343  1.00  0.00    -0.432 C  
HETATM   16  C   UNL     1      -8.565  10.636  69.250  1.00  0.00    -0.096 C  
HETATM   17  C   UNL     1     -10.129   8.605  70.150  1.00  0.00    -0.196 C  
HETATM   18  C   UNL     1      -7.332   9.785  69.582  1.00  0.00    -0.103 C  
HETATM   19  C   UNL     1     -11.119   7.487  69.644  1.00  0.00    -0.099 C  
HETATM   20  C   UNL     1      -7.587   8.916  70.809  1.00  0.00    -0.110 C  
ENDROOT
BRANCH   4  21
HETATM   21  O   UNL     1     -11.203  13.184  68.430  1.00  0.00    -0.240 OA 
BRANCH  21  22
HETATM   22  C   UNL     1     -11.671  13.724  69.588  1.00  0.00    -0.318 C  
HETATM   23  O   UNL     1     -12.572  13.254  70.261  1.00  0.00    -0.211 OA 
BRANCH  22  24
HETATM   24  C   UNL     1     -10.932  15.034  69.862  1.00  0.00    -0.282 C  
BRANCH  24  25
HETATM   25  C   UNL     1     -11.251  16.187  68.907  1.00  0.00    -0.351 C  
BRANCH  25  26
HETATM   26  C   UNL     1     -10.043  16.968  68.377  1.00  0.00    -0.302 C  
BRANCH  26  27
HETATM   27  C   UNL     1     -10.403  18.095  67.407  1.00  0.00    -0.402 C  
BRANCH  27  28
HETATM   28  C   UNL     1      -9.390  19.240  67.491  1.00  0.00    -0.369 C  
HETATM   29  C   UNL     1     -10.007  20.568  67.083  1.00  0.00    -0.512 C  
ENDBRANCH  27  28
ENDBRANCH  26  27
ENDBRANCH  25  26
ENDBRANCH  24  25
ENDBRANCH  22  24
ENDBRANCH  21  22
ENDBRANCH   4  21
TORSDOF 7
ENDMDL
MODEL       79
REMARK 921   NORMALIZED FREE ENERGY PREDICTED BY IDOCK:   -4.09 KCAL/MOL
REMARK 922        TOTAL FREE ENERGY PREDICTED BY IDOCK:   -7.92 KCAL/MOL
REMARK 923 INTER-LIGAND FREE ENERGY PREDICTED BY IDOCK:   -7.04 KCAL/MOL
REMARK 924 INTRA-LIGAND FREE ENERGY PREDICTED BY IDOCK:   -0.88 KCAL/MOL
REMARK 927      BINDING AFFINITY PREDICTED BY RF-SCORE:    0.00 PKD
ROOT
HETATM    1  C   UNL     1      -8.666   9.942  66.441  1.00  0.00    -0.144 C  
HETATM    2  C   UNL     1      -9.281   8.993  65.575  1.00  0.00    -0.262 C  
HETATM    3  C   UNL     1     -10.362   9.688  66.342  1.00  0.00    -0.246 C  
HETATM    4  C   UNL     1      -9.689  11.235  67.496  1.00  0.00    -0.177 C  
HETATM    5  C   UNL     1     -10.752   6.057  71.851  1.00  0.00    -0.234 C  
HETATM    6  C   UNL     1      -9.946  11.291  66.146  1.00  0.00    -0.268 C  
HETATM    7  C   UNL     1     -11.659  11.223  66.997  1.00  0.00    -0.059 C  
HETATM    8  C   UNL     1      -9.482   6.152  71.111  1.00  0.00    -0.182 C  
HETATM    9  C   UNL     1      -9.681  12.292  65.066  1.00  0.00    -0.080 C  
HETATM   10  C   UNL     1     -11.951   6.532  71.099  1.00  0.00    -0.365 C  
HETATM   11  C   UNL     1     -11.530  10.270  68.535  1.00  0.00    -0.169 C  
HETATM   12  C   UNL     1      -9.282   7.219  70.314  1.00  0.00    -0.155 C  
HETATM   13  O   UNL     1     -10.799   5.550  72.964  1.00  0.00    -0.233 OA 
HETATM   14  C   UNL     1     -10.330   9.010  68.772  1.00  0.00    -0.236 C  
HETATM   15  C   UNL     1      -9.806   9.442  71.254  1.00  0.00    -0.245 C  
HETATM   16  C   UNL     1      -8.782   9.186  68.109  1.00  0.00    -0.129 C  
HETATM   17  C   UNL     1     -10.287   8.398  70.230  1.00  0.00    -0.212 C  
HETATM   18  C   UNL     1      -8.068   7.828  68.158  1.00  0.00    -0.123 C  
HETATM   19  C   UNL     1     -11.753   7.962  70.615  1.00  0.00    -0.169 C  
HETATM   20  C   UNL     1      -7.954   7.326  69.594  1.00  0.00    -0.127 C  
ENDROOT
BRANCH   4  21
HETATM   21  O   UNL     1     -10.062  12.691  67.662  1.00  0.00    -0.211 OA 
BRANCH  21  22
HETATM   22  C   UNL     1      -9.294  13.576  68.353  1.00  0.00    -0.171 C  
HETATM   23  O   UNL     1      -8.092  13.467  68.526  1.00  0.00    -0.150 OA 
BRANCH  22  24
HETATM   24  C   UNL     1     -10.189  14.677  68.922  1.00  0.00    -0.241 C  
BRANCH  24  25
HETATM   25  C   UNL     1     -11.616  14.253  69.277  1.00  0.00    -0.350 C  
BRANCH  25  26
HETATM   26  C   UNL     1     -12.395  15.218  70.178  1.00  0.00    -0.392 C  
BRANCH  26  27
HETATM   27  C   UNL     1     -11.892  15.270  71.622  1.00  0.00    -0.451 C  
BRANCH  27  28
HETATM   28  C   UNL     1     -13.047  15.502  72.601  1.00  0.00    -0.553 C  
HETATM   29  C   UNL     1     -12.581  16.215  73.860  1.00  0.00    -0.703 C  
ENDBRANCH  27  28
ENDBRANCH  26  27
ENDBRANCH  25  26
ENDBRANCH  24  25
ENDBRANCH  22  24
ENDBRANCH  21  22
ENDBRANCH   4  21
TORSDOF 7
ENDMDL
MODEL       80
REMARK 921   NORMALIZED FREE ENERGY PREDICTED BY IDOCK:   -4.09 KCAL/MOL
REMARK 922        TOTAL FREE ENERGY PREDICTED BY IDOCK:   -7.91 KCAL/MOL
REMARK 923 INTER-LIGAND FREE ENERGY PREDICTED BY IDOCK:   -6.56 KCAL/MOL
REMARK 924 INTRA-LIGAND FREE ENERGY PREDICTED BY IDOCK:   -1.35 KCAL/MOL
REMARK 927      BINDING AFFINITY PREDICTED BY RF-SCORE:    0.00 PKD
ROOT
HETATM    1  C   UNL     1     -11.601  11.232  70.677  1.00  0.00    -0.117 C  
HETATM    2  C   UNL     1     -12.968  10.839  70.588  1.00  0.00    -0.313 C  
HETATM    3  C   UNL     1     -12.186  10.013  69.617  1.00  0.00     0.199 C  
HETATM    4  C   UNL     1     -10.164  10.288  69.742  1.00  0.00    -0.220 C  
HETATM    5  C   UNL     1     -12.135  13.829  64.221  1.00  0.00    -0.440 C  
HETATM    6  C   UNL     1     -10.918   9.481  70.562  1.00  0.00    -0.348 C  
HETATM    7  C   UNL     1     -10.827   8.571  68.880  1.00  0.00    -0.009 C  
HETATM    8  C   UNL     1     -12.228  14.435  65.560  1.00  0.00    -0.352 C  
HETATM    9  C   UNL     1     -10.658   8.739  71.834  1.00  0.00    -0.425 C  
HETATM   10  C   UNL     1     -12.397  12.360  64.180  1.00  0.00    -0.558 C  
HETATM   11  C   UNL     1     -10.718   9.790  67.541  1.00  0.00    -0.327 C  
HETATM   12  C   UNL     1     -11.769  13.735  66.614  1.00  0.00    -0.421 C  
HETATM   13  O   UNL     1     -11.935  14.517  63.228  1.00  0.00     0.080 OA 
HETATM   14  C   UNL     1     -11.377  11.412  67.679  1.00  0.00    -0.359 C  
HETATM   15  C   UNL     1      -9.548  12.679  66.387  1.00  0.00    -0.248 C  
HETATM   16  C   UNL     1     -11.308  12.225  69.162  1.00  0.00    -0.330 C  
HETATM   17  C   UNL     1     -11.054  12.366  66.460  1.00  0.00    -0.346 C  
HETATM   18  C   UNL     1     -12.244  13.440  69.101  1.00  0.00    -0.207 C  
HETATM   19  C   UNL     1     -11.472  11.619  65.136  1.00  0.00    -0.180 C  
HETATM   20  C   UNL     1     -11.830  14.388  67.980  1.00  0.00    -0.361 C  
ENDROOT
BRANCH   4  21
HETATM   21  O   UNL     1      -8.965   9.380  69.894  1.00  0.00    -0.166 OA 
BRANCH  21  22
HETATM   22  C   UNL     1      -7.694   9.782  69.623  1.00  0.00    -0.136 C  
HETATM   23  O   UNL     1      -7.301  10.935  69.688  1.00  0.00    -0.134 OA 
BRANCH  22  24
HETATM   24  C   UNL     1      -6.874   8.576  69.167  1.00  0.00    -0.058 C  
BRANCH  24  25
HETATM   25  C   UNL     1      -7.219   8.025  67.781  1.00  0.00    -0.091 C  
BRANCH  25  26
HETATM   26  C   UNL     1      -7.583   6.537  67.726  1.00  0.00    -0.106 C  
BRANCH  26  27
HETATM   27  C   UNL     1      -7.925   5.925  69.085  1.00  0.00    -0.099 C  
BRANCH  27  28
HETATM   28  C   UNL     1      -9.000   4.843  68.949  1.00  0.00    -0.136 C  
HETATM   29  C   UNL     1     -10.289   5.240  69.651  1.00  0.00    -0.348 C  
ENDBRANCH  27  28
ENDBRANCH  26  27
ENDBRANCH  25  26
ENDBRANCH  24  25
ENDBRANCH  22  24
ENDBRANCH  21  22
ENDBRANCH   4  21
TORSDOF 7
ENDMDL
MODEL       81
REMARK 921   NORMALIZED FREE ENERGY PREDICTED BY IDOCK:   -4.08 KCAL/MOL
REMARK 922        TOTAL FREE ENERGY PREDICTED BY IDOCK:   -7.90 KCAL/MOL
REMARK 923 INTER-LIGAND FREE ENERGY PREDICTED BY IDOCK:   -5.94 KCAL/MOL
REMARK 924 INTRA-LIGAND FREE ENERGY PREDICTED BY IDOCK:   -1.96 KCAL/MOL
REMARK 927      BINDING AFFINITY PREDICTED BY RF-SCORE:    0.00 PKD
ROOT
HETATM    1  C   UNL     1     -10.211   5.484  67.418  1.00  0.00    -0.253 C  
HETATM    2  C   UNL     1      -9.546   5.459  66.158  1.00  0.00    -0.169 C  
HETATM    3  C   UNL     1      -8.505   5.434  67.232  1.00  0.00    -0.106 C  
HETATM    4  C   UNL     1      -9.270   5.258  69.119  1.00  0.00    -0.118 C  
HETATM    5  C   UNL     1      -7.576  11.861  68.460  1.00  0.00    -0.127 C  
HETATM    6  C   UNL     1      -9.071   4.226  68.233  1.00  0.00    -0.172 C  
HETATM    7  C   UNL     1      -7.328   4.729  68.840  1.00  0.00    -0.057 C  
HETATM    8  C   UNL     1      -8.876  11.379  67.966  1.00  0.00    -0.155 C  
HETATM    9  C   UNL     1      -9.467   2.784  68.193  1.00  0.00    -0.217 C  
HETATM   10  C   UNL     1      -6.454  10.885  68.326  1.00  0.00    -0.057 C  
HETATM   11  C   UNL     1      -7.311   6.504  69.217  1.00  0.00    -0.093 C  
HETATM   12  C   UNL     1      -9.203  10.089  68.172  1.00  0.00    -0.130 C  
HETATM   13  O   UNL     1      -7.440  13.007  68.871  1.00  0.00    -0.084 OA 
HETATM   14  C   UNL     1      -8.381   7.651  68.430  1.00  0.00    -0.125 C  
HETATM   15  C   UNL     1      -8.847   9.185  70.443  1.00  0.00    -0.253 C  
HETATM   16  C   UNL     1      -9.963   7.193  68.037  1.00  0.00    -0.184 C  
HETATM   17  C   UNL     1      -8.312   9.124  69.000  1.00  0.00    -0.127 C  
HETATM   18  C   UNL     1     -10.548   8.229  67.067  1.00  0.00    -0.328 C  
HETATM   19  C   UNL     1      -6.799   9.569  69.011  1.00  0.00    -0.054 C  
HETATM   20  C   UNL     1     -10.561   9.617  67.698  1.00  0.00    -0.334 C  
ENDROOT
BRANCH   4  21
HETATM   21  O   UNL     1      -9.024   4.340  70.296  1.00  0.00    -0.081 OA 
BRANCH  21  22
HETATM   22  C   UNL     1      -9.598   4.531  71.514  1.00  0.00    -0.163 C  
HETATM   23  O   UNL     1      -9.719   3.670  72.368  1.00  0.00    -0.135 OA 
BRANCH  22  24
HETATM   24  C   UNL     1     -10.115   5.967  71.603  1.00  0.00    -0.233 C  
BRANCH  24  25
HETATM   25  C   UNL     1     -11.605   6.115  71.925  1.00  0.00    -0.352 C  
BRANCH  25  26
HETATM   26  C   UNL     1     -12.314   7.304  71.266  1.00  0.00    -0.401 C  
BRANCH  26  27
HETATM   27  C   UNL     1     -12.071   8.643  71.965  1.00  0.00    -0.442 C  
BRANCH  27  28
HETATM   28  C   UNL     1     -12.306   9.816  71.008  1.00  0.00    -0.422 C  
HETATM   29  C   UNL     1     -13.033  10.962  71.693  1.00  0.00    -0.569 C  
ENDBRANCH  27  28
ENDBRANCH  26  27
ENDBRANCH  25  26
ENDBRANCH  24  25
ENDBRANCH  22  24
ENDBRANCH  21  22
ENDBRANCH   4  21
TORSDOF 7
ENDMDL
MODEL       82
REMARK 921   NORMALIZED FREE ENERGY PREDICTED BY IDOCK:   -4.06 KCAL/MOL
REMARK 922        TOTAL FREE ENERGY PREDICTED BY IDOCK:   -7.87 KCAL/MOL
REMARK 923 INTER-LIGAND FREE ENERGY PREDICTED BY IDOCK:   -6.39 KCAL/MOL
REMARK 924 INTRA-LIGAND FREE ENERGY PREDICTED BY IDOCK:   -1.47 KCAL/MOL
REMARK 927      BINDING AFFINITY PREDICTED BY RF-SCORE:    0.00 PKD
ROOT
HETATM    1  C   UNL     1      -8.542  10.349  69.507  1.00  0.00    -0.109 C  
HETATM    2  C   UNL     1      -7.133  10.169  69.622  1.00  0.00    -0.115 C  
HETATM    3  C   UNL     1      -7.485  10.151  68.167  1.00  0.00    -0.083 C  
HETATM    4  C   UNL     1      -9.442  10.599  67.787  1.00  0.00    -0.153 C  
HETATM    5  C   UNL     1      -8.985   3.796  67.147  1.00  0.00    -0.143 C  
HETATM    6  C   UNL     1      -8.441  11.511  68.028  1.00  0.00    -0.148 C  
HETATM    7  C   UNL     1      -8.113  10.834  66.268  1.00  0.00    -0.159 C  
HETATM    8  C   UNL     1      -9.179   4.402  68.474  1.00  0.00    -0.186 C  
HETATM    9  C   UNL     1      -8.400  12.983  68.288  1.00  0.00    -0.158 C  
HETATM   10  C   UNL     1      -8.140   4.596  66.211  1.00  0.00    -0.103 C  
HETATM   11  C   UNL     1      -8.685   9.115  66.167  1.00  0.00    -0.169 C  
HETATM   12  C   UNL     1      -9.332   5.737  68.554  1.00  0.00    -0.133 C  
HETATM   13  O   UNL     1      -9.428   2.685  66.887  1.00  0.00    -0.081 OA 
HETATM   14  C   UNL     1      -8.755   8.056  67.566  1.00  0.00    -0.125 C  
HETATM   15  C   UNL     1     -10.916   6.788  66.977  1.00  0.00    -0.439 C  
HETATM   16  C   UNL     1      -9.185   8.685  69.078  1.00  0.00    -0.145 C  
HETATM   17  C   UNL     1      -9.416   6.645  67.298  1.00  0.00    -0.151 C  
HETATM   18  C   UNL     1      -8.832   7.654  70.158  1.00  0.00    -0.146 C  
HETATM   19  C   UNL     1      -8.699   6.004  66.048  1.00  0.00    -0.154 C  
HETATM   20  C   UNL     1      -9.575   6.343  69.921  1.00  0.00    -0.166 C  
ENDROOT
BRANCH   4  21
HETATM   21  O   UNL     1     -10.164  11.579  66.889  1.00  0.00    -0.208 OA 
BRANCH  21  22
HETATM   22  C   UNL     1     -11.507  11.789  66.953  1.00  0.00    -0.293 C  
HETATM   23  O   UNL     1     -12.218  11.458  67.886  1.00  0.00    -0.592 OA 
BRANCH  22  24
HETATM   24  C   UNL     1     -11.974  12.439  65.652  1.00  0.00    -0.449 C  
BRANCH  24  25
HETATM   25  C   UNL     1     -10.880  13.107  64.815  1.00  0.00    -0.368 C  
BRANCH  25  26
HETATM   26  C   UNL     1     -10.827  14.638  64.884  1.00  0.00    -0.436 C  
BRANCH  26  27
HETATM   27  C   UNL     1      -9.705  15.186  65.768  1.00  0.00    -0.379 C  
BRANCH  27  28
HETATM   28  C   UNL     1     -10.257  16.137  66.834  1.00  0.00    -0.283 C  
HETATM   29  C   UNL     1     -11.174  15.416  67.809  1.00  0.00    -0.321 C  
ENDBRANCH  27  28
ENDBRANCH  26  27
ENDBRANCH  25  26
ENDBRANCH  24  25
ENDBRANCH  22  24
ENDBRANCH  21  22
ENDBRANCH   4  21
TORSDOF 7
ENDMDL
MODEL       83
REMARK 921   NORMALIZED FREE ENERGY PREDICTED BY IDOCK:   -4.05 KCAL/MOL
REMARK 922        TOTAL FREE ENERGY PREDICTED BY IDOCK:   -7.86 KCAL/MOL
REMARK 923 INTER-LIGAND FREE ENERGY PREDICTED BY IDOCK:   -6.55 KCAL/MOL
REMARK 924 INTRA-LIGAND FREE ENERGY PREDICTED BY IDOCK:   -1.31 KCAL/MOL
REMARK 927      BINDING AFFINITY PREDICTED BY RF-SCORE:    0.00 PKD
ROOT
HETATM    1  C   UNL     1      -9.392   9.493  65.021  1.00  0.00    -0.294 C  
HETATM    2  C   UNL     1      -8.459  10.141  64.160  1.00  0.00    -0.182 C  
HETATM    3  C   UNL     1      -7.923  10.205  65.556  1.00  0.00    -0.146 C  
HETATM    4  C   UNL     1      -9.026   9.147  66.912  1.00  0.00    -0.123 C  
HETATM    5  C   UNL     1     -10.738  15.702  67.907  1.00  0.00    -0.294 C  
HETATM    6  C   UNL     1      -8.084   8.623  66.059  1.00  0.00    -0.109 C  
HETATM    7  C   UNL     1      -7.099   9.574  67.397  1.00  0.00    -0.086 C  
HETATM    8  C   UNL     1     -11.406  14.915  66.857  1.00  0.00    -0.338 C  
HETATM    9  C   UNL     1      -7.675   7.239  65.665  1.00  0.00    -0.105 C  
HETATM   10  C   UNL     1      -9.300  15.366  68.121  1.00  0.00    -0.197 C  
HETATM   11  C   UNL     1      -8.083  10.982  67.981  1.00  0.00    -0.121 C  
HETATM   12  C   UNL     1     -11.093  13.612  66.735  1.00  0.00    -0.315 C  
HETATM   13  O   UNL     1     -11.322  16.610  68.486  1.00  0.00    -0.317 OA 
HETATM   14  C   UNL     1      -9.288  11.777  66.982  1.00  0.00    -0.187 C  
HETATM   15  C   UNL     1     -11.036  12.266  68.805  1.00  0.00    -0.295 C  
HETATM   16  C   UNL     1     -10.228  10.864  65.910  1.00  0.00    -0.314 C  
HETATM   17  C   UNL     1     -10.137  12.887  67.720  1.00  0.00    -0.229 C  
HETATM   18  C   UNL     1     -10.927  11.818  64.932  1.00  0.00    -0.358 C  
HETATM   19  C   UNL     1      -9.131  13.882  68.418  1.00  0.00    -0.184 C  
HETATM   20  C   UNL     1     -11.819  12.803  65.681  1.00  0.00    -0.472 C  
ENDROOT
BRANCH   4  21
HETATM   21  O   UNL     1      -8.724   8.089  67.950  1.00  0.00    -0.128 OA 
BRANCH  21  22
HETATM   22  C   UNL     1      -9.617   7.714  68.904  1.00  0.00    -0.150 C  
HETATM   23  O   UNL     1      -9.850   8.340  69.924  1.00  0.00    -0.182 OA 
BRANCH  22  24
HETATM   24  C   UNL     1     -10.221   6.363  68.520  1.00  0.00    -0.198 C  
BRANCH  24  25
HETATM   25  C   UNL     1     -10.994   6.335  67.199  1.00  0.00    -0.453 C  
BRANCH  25  26
HETATM   26  C   UNL     1     -10.625   5.203  66.233  1.00  0.00    -0.325 C  
BRANCH  26  27
HETATM   27  C   UNL     1      -9.651   4.176  66.815  1.00  0.00    -0.229 C  
BRANCH  27  28
HETATM   28  C   UNL     1      -8.935   3.404  65.704  1.00  0.00    -0.142 C  
HETATM   29  C   UNL     1      -7.430   3.623  65.747  1.00  0.00    -0.077 C  
ENDBRANCH  27  28
ENDBRANCH  26  27
ENDBRANCH  25  26
ENDBRANCH  24  25
ENDBRANCH  22  24
ENDBRANCH  21  22
ENDBRANCH   4  21
TORSDOF 7
ENDMDL
MODEL       84
REMARK 921   NORMALIZED FREE ENERGY PREDICTED BY IDOCK:   -4.05 KCAL/MOL
REMARK 922        TOTAL FREE ENERGY PREDICTED BY IDOCK:   -7.86 KCAL/MOL
REMARK 923 INTER-LIGAND FREE ENERGY PREDICTED BY IDOCK:   -6.65 KCAL/MOL
REMARK 924 INTRA-LIGAND FREE ENERGY PREDICTED BY IDOCK:   -1.21 KCAL/MOL
REMARK 927      BINDING AFFINITY PREDICTED BY RF-SCORE:    0.00 PKD
ROOT
HETATM    1  C   UNL     1     -10.692  15.020  64.590  1.00  0.00    -0.243 C  
HETATM    2  C   UNL     1     -12.096  14.797  64.687  1.00  0.00    -0.437 C  
HETATM    3  C   UNL     1     -11.542  14.869  66.075  1.00  0.00    -0.226 C  
HETATM    4  C   UNL     1      -9.567  15.388  66.149  1.00  0.00    -0.329 C  
HETATM    5  C   UNL     1      -9.700   8.621  67.193  1.00  0.00    -0.190 C  
HETATM    6  C   UNL     1     -10.622  16.258  66.007  1.00  0.00    -0.288 C  
HETATM    7  C   UNL     1     -10.676  15.671  67.828  1.00  0.00    -0.297 C  
HETATM    8  C   UNL     1      -9.716   9.158  65.822  1.00  0.00    -0.299 C  
HETATM    9  C   UNL     1     -10.749  17.712  65.681  1.00  0.00    -0.084 C  
HETATM   10  C   UNL     1     -10.431   9.449  68.197  1.00  0.00    -0.267 C  
HETATM   11  C   UNL     1     -10.038  13.976  67.933  1.00  0.00    -0.237 C  
HETATM   12  C   UNL     1      -9.621  10.490  65.653  1.00  0.00    -0.278 C  
HETATM   13  O   UNL     1      -9.187   7.537  67.443  1.00  0.00    -0.130 OA 
HETATM   14  C   UNL     1     -10.130  12.843  66.595  1.00  0.00    -0.247 C  
HETATM   15  C   UNL     1      -7.866  11.667  66.933  1.00  0.00    -0.156 C  
HETATM   16  C   UNL     1      -9.939  13.399  65.007  1.00  0.00    -0.179 C  
HETATM   17  C   UNL     1      -9.391  11.467  66.837  1.00  0.00    -0.191 C  
HETATM   18  C   UNL     1     -10.407  12.301  64.042  1.00  0.00    -0.423 C  
HETATM   19  C   UNL     1      -9.902  10.877  68.207  1.00  0.00    -0.179 C  
HETATM   20  C   UNL     1      -9.594  11.025  64.237  1.00  0.00    -0.303 C  
ENDROOT
BRANCH   4  21
HETATM   21  O   UNL     1      -8.759  16.434  66.883  1.00  0.00    -0.177 OA 
BRANCH  21  22
HETATM   22  C   UNL     1      -7.445  16.671  66.621  1.00  0.00    -0.276 C  
HETATM   23  O   UNL     1      -7.034  17.466  65.792  1.00  0.00    -0.246 OA 
BRANCH  22  24
HETATM   24  C   UNL     1      -6.588  15.742  67.480  1.00  0.00    -0.213 C  
BRANCH  24  25
HETATM   25  C   UNL     1      -5.921  16.391  68.695  1.00  0.00    -0.121 C  
BRANCH  25  26
HETATM   26  C   UNL     1      -5.720  15.480  69.912  1.00  0.00    -0.135 C  
BRANCH  26  27
HETATM   27  C   UNL     1      -5.989  14.000  69.637  1.00  0.00    -0.115 C  
BRANCH  27  28
HETATM   28  C   UNL     1      -5.484  13.124  70.787  1.00  0.00    -0.177 C  
HETATM   29  C   UNL     1      -5.167  13.949  72.025  1.00  0.00    -0.207 C  
ENDBRANCH  27  28
ENDBRANCH  26  27
ENDBRANCH  25  26
ENDBRANCH  24  25
ENDBRANCH  22  24
ENDBRANCH  21  22
ENDBRANCH   4  21
TORSDOF 7
ENDMDL
MODEL       85
REMARK 921   NORMALIZED FREE ENERGY PREDICTED BY IDOCK:   -4.03 KCAL/MOL
REMARK 922        TOTAL FREE ENERGY PREDICTED BY IDOCK:   -7.83 KCAL/MOL
REMARK 923 INTER-LIGAND FREE ENERGY PREDICTED BY IDOCK:   -6.49 KCAL/MOL
REMARK 924 INTRA-LIGAND FREE ENERGY PREDICTED BY IDOCK:   -1.35 KCAL/MOL
REMARK 927      BINDING AFFINITY PREDICTED BY RF-SCORE:    0.00 PKD
ROOT
HETATM    1  C   UNL     1      -9.909  16.494  66.128  1.00  0.00    -0.355 C  
HETATM    2  C   UNL     1     -11.290  16.583  66.471  1.00  0.00     0.575 C  
HETATM    3  C   UNL     1     -10.545  16.092  67.672  1.00  0.00    -0.315 C  
HETATM    4  C   UNL     1      -8.514  16.093  67.441  1.00  0.00    -0.170 C  
HETATM    5  C   UNL     1     -10.420   9.557  66.693  1.00  0.00    -0.171 C  
HETATM    6  C   UNL     1      -9.287  17.183  67.767  1.00  0.00    -0.245 C  
HETATM    7  C   UNL     1      -9.244  16.091  69.338  1.00  0.00    -0.202 C  
HETATM    8  C   UNL     1     -10.479  10.480  65.547  1.00  0.00    -0.220 C  
HETATM    9  C   UNL     1      -9.039  18.655  67.866  1.00  0.00    -0.314 C  
HETATM   10  C   UNL     1     -10.732  10.179  68.013  1.00  0.00    -0.305 C  
HETATM   11  C   UNL     1      -9.108  14.347  68.856  1.00  0.00    -0.069 C  
HETATM   12  C   UNL     1     -10.033  11.739  65.714  1.00  0.00    -0.269 C  
HETATM   13  O   UNL     1     -10.207   8.362  66.533  1.00  0.00    -0.293 OA 
HETATM   14  C   UNL     1      -9.709  13.737  67.323  1.00  0.00    -0.242 C  
HETATM   15  C   UNL     1      -7.851  12.025  66.836  1.00  0.00    -0.095 C  
HETATM   16  C   UNL     1      -9.598  14.696  65.933  1.00  0.00    -0.303 C  
HETATM   17  C   UNL     1      -9.366  12.222  67.030  1.00  0.00    -0.205 C  
HETATM   18  C   UNL     1     -10.492  14.090  64.843  1.00  0.00    -0.453 C  
HETATM   19  C   UNL     1      -9.823  11.372  68.278  1.00  0.00    -0.202 C  
HETATM   20  C   UNL     1     -10.058  12.665  64.516  1.00  0.00    -0.271 C  
ENDROOT
BRANCH   4  21
HETATM   21  O   UNL     1      -7.345  16.644  68.226  1.00  0.00    -0.167 OA 
BRANCH  21  22
HETATM   22  C   UNL     1      -6.062  16.585  67.778  1.00  0.00    -0.134 C  
HETATM   23  O   UNL     1      -5.710  16.041  66.745  1.00  0.00    -0.267 OA 
BRANCH  22  24
HETATM   24  C   UNL     1      -5.143  17.246  68.805  1.00  0.00    -0.146 C  
BRANCH  24  25
HETATM   25  C   UNL     1      -5.771  17.524  70.173  1.00  0.00    -0.230 C  
BRANCH  25  26
HETATM   26  C   UNL     1      -5.518  18.921  70.752  1.00  0.00    -0.235 C  
BRANCH  26  27
HETATM   27  C   UNL     1      -6.343  20.029  70.096  1.00  0.00    -0.368 C  
BRANCH  27  28
HETATM   28  C   UNL     1      -5.499  20.827  69.097  1.00  0.00    -0.402 C  
HETATM   29  C   UNL     1      -6.218  21.003  67.768  1.00  0.00    -0.414 C  
ENDBRANCH  27  28
ENDBRANCH  26  27
ENDBRANCH  25  26
ENDBRANCH  24  25
ENDBRANCH  22  24
ENDBRANCH  21  22
ENDBRANCH   4  21
TORSDOF 7
ENDMDL
MODEL       86
REMARK 921   NORMALIZED FREE ENERGY PREDICTED BY IDOCK:   -4.02 KCAL/MOL
REMARK 922        TOTAL FREE ENERGY PREDICTED BY IDOCK:   -7.81 KCAL/MOL
REMARK 923 INTER-LIGAND FREE ENERGY PREDICTED BY IDOCK:   -6.47 KCAL/MOL
REMARK 924 INTRA-LIGAND FREE ENERGY PREDICTED BY IDOCK:   -1.34 KCAL/MOL
REMARK 927      BINDING AFFINITY PREDICTED BY RF-SCORE:    0.00 PKD
ROOT
HETATM    1  C   UNL     1      -7.151  13.583  67.507  1.00  0.00    -0.159 C  
HETATM    2  C   UNL     1      -6.516  13.532  68.782  1.00  0.00    -0.098 C  
HETATM    3  C   UNL     1      -7.473  12.385  68.695  1.00  0.00    -0.095 C  
HETATM    4  C   UNL     1      -8.335  12.168  66.854  1.00  0.00    -0.151 C  
HETATM    5  C   UNL     1     -13.134  15.095  70.766  1.00  0.00    -0.397 C  
HETATM    6  C   UNL     1      -7.083  11.724  67.214  1.00  0.00    -0.140 C  
HETATM    7  C   UNL     1      -8.319  10.548  68.081  1.00  0.00    -0.119 C  
HETATM    8  C   UNL     1     -12.109  15.923  70.109  1.00  0.00    -0.277 C  
HETATM    9  C   UNL     1      -5.911  11.169  66.469  1.00  0.00    -0.143 C  
HETATM   10  C   UNL     1     -12.660  13.752  71.213  1.00  0.00    -0.444 C  
HETATM   11  C   UNL     1      -9.839  11.456  68.475  1.00  0.00    -0.200 C  
HETATM   12  C   UNL     1     -11.223  15.322  69.294  1.00  0.00    -0.291 C  
HETATM   13  O   UNL     1     -14.257  15.532  70.985  1.00  0.00    -0.490 OA 
HETATM   14  C   UNL     1      -9.864  13.189  68.754  1.00  0.00     0.005 C  
HETATM   15  C   UNL     1     -12.119  13.725  67.635  1.00  0.00    -0.333 C  
HETATM   16  C   UNL     1      -8.843  14.201  67.859  1.00  0.00    -0.182 C  
HETATM   17  C   UNL     1     -11.305  13.812  68.940  1.00  0.00    -0.328 C  
HETATM   18  C   UNL     1      -8.806  15.581  68.529  1.00  0.00    -0.186 C  
HETATM   19  C   UNL     1     -12.053  12.978  70.050  1.00  0.00    -0.367 C  
HETATM   20  C   UNL     1     -10.202  16.191  68.590  1.00  0.00    -0.244 C  
ENDROOT
BRANCH   4  21
HETATM   21  O   UNL     1      -8.493  11.030  65.871  1.00  0.00    -0.167 OA 
BRANCH  21  22
HETATM   22  C   UNL     1      -9.406  11.047  64.863  1.00  0.00    -0.214 C  
HETATM   23  O   UNL     1     -10.374  11.786  64.814  1.00  0.00    -0.262 OA 
BRANCH  22  24
HETATM   24  C   UNL     1      -9.055   9.954  63.853  1.00  0.00    -0.298 C  
BRANCH  24  25
HETATM   25  C   UNL     1      -7.847   9.085  64.210  1.00  0.00    -0.130 C  
BRANCH  25  26
HETATM   26  C   UNL     1      -8.154   7.620  64.542  1.00  0.00    -0.098 C  
BRANCH  26  27
HETATM   27  C   UNL     1      -8.388   7.350  66.029  1.00  0.00    -0.143 C  
BRANCH  27  28
HETATM   28  C   UNL     1      -9.593   6.429  66.240  1.00  0.00    -0.106 C  
HETATM   29  C   UNL     1     -10.628   7.058  67.159  1.00  0.00    -0.412 C  
ENDBRANCH  27  28
ENDBRANCH  26  27
ENDBRANCH  25  26
ENDBRANCH  24  25
ENDBRANCH  22  24
ENDBRANCH  21  22
ENDBRANCH   4  21
TORSDOF 7
ENDMDL
MODEL       87
REMARK 921   NORMALIZED FREE ENERGY PREDICTED BY IDOCK:   -4.00 KCAL/MOL
REMARK 922        TOTAL FREE ENERGY PREDICTED BY IDOCK:   -7.79 KCAL/MOL
REMARK 923 INTER-LIGAND FREE ENERGY PREDICTED BY IDOCK:   -6.18 KCAL/MOL
REMARK 924 INTRA-LIGAND FREE ENERGY PREDICTED BY IDOCK:   -1.61 KCAL/MOL
REMARK 927      BINDING AFFINITY PREDICTED BY RF-SCORE:    0.00 PKD
ROOT
HETATM    1  C   UNL     1     -10.113   4.531  70.017  1.00  0.00    -0.204 C  
HETATM    2  C   UNL     1      -9.549   3.563  69.137  1.00  0.00    -0.149 C  
HETATM    3  C   UNL     1      -8.430   4.375  69.710  1.00  0.00    -0.086 C  
HETATM    4  C   UNL     1      -9.023   5.690  71.158  1.00  0.00    -0.138 C  
HETATM    5  C   UNL     1      -8.104   9.486  65.532  1.00  0.00    -0.116 C  
HETATM    6  C   UNL     1      -8.784   4.348  71.340  1.00  0.00    -0.138 C  
HETATM    7  C   UNL     1      -7.063   5.155  71.120  1.00  0.00    -0.063 C  
HETATM    8  C   UNL     1      -9.379   8.783  65.749  1.00  0.00    -0.259 C  
HETATM    9  C   UNL     1      -9.025   3.379  72.453  1.00  0.00    -0.123 C  
HETATM   10  C   UNL     1      -6.898   8.763  66.034  1.00  0.00    -0.073 C  
HETATM   11  C   UNL     1      -7.207   6.593  70.023  1.00  0.00    -0.080 C  
HETATM   12  C   UNL     1      -9.549   8.101  66.897  1.00  0.00    -0.269 C  
HETATM   13  O   UNL     1      -8.060  10.542  64.915  1.00  0.00    -0.153 OA 
HETATM   14  C   UNL     1      -8.453   6.726  68.793  1.00  0.00    -0.124 C  
HETATM   15  C   UNL     1      -8.922   9.248  68.993  1.00  0.00    -0.140 C  
HETATM   16  C   UNL     1     -10.002   6.113  69.094  1.00  0.00    -0.190 C  
HETATM   17  C   UNL     1      -8.498   8.115  68.040  1.00  0.00    -0.133 C  
HETATM   18  C   UNL     1     -10.769   6.039  67.766  1.00  0.00    -0.369 C  
HETATM   19  C   UNL     1      -7.045   8.427  67.512  1.00  0.00    -0.083 C  
HETATM   20  C   UNL     1     -10.882   7.420  67.127  1.00  0.00    -0.340 C  
ENDROOT
BRANCH   4  21
HETATM   21  O   UNL     1      -8.590   5.994  72.574  1.00  0.00    -0.120 OA 
BRANCH  21  22
HETATM   22  C   UNL     1      -9.218   6.910  73.359  1.00  0.00    -0.144 C  
HETATM   23  O   UNL     1      -9.677   6.681  74.465  1.00  0.00    -0.270 OA 
BRANCH  22  24
HETATM   24  C   UNL     1      -9.309   8.236  72.604  1.00  0.00    -0.350 C  
BRANCH  24  25
HETATM   25  C   UNL     1     -10.706   8.629  72.120  1.00  0.00    -0.417 C  
BRANCH  25  26
HETATM   26  C   UNL     1     -11.856   7.740  72.608  1.00  0.00    -0.317 C  
BRANCH  26  27
HETATM   27  C   UNL     1     -12.647   7.067  71.484  1.00  0.00    -0.426 C  
BRANCH  27  28
HETATM   28  C   UNL     1     -14.060   7.647  71.380  1.00  0.00    -0.479 C  
HETATM   29  C   UNL     1     -14.312   8.707  72.441  1.00  0.00    -0.429 C  
ENDBRANCH  27  28
ENDBRANCH  26  27
ENDBRANCH  25  26
ENDBRANCH  24  25
ENDBRANCH  22  24
ENDBRANCH  21  22
ENDBRANCH   4  21
TORSDOF 7
ENDMDL
MODEL       88
REMARK 921   NORMALIZED FREE ENERGY PREDICTED BY IDOCK:   -3.98 KCAL/MOL
REMARK 922        TOTAL FREE ENERGY PREDICTED BY IDOCK:   -7.76 KCAL/MOL
REMARK 923 INTER-LIGAND FREE ENERGY PREDICTED BY IDOCK:   -6.35 KCAL/MOL
REMARK 924 INTRA-LIGAND FREE ENERGY PREDICTED BY IDOCK:   -1.41 KCAL/MOL
REMARK 927      BINDING AFFINITY PREDICTED BY RF-SCORE:    0.00 PKD
ROOT
HETATM    1  C   UNL     1     -12.408  10.772  69.418  1.00  0.00    -0.133 C  
HETATM    2  C   UNL     1     -12.424  11.769  70.437  1.00  0.00    -0.280 C  
HETATM    3  C   UNL     1     -11.009  11.591  69.986  1.00  0.00     0.170 C  
HETATM    4  C   UNL     1     -10.805  10.344  68.380  1.00  0.00    -0.245 C  
HETATM    5  C   UNL     1      -8.914   6.624  73.810  1.00  0.00    -0.141 C  
HETATM    6  C   UNL     1     -11.163  11.671  68.327  1.00  0.00    -0.320 C  
HETATM    7  C   UNL     1      -9.296  11.654  68.749  1.00  0.00    -0.056 C  
HETATM    8  C   UNL     1     -10.338   6.737  73.451  1.00  0.00    -0.319 C  
HETATM    9  C   UNL     1     -11.685  12.577  67.259  1.00  0.00    -0.431 C  
HETATM   10  C   UNL     1      -8.103   7.849  73.546  1.00  0.00    -0.239 C  
HETATM   11  C   UNL     1      -8.909  10.166  69.712  1.00  0.00    -0.152 C  
HETATM   12  C   UNL     1     -10.667   7.421  72.339  1.00  0.00    -0.295 C  
HETATM   13  O   UNL     1      -8.477   5.618  74.354  1.00  0.00    -0.109 OA 
HETATM   14  C   UNL     1     -10.093   9.360  70.728  1.00  0.00    -0.366 C  
HETATM   15  C   UNL     1      -9.380   6.926  70.289  1.00  0.00    -0.162 C  
HETATM   16  C   UNL     1     -11.712   9.286  70.239  1.00  0.00    -0.088 C  
HETATM   17  C   UNL     1      -9.602   8.001  71.370  1.00  0.00    -0.195 C  
HETATM   18  C   UNL     1     -12.569   8.857  71.438  1.00  0.00    -0.351 C  
HETATM   19  C   UNL     1      -8.225   8.274  72.089  1.00  0.00    -0.211 C  
HETATM   20  C   UNL     1     -12.130   7.492  71.957  1.00  0.00    -0.326 C  
ENDROOT
BRANCH   4  21
HETATM   21  O   UNL     1     -10.135  10.436  67.028  1.00  0.00    -0.197 OA 
BRANCH  21  22
HETATM   22  C   UNL     1     -10.034   9.378  66.179  1.00  0.00    -0.281 C  
HETATM   23  O   UNL     1      -9.576   9.433  65.050  1.00  0.00    -0.228 OA 
BRANCH  22  24
HETATM   24  C   UNL     1     -10.644   8.144  66.844  1.00  0.00    -0.311 C  
BRANCH  24  25
HETATM   25  C   UNL     1      -9.827   6.855  66.723  1.00  0.00    -0.243 C  
BRANCH  25  26
HETATM   26  C   UNL     1     -10.624   5.549  66.816  1.00  0.00    -0.360 C  
BRANCH  26  27
HETATM   27  C   UNL     1     -10.134   4.448  65.874  1.00  0.00    -0.262 C  
BRANCH  27  28
HETATM   28  C   UNL     1      -9.121   4.996  64.864  1.00  0.00    -0.082 C  
HETATM   29  C   UNL     1      -9.151   4.217  63.559  1.00  0.00    -0.138 C  
ENDBRANCH  27  28
ENDBRANCH  26  27
ENDBRANCH  25  26
ENDBRANCH  24  25
ENDBRANCH  22  24
ENDBRANCH  21  22
ENDBRANCH   4  21
TORSDOF 7
ENDMDL
MODEL       89
REMARK 921   NORMALIZED FREE ENERGY PREDICTED BY IDOCK:   -3.91 KCAL/MOL
REMARK 922        TOTAL FREE ENERGY PREDICTED BY IDOCK:   -7.66 KCAL/MOL
REMARK 923 INTER-LIGAND FREE ENERGY PREDICTED BY IDOCK:   -6.11 KCAL/MOL
REMARK 924 INTRA-LIGAND FREE ENERGY PREDICTED BY IDOCK:   -1.55 KCAL/MOL
REMARK 927      BINDING AFFINITY PREDICTED BY RF-SCORE:    0.00 PKD
ROOT
HETATM    1  C   UNL     1      -6.560  10.083  66.971  1.00  0.00    -0.070 C  
HETATM    2  C   UNL     1      -5.683   8.980  67.182  1.00  0.00    -0.045 C  
HETATM    3  C   UNL     1      -6.819   8.511  66.329  1.00  0.00    -0.073 C  
HETATM    4  C   UNL     1      -8.084  10.006  65.745  1.00  0.00    -0.128 C  
HETATM    5  C   UNL     1     -11.340   6.762  70.821  1.00  0.00    -0.325 C  
HETATM    6  C   UNL     1      -6.881   9.695  65.156  1.00  0.00    -0.098 C  
HETATM    7  C   UNL     1      -8.083   8.295  64.649  1.00  0.00    -0.150 C  
HETATM    8  C   UNL     1     -10.355   7.813  71.128  1.00  0.00    -0.218 C  
HETATM    9  C   UNL     1      -6.012  10.350  64.130  1.00  0.00    -0.103 C  
HETATM   10  C   UNL     1     -11.020   5.935  69.621  1.00  0.00    -0.447 C  
HETATM   11  C   UNL     1      -9.301   8.039  65.969  1.00  0.00    -0.158 C  
HETATM   12  C   UNL     1      -9.784   8.475  70.104  1.00  0.00    -0.175 C  
HETATM   13  O   UNL     1     -12.296   6.556  71.559  1.00  0.00    -0.333 OA 
HETATM   14  C   UNL     1      -8.965   8.402  67.653  1.00  0.00    -0.141 C  
HETATM   15  C   UNL     1     -11.281   9.302  68.322  1.00  0.00     0.202 C  
HETATM   16  C   UNL     1      -8.003   9.737  68.051  1.00  0.00    -0.097 C  
HETATM   17  C   UNL     1     -10.201   8.247  68.626  1.00  0.00    -0.223 C  
HETATM   18  C   UNL     1      -7.584   9.621  69.523  1.00  0.00    -0.104 C  
HETATM   19  C   UNL     1     -10.824   6.817  68.395  1.00  0.00    -0.284 C  
HETATM   20  C   UNL     1      -8.806   9.583  70.434  1.00  0.00    -0.279 C  
ENDROOT
BRANCH   4  21
HETATM   21  O   UNL     1      -8.646  10.481  64.424  1.00  0.00    -0.179 OA 
BRANCH  21  22
HETATM   22  C   UNL     1      -9.627  11.419  64.333  1.00  0.00    -0.188 C  
HETATM   23  O   UNL     1     -10.078  11.854  63.287  1.00  0.00    -0.428 OA 
BRANCH  22  24
HETATM   24  C   UNL     1     -10.015  11.875  65.739  1.00  0.00    -0.264 C  
BRANCH  24  25
HETATM   25  C   UNL     1     -11.512  12.093  65.975  1.00  0.00    -0.427 C  
BRANCH  25  26
HETATM   26  C   UNL     1     -11.980  13.553  65.984  1.00  0.00    -0.449 C  
BRANCH  26  27
HETATM   27  C   UNL     1     -12.133  14.152  67.383  1.00  0.00    -0.379 C  
BRANCH  27  28
HETATM   28  C   UNL     1     -10.989  15.121  67.697  1.00  0.00    -0.308 C  
HETATM   29  C   UNL     1      -9.840  14.422  68.408  1.00  0.00    -0.234 C  
ENDBRANCH  27  28
ENDBRANCH  26  27
ENDBRANCH  25  26
ENDBRANCH  24  25
ENDBRANCH  22  24
ENDBRANCH  21  22
ENDBRANCH   4  21
TORSDOF 7
ENDMDL
MODEL       90
REMARK 921   NORMALIZED FREE ENERGY PREDICTED BY IDOCK:   -3.90 KCAL/MOL
REMARK 922        TOTAL FREE ENERGY PREDICTED BY IDOCK:   -7.64 KCAL/MOL
REMARK 923 INTER-LIGAND FREE ENERGY PREDICTED BY IDOCK:   -6.06 KCAL/MOL
REMARK 924 INTRA-LIGAND FREE ENERGY PREDICTED BY IDOCK:   -1.59 KCAL/MOL
REMARK 927      BINDING AFFINITY PREDICTED BY RF-SCORE:    0.00 PKD
ROOT
HETATM    1  C   UNL     1      -7.727  10.138  68.321  1.00  0.00    -0.088 C  
HETATM    2  C   UNL     1      -6.732   9.176  67.982  1.00  0.00    -0.068 C  
HETATM    3  C   UNL     1      -8.042   8.696  67.443  1.00  0.00    -0.102 C  
HETATM    4  C   UNL     1      -9.564  10.044  67.651  1.00  0.00    -0.148 C  
HETATM    5  C   UNL     1     -10.573   5.400  72.582  1.00  0.00    -0.228 C  
HETATM    6  C   UNL     1      -8.611  10.054  66.660  1.00  0.00    -0.130 C  
HETATM    7  C   UNL     1      -9.778   8.597  66.241  1.00  0.00    -0.322 C  
HETATM    8  C   UNL     1      -9.645   6.522  72.802  1.00  0.00    -0.157 C  
HETATM    9  C   UNL     1      -8.209  11.027  65.597  1.00  0.00    -0.026 C  
HETATM   10  C   UNL     1     -10.607   4.882  71.183  1.00  0.00    -0.096 C  
HETATM   11  C   UNL     1     -10.443   7.897  67.777  1.00  0.00    -0.278 C  
HETATM   12  C   UNL     1      -9.522   7.452  71.837  1.00  0.00    -0.166 C  
HETATM   13  O   UNL     1     -11.195   4.903  73.512  1.00  0.00    -0.323 OA 
HETATM   14  C   UNL     1      -9.586   7.983  69.307  1.00  0.00    -0.157 C  
HETATM   15  C   UNL     1     -11.608   8.344  70.858  1.00  0.00    -0.288 C  
HETATM   16  C   UNL     1      -8.675   9.359  69.685  1.00  0.00    -0.172 C  
HETATM   17  C   UNL     1     -10.396   7.444  70.553  1.00  0.00    -0.220 C  
HETATM   18  C   UNL     1      -7.769   9.036  70.881  1.00  0.00    -0.149 C  
HETATM   19  C   UNL     1     -10.924   6.000  70.199  1.00  0.00    -0.429 C  
HETATM   20  C   UNL     1      -8.598   8.624  72.094  1.00  0.00    -0.190 C  
ENDROOT
BRANCH   4  21
HETATM   21  O   UNL     1     -10.585  10.662  66.722  1.00  0.00    -0.248 OA 
BRANCH  21  22
HETATM   22  C   UNL     1     -11.428  11.657  67.108  1.00  0.00    -0.271 C  
HETATM   23  O   UNL     1     -12.217  12.224  66.372  1.00  0.00    -0.613 OA 
BRANCH  22  24
HETATM   24  C   UNL     1     -11.177  11.982  68.580  1.00  0.00    -0.309 C  
BRANCH  24  25
HETATM   25  C   UNL     1     -10.618  13.378  68.865  1.00  0.00    -0.181 C  
BRANCH  25  26
HETATM   26  C   UNL     1      -9.938  14.078  67.682  1.00  0.00    -0.237 C  
BRANCH  26  27
HETATM   27  C   UNL     1      -8.411  14.103  67.762  1.00  0.00    -0.175 C  
BRANCH  27  28
HETATM   28  C   UNL     1      -7.937  14.842  69.017  1.00  0.00    -0.170 C  
HETATM   29  C   UNL     1      -6.768  15.767  68.716  1.00  0.00    -0.119 C  
ENDBRANCH  27  28
ENDBRANCH  26  27
ENDBRANCH  25  26
ENDBRANCH  24  25
ENDBRANCH  22  24
ENDBRANCH  21  22
ENDBRANCH   4  21
TORSDOF 7
ENDMDL
MODEL       91
REMARK 921   NORMALIZED FREE ENERGY PREDICTED BY IDOCK:   -3.90 KCAL/MOL
REMARK 922        TOTAL FREE ENERGY PREDICTED BY IDOCK:   -7.64 KCAL/MOL
REMARK 923 INTER-LIGAND FREE ENERGY PREDICTED BY IDOCK:   -5.80 KCAL/MOL
REMARK 924 INTRA-LIGAND FREE ENERGY PREDICTED BY IDOCK:   -1.84 KCAL/MOL
REMARK 927      BINDING AFFINITY PREDICTED BY RF-SCORE:    0.00 PKD
ROOT
HETATM    1  C   UNL     1      -7.246   8.252  66.333  1.00  0.00    -0.075 C  
HETATM    2  C   UNL     1      -7.674   7.014  65.769  1.00  0.00    -0.103 C  
HETATM    3  C   UNL     1      -8.892   7.817  66.103  1.00  0.00    -0.192 C  
HETATM    4  C   UNL     1      -8.480   9.716  66.736  1.00  0.00    -0.127 C  
HETATM    5  C   UNL     1      -9.978   6.197  72.417  1.00  0.00    -0.169 C  
HETATM    6  C   UNL     1      -8.524   9.297  65.427  1.00  0.00    -0.157 C  
HETATM    7  C   UNL     1     -10.344   9.350  66.015  1.00  0.00    -0.081 C  
HETATM    8  C   UNL     1      -8.614   6.162  71.865  1.00  0.00    -0.132 C  
HETATM    9  C   UNL     1      -8.138   9.904  64.116  1.00  0.00    -0.152 C  
HETATM   10  C   UNL     1     -11.064   6.278  71.397  1.00  0.00    -0.339 C  
HETATM   11  C   UNL     1     -10.415   8.977  67.789  1.00  0.00    -0.305 C  
HETATM   12  C   UNL     1      -8.339   6.919  70.786  1.00  0.00    -0.127 C  
HETATM   13  O   UNL     1     -10.176   6.085  73.620  1.00  0.00    -0.195 OA 
HETATM   14  C   UNL     1      -9.212   7.989  68.599  1.00  0.00    -0.143 C  
HETATM   15  C   UNL     1      -9.105   9.267  70.830  1.00  0.00    -0.288 C  
HETATM   16  C   UNL     1      -7.589   8.083  68.128  1.00  0.00    -0.109 C  
HETATM   17  C   UNL     1      -9.371   7.901  70.170  1.00  0.00    -0.156 C  
HETATM   18  C   UNL     1      -6.831   6.893  68.732  1.00  0.00    -0.066 C  
HETATM   19  C   UNL     1     -10.858   7.479  70.483  1.00  0.00    -0.252 C  
HETATM   20  C   UNL     1      -6.921   6.909  70.254  1.00  0.00    -0.066 C  
ENDROOT
BRANCH   4  21
HETATM   21  O   UNL     1      -8.941  11.102  66.344  1.00  0.00    -0.170 OA 
BRANCH  21  22
HETATM   22  C   UNL     1      -8.586  12.221  67.031  1.00  0.00    -0.191 C  
HETATM   23  O   UNL     1      -7.527  12.371  67.616  1.00  0.00    -0.115 OA 
BRANCH  22  24
HETATM   24  C   UNL     1      -9.747  13.214  67.003  1.00  0.00    -0.241 C  
BRANCH  24  25
HETATM   25  C   UNL     1     -11.076  12.695  67.560  1.00  0.00    -0.313 C  
BRANCH  25  26
HETATM   26  C   UNL     1     -11.074  12.314  69.045  1.00  0.00    -0.289 C  
BRANCH  26  27
HETATM   27  C   UNL     1     -12.232  11.404  69.459  1.00  0.00    -0.303 C  
BRANCH  27  28
HETATM   28  C   UNL     1     -12.170  11.077  70.954  1.00  0.00    -0.471 C  
HETATM   29  C   UNL     1     -13.278  10.121  71.367  1.00  0.00    -0.474 C  
ENDBRANCH  27  28
ENDBRANCH  26  27
ENDBRANCH  25  26
ENDBRANCH  24  25
ENDBRANCH  22  24
ENDBRANCH  21  22
ENDBRANCH   4  21
TORSDOF 7
ENDMDL
MODEL       92
REMARK 921   NORMALIZED FREE ENERGY PREDICTED BY IDOCK:   -3.86 KCAL/MOL
REMARK 922        TOTAL FREE ENERGY PREDICTED BY IDOCK:   -7.59 KCAL/MOL
REMARK 923 INTER-LIGAND FREE ENERGY PREDICTED BY IDOCK:   -5.91 KCAL/MOL
REMARK 924 INTRA-LIGAND FREE ENERGY PREDICTED BY IDOCK:   -1.68 KCAL/MOL
REMARK 927      BINDING AFFINITY PREDICTED BY RF-SCORE:    0.00 PKD
ROOT
HETATM    1  C   UNL     1      -9.712   5.470  68.063  1.00  0.00    -0.159 C  
HETATM    2  C   UNL     1     -10.704   5.570  67.045  1.00  0.00    -0.286 C  
HETATM    3  C   UNL     1      -9.841   6.791  66.972  1.00  0.00    -0.217 C  
HETATM    4  C   UNL     1      -8.227   6.736  68.225  1.00  0.00    -0.115 C  
HETATM    5  C   UNL     1     -12.759  10.856  71.289  1.00  0.00    -0.437 C  
HETATM    6  C   UNL     1      -8.309   6.130  66.993  1.00  0.00    -0.105 C  
HETATM    7  C   UNL     1      -8.143   8.004  66.640  1.00  0.00    -0.103 C  
HETATM    8  C   UNL     1     -12.852   9.396  71.462  1.00  0.00    -0.442 C  
HETATM    9  C   UNL     1      -7.466   5.146  66.247  1.00  0.00    -0.087 C  
HETATM   10  C   UNL     1     -12.283  11.297  69.946  1.00  0.00    -0.358 C  
HETATM   11  C   UNL     1      -8.916   8.942  67.986  1.00  0.00    -0.140 C  
HETATM   12  C   UNL     1     -11.905   8.622  70.900  1.00  0.00    -0.257 C  
HETATM   13  O   UNL     1     -13.127  11.622  72.171  1.00  0.00    -0.457 OA 
HETATM   14  C   UNL     1     -10.230   8.299  68.957  1.00  0.00    -0.226 C  
HETATM   15  C   UNL     1      -9.553   9.299  71.229  1.00  0.00    -0.272 C  
HETATM   16  C   UNL     1     -10.256   6.654  69.355  1.00  0.00    -0.207 C  
HETATM   17  C   UNL     1     -10.668   9.212  70.171  1.00  0.00    -0.263 C  
HETATM   18  C   UNL     1     -11.650   6.297  69.887  1.00  0.00    -0.361 C  
HETATM   19  C   UNL     1     -10.939  10.662  69.613  1.00  0.00    -0.331 C  
HETATM   20  C   UNL     1     -11.988   7.126  71.122  1.00  0.00    -0.381 C  
ENDROOT
BRANCH   4  21
HETATM   21  O   UNL     1      -6.737   6.936  68.065  1.00  0.00    -0.062 OA 
BRANCH  21  22
HETATM   22  C   UNL     1      -5.865   6.857  69.106  1.00  0.00    -0.019 C  
HETATM   23  O   UNL     1      -5.382   7.816  69.683  1.00  0.00    -0.022 OA 
BRANCH  22  24
HETATM   24  C   UNL     1      -5.548   5.387  69.381  1.00  0.00    -0.011 C  
BRANCH  24  25
HETATM   25  C   UNL     1      -6.584   4.631  70.216  1.00  0.00    -0.036 C  
BRANCH  25  26
HETATM   26  C   UNL     1      -6.933   3.220  69.728  1.00  0.00    -0.041 C  
BRANCH  26  27
HETATM   27  C   UNL     1      -7.917   2.471  70.629  1.00  0.00    -0.050 C  
BRANCH  27  28
HETATM   28  C   UNL     1      -9.317   3.086  70.547  1.00  0.00    -0.223 C  
HETATM   29  C   UNL     1      -9.695   3.799  71.837  1.00  0.00    -0.237 C  
ENDBRANCH  27  28
ENDBRANCH  26  27
ENDBRANCH  25  26
ENDBRANCH  24  25
ENDBRANCH  22  24
ENDBRANCH  21  22
ENDBRANCH   4  21
TORSDOF 7
ENDMDL
MODEL       93
REMARK 921   NORMALIZED FREE ENERGY PREDICTED BY IDOCK:   -3.85 KCAL/MOL
REMARK 922        TOTAL FREE ENERGY PREDICTED BY IDOCK:   -7.57 KCAL/MOL
REMARK 923 INTER-LIGAND FREE ENERGY PREDICTED BY IDOCK:   -6.68 KCAL/MOL
REMARK 924 INTRA-LIGAND FREE ENERGY PREDICTED BY IDOCK:   -0.89 KCAL/MOL
REMARK 927      BINDING AFFINITY PREDICTED BY RF-SCORE:    0.00 PKD
ROOT
HETATM    1  C   UNL     1      -6.914  13.681  67.721  1.00  0.00    -0.168 C  
HETATM    2  C   UNL     1      -6.525  13.947  69.066  1.00  0.00    -0.103 C  
HETATM    3  C   UNL     1      -8.019  13.894  69.018  1.00  0.00     0.098 C  
HETATM    4  C   UNL     1      -8.766  13.319  67.205  1.00  0.00    -0.214 C  
HETATM    5  C   UNL     1      -9.610  20.111  67.439  1.00  0.00    -0.417 C  
HETATM    6  C   UNL     1      -8.287  12.477  68.181  1.00  0.00    -0.175 C  
HETATM    7  C   UNL     1      -9.973  13.111  68.827  1.00  0.00    -0.038 C  
HETATM    8  C   UNL     1      -8.323  19.541  67.009  1.00  0.00    -0.315 C  
HETATM    9  C   UNL     1      -7.957  11.019  68.242  1.00  0.00    -0.124 C  
HETATM   10  C   UNL     1     -10.318  19.331  68.496  1.00  0.00    -0.385 C  
HETATM   11  C   UNL     1     -10.265  14.788  68.202  1.00  0.00    -0.228 C  
HETATM   12  C   UNL     1      -8.215  18.202  66.910  1.00  0.00    -0.258 C  
HETATM   13  O   UNL     1     -10.004  21.185  67.002  1.00  0.00    -0.081 OA 
HETATM   14  C   UNL     1      -8.960  15.889  67.793  1.00  0.00    -0.176 C  
HETATM   15  C   UNL     1     -10.030  17.007  65.737  1.00  0.00    -0.177 C  
HETATM   16  C   UNL     1      -7.539  15.289  67.096  1.00  0.00    -0.224 C  
HETATM   17  C   UNL     1      -9.420  17.249  67.130  1.00  0.00    -0.256 C  
HETATM   18  C   UNL     1      -6.457  16.375  67.169  1.00  0.00    -0.227 C  
HETATM   19  C   UNL     1     -10.527  17.888  68.054  1.00  0.00    -0.390 C  
HETATM   20  C   UNL     1      -6.899  17.631  66.424  1.00  0.00    -0.297 C  
ENDROOT
BRANCH   4  21
HETATM   21  O   UNL     1      -9.746  12.269  66.732  1.00  0.00    -0.204 OA 
BRANCH  21  22
HETATM   22  C   UNL     1     -10.058  12.086  65.421  1.00  0.00    -0.256 C  
HETATM   23  O   UNL     1     -10.943  12.679  64.828  1.00  0.00    -0.282 OA 
BRANCH  22  24
HETATM   24  C   UNL     1      -9.170  10.984  64.845  1.00  0.00    -0.210 C  
BRANCH  24  25
HETATM   25  C   UNL     1      -9.737   9.565  64.927  1.00  0.00    -0.065 C  
BRANCH  25  26
HETATM   26  C   UNL     1      -9.332   8.755  66.165  1.00  0.00    -0.297 C  
BRANCH  26  27
HETATM   27  C   UNL     1     -10.494   8.421  67.102  1.00  0.00    -0.380 C  
BRANCH  27  28
HETATM   28  C   UNL     1     -10.853   6.933  67.028  1.00  0.00    -0.436 C  
HETATM   29  C   UNL     1     -10.893   6.296  68.408  1.00  0.00    -0.394 C  
ENDBRANCH  27  28
ENDBRANCH  26  27
ENDBRANCH  25  26
ENDBRANCH  24  25
ENDBRANCH  22  24
ENDBRANCH  21  22
ENDBRANCH   4  21
TORSDOF 7
ENDMDL
MODEL       94
REMARK 921   NORMALIZED FREE ENERGY PREDICTED BY IDOCK:   -3.78 KCAL/MOL
REMARK 922        TOTAL FREE ENERGY PREDICTED BY IDOCK:   -7.48 KCAL/MOL
REMARK 923 INTER-LIGAND FREE ENERGY PREDICTED BY IDOCK:   -5.13 KCAL/MOL
REMARK 924 INTRA-LIGAND FREE ENERGY PREDICTED BY IDOCK:   -2.35 KCAL/MOL
REMARK 927      BINDING AFFINITY PREDICTED BY RF-SCORE:    0.00 PKD
ROOT
HETATM    1  C   UNL     1      -7.098   8.131  70.334  1.00  0.00    -0.041 C  
HETATM    2  C   UNL     1      -6.526   9.427  70.493  1.00  0.00    -0.078 C  
HETATM    3  C   UNL     1      -8.015   9.573  70.505  1.00  0.00    -0.188 C  
HETATM    4  C   UNL     1      -9.019   7.793  70.494  1.00  0.00    -0.150 C  
HETATM    5  C   UNL     1      -9.441  10.149  64.078  1.00  0.00    -0.282 C  
HETATM    6  C   UNL     1      -8.467   8.398  71.599  1.00  0.00    -0.213 C  
HETATM    7  C   UNL     1     -10.018   9.431  71.164  1.00  0.00    -0.311 C  
HETATM    8  C   UNL     1      -8.253   9.394  64.512  1.00  0.00    -0.147 C  
HETATM    9  C   UNL     1      -8.215   7.978  73.012  1.00  0.00    -0.234 C  
HETATM   10  C   UNL     1     -10.051  11.014  65.130  1.00  0.00    -0.346 C  
HETATM   11  C   UNL     1     -10.293   9.380  69.371  1.00  0.00    -0.222 C  
HETATM   12  C   UNL     1      -8.234   8.889  65.759  1.00  0.00    -0.116 C  
HETATM   13  O   UNL     1      -9.826  10.110  62.916  1.00  0.00    -0.179 OA 
HETATM   14  C   UNL     1      -8.990   9.140  68.219  1.00  0.00    -0.129 C  
HETATM   15  C   UNL     1     -10.250   7.678  66.516  1.00  0.00    -0.178 C  
HETATM   16  C   UNL     1      -7.706   8.105  68.603  1.00  0.00    -0.112 C  
HETATM   17  C   UNL     1      -9.453   8.981  66.716  1.00  0.00    -0.238 C  
HETATM   18  C   UNL     1      -6.565   8.346  67.606  1.00  0.00    -0.058 C  
HETATM   19  C   UNL     1     -10.395  10.198  66.368  1.00  0.00    -0.258 C  
HETATM   20  C   UNL     1      -7.026   8.078  66.178  1.00  0.00    -0.058 C  
ENDROOT
BRANCH   4  21
HETATM   21  O   UNL     1     -10.109   7.171  71.338  1.00  0.00    -0.189 OA 
BRANCH  21  22
HETATM   22  C   UNL     1     -10.621   5.935  71.089  1.00  0.00    -0.246 C  
HETATM   23  O   UNL     1     -10.635   5.014  71.888  1.00  0.00    -0.209 OA 
BRANCH  22  24
HETATM   24  C   UNL     1     -11.108   5.878  69.641  1.00  0.00    -0.414 C  
BRANCH  24  25
HETATM   25  C   UNL     1     -10.396   4.865  68.742  1.00  0.00    -0.049 C  
BRANCH  25  26
HETATM   26  C   UNL     1      -8.883   4.734  68.951  1.00  0.00    -0.120 C  
BRANCH  26  27
HETATM   27  C   UNL     1      -8.094   4.472  67.667  1.00  0.00    -0.099 C  
BRANCH  27  28
HETATM   28  C   UNL     1      -9.026   4.086  66.516  1.00  0.00    -0.131 C  
HETATM   29  C   UNL     1      -8.611   4.747  65.210  1.00  0.00    -0.137 C  
ENDBRANCH  27  28
ENDBRANCH  26  27
ENDBRANCH  25  26
ENDBRANCH  24  25
ENDBRANCH  22  24
ENDBRANCH  21  22
ENDBRANCH   4  21
TORSDOF 7
ENDMDL
MODEL       95
REMARK 921   NORMALIZED FREE ENERGY PREDICTED BY IDOCK:   -3.78 KCAL/MOL
REMARK 922        TOTAL FREE ENERGY PREDICTED BY IDOCK:   -7.48 KCAL/MOL
REMARK 923 INTER-LIGAND FREE ENERGY PREDICTED BY IDOCK:   -6.75 KCAL/MOL
REMARK 924 INTRA-LIGAND FREE ENERGY PREDICTED BY IDOCK:   -0.73 KCAL/MOL
REMARK 927      BINDING AFFINITY PREDICTED BY RF-SCORE:    0.00 PKD
ROOT
HETATM    1  C   UNL     1      -9.699   9.596  64.941  1.00  0.00    -0.174 C  
HETATM    2  C   UNL     1      -8.990  10.170  63.846  1.00  0.00    -0.270 C  
HETATM    3  C   UNL     1      -8.175  10.375  65.084  1.00  0.00    -0.158 C  
HETATM    4  C   UNL     1      -8.933   9.438  66.735  1.00  0.00    -0.131 C  
HETATM    5  C   UNL     1     -10.613  16.036  67.470  1.00  0.00    -0.313 C  
HETATM    6  C   UNL     1      -8.174   8.847  65.752  1.00  0.00    -0.116 C  
HETATM    7  C   UNL     1      -6.963   9.934  66.758  1.00  0.00    -0.089 C  
HETATM    8  C   UNL     1     -11.461  15.143  66.663  1.00  0.00    -0.185 C  
HETATM    9  C   UNL     1      -7.812   7.437  65.408  1.00  0.00    -0.118 C  
HETATM   10  C   UNL     1      -9.152  15.740  67.404  1.00  0.00    -0.206 C  
HETATM   11  C   UNL     1      -7.847  11.379  67.408  1.00  0.00    -0.135 C  
HETATM   12  C   UNL     1     -11.137  13.838  66.595  1.00  0.00    -0.316 C  
HETATM   13  O   UNL     1     -11.092  16.987  68.075  1.00  0.00    -0.324 OA 
HETATM   14  C   UNL     1      -9.261  12.058  66.619  1.00  0.00    -0.211 C  
HETATM   15  C   UNL     1     -10.602  12.697  68.720  1.00  0.00    -0.214 C  
HETATM   16  C   UNL     1     -10.375  11.035  65.858  1.00  0.00    -0.315 C  
HETATM   17  C   UNL     1      -9.972  13.224  67.417  1.00  0.00    -0.233 C  
HETATM   18  C   UNL     1     -11.295  11.882  64.969  1.00  0.00    -0.333 C  
HETATM   19  C   UNL     1      -8.875  14.293  67.791  1.00  0.00    -0.185 C  
HETATM   20  C   UNL     1     -12.042  12.923  65.797  1.00  0.00    -0.513 C  
ENDROOT
BRANCH   4  21
HETATM   21  O   UNL     1      -8.384   8.488  67.776  1.00  0.00    -0.127 OA 
BRANCH  21  22
HETATM   22  C   UNL     1      -8.999   8.265  68.969  1.00  0.00    -0.147 C  
HETATM   23  O   UNL     1      -9.619   9.105  69.600  1.00  0.00    -0.165 OA 
BRANCH  22  24
HETATM   24  C   UNL     1      -8.730   6.826  69.409  1.00  0.00    -0.136 C  
BRANCH  24  25
HETATM   25  C   UNL     1      -9.855   5.827  69.129  1.00  0.00    -0.211 C  
BRANCH  25  26
HETATM   26  C   UNL     1     -11.276   6.323  69.418  1.00  0.00    -0.489 C  
BRANCH  26  27
HETATM   27  C   UNL     1     -11.628   6.383  70.905  1.00  0.00    -0.393 C  
BRANCH  27  28
HETATM   28  C   UNL     1     -10.837   5.341  71.702  1.00  0.00    -0.181 C  
HETATM   29  C   UNL     1     -11.140   5.422  73.190  1.00  0.00    -0.363 C  
ENDBRANCH  27  28
ENDBRANCH  26  27
ENDBRANCH  25  26
ENDBRANCH  24  25
ENDBRANCH  22  24
ENDBRANCH  21  22
ENDBRANCH   4  21
TORSDOF 7
ENDMDL
MODEL       96
REMARK 921   NORMALIZED FREE ENERGY PREDICTED BY IDOCK:   -3.75 KCAL/MOL
REMARK 922        TOTAL FREE ENERGY PREDICTED BY IDOCK:   -7.44 KCAL/MOL
REMARK 923 INTER-LIGAND FREE ENERGY PREDICTED BY IDOCK:   -6.39 KCAL/MOL
REMARK 924 INTRA-LIGAND FREE ENERGY PREDICTED BY IDOCK:   -1.05 KCAL/MOL
REMARK 927      BINDING AFFINITY PREDICTED BY RF-SCORE:    0.00 PKD
ROOT
HETATM    1  C   UNL     1      -9.266  18.337  65.896  1.00  0.00     0.183 C  
HETATM    2  C   UNL     1     -10.595  18.774  65.624  1.00  0.00    -0.202 C  
HETATM    3  C   UNL     1     -10.393  18.802  67.106  1.00  0.00    -0.455 C  
HETATM    4  C   UNL     1      -8.474  18.402  67.685  1.00  0.00    -0.255 C  
HETATM    5  C   UNL     1     -11.962  12.630  68.872  1.00  0.00    -0.242 C  
HETATM    6  C   UNL     1      -8.944  19.616  67.240  1.00  0.00    -0.387 C  
HETATM    7  C   UNL     1      -9.664  19.395  68.999  1.00  0.00    -0.468 C  
HETATM    8  C   UNL     1     -11.424  12.905  67.530  1.00  0.00    -0.386 C  
HETATM    9  C   UNL     1      -8.305  20.910  66.846  1.00  0.00    -0.010 C  
HETATM   10  C   UNL     1     -12.426  13.836  69.620  1.00  0.00    -0.176 C  
HETATM   11  C   UNL     1      -9.928  17.630  69.325  1.00  0.00    -0.097 C  
HETATM   12  C   UNL     1     -10.687  14.017  67.350  1.00  0.00    -0.285 C  
HETATM   13  O   UNL     1     -12.081  11.482  69.283  1.00  0.00    -0.321 OA 
HETATM   14  C   UNL     1     -10.238  16.466  68.047  1.00  0.00    -0.264 C  
HETATM   15  C   UNL     1      -8.918  14.478  69.011  1.00  0.00    -0.044 C  
HETATM   16  C   UNL     1      -9.466  16.634  66.550  1.00  0.00    -0.288 C  
HETATM   17  C   UNL     1     -10.297  14.958  68.520  1.00  0.00    -0.237 C  
HETATM   18  C   UNL     1     -10.163  15.723  65.531  1.00  0.00    -0.407 C  
HETATM   19  C   UNL     1     -11.312  14.868  69.724  1.00  0.00    -0.314 C  
HETATM   20  C   UNL     1     -10.102  14.265  65.975  1.00  0.00    -0.333 C  
ENDROOT
BRANCH   4  21
HETATM   21  O   UNL     1      -7.458  19.083  68.574  1.00  0.00    -0.291 OA 
BRANCH  21  22
HETATM   22  C   UNL     1      -6.116  18.975  68.378  1.00  0.00    -0.220 C  
HETATM   23  O   UNL     1      -5.389  19.889  68.027  1.00  0.00    -0.186 OA 
BRANCH  22  24
HETATM   24  C   UNL     1      -5.692  17.524  68.605  1.00  0.00    -0.162 C  
BRANCH  24  25
HETATM   25  C   UNL     1      -6.216  16.874  69.888  1.00  0.00    -0.139 C  
BRANCH  25  26
HETATM   26  C   UNL     1      -5.491  15.599  70.334  1.00  0.00    -0.153 C  
BRANCH  26  27
HETATM   27  C   UNL     1      -6.285  14.740  71.320  1.00  0.00     0.260 C  
BRANCH  27  28
HETATM   28  C   UNL     1      -5.375  13.735  72.033  1.00  0.00    -0.194 C  
HETATM   29  C   UNL     1      -5.301  14.006  73.527  1.00  0.00    -0.311 C  
ENDBRANCH  27  28
ENDBRANCH  26  27
ENDBRANCH  25  26
ENDBRANCH  24  25
ENDBRANCH  22  24
ENDBRANCH  21  22
ENDBRANCH   4  21
TORSDOF 7
ENDMDL
MODEL       97
REMARK 921   NORMALIZED FREE ENERGY PREDICTED BY IDOCK:   -3.74 KCAL/MOL
REMARK 922        TOTAL FREE ENERGY PREDICTED BY IDOCK:   -7.43 KCAL/MOL
REMARK 923 INTER-LIGAND FREE ENERGY PREDICTED BY IDOCK:   -5.65 KCAL/MOL
REMARK 924 INTRA-LIGAND FREE ENERGY PREDICTED BY IDOCK:   -1.78 KCAL/MOL
REMARK 927      BINDING AFFINITY PREDICTED BY RF-SCORE:    0.00 PKD
ROOT
HETATM    1  C   UNL     1      -8.633  10.677  65.577  1.00  0.00    -0.191 C  
HETATM    2  C   UNL     1      -9.639  10.838  64.581  1.00  0.00    -0.320 C  
HETATM    3  C   UNL     1     -10.282  10.252  65.798  1.00  0.00    -0.289 C  
HETATM    4  C   UNL     1      -9.036  10.135  67.414  1.00  0.00    -0.134 C  
HETATM    5  C   UNL     1      -9.359   3.768  64.913  1.00  0.00    -0.156 C  
HETATM    6  C   UNL     1      -9.717  11.257  67.003  1.00  0.00    -0.208 C  
HETATM    7  C   UNL     1     -11.037  10.101  67.767  1.00  0.00    -0.293 C  
HETATM    8  C   UNL     1      -8.411   4.739  64.342  1.00  0.00    -0.134 C  
HETATM    9  C   UNL     1      -9.678  12.705  67.376  1.00  0.00    -0.199 C  
HETATM   10  C   UNL     1     -10.653   4.353  65.372  1.00  0.00    -0.192 C  
HETATM   11  C   UNL     1     -10.548   8.373  67.505  1.00  0.00    -0.285 C  
HETATM   12  C   UNL     1      -8.328   5.960  64.902  1.00  0.00    -0.115 C  
HETATM   13  O   UNL     1      -9.109   2.569  64.923  1.00  0.00    -0.129 OA 
HETATM   14  C   UNL     1      -9.545   7.865  66.157  1.00  0.00    -0.127 C  
HETATM   15  C   UNL     1      -8.163   6.062  67.365  1.00  0.00    -0.106 C  
HETATM   16  C   UNL     1      -8.299   8.872  65.608  1.00  0.00    -0.144 C  
HETATM   17  C   UNL     1      -9.112   6.345  66.185  1.00  0.00    -0.150 C  
HETATM   18  C   UNL     1      -7.826   8.368  64.238  1.00  0.00    -0.143 C  
HETATM   19  C   UNL     1     -10.414   5.475  66.374  1.00  0.00    -0.294 C  
HETATM   20  C   UNL     1      -7.317   6.934  64.334  1.00  0.00    -0.088 C  
ENDROOT
BRANCH   4  21
HETATM   21  O   UNL     1      -9.105  10.579  68.857  1.00  0.00    -0.161 OA 
BRANCH  21  22
HETATM   22  C   UNL     1      -8.278  10.092  69.821  1.00  0.00    -0.145 C  
HETATM   23  O   UNL     1      -7.073  10.275  69.860  1.00  0.00    -0.121 OA 
BRANCH  22  24
HETATM   24  C   UNL     1      -9.091   9.238  70.793  1.00  0.00    -0.306 C  
BRANCH  24  25
HETATM   25  C   UNL     1      -8.983   7.724  70.593  1.00  0.00    -0.145 C  
BRANCH  25  26
HETATM   26  C   UNL     1     -10.147   6.893  71.145  1.00  0.00    -0.204 C  
BRANCH  26  27
HETATM   27  C   UNL     1     -10.530   5.696  70.274  1.00  0.00    -0.363 C  
BRANCH  27  28
HETATM   28  C   UNL     1      -9.871   4.410  70.782  1.00  0.00    -0.273 C  
HETATM   29  C   UNL     1      -9.412   3.523  69.636  1.00  0.00    -0.235 C  
ENDBRANCH  27  28
ENDBRANCH  26  27
ENDBRANCH  25  26
ENDBRANCH  24  25
ENDBRANCH  22  24
ENDBRANCH  21  22
ENDBRANCH   4  21
TORSDOF 7
ENDMDL
MODEL       98
REMARK 921   NORMALIZED FREE ENERGY PREDICTED BY IDOCK:   -3.73 KCAL/MOL
REMARK 922        TOTAL FREE ENERGY PREDICTED BY IDOCK:   -7.41 KCAL/MOL
REMARK 923 INTER-LIGAND FREE ENERGY PREDICTED BY IDOCK:   -6.00 KCAL/MOL
REMARK 924 INTRA-LIGAND FREE ENERGY PREDICTED BY IDOCK:   -1.42 KCAL/MOL
REMARK 927      BINDING AFFINITY PREDICTED BY RF-SCORE:    0.00 PKD
ROOT
HETATM    1  C   UNL     1     -10.979  12.927  69.561  1.00  0.00     0.048 C  
HETATM    2  C   UNL     1     -12.383  13.051  69.355  1.00  0.00    -0.025 C  
HETATM    3  C   UNL     1     -11.734  12.867  68.020  1.00  0.00    -0.401 C  
HETATM    4  C   UNL     1      -9.733  12.465  68.124  1.00  0.00    -0.214 C  
HETATM    5  C   UNL     1     -10.163  19.061  66.334  1.00  0.00    -0.437 C  
HETATM    6  C   UNL     1     -10.747  11.551  68.297  1.00  0.00    -0.247 C  
HETATM    7  C   UNL     1     -10.710  11.936  66.423  1.00  0.00    -0.303 C  
HETATM    8  C   UNL     1     -10.242  18.673  67.752  1.00  0.00    -0.427 C  
HETATM    9  C   UNL     1     -10.816  10.135  68.773  1.00  0.00    -0.259 C  
HETATM   10  C   UNL     1     -10.779  18.087  65.385  1.00  0.00     0.156 C  
HETATM   11  C   UNL     1     -10.160  13.646  66.170  1.00  0.00    -0.311 C  
HETATM   12  C   UNL     1     -10.087  17.375  68.073  1.00  0.00    -0.326 C  
HETATM   13  O   UNL     1      -9.694  20.141  65.998  1.00  0.00    -0.416 OA 
HETATM   14  C   UNL     1     -10.402  14.908  67.367  1.00  0.00    -0.243 C  
HETATM   15  C   UNL     1      -8.189  16.178  67.040  1.00  0.00    -0.250 C  
HETATM   16  C   UNL     1     -10.289  14.537  69.015  1.00  0.00    -0.227 C  
HETATM   17  C   UNL     1      -9.724  16.293  67.020  1.00  0.00    -0.244 C  
HETATM   18  C   UNL     1     -10.879  15.701  69.823  1.00  0.00    -0.310 C  
HETATM   19  C   UNL     1     -10.174  16.701  65.564  1.00  0.00    -0.227 C  
HETATM   20  C   UNL     1     -10.126  16.996  69.538  1.00  0.00    -0.048 C  
ENDROOT
BRANCH   4  21
HETATM   21  O   UNL     1      -8.822  11.398  67.560  1.00  0.00    -0.142 OA 
BRANCH  21  22
HETATM   22  C   UNL     1      -7.469  11.529  67.518  1.00  0.00    -0.116 C  
HETATM   23  O   UNL     1      -6.878  12.508  67.096  1.00  0.00    -0.140 OA 
BRANCH  22  24
HETATM   24  C   UNL     1      -6.826  10.236  68.020  1.00  0.00    -0.070 C  
BRANCH  24  25
HETATM   25  C   UNL     1      -7.507   8.940  67.573  1.00  0.00    -0.085 C  
BRANCH  25  26
HETATM   26  C   UNL     1      -7.571   8.708  66.059  1.00  0.00    -0.093 C  
BRANCH  26  27
HETATM   27  C   UNL     1      -8.976   8.830  65.466  1.00  0.00    -0.231 C  
BRANCH  27  28
HETATM   28  C   UNL     1      -9.009   9.856  64.329  1.00  0.00    -0.278 C  
HETATM   29  C   UNL     1      -7.612  10.167  63.813  1.00  0.00    -0.133 C  
ENDBRANCH  27  28
ENDBRANCH  26  27
ENDBRANCH  25  26
ENDBRANCH  24  25
ENDBRANCH  22  24
ENDBRANCH  21  22
ENDBRANCH   4  21
TORSDOF 7
ENDMDL
MODEL       99
REMARK 921   NORMALIZED FREE ENERGY PREDICTED BY IDOCK:   -3.73 KCAL/MOL
REMARK 922        TOTAL FREE ENERGY PREDICTED BY IDOCK:   -7.41 KCAL/MOL
REMARK 923 INTER-LIGAND FREE ENERGY PREDICTED BY IDOCK:   -6.35 KCAL/MOL
REMARK 924 INTRA-LIGAND FREE ENERGY PREDICTED BY IDOCK:   -1.05 KCAL/MOL
REMARK 927      BINDING AFFINITY PREDICTED BY RF-SCORE:    0.00 PKD
ROOT
HETATM    1  C   UNL     1      -8.778   8.765  66.899  1.00  0.00    -0.136 C  
HETATM    2  C   UNL     1      -9.790   8.089  66.157  1.00  0.00    -0.057 C  
HETATM    3  C   UNL     1     -10.460   9.078  67.058  1.00  0.00    -0.316 C  
HETATM    4  C   UNL     1      -9.158  10.295  68.060  1.00  0.00    -0.132 C  
HETATM    5  C   UNL     1     -11.190   5.641  72.655  1.00  0.00    -0.300 C  
HETATM    6  C   UNL     1      -9.579  10.464  66.761  1.00  0.00    -0.209 C  
HETATM    7  C   UNL     1     -11.076  10.935  67.857  1.00  0.00    -0.362 C  
HETATM    8  C   UNL     1     -10.082   5.335  71.734  1.00  0.00    -0.257 C  
HETATM    9  C   UNL     1      -9.166  11.350  65.629  1.00  0.00    -0.209 C  
HETATM   10  C   UNL     1     -12.266   6.498  72.077  1.00  0.00    -0.343 C  
HETATM   11  C   UNL     1     -11.037   9.955  69.383  1.00  0.00    -0.237 C  
HETATM   12  C   UNL     1      -9.666   6.298  70.890  1.00  0.00    -0.197 C  
HETATM   13  O   UNL     1     -11.234   5.150  73.776  1.00  0.00    -0.258 OA 
HETATM   14  C   UNL     1     -10.291   8.369  69.473  1.00  0.00    -0.219 C  
HETATM   15  C   UNL     1      -9.294   8.548  71.839  1.00  0.00    -0.337 C  
HETATM   16  C   UNL     1      -8.886   8.048  68.585  1.00  0.00    -0.134 C  
HETATM   17  C   UNL     1     -10.235   7.742  70.924  1.00  0.00    -0.207 C  
HETATM   18  C   UNL     1      -8.653   6.531  68.563  1.00  0.00    -0.123 C  
HETATM   19  C   UNL     1     -11.689   7.797  71.532  1.00  0.00    -0.312 C  
HETATM   20  C   UNL     1      -8.498   5.985  69.978  1.00  0.00    -0.131 C  
ENDROOT
BRANCH   4  21
HETATM   21  O   UNL     1      -9.009  11.788  68.242  1.00  0.00    -0.171 OA 
BRANCH  21  22
HETATM   22  C   UNL     1      -7.830  12.377  68.580  1.00  0.00    -0.112 C  
HETATM   23  O   UNL     1      -6.846  11.781  68.984  1.00  0.00    -0.092 OA 
BRANCH  22  24
HETATM   24  C   UNL     1      -7.968  13.892  68.433  1.00  0.00    -0.144 C  
BRANCH  24  25
HETATM   25  C   UNL     1      -9.390  14.409  68.199  1.00  0.00    -0.203 C  
BRANCH  25  26
HETATM   26  C   UNL     1      -9.681  14.948  66.794  1.00  0.00    -0.263 C  
BRANCH  26  27
HETATM   27  C   UNL     1     -10.852  15.931  66.732  1.00  0.00    -0.228 C  
BRANCH  27  28
HETATM   28  C   UNL     1     -10.565  17.185  67.563  1.00  0.00    -0.323 C  
HETATM   29  C   UNL     1      -9.829  18.240  66.752  1.00  0.00    -0.344 C  
ENDBRANCH  27  28
ENDBRANCH  26  27
ENDBRANCH  25  26
ENDBRANCH  24  25
ENDBRANCH  22  24
ENDBRANCH  21  22
ENDBRANCH   4  21
TORSDOF 7
ENDMDL
MODEL      100
REMARK 921   NORMALIZED FREE ENERGY PREDICTED BY IDOCK:   -3.73 KCAL/MOL
REMARK 922        TOTAL FREE ENERGY PREDICTED BY IDOCK:   -7.40 KCAL/MOL
REMARK 923 INTER-LIGAND FREE ENERGY PREDICTED BY IDOCK:   -5.64 KCAL/MOL
REMARK 924 INTRA-LIGAND FREE ENERGY PREDICTED BY IDOCK:   -1.77 KCAL/MOL
REMARK 927      BINDING AFFINITY PREDICTED BY RF-SCORE:    0.00 PKD
ROOT
HETATM    1  C   UNL     1     -10.326   6.882  69.821  1.00  0.00    -0.224 C  
HETATM    2  C   UNL     1     -11.625   6.462  69.414  1.00  0.00    -0.238 C  
HETATM    3  C   UNL     1     -10.827   6.756  68.183  1.00  0.00    -0.296 C  
HETATM    4  C   UNL     1      -8.863   7.181  68.556  1.00  0.00    -0.125 C  
HETATM    5  C   UNL     1     -11.827  13.237  67.357  1.00  0.00    -0.366 C  
HETATM    6  C   UNL     1      -9.414   5.923  68.482  1.00  0.00    -0.134 C  
HETATM    7  C   UNL     1      -9.352   6.567  66.682  1.00  0.00    -0.184 C  
HETATM    8  C   UNL     1     -11.880  12.642  68.703  1.00  0.00    -0.342 C  
HETATM    9  C   UNL     1      -8.933   4.544  68.805  1.00  0.00    -0.149 C  
HETATM   10  C   UNL     1     -11.880  12.253  66.236  1.00  0.00    -0.387 C  
HETATM   11  C   UNL     1      -9.545   8.371  66.681  1.00  0.00    -0.294 C  
HETATM   12  C   UNL     1     -11.229  11.483  68.918  1.00  0.00    -0.308 C  
HETATM   13  O   UNL     1     -11.821  14.451  67.202  1.00  0.00    -0.388 OA 
HETATM   14  C   UNL     1     -10.412   9.233  67.941  1.00  0.00    -0.290 C  
HETATM   15  C   UNL     1      -8.911  11.319  68.081  1.00  0.00    -0.159 C  
HETATM   16  C   UNL     1     -10.321   8.696  69.544  1.00  0.00    -0.214 C  
HETATM   17  C   UNL     1     -10.344  10.809  67.836  1.00  0.00    -0.216 C  
HETATM   18  C   UNL     1     -11.422   9.389  70.358  1.00  0.00    -0.272 C  
HETATM   19  C   UNL     1     -10.773  11.216  66.374  1.00  0.00    -0.303 C  
HETATM   20  C   UNL     1     -11.254  10.905  70.318  1.00  0.00    -0.271 C  
ENDROOT
BRANCH   4  21
HETATM   21  O   UNL     1      -7.538   6.667  68.040  1.00  0.00    -0.102 OA 
BRANCH  21  22
HETATM   22  C   UNL     1      -6.340   7.111  68.509  1.00  0.00    -0.036 C  
HETATM   23  O   UNL     1      -5.407   6.391  68.824  1.00  0.00    -0.010 OA 
BRANCH  22  24
HETATM   24  C   UNL     1      -6.386   8.633  68.636  1.00  0.00    -0.053 C  
BRANCH  24  25
HETATM   25  C   UNL     1      -5.180   9.382  68.063  1.00  0.00    -0.033 C  
BRANCH  25  26
HETATM   26  C   UNL     1      -5.490  10.403  66.963  1.00  0.00    -0.042 C  
BRANCH  26  27
HETATM   27  C   UNL     1      -6.384   9.866  65.844  1.00  0.00    -0.085 C  
BRANCH  27  28
HETATM   28  C   UNL     1      -5.761   8.632  65.184  1.00  0.00    -0.047 C  
HETATM   29  C   UNL     1      -5.735   8.758  63.669  1.00  0.00    -0.071 C  
ENDBRANCH  27  28
ENDBRANCH  26  27
ENDBRANCH  25  26
ENDBRANCH  24  25
ENDBRANCH  22  24
ENDBRANCH  21  22
ENDBRANCH   4  21
TORSDOF 7
ENDMDL
MODEL      101
REMARK 921   NORMALIZED FREE ENERGY PREDICTED BY IDOCK:   -3.71 KCAL/MOL
REMARK 922        TOTAL FREE ENERGY PREDICTED BY IDOCK:   -7.38 KCAL/MOL
REMARK 923 INTER-LIGAND FREE ENERGY PREDICTED BY IDOCK:   -6.23 KCAL/MOL
REMARK 924 INTRA-LIGAND FREE ENERGY PREDICTED BY IDOCK:   -1.16 KCAL/MOL
REMARK 927      BINDING AFFINITY PREDICTED BY RF-SCORE:    0.00 PKD
ROOT
HETATM    1  C   UNL     1      -7.685  15.689  68.506  1.00  0.00    -0.131 C  
HETATM    2  C   UNL     1      -6.724  16.012  67.505  1.00  0.00    -0.205 C  
HETATM    3  C   UNL     1      -7.967  15.540  66.818  1.00  0.00    -0.214 C  
HETATM    4  C   UNL     1      -9.538  15.221  68.085  1.00  0.00    -0.204 C  
HETATM    5  C   UNL     1      -7.091   8.992  66.635  1.00  0.00    -0.081 C  
HETATM    6  C   UNL     1      -9.145  16.439  67.583  1.00  0.00    -0.198 C  
HETATM    7  C   UNL     1      -9.962  15.515  66.120  1.00  0.00    -0.332 C  
HETATM    8  C   UNL     1      -6.481   9.794  67.709  1.00  0.00    -0.057 C  
HETATM    9  C   UNL     1      -9.507  17.862  67.871  1.00  0.00    -0.272 C  
HETATM   10  C   UNL     1      -7.591   9.781  65.472  1.00  0.00    -0.118 C  
HETATM   11  C   UNL     1      -9.694  13.731  66.309  1.00  0.00    -0.297 C  
HETATM   12  C   UNL     1      -7.030  10.985  68.011  1.00  0.00    -0.068 C  
HETATM   13  O   UNL     1      -7.100   7.768  66.687  1.00  0.00    -0.075 OA 
HETATM   14  C   UNL     1      -8.314  13.065  67.167  1.00  0.00    -0.153 C  
HETATM   15  C   UNL     1      -9.485  11.060  68.277  1.00  0.00    -0.172 C  
HETATM   16  C   UNL     1      -7.716  13.854  68.541  1.00  0.00    -0.139 C  
HETATM   17  C   UNL     1      -8.337  11.494  67.346  1.00  0.00    -0.148 C  
HETATM   18  C   UNL     1      -6.333  13.279  68.876  1.00  0.00    -0.096 C  
HETATM   19  C   UNL     1      -8.577  10.849  65.927  1.00  0.00    -0.179 C  
HETATM   20  C   UNL     1      -6.420  11.780  69.146  1.00  0.00    -0.097 C  
ENDROOT
BRANCH   4  21
HETATM   21  O   UNL     1     -10.981  15.672  68.141  1.00  0.00    -0.288 OA 
BRANCH  21  22
HETATM   22  C   UNL     1     -11.795  15.414  69.199  1.00  0.00    -0.335 C  
HETATM   23  O   UNL     1     -12.261  16.263  69.941  1.00  0.00    -0.030 OA 
BRANCH  22  24
HETATM   24  C   UNL     1     -11.971  13.902  69.339  1.00  0.00    -0.402 C  
BRANCH  24  25
HETATM   25  C   UNL     1     -13.024  13.449  70.352  1.00  0.00     0.106 C  
BRANCH  25  26
HETATM   26  C   UNL     1     -12.580  13.442  71.820  1.00  0.00    -0.235 C  
BRANCH  26  27
HETATM   27  C   UNL     1     -13.447  14.301  72.741  1.00  0.00    -0.590 C  
BRANCH  27  28
HETATM   28  C   UNL     1     -12.593  15.034  73.779  1.00  0.00    -0.658 C  
HETATM   29  C   UNL     1     -12.246  16.444  73.327  1.00  0.00    -0.558 C  
ENDBRANCH  27  28
ENDBRANCH  26  27
ENDBRANCH  25  26
ENDBRANCH  24  25
ENDBRANCH  22  24
ENDBRANCH  21  22
ENDBRANCH   4  21
TORSDOF 7
ENDMDL
MODEL      102
REMARK 921   NORMALIZED FREE ENERGY PREDICTED BY IDOCK:   -3.70 KCAL/MOL
REMARK 922        TOTAL FREE ENERGY PREDICTED BY IDOCK:   -7.37 KCAL/MOL
REMARK 923 INTER-LIGAND FREE ENERGY PREDICTED BY IDOCK:   -5.80 KCAL/MOL
REMARK 924 INTRA-LIGAND FREE ENERGY PREDICTED BY IDOCK:   -1.57 KCAL/MOL
REMARK 927      BINDING AFFINITY PREDICTED BY RF-SCORE:    0.00 PKD
ROOT
HETATM    1  C   UNL     1      -7.330   8.082  66.974  1.00  0.00    -0.091 C  
HETATM    2  C   UNL     1      -6.170   8.801  66.564  1.00  0.00    -0.061 C  
HETATM    3  C   UNL     1      -6.669   9.413  67.835  1.00  0.00    -0.067 C  
HETATM    4  C   UNL     1      -8.214   8.387  68.693  1.00  0.00    -0.123 C  
HETATM    5  C   UNL     1     -11.103  13.802  65.655  1.00  0.00    -0.295 C  
HETATM    6  C   UNL     1      -6.881   8.071  68.803  1.00  0.00    -0.062 C  
HETATM    7  C   UNL     1      -7.134   9.629  69.885  1.00  0.00    -0.095 C  
HETATM    8  C   UNL     1     -10.819  12.584  64.879  1.00  0.00    -0.327 C  
HETATM    9  C   UNL     1      -6.118   6.900  69.336  1.00  0.00    -0.033 C  
HETATM   10  C   UNL     1     -10.106  14.110  66.722  1.00  0.00    -0.262 C  
HETATM   11  C   UNL     1      -8.456  10.648  69.174  1.00  0.00    -0.134 C  
HETATM   12  C   UNL     1     -10.313  11.516  65.523  1.00  0.00    -0.322 C  
HETATM   13  O   UNL     1     -12.047  14.529  65.370  1.00  0.00    -0.365 OA 
HETATM   14  C   UNL     1      -8.842  10.641  67.461  1.00  0.00    -0.132 C  
HETATM   15  C   UNL     1     -11.399  10.858  67.642  1.00  0.00    -0.345 C  
HETATM   16  C   UNL     1      -8.730   9.200  66.579  1.00  0.00    -0.142 C  
HETATM   17  C   UNL     1     -10.117  11.486  67.063  1.00  0.00    -0.237 C  
HETATM   18  C   UNL     1      -8.772   9.535  65.082  1.00  0.00    -0.200 C  
HETATM   19  C   UNL     1      -9.951  12.931  67.673  1.00  0.00    -0.218 C  
HETATM   20  C   UNL     1     -10.068  10.254  64.722  1.00  0.00    -0.336 C  
ENDROOT
BRANCH   4  21
HETATM   21  O   UNL     1      -8.496   7.823  70.068  1.00  0.00    -0.131 OA 
BRANCH  21  22
HETATM   22  C   UNL     1      -9.633   7.139  70.367  1.00  0.00    -0.169 C  
HETATM   23  O   UNL     1     -10.242   7.229  71.419  1.00  0.00    -0.189 OA 
BRANCH  22  24
HETATM   24  C   UNL     1      -9.974   6.204  69.206  1.00  0.00    -0.196 C  
BRANCH  24  25
HETATM   25  C   UNL     1     -11.104   6.674  68.288  1.00  0.00    -0.283 C  
BRANCH  25  26
HETATM   26  C   UNL     1     -10.893   6.428  66.789  1.00  0.00    -0.361 C  
BRANCH  26  27
HETATM   27  C   UNL     1     -10.567   4.977  66.434  1.00  0.00    -0.317 C  
BRANCH  27  28
HETATM   28  C   UNL     1      -9.413   4.901  65.428  1.00  0.00    -0.134 C  
HETATM   29  C   UNL     1      -9.759   4.014  64.242  1.00  0.00    -0.169 C  
ENDBRANCH  27  28
ENDBRANCH  26  27
ENDBRANCH  25  26
ENDBRANCH  24  25
ENDBRANCH  22  24
ENDBRANCH  21  22
ENDBRANCH   4  21
TORSDOF 7
ENDMDL
MODEL      103
REMARK 921   NORMALIZED FREE ENERGY PREDICTED BY IDOCK:   -3.63 KCAL/MOL
REMARK 922        TOTAL FREE ENERGY PREDICTED BY IDOCK:   -7.27 KCAL/MOL
REMARK 923 INTER-LIGAND FREE ENERGY PREDICTED BY IDOCK:   -6.27 KCAL/MOL
REMARK 924 INTRA-LIGAND FREE ENERGY PREDICTED BY IDOCK:   -1.00 KCAL/MOL
REMARK 927      BINDING AFFINITY PREDICTED BY RF-SCORE:    0.00 PKD
ROOT
HETATM    1  C   UNL     1     -11.435  11.844  66.890  1.00  0.00    -0.390 C  
HETATM    2  C   UNL     1     -11.366  12.009  65.476  1.00  0.00    -0.381 C  
HETATM    3  C   UNL     1      -9.971  11.846  65.991  1.00  0.00    -0.258 C  
HETATM    4  C   UNL     1      -9.875  11.391  67.982  1.00  0.00    -0.184 C  
HETATM    5  C   UNL     1      -8.305  18.044  67.566  1.00  0.00    -0.233 C  
HETATM    6  C   UNL     1     -10.119  10.499  66.964  1.00  0.00    -0.259 C  
HETATM    7  C   UNL     1      -8.260  10.936  66.835  1.00  0.00    -0.135 C  
HETATM    8  C   UNL     1      -9.714  17.619  67.610  1.00  0.00    -0.277 C  
HETATM    9  C   UNL     1     -10.563   9.072  66.901  1.00  0.00    -0.243 C  
HETATM   10  C   UNL     1      -7.393  17.114  66.837  1.00  0.00    -0.242 C  
HETATM   11  C   UNL     1      -8.001  12.639  67.406  1.00  0.00    -0.177 C  
HETATM   12  C   UNL     1      -9.984  16.309  67.760  1.00  0.00    -0.246 C  
HETATM   13  O   UNL     1      -7.954  19.122  68.030  1.00  0.00    -0.278 OA 
HETATM   14  C   UNL     1      -9.248  13.871  67.311  1.00  0.00    -0.235 C  
HETATM   15  C   UNL     1      -8.745  15.095  69.518  1.00  0.00    -0.131 C  
HETATM   16  C   UNL     1     -10.867  13.451  67.569  1.00  0.00    -0.276 C  
HETATM   17  C   UNL     1      -8.874  15.249  67.991  1.00  0.00    -0.169 C  
HETATM   18  C   UNL     1     -11.757  14.606  67.090  1.00  0.00    -0.392 C  
HETATM   19  C   UNL     1      -7.479  15.709  67.418  1.00  0.00    -0.235 C  
HETATM   20  C   UNL     1     -11.436  15.890  67.848  1.00  0.00    -0.187 C  
ENDROOT
BRANCH   4  21
HETATM   21  O   UNL     1      -9.199  10.319  68.806  1.00  0.00    -0.150 OA 
BRANCH  21  22
HETATM   22  C   UNL     1      -9.660   9.922  70.023  1.00  0.00    -0.214 C  
HETATM   23  O   UNL     1     -10.705  10.298  70.527  1.00  0.00    -0.283 OA 
BRANCH  22  24
HETATM   24  C   UNL     1      -8.632   8.994  70.669  1.00  0.00    -0.245 C  
BRANCH  24  25
HETATM   25  C   UNL     1      -7.648   8.324  69.707  1.00  0.00    -0.092 C  
BRANCH  25  26
HETATM   26  C   UNL     1      -8.124   7.013  69.070  1.00  0.00    -0.121 C  
BRANCH  26  27
HETATM   27  C   UNL     1      -8.495   5.925  70.079  1.00  0.00    -0.126 C  
BRANCH  27  28
HETATM   28  C   UNL     1      -7.337   4.944  70.284  1.00  0.00    -0.055 C  
HETATM   29  C   UNL     1      -7.206   4.526  71.740  1.00  0.00    -0.060 C  
ENDBRANCH  27  28
ENDBRANCH  26  27
ENDBRANCH  25  26
ENDBRANCH  24  25
ENDBRANCH  22  24
ENDBRANCH  21  22
ENDBRANCH   4  21
TORSDOF 7
ENDMDL
MODEL      104
REMARK 921   NORMALIZED FREE ENERGY PREDICTED BY IDOCK:   -3.63 KCAL/MOL
REMARK 922        TOTAL FREE ENERGY PREDICTED BY IDOCK:   -7.27 KCAL/MOL
REMARK 923 INTER-LIGAND FREE ENERGY PREDICTED BY IDOCK:   -5.26 KCAL/MOL
REMARK 924 INTRA-LIGAND FREE ENERGY PREDICTED BY IDOCK:   -2.01 KCAL/MOL
REMARK 927      BINDING AFFINITY PREDICTED BY RF-SCORE:    0.00 PKD
ROOT
HETATM    1  C   UNL     1      -6.721   7.664  70.058  1.00  0.00    -0.049 C  
HETATM    2  C   UNL     1      -5.968   8.824  70.402  1.00  0.00    -0.030 C  
HETATM    3  C   UNL     1      -7.259   8.870  71.157  1.00  0.00    -0.111 C  
HETATM    4  C   UNL     1      -8.394   7.182  70.952  1.00  0.00    -0.121 C  
HETATM    5  C   UNL     1     -11.314  11.832  66.860  1.00  0.00    -0.320 C  
HETATM    6  C   UNL     1      -7.330   7.336  71.810  1.00  0.00    -0.080 C  
HETATM    7  C   UNL     1      -8.756   8.367  72.562  1.00  0.00    -0.277 C  
HETATM    8  C   UNL     1     -10.172  11.037  66.379  1.00  0.00    -0.284 C  
HETATM    9  C   UNL     1      -6.533   6.411  72.673  1.00  0.00    -0.063 C  
HETATM   10  C   UNL     1     -11.266  12.181  68.311  1.00  0.00    -0.319 C  
HETATM   11  C   UNL     1      -9.807   9.006  71.228  1.00  0.00    -0.376 C  
HETATM   12  C   UNL     1      -9.667  10.086  67.186  1.00  0.00    -0.217 C  
HETATM   13  O   UNL     1     -12.179  12.229  66.090  1.00  0.00    -0.647 OA 
HETATM   14  C   UNL     1      -9.202   9.310  69.608  1.00  0.00    -0.182 C  
HETATM   15  C   UNL     1     -11.275   8.562  68.279  1.00  0.00     0.522 C  
HETATM   16  C   UNL     1      -8.036   8.283  68.938  1.00  0.00    -0.113 C  
HETATM   17  C   UNL     1     -10.305   9.727  68.554  1.00  0.00    -0.228 C  
HETATM   18  C   UNL     1      -7.439   8.959  67.696  1.00  0.00    -0.092 C  
HETATM   19  C   UNL     1     -11.128  10.926  69.164  1.00  0.00    -0.301 C  
HETATM   20  C   UNL     1      -8.522   9.246  66.661  1.00  0.00    -0.130 C  
ENDROOT
BRANCH   4  21
HETATM   21  O   UNL     1      -9.065   6.218  71.904  1.00  0.00    -0.143 OA 
BRANCH  21  22
HETATM   22  C   UNL     1     -10.008   5.322  71.506  1.00  0.00    -0.182 C  
HETATM   23  O   UNL     1     -10.530   4.493  72.232  1.00  0.00    -0.192 OA 
BRANCH  22  24
HETATM   24  C   UNL     1     -10.251   5.485  70.006  1.00  0.00    -0.337 C  
BRANCH  24  25
HETATM   25  C   UNL     1      -9.589   4.435  69.110  1.00  0.00    -0.252 C  
BRANCH  25  26
HETATM   26  C   UNL     1      -8.824   4.979  67.898  1.00  0.00    -0.107 C  
BRANCH  26  27
HETATM   27  C   UNL     1      -9.697   5.733  66.894  1.00  0.00    -0.163 C  
BRANCH  27  28
HETATM   28  C   UNL     1     -10.616   4.774  66.131  1.00  0.00    -0.282 C  
HETATM   29  C   UNL     1      -9.832   3.883  65.179  1.00  0.00    -0.184 C  
ENDBRANCH  27  28
ENDBRANCH  26  27
ENDBRANCH  25  26
ENDBRANCH  24  25
ENDBRANCH  22  24
ENDBRANCH  21  22
ENDBRANCH   4  21
TORSDOF 7
ENDMDL
MODEL      105
REMARK 921   NORMALIZED FREE ENERGY PREDICTED BY IDOCK:   -3.63 KCAL/MOL
REMARK 922        TOTAL FREE ENERGY PREDICTED BY IDOCK:   -7.26 KCAL/MOL
REMARK 923 INTER-LIGAND FREE ENERGY PREDICTED BY IDOCK:   -6.19 KCAL/MOL
REMARK 924 INTRA-LIGAND FREE ENERGY PREDICTED BY IDOCK:   -1.08 KCAL/MOL
REMARK 927      BINDING AFFINITY PREDICTED BY RF-SCORE:    0.00 PKD
ROOT
HETATM    1  C   UNL     1     -11.249  10.806  70.011  1.00  0.00    -0.366 C  
HETATM    2  C   UNL     1     -12.610  10.577  69.656  1.00  0.00     0.060 C  
HETATM    3  C   UNL     1     -11.754  10.148  68.507  1.00  0.00     0.166 C  
HETATM    4  C   UNL     1      -9.750  10.208  68.904  1.00  0.00    -0.187 C  
HETATM    5  C   UNL     1     -11.011  15.768  65.110  1.00  0.00    -0.382 C  
HETATM    6  C   UNL     1     -10.611   9.199  69.266  1.00  0.00    -0.229 C  
HETATM    7  C   UNL     1     -10.369   9.021  67.376  1.00  0.00    -0.335 C  
HETATM    8  C   UNL     1     -11.228  15.802  66.566  1.00  0.00     0.023 C  
HETATM    9  C   UNL     1     -10.511   7.999  70.153  1.00  0.00    -0.225 C  
HETATM   10  C   UNL     1     -11.312  14.457  64.463  1.00  0.00    -0.328 C  
HETATM   11  C   UNL     1     -10.081  10.659  66.649  1.00  0.00    -0.270 C  
HETATM   12  C   UNL     1     -10.906  14.713  67.288  1.00  0.00    -0.305 C  
HETATM   13  O   UNL     1     -10.685  16.775  64.495  1.00  0.00    -0.726 OA 
HETATM   14  C   UNL     1     -10.700  12.137  67.366  1.00  0.00    -0.268 C  
HETATM   15  C   UNL     1      -8.706  13.678  66.850  1.00  0.00    -0.162 C  
HETATM   16  C   UNL     1     -10.765  12.293  69.050  1.00  0.00    -0.149 C  
HETATM   17  C   UNL     1     -10.220  13.469  66.662  1.00  0.00    -0.275 C  
HETATM   18  C   UNL     1     -11.652  13.496  69.399  1.00  0.00    -0.369 C  
HETATM   19  C   UNL     1     -10.517  13.336  65.119  1.00  0.00    -0.346 C  
HETATM   20  C   UNL     1     -11.092  14.777  68.790  1.00  0.00    -0.277 C  
ENDROOT
BRANCH   4  21
HETATM   21  O   UNL     1      -8.602   9.232  68.783  1.00  0.00    -0.127 OA 
BRANCH  21  22
HETATM   22  C   UNL     1      -7.298   9.606  68.892  1.00  0.00    -0.073 C  
HETATM   23  O   UNL     1      -6.614  10.020  67.971  1.00  0.00    -0.062 OA 
BRANCH  22  24
HETATM   24  C   UNL     1      -6.826   9.362  70.325  1.00  0.00    -0.080 C  
BRANCH  24  25
HETATM   25  C   UNL     1      -7.219   8.012  70.931  1.00  0.00    -0.053 C  
BRANCH  25  26
HETATM   26  C   UNL     1      -7.437   8.000  72.449  1.00  0.00    -0.132 C  
BRANCH  26  27
HETATM   27  C   UNL     1      -8.245   6.804  72.955  1.00  0.00    -0.115 C  
BRANCH  27  28
HETATM   28  C   UNL     1      -9.259   7.234  74.019  1.00  0.00    -0.292 C  
HETATM   29  C   UNL     1     -10.644   6.675  73.733  1.00  0.00    -0.302 C  
ENDBRANCH  27  28
ENDBRANCH  26  27
ENDBRANCH  25  26
ENDBRANCH  24  25
ENDBRANCH  22  24
ENDBRANCH  21  22
ENDBRANCH   4  21
TORSDOF 7
ENDMDL
MODEL      106
REMARK 921   NORMALIZED FREE ENERGY PREDICTED BY IDOCK:   -3.60 KCAL/MOL
REMARK 922        TOTAL FREE ENERGY PREDICTED BY IDOCK:   -7.22 KCAL/MOL
REMARK 923 INTER-LIGAND FREE ENERGY PREDICTED BY IDOCK:   -5.81 KCAL/MOL
REMARK 924 INTRA-LIGAND FREE ENERGY PREDICTED BY IDOCK:   -1.41 KCAL/MOL
REMARK 927      BINDING AFFINITY PREDICTED BY RF-SCORE:    0.00 PKD
ROOT
HETATM    1  C   UNL     1      -7.789   8.406  69.856  1.00  0.00    -0.101 C  
HETATM    2  C   UNL     1      -7.439   8.910  71.142  1.00  0.00    -0.125 C  
HETATM    3  C   UNL     1      -8.916   8.672  71.124  1.00  0.00    -0.253 C  
HETATM    4  C   UNL     1      -9.584   7.754  69.425  1.00  0.00    -0.156 C  
HETATM    5  C   UNL     1     -11.239  14.358  68.683  1.00  0.00    -0.259 C  
HETATM    6  C   UNL     1      -9.009   7.126  70.505  1.00  0.00    -0.155 C  
HETATM    7  C   UNL     1     -10.761   7.642  71.077  1.00  0.00    -0.239 C  
HETATM    8  C   UNL     1      -9.891  13.889  68.321  1.00  0.00    -0.231 C  
HETATM    9  C   UNL     1      -8.506   5.743  70.772  1.00  0.00    -0.125 C  
HETATM   10  C   UNL     1     -11.851  13.661  69.853  1.00  0.00    -0.389 C  
HETATM   11  C   UNL     1     -11.251   9.164  70.219  1.00  0.00    -0.249 C  
HETATM   12  C   UNL     1      -9.622  12.573  68.417  1.00  0.00    -0.176 C  
HETATM   13  O   UNL     1     -11.758  15.302  68.101  1.00  0.00    -0.345 OA 
HETATM   14  C   UNL     1     -10.087  10.341  69.637  1.00  0.00    -0.257 C  
HETATM   15  C   UNL     1     -11.277  11.012  67.456  1.00  0.00    -0.372 C  
HETATM   16  C   UNL     1      -8.602   9.819  69.013  1.00  0.00    -0.146 C  
HETATM   17  C   UNL     1     -10.705  11.525  68.790  1.00  0.00    -0.247 C  
HETATM   18  C   UNL     1      -7.659  11.026  68.911  1.00  0.00    -0.134 C  
HETATM   19  C   UNL     1     -11.883  12.155  69.628  1.00  0.00    -0.391 C  
HETATM   20  C   UNL     1      -8.246  12.098  68.000  1.00  0.00    -0.158 C  
ENDROOT
BRANCH   4  21
HETATM   21  O   UNL     1     -10.429   6.537  69.123  1.00  0.00    -0.187 OA 
BRANCH  21  22
HETATM   22  C   UNL     1     -10.663   6.095  67.859  1.00  0.00    -0.296 C  
HETATM   23  O   UNL     1     -11.400   6.643  67.056  1.00  0.00    -0.348 OA 
BRANCH  22  24
HETATM   24  C   UNL     1      -9.913   4.782  67.640  1.00  0.00    -0.178 C  
BRANCH  24  25
HETATM   25  C   UNL     1      -8.717   4.852  66.687  1.00  0.00    -0.108 C  
BRANCH  25  26
HETATM   26  C   UNL     1      -7.472   5.563  67.230  1.00  0.00    -0.084 C  
BRANCH  26  27
HETATM   27  C   UNL     1      -6.206   4.705  67.217  1.00  0.00    -0.039 C  
BRANCH  27  28
HETATM   28  C   UNL     1      -6.550   3.213  67.270  1.00  0.00    -0.037 C  
HETATM   29  C   UNL     1      -6.515   2.679  68.694  1.00  0.00    -0.029 C  
ENDBRANCH  27  28
ENDBRANCH  26  27
ENDBRANCH  25  26
ENDBRANCH  24  25
ENDBRANCH  22  24
ENDBRANCH  21  22
ENDBRANCH   4  21
TORSDOF 7
ENDMDL
MODEL      107
REMARK 921   NORMALIZED FREE ENERGY PREDICTED BY IDOCK:   -3.59 KCAL/MOL
REMARK 922        TOTAL FREE ENERGY PREDICTED BY IDOCK:   -7.20 KCAL/MOL
REMARK 923 INTER-LIGAND FREE ENERGY PREDICTED BY IDOCK:   -6.14 KCAL/MOL
REMARK 924 INTRA-LIGAND FREE ENERGY PREDICTED BY IDOCK:   -1.07 KCAL/MOL
REMARK 927      BINDING AFFINITY PREDICTED BY RF-SCORE:    0.00 PKD
ROOT
HETATM    1  C   UNL     1     -11.318   6.772  69.374  1.00  0.00    -0.255 C  
HETATM    2  C   UNL     1     -10.744   5.813  70.259  1.00  0.00    -0.380 C  
HETATM    3  C   UNL     1      -9.795   6.964  70.145  1.00  0.00    -0.185 C  
HETATM    4  C   UNL     1     -10.535   8.540  69.075  1.00  0.00    -0.200 C  
HETATM    5  C   UNL     1      -6.218   5.337  64.832  1.00  0.00    -0.033 C  
HETATM    6  C   UNL     1     -10.805   8.269  70.395  1.00  0.00    -0.241 C  
HETATM    7  C   UNL     1      -9.003   8.912  70.357  1.00  0.00    -0.207 C  
HETATM    8  C   UNL     1      -7.607   4.868  64.966  1.00  0.00    -0.077 C  
HETATM    9  C   UNL     1     -11.774   8.802  71.402  1.00  0.00    -0.369 C  
HETATM   10  C   UNL     1      -5.616   5.876  66.088  1.00  0.00    -0.013 C  
HETATM   11  C   UNL     1      -8.232   8.450  68.781  1.00  0.00    -0.119 C  
HETATM   12  C   UNL     1      -8.445   5.562  65.757  1.00  0.00    -0.134 C  
HETATM   13  O   UNL     1      -5.604   5.208  63.780  1.00  0.00    -0.016 OA 
HETATM   14  C   UNL     1      -8.728   7.040  67.860  1.00  0.00    -0.125 C  
HETATM   15  C   UNL     1      -8.471   8.018  65.494  1.00  0.00    -0.159 C  
HETATM   16  C   UNL     1     -10.361   6.593  67.819  1.00  0.00    -0.239 C  
HETATM   17  C   UNL     1      -8.034   6.890  66.447  1.00  0.00    -0.106 C  
HETATM   18  C   UNL     1     -10.468   5.169  67.257  1.00  0.00    -0.197 C  
HETATM   19  C   UNL     1      -6.475   6.995  66.661  1.00  0.00    -0.051 C  
HETATM   20  C   UNL     1      -9.883   5.095  65.851  1.00  0.00    -0.151 C  
ENDROOT
BRANCH   4  21
HETATM   21  O   UNL     1     -10.683  10.026  69.315  1.00  0.00    -0.202 OA 
BRANCH  21  22
HETATM   22  C   UNL     1     -11.446  10.829  68.526  1.00  0.00    -0.292 C  
HETATM   23  O   UNL     1     -12.478  11.375  68.880  1.00  0.00    -0.386 OA 
BRANCH  22  24
HETATM   24  C   UNL     1     -10.837  10.879  67.125  1.00  0.00    -0.337 C  
BRANCH  24  25
HETATM   25  C   UNL     1     -11.290  12.047  66.246  1.00  0.00    -0.415 C  
BRANCH  25  26
HETATM   26  C   UNL     1     -10.246  13.142  66.000  1.00  0.00    -0.287 C  
BRANCH  26  27
HETATM   27  C   UNL     1     -10.075  14.117  67.166  1.00  0.00    -0.258 C  
BRANCH  27  28
HETATM   28  C   UNL     1     -11.344  14.947  67.382  1.00  0.00    -0.354 C  
HETATM   29  C   UNL     1     -11.091  16.132  68.300  1.00  0.00    -0.348 C  
ENDBRANCH  27  28
ENDBRANCH  26  27
ENDBRANCH  25  26
ENDBRANCH  24  25
ENDBRANCH  22  24
ENDBRANCH  21  22
ENDBRANCH   4  21
TORSDOF 7
ENDMDL
MODEL      108
REMARK 921   NORMALIZED FREE ENERGY PREDICTED BY IDOCK:   -3.57 KCAL/MOL
REMARK 922        TOTAL FREE ENERGY PREDICTED BY IDOCK:   -7.18 KCAL/MOL
REMARK 923 INTER-LIGAND FREE ENERGY PREDICTED BY IDOCK:   -5.63 KCAL/MOL
REMARK 924 INTRA-LIGAND FREE ENERGY PREDICTED BY IDOCK:   -1.55 KCAL/MOL
REMARK 927      BINDING AFFINITY PREDICTED BY RF-SCORE:    0.00 PKD
ROOT
HETATM    1  C   UNL     1     -10.204   9.734  70.560  1.00  0.00    -0.321 C  
HETATM    2  C   UNL     1     -11.068   8.632  70.295  1.00  0.00    -0.230 C  
HETATM    3  C   UNL     1      -9.707   8.288  69.777  1.00  0.00    -0.180 C  
HETATM    4  C   UNL     1      -8.273   9.667  70.248  1.00  0.00    -0.191 C  
HETATM    5  C   UNL     1      -9.822  10.833  63.679  1.00  0.00    -0.350 C  
HETATM    6  C   UNL     1      -8.737   8.674  71.078  1.00  0.00    -0.227 C  
HETATM    7  C   UNL     1      -7.653   7.792  69.771  1.00  0.00    -0.091 C  
HETATM    8  C   UNL     1     -10.641  11.427  64.748  1.00  0.00    -0.377 C  
HETATM    9  C   UNL     1      -8.573   8.356  72.531  1.00  0.00    -0.253 C  
HETATM   10  C   UNL     1      -9.276   9.479  63.989  1.00  0.00    -0.116 C  
HETATM   11  C   UNL     1      -7.742   8.700  68.203  1.00  0.00    -0.102 C  
HETATM   12  C   UNL     1     -10.268  11.232  66.027  1.00  0.00    -0.295 C  
HETATM   13  O   UNL     1      -9.683  11.397  62.601  1.00  0.00    -0.285 OA 
HETATM   14  C   UNL     1      -9.131   9.671  67.747  1.00  0.00    -0.132 C  
HETATM   15  C   UNL     1      -7.887  11.594  66.575  1.00  0.00    -0.025 C  
HETATM   16  C   UNL     1      -9.974  10.542  68.929  1.00  0.00    -0.213 C  
HETATM   17  C   UNL     1      -8.955  10.497  66.410  1.00  0.00    -0.174 C  
HETATM   18  C   UNL     1     -11.314  11.002  68.339  1.00  0.00    -0.363 C  
HETATM   19  C   UNL     1      -8.477   9.501  65.285  1.00  0.00    -0.159 C  
HETATM   20  C   UNL     1     -11.094  11.885  67.115  1.00  0.00    -0.347 C  
ENDROOT
BRANCH   4  21
HETATM   21  O   UNL     1      -6.907   9.617  70.894  1.00  0.00    -0.201 OA 
BRANCH  21  22
HETATM   22  C   UNL     1      -6.098  10.705  70.997  1.00  0.00     0.131 C  
HETATM   23  O   UNL     1      -5.306  10.900  71.903  1.00  0.00    -0.319 OA 
BRANCH  22  24
HETATM   24  C   UNL     1      -6.393  11.659  69.839  1.00  0.00    -0.124 C  
BRANCH  24  25
HETATM   25  C   UNL     1      -5.756  13.047  69.945  1.00  0.00    -0.123 C  
BRANCH  25  26
HETATM   26  C   UNL     1      -6.651  14.224  69.540  1.00  0.00    -0.134 C  
BRANCH  26  27
HETATM   27  C   UNL     1      -7.934  13.815  68.815  1.00  0.00    -0.041 C  
BRANCH  27  28
HETATM   28  C   UNL     1      -8.697  15.042  68.309  1.00  0.00    -0.166 C  
HETATM   29  C   UNL     1      -9.136  15.942  69.454  1.00  0.00    -0.222 C  
ENDBRANCH  27  28
ENDBRANCH  26  27
ENDBRANCH  25  26
ENDBRANCH  24  25
ENDBRANCH  22  24
ENDBRANCH  21  22
ENDBRANCH   4  21
TORSDOF 7
ENDMDL
MODEL      109
REMARK 921   NORMALIZED FREE ENERGY PREDICTED BY IDOCK:   -3.55 KCAL/MOL
REMARK 922        TOTAL FREE ENERGY PREDICTED BY IDOCK:   -7.15 KCAL/MOL
REMARK 923 INTER-LIGAND FREE ENERGY PREDICTED BY IDOCK:   -6.07 KCAL/MOL
REMARK 924 INTRA-LIGAND FREE ENERGY PREDICTED BY IDOCK:   -1.08 KCAL/MOL
REMARK 927      BINDING AFFINITY PREDICTED BY RF-SCORE:    0.00 PKD
ROOT
HETATM    1  C   UNL     1     -10.578   9.540  68.786  1.00  0.00    -0.240 C  
HETATM    2  C   UNL     1     -10.720  10.141  70.070  1.00  0.00    -0.356 C  
HETATM    3  C   UNL     1      -9.260   9.933  69.814  1.00  0.00    -0.252 C  
HETATM    4  C   UNL     1      -8.840   9.266  67.929  1.00  0.00    -0.124 C  
HETATM    5  C   UNL     1      -8.305   3.755  71.959  1.00  0.00    -0.087 C  
HETATM    6  C   UNL     1      -9.085  10.572  68.284  1.00  0.00    -0.146 C  
HETATM    7  C   UNL     1      -7.341  10.170  68.961  1.00  0.00    -0.087 C  
HETATM    8  C   UNL     1      -9.621   4.168  71.442  1.00  0.00    -0.238 C  
HETATM    9  C   UNL     1      -9.325  11.840  67.527  1.00  0.00    -0.174 C  
HETATM   10  C   UNL     1      -7.373   4.880  72.267  1.00  0.00    -0.083 C  
HETATM   11  C   UNL     1      -7.255   8.411  69.397  1.00  0.00    -0.059 C  
HETATM   12  C   UNL     1      -9.679   5.216  70.599  1.00  0.00    -0.257 C  
HETATM   13  O   UNL     1      -8.054   2.578  72.183  1.00  0.00    -0.053 OA 
HETATM   14  C   UNL     1      -8.667   7.482  69.872  1.00  0.00    -0.140 C  
HETATM   15  C   UNL     1      -8.060   5.254  68.734  1.00  0.00    -0.090 C  
HETATM   16  C   UNL     1     -10.162   7.788  69.139  1.00  0.00    -0.210 C  
HETATM   17  C   UNL     1      -8.408   5.934  70.072  1.00  0.00    -0.122 C  
HETATM   18  C   UNL     1     -11.263   7.108  69.964  1.00  0.00    -0.271 C  
HETATM   19  C   UNL     1      -7.180   5.771  71.048  1.00  0.00    -0.076 C  
HETATM   20  C   UNL     1     -11.032   5.602  70.040  1.00  0.00    -0.311 C  
ENDROOT
BRANCH   4  21
HETATM   21  O   UNL     1      -7.916   9.707  66.816  1.00  0.00    -0.105 OA 
BRANCH  21  22
HETATM   22  C   UNL     1      -7.630   8.925  65.740  1.00  0.00    -0.090 C  
HETATM   23  O   UNL     1      -7.057   7.850  65.795  1.00  0.00    -0.059 OA 
BRANCH  22  24
HETATM   24  C   UNL     1      -8.082   9.641  64.468  1.00  0.00    -0.143 C  
BRANCH  24  25
HETATM   25  C   UNL     1      -9.542  10.101  64.449  1.00  0.00    -0.366 C  
BRANCH  25  26
HETATM   26  C   UNL     1      -9.947  10.987  63.265  1.00  0.00    -0.414 C  
BRANCH  26  27
HETATM   27  C   UNL     1     -10.230  12.442  63.641  1.00  0.00    -0.383 C  
BRANCH  27  28
HETATM   28  C   UNL     1     -11.717  12.773  63.487  1.00  0.00    -0.597 C  
HETATM   29  C   UNL     1     -12.434  12.775  64.829  1.00  0.00    -0.539 C  
ENDBRANCH  27  28
ENDBRANCH  26  27
ENDBRANCH  25  26
ENDBRANCH  24  25
ENDBRANCH  22  24
ENDBRANCH  21  22
ENDBRANCH   4  21
TORSDOF 7
ENDMDL
MODEL      110
REMARK 921   NORMALIZED FREE ENERGY PREDICTED BY IDOCK:   -3.55 KCAL/MOL
REMARK 922        TOTAL FREE ENERGY PREDICTED BY IDOCK:   -7.15 KCAL/MOL
REMARK 923 INTER-LIGAND FREE ENERGY PREDICTED BY IDOCK:   -5.69 KCAL/MOL
REMARK 924 INTRA-LIGAND FREE ENERGY PREDICTED BY IDOCK:   -1.46 KCAL/MOL
REMARK 927      BINDING AFFINITY PREDICTED BY RF-SCORE:    0.00 PKD
ROOT
HETATM    1  C   UNL     1      -6.649   7.792  66.928  1.00  0.00    -0.059 C  
HETATM    2  C   UNL     1      -6.180   6.458  67.107  1.00  0.00    -0.036 C  
HETATM    3  C   UNL     1      -7.643   6.396  66.801  1.00  0.00    -0.098 C  
HETATM    4  C   UNL     1      -8.460   8.204  66.310  1.00  0.00    -0.131 C  
HETATM    5  C   UNL     1     -10.373   7.053  72.784  1.00  0.00    -0.222 C  
HETATM    6  C   UNL     1      -7.756   7.382  65.461  1.00  0.00    -0.107 C  
HETATM    7  C   UNL     1      -9.452   6.532  65.717  1.00  0.00     0.190 C  
HETATM    8  C   UNL     1      -9.058   7.650  72.497  1.00  0.00    -0.205 C  
HETATM    9  C   UNL     1      -7.189   7.530  64.085  1.00  0.00    -0.080 C  
HETATM   10  C   UNL     1     -10.838   6.051  71.780  1.00  0.00    -0.312 C  
HETATM   11  C   UNL     1     -10.074   6.917  67.377  1.00  0.00    -0.237 C  
HETATM   12  C   UNL     1      -8.744   7.924  71.217  1.00  0.00    -0.149 C  
HETATM   13  O   UNL     1     -10.978   7.319  73.815  1.00  0.00    -0.255 OA 
HETATM   14  C   UNL     1      -9.012   7.284  68.726  1.00  0.00    -0.129 C  
HETATM   15  C   UNL     1     -10.446   9.094  69.862  1.00  0.00    -0.239 C  
HETATM   16  C   UNL     1      -7.587   8.159  68.462  1.00  0.00    -0.104 C  
HETATM   17  C   UNL     1      -9.750   7.733  70.051  1.00  0.00    -0.176 C  
HETATM   18  C   UNL     1      -6.695   8.035  69.705  1.00  0.00    -0.040 C  
HETATM   19  C   UNL     1     -10.850   6.652  70.381  1.00  0.00    -0.316 C  
HETATM   20  C   UNL     1      -7.406   8.578  70.940  1.00  0.00    -0.068 C  
ENDROOT
BRANCH   4  21
HETATM   21  O   UNL     1      -9.297   8.727  65.164  1.00  0.00    -0.073 OA 
BRANCH  21  22
HETATM   22  C   UNL     1      -9.584  10.047  65.002  1.00  0.00    -0.297 C  
HETATM   23  O   UNL     1      -9.740  10.597  63.925  1.00  0.00    -0.270 OA 
BRANCH  22  24
HETATM   24  C   UNL     1      -9.612  10.725  66.372  1.00  0.00    -0.226 C  
BRANCH  24  25
HETATM   25  C   UNL     1     -10.940  11.380  66.759  1.00  0.00    -0.347 C  
BRANCH  25  26
HETATM   26  C   UNL     1     -10.956  12.914  66.746  1.00  0.00    -0.300 C  
BRANCH  26  27
HETATM   27  C   UNL     1     -11.975  13.520  65.780  1.00  0.00    -0.439 C  
BRANCH  27  28
HETATM   28  C   UNL     1     -11.390  13.648  64.370  1.00  0.00    -0.394 C  
HETATM   29  C   UNL     1     -12.204  12.865  63.351  1.00  0.00    -0.574 C  
ENDBRANCH  27  28
ENDBRANCH  26  27
ENDBRANCH  25  26
ENDBRANCH  24  25
ENDBRANCH  22  24
ENDBRANCH  21  22
ENDBRANCH   4  21
TORSDOF 7
ENDMDL
MODEL      111
REMARK 921   NORMALIZED FREE ENERGY PREDICTED BY IDOCK:   -3.54 KCAL/MOL
REMARK 922        TOTAL FREE ENERGY PREDICTED BY IDOCK:   -7.14 KCAL/MOL
REMARK 923 INTER-LIGAND FREE ENERGY PREDICTED BY IDOCK:   -4.83 KCAL/MOL
REMARK 924 INTRA-LIGAND FREE ENERGY PREDICTED BY IDOCK:   -2.31 KCAL/MOL
REMARK 927      BINDING AFFINITY PREDICTED BY RF-SCORE:    0.00 PKD
ROOT
HETATM    1  C   UNL     1      -7.147   8.197  70.120  1.00  0.00    -0.048 C  
HETATM    2  C   UNL     1      -7.094   9.125  71.200  1.00  0.00    -0.088 C  
HETATM    3  C   UNL     1      -8.506   8.647  71.069  1.00  0.00    -0.199 C  
HETATM    4  C   UNL     1      -8.745   7.149  69.699  1.00  0.00    -0.141 C  
HETATM    5  C   UNL     1     -11.011  12.819  66.598  1.00  0.00    -0.270 C  
HETATM    6  C   UNL     1      -8.303   6.993  70.992  1.00  0.00    -0.125 C  
HETATM    7  C   UNL     1     -10.177   7.355  71.126  1.00  0.00    -0.199 C  
HETATM    8  C   UNL     1      -9.575  12.497  66.591  1.00  0.00    -0.239 C  
HETATM    9  C   UNL     1      -7.696   5.867  71.767  1.00  0.00    -0.101 C  
HETATM   10  C   UNL     1     -11.735  12.424  67.842  1.00  0.00    -0.421 C  
HETATM   11  C   UNL     1     -10.683   8.430  69.756  1.00  0.00    -0.211 C  
HETATM   12  C   UNL     1      -9.174  11.341  67.152  1.00  0.00    -0.169 C  
HETATM   13  O   UNL     1     -11.526  13.434  65.673  1.00  0.00    -0.308 OA 
HETATM   14  C   UNL     1      -9.581   9.550  68.973  1.00  0.00    -0.166 C  
HETATM   15  C   UNL     1     -10.434   9.301  66.558  1.00  0.00    -0.204 C  
HETATM   16  C   UNL     1      -7.957   9.121  68.757  1.00  0.00    -0.100 C  
HETATM   17  C   UNL     1     -10.173  10.292  67.708  1.00  0.00    -0.225 C  
HETATM   18  C   UNL     1      -7.161  10.379  68.385  1.00  0.00    -0.078 C  
HETATM   19  C   UNL     1     -11.549  10.940  68.128  1.00  0.00    -0.317 C  
HETATM   20  C   UNL     1      -7.699  11.001  67.100  1.00  0.00    -0.131 C  
ENDROOT
BRANCH   4  21
HETATM   21  O   UNL     1      -9.373   5.773  69.712  1.00  0.00    -0.142 OA 
BRANCH  21  22
HETATM   22  C   UNL     1      -9.354   4.943  68.635  1.00  0.00    -0.135 C  
HETATM   23  O   UNL     1      -9.068   3.758  68.675  1.00  0.00    -0.117 OA 
BRANCH  22  24
HETATM   24  C   UNL     1      -9.683   5.747  67.378  1.00  0.00    -0.133 C  
BRANCH  24  25
HETATM   25  C   UNL     1      -9.294   5.090  66.051  1.00  0.00    -0.161 C  
BRANCH  25  26
HETATM   26  C   UNL     1      -8.137   5.752  65.292  1.00  0.00    -0.130 C  
BRANCH  26  27
HETATM   27  C   UNL     1      -7.247   6.641  66.161  1.00  0.00    -0.071 C  
BRANCH  27  28
HETATM   28  C   UNL     1      -6.860   7.926  65.422  1.00  0.00    -0.058 C  
HETATM   29  C   UNL     1      -7.813   8.221  64.274  1.00  0.00    -0.144 C  
ENDBRANCH  27  28
ENDBRANCH  26  27
ENDBRANCH  25  26
ENDBRANCH  24  25
ENDBRANCH  22  24
ENDBRANCH  21  22
ENDBRANCH   4  21
TORSDOF 7
ENDMDL
MODEL      112
REMARK 921   NORMALIZED FREE ENERGY PREDICTED BY IDOCK:   -3.54 KCAL/MOL
REMARK 922        TOTAL FREE ENERGY PREDICTED BY IDOCK:   -7.14 KCAL/MOL
REMARK 923 INTER-LIGAND FREE ENERGY PREDICTED BY IDOCK:   -5.34 KCAL/MOL
REMARK 924 INTRA-LIGAND FREE ENERGY PREDICTED BY IDOCK:   -1.80 KCAL/MOL
REMARK 927      BINDING AFFINITY PREDICTED BY RF-SCORE:    0.00 PKD
ROOT
HETATM    1  C   UNL     1     -11.051  12.375  66.398  1.00  0.00    -0.343 C  
HETATM    2  C   UNL     1     -12.399  12.271  65.949  1.00  0.00     0.124 C  
HETATM    3  C   UNL     1     -12.079  13.722  66.121  1.00  0.00    -0.477 C  
HETATM    4  C   UNL     1     -10.119  14.088  66.566  1.00  0.00    -0.285 C  
HETATM    5  C   UNL     1     -13.475  14.738  72.500  1.00  0.00    -0.446 C  
HETATM    6  C   UNL     1     -10.627  13.853  65.310  1.00  0.00    -0.372 C  
HETATM    7  C   UNL     1     -11.204  15.616  65.782  1.00  0.00    -0.080 C  
HETATM    8  C   UNL     1     -13.047  13.408  72.035  1.00  0.00    -0.473 C  
HETATM    9  C   UNL     1     -10.028  13.592  63.965  1.00  0.00     0.923 C  
HETATM   10  C   UNL     1     -13.883  15.678  71.415  1.00  0.00    -0.343 C  
HETATM   11  C   UNL     1     -11.433  15.714  67.579  1.00  0.00    -0.121 C  
HETATM   12  C   UNL     1     -12.331  13.326  70.898  1.00  0.00    -0.413 C  
HETATM   13  O   UNL     1     -13.556  14.995  73.695  1.00  0.00    -0.172 OA 
HETATM   14  C   UNL     1     -11.839  14.317  68.561  1.00  0.00    -0.382 C  
HETATM   15  C   UNL     1     -10.437  14.890  70.642  1.00  0.00     0.232 C  
HETATM   16  C   UNL     1     -11.189  12.801  68.177  1.00  0.00    -0.310 C  
HETATM   17  C   UNL     1     -11.853  14.581  70.120  1.00  0.00    -0.371 C  
HETATM   18  C   UNL     1     -11.963  11.724  68.951  1.00  0.00    -0.332 C  
HETATM   19  C   UNL     1     -12.769  15.836  70.390  1.00  0.00    -0.202 C  
HETATM   20  C   UNL     1     -11.860  11.957  70.455  1.00  0.00    -0.329 C  
ENDROOT
BRANCH   4  21
HETATM   21  O   UNL     1      -9.037  14.979  65.999  1.00  0.00    -0.264 OA 
BRANCH  21  22
HETATM   22  C   UNL     1      -7.921  15.322  66.696  1.00  0.00     0.042 C  
HETATM   23  O   UNL     1      -7.237  16.307  66.474  1.00  0.00    -0.188 OA 
BRANCH  22  24
HETATM   24  C   UNL     1      -7.635  14.246  67.744  1.00  0.00    -0.175 C  
BRANCH  24  25
HETATM   25  C   UNL     1      -6.394  13.387  67.490  1.00  0.00    -0.112 C  
BRANCH  25  26
HETATM   26  C   UNL     1      -6.659  11.913  67.161  1.00  0.00    -0.148 C  
BRANCH  26  27
HETATM   27  C   UNL     1      -7.017  11.055  68.376  1.00  0.00    -0.071 C  
BRANCH  27  28
HETATM   28  C   UNL     1      -8.362  10.350  68.177  1.00  0.00    -0.117 C  
HETATM   29  C   UNL     1      -8.581   9.960  66.724  1.00  0.00    -0.133 C  
ENDBRANCH  27  28
ENDBRANCH  26  27
ENDBRANCH  25  26
ENDBRANCH  24  25
ENDBRANCH  22  24
ENDBRANCH  21  22
ENDBRANCH   4  21
TORSDOF 7
ENDMDL
MODEL      113
REMARK 921   NORMALIZED FREE ENERGY PREDICTED BY IDOCK:   -3.52 KCAL/MOL
REMARK 922        TOTAL FREE ENERGY PREDICTED BY IDOCK:   -7.11 KCAL/MOL
REMARK 923 INTER-LIGAND FREE ENERGY PREDICTED BY IDOCK:   -6.07 KCAL/MOL
REMARK 924 INTRA-LIGAND FREE ENERGY PREDICTED BY IDOCK:   -1.04 KCAL/MOL
REMARK 927      BINDING AFFINITY PREDICTED BY RF-SCORE:    0.00 PKD
ROOT
HETATM    1  C   UNL     1      -7.249  11.145  67.556  1.00  0.00    -0.101 C  
HETATM    2  C   UNL     1      -7.354  11.052  68.974  1.00  0.00    -0.123 C  
HETATM    3  C   UNL     1      -8.736  10.993  68.402  1.00  0.00    -0.150 C  
HETATM    4  C   UNL     1      -8.780  10.906  66.361  1.00  0.00    -0.170 C  
HETATM    5  C   UNL     1     -10.354  17.383  67.932  1.00  0.00    -0.369 C  
HETATM    6  C   UNL     1      -8.564   9.843  67.206  1.00  0.00    -0.125 C  
HETATM    7  C   UNL     1     -10.425  10.261  67.364  1.00  0.00    -0.303 C  
HETATM    8  C   UNL     1      -8.945  16.965  67.848  1.00  0.00    -0.225 C  
HETATM    9  C   UNL     1      -8.123   8.426  67.021  1.00  0.00    -0.104 C  
HETATM   10  C   UNL     1     -11.285  16.342  68.456  1.00  0.00    -0.359 C  
HETATM   11  C   UNL     1     -10.667  12.039  67.104  1.00  0.00    -0.277 C  
HETATM   12  C   UNL     1      -8.672  15.702  67.471  1.00  0.00    -0.189 C  
HETATM   13  O   UNL     1     -10.691  18.529  67.661  1.00  0.00    -0.423 OA 
HETATM   14  C   UNL     1      -9.422  13.227  67.452  1.00  0.00    -0.218 C  
HETATM   15  C   UNL     1      -9.865  14.833  65.490  1.00  0.00    -0.336 C  
HETATM   16  C   UNL     1      -7.796  12.852  67.164  1.00  0.00    -0.084 C  
HETATM   17  C   UNL     1      -9.776  14.707  67.023  1.00  0.00    -0.247 C  
HETATM   18  C   UNL     1      -6.918  13.896  67.867  1.00  0.00    -0.165 C  
HETATM   19  C   UNL     1     -11.186  15.064  67.634  1.00  0.00    -0.331 C  
HETATM   20  C   UNL     1      -7.218  15.297  67.345  1.00  0.00    -0.235 C  
ENDROOT
BRANCH   4  21
HETATM   21  O   UNL     1      -9.434  10.004  65.339  1.00  0.00    -0.209 OA 
BRANCH  21  22
HETATM   22  C   UNL     1      -9.331  10.210  63.998  1.00  0.00    -0.287 C  
HETATM   23  O   UNL     1     -10.150  10.808  63.321  1.00  0.00    -0.325 OA 
BRANCH  22  24
HETATM   24  C   UNL     1      -8.069   9.519  63.482  1.00  0.00    -0.151 C  
BRANCH  24  25
HETATM   25  C   UNL     1      -8.300   8.352  62.518  1.00  0.00    -0.165 C  
BRANCH  25  26
HETATM   26  C   UNL     1      -7.365   7.149  62.691  1.00  0.00    -0.084 C  
BRANCH  26  27
HETATM   27  C   UNL     1      -8.042   5.910  63.281  1.00  0.00    -0.101 C  
BRANCH  27  28
HETATM   28  C   UNL     1      -7.581   5.662  64.720  1.00  0.00    -0.084 C  
HETATM   29  C   UNL     1      -8.629   4.909  65.525  1.00  0.00    -0.135 C  
ENDBRANCH  27  28
ENDBRANCH  26  27
ENDBRANCH  25  26
ENDBRANCH  24  25
ENDBRANCH  22  24
ENDBRANCH  21  22
ENDBRANCH   4  21
TORSDOF 7
ENDMDL
MODEL      114
REMARK 921   NORMALIZED FREE ENERGY PREDICTED BY IDOCK:   -3.52 KCAL/MOL
REMARK 922        TOTAL FREE ENERGY PREDICTED BY IDOCK:   -7.11 KCAL/MOL
REMARK 923 INTER-LIGAND FREE ENERGY PREDICTED BY IDOCK:   -5.95 KCAL/MOL
REMARK 924 INTRA-LIGAND FREE ENERGY PREDICTED BY IDOCK:   -1.16 KCAL/MOL
REMARK 927      BINDING AFFINITY PREDICTED BY RF-SCORE:    0.00 PKD
ROOT
HETATM    1  C   UNL     1      -6.952  13.655  67.654  1.00  0.00    -0.183 C  
HETATM    2  C   UNL     1      -6.460  13.881  68.972  1.00  0.00    -0.103 C  
HETATM    3  C   UNL     1      -7.956  13.875  69.031  1.00  0.00     0.098 C  
HETATM    4  C   UNL     1      -8.848  13.360  67.265  1.00  0.00    -0.220 C  
HETATM    5  C   UNL     1      -9.460  20.168  67.685  1.00  0.00    -0.387 C  
HETATM    6  C   UNL     1      -8.326  12.483  68.188  1.00  0.00    -0.175 C  
HETATM    7  C   UNL     1      -9.941  13.154  68.965  1.00  0.00     0.204 C  
HETATM    8  C   UNL     1      -8.224  19.568  67.153  1.00  0.00    -0.308 C  
HETATM    9  C   UNL     1      -8.039  11.016  68.199  1.00  0.00    -0.122 C  
HETATM   10  C   UNL     1     -10.114  19.387  68.776  1.00  0.00    -0.504 C  
HETATM   11  C   UNL     1     -10.225  14.853  68.394  1.00  0.00    -0.231 C  
HETATM   12  C   UNL     1      -8.166  18.230  67.023  1.00  0.00    -0.248 C  
HETATM   13  O   UNL     1      -9.850  21.262  67.298  1.00  0.00    -0.178 OA 
HETATM   14  C   UNL     1      -8.918  15.922  67.914  1.00  0.00    -0.181 C  
HETATM   15  C   UNL     1     -10.097  17.114  65.961  1.00  0.00    -0.303 C  
HETATM   16  C   UNL     1      -7.570  15.294  67.105  1.00  0.00    -0.224 C  
HETATM   17  C   UNL     1      -9.381  17.309  67.311  1.00  0.00    -0.237 C  
HETATM   18  C   UNL     1      -6.453  16.346  67.120  1.00  0.00    -0.227 C  
HETATM   19  C   UNL     1     -10.399  17.961  68.324  1.00  0.00    -0.389 C  
HETATM   20  C   UNL     1      -6.907  17.629  66.433  1.00  0.00    -0.297 C  
ENDROOT
BRANCH   4  21
HETATM   21  O   UNL     1      -9.891  12.349  66.845  1.00  0.00    -0.208 OA 
BRANCH  21  22
HETATM   22  C   UNL     1     -10.456  12.342  65.607  1.00  0.00    -0.261 C  
HETATM   23  O   UNL     1     -11.509  12.887  65.321  1.00  0.00    -0.297 OA 
BRANCH  22  24
HETATM   24  C   UNL     1      -9.596  11.496  64.670  1.00  0.00    -0.186 C  
BRANCH  24  25
HETATM   25  C   UNL     1      -9.852   9.987  64.717  1.00  0.00    -0.325 C  
BRANCH  25  26
HETATM   26  C   UNL     1      -8.724   9.137  65.313  1.00  0.00    -0.219 C  
BRANCH  26  27
HETATM   27  C   UNL     1      -7.420   9.178  64.514  1.00  0.00    -0.101 C  
BRANCH  27  28
HETATM   28  C   UNL     1      -6.342   9.971  65.259  1.00  0.00    -0.107 C  
HETATM   29  C   UNL     1      -5.159   9.092  65.636  1.00  0.00    -0.033 C  
ENDBRANCH  27  28
ENDBRANCH  26  27
ENDBRANCH  25  26
ENDBRANCH  24  25
ENDBRANCH  22  24
ENDBRANCH  21  22
ENDBRANCH   4  21
TORSDOF 7
ENDMDL
MODEL      115
REMARK 921   NORMALIZED FREE ENERGY PREDICTED BY IDOCK:   -3.50 KCAL/MOL
REMARK 922        TOTAL FREE ENERGY PREDICTED BY IDOCK:   -7.08 KCAL/MOL
REMARK 923 INTER-LIGAND FREE ENERGY PREDICTED BY IDOCK:   -5.97 KCAL/MOL
REMARK 924 INTRA-LIGAND FREE ENERGY PREDICTED BY IDOCK:   -1.11 KCAL/MOL
REMARK 927      BINDING AFFINITY PREDICTED BY RF-SCORE:    0.00 PKD
ROOT
HETATM    1  C   UNL     1      -8.846  10.963  64.614  1.00  0.00    -0.096 C  
HETATM    2  C   UNL     1      -9.118   9.576  64.431  1.00  0.00    -0.234 C  
HETATM    3  C   UNL     1      -9.966  10.069  65.561  1.00  0.00    -0.367 C  
HETATM    4  C   UNL     1      -9.867  12.090  65.845  1.00  0.00    -0.238 C  
HETATM    5  C   UNL     1      -5.942   9.378  70.758  1.00  0.00    -0.063 C  
HETATM    6  C   UNL     1     -10.642  11.447  64.909  1.00  0.00    -0.368 C  
HETATM    7  C   UNL     1     -11.484  11.115  66.595  1.00  0.00     0.058 C  
HETATM    8  C   UNL     1      -5.387   9.612  69.415  1.00  0.00    -0.035 C  
HETATM    9  C   UNL     1     -11.456  11.890  63.735  1.00  0.00    -0.542 C  
HETATM   10  C   UNL     1      -7.380   8.981  70.781  1.00  0.00    -0.109 C  
HETATM   11  C   UNL     1     -10.223  11.062  67.898  1.00  0.00    -0.207 C  
HETATM   12  C   UNL     1      -6.167  10.208  68.494  1.00  0.00    -0.044 C  
HETATM   13  O   UNL     1      -5.232   9.436  71.755  1.00  0.00    -0.056 OA 
HETATM   14  C   UNL     1      -8.559  10.594  67.589  1.00  0.00    -0.118 C  
HETATM   15  C   UNL     1      -7.395  12.233  69.196  1.00  0.00     0.091 C  
HETATM   16  C   UNL     1      -7.817  11.034  66.132  1.00  0.00    -0.117 C  
HETATM   17  C   UNL     1      -7.584  10.751  68.824  1.00  0.00    -0.113 C  
HETATM   18  C   UNL     1      -6.527  10.219  65.971  1.00  0.00    -0.107 C  
HETATM   19  C   UNL     1      -8.236  10.008  70.053  1.00  0.00    -0.139 C  
HETATM   20  C   UNL     1      -5.571  10.483  67.129  1.00  0.00    -0.042 C  
ENDROOT
BRANCH   4  21
HETATM   21  O   UNL     1     -10.878  13.208  65.964  1.00  0.00    -0.271 OA 
BRANCH  21  22
HETATM   22  C   UNL     1     -10.529  14.523  65.973  1.00  0.00    -0.308 C  
HETATM   23  O   UNL     1      -9.683  15.022  65.251  1.00  0.00    -0.283 OA 
BRANCH  22  24
HETATM   24  C   UNL     1     -11.315  15.242  67.068  1.00  0.00    -0.230 C  
BRANCH  24  25
HETATM   25  C   UNL     1     -10.994  14.816  68.503  1.00  0.00    -0.265 C  
BRANCH  25  26
HETATM   26  C   UNL     1     -12.159  14.213  69.297  1.00  0.00    -0.364 C  
BRANCH  26  27
HETATM   27  C   UNL     1     -12.347  14.819  70.689  1.00  0.00    -0.401 C  
BRANCH  27  28
HETATM   28  C   UNL     1     -12.800  13.757  71.696  1.00  0.00    -0.438 C  
HETATM   29  C   UNL     1     -14.044  14.196  72.453  1.00  0.00    -0.570 C  
ENDBRANCH  27  28
ENDBRANCH  26  27
ENDBRANCH  25  26
ENDBRANCH  24  25
ENDBRANCH  22  24
ENDBRANCH  21  22
ENDBRANCH   4  21
TORSDOF 7
ENDMDL
MODEL      116
REMARK 921   NORMALIZED FREE ENERGY PREDICTED BY IDOCK:   -3.48 KCAL/MOL
REMARK 922        TOTAL FREE ENERGY PREDICTED BY IDOCK:   -7.06 KCAL/MOL
REMARK 923 INTER-LIGAND FREE ENERGY PREDICTED BY IDOCK:   -6.16 KCAL/MOL
REMARK 924 INTRA-LIGAND FREE ENERGY PREDICTED BY IDOCK:   -0.89 KCAL/MOL
REMARK 927      BINDING AFFINITY PREDICTED BY RF-SCORE:    0.00 PKD
ROOT
HETATM    1  C   UNL     1      -9.227   8.696  66.119  1.00  0.00    -0.271 C  
HETATM    2  C   UNL     1      -8.038   8.886  65.358  1.00  0.00    -0.119 C  
HETATM    3  C   UNL     1      -7.860   9.574  66.675  1.00  0.00    -0.101 C  
HETATM    4  C   UNL     1      -9.386   9.241  67.992  1.00  0.00    -0.133 C  
HETATM    5  C   UNL     1     -10.465  15.538  65.526  1.00  0.00    -0.386 C  
HETATM    6  C   UNL     1      -8.334   8.390  67.749  1.00  0.00    -0.130 C  
HETATM    7  C   UNL     1      -7.602   9.843  68.755  1.00  0.00    -0.081 C  
HETATM    8  C   UNL     1     -10.945  14.361  64.783  1.00  0.00    -0.409 C  
HETATM    9  C   UNL     1      -8.016   6.978  68.125  1.00  0.00    -0.119 C  
HETATM   10  C   UNL     1      -9.178  15.336  66.253  1.00  0.00    -0.350 C  
HETATM   11  C   UNL     1      -8.517  11.362  68.373  1.00  0.00    -0.155 C  
HETATM   12  C   UNL     1     -10.775  13.143  65.330  1.00  0.00    -0.308 C  
HETATM   13  O   UNL     1     -11.057  16.609  65.466  1.00  0.00    -0.107 OA 
HETATM   14  C   UNL     1      -9.329  11.619  66.838  1.00  0.00    -0.195 C  
HETATM   15  C   UNL     1     -11.400  12.877  67.705  1.00  0.00    -0.343 C  
HETATM   16  C   UNL     1     -10.081  10.319  66.055  1.00  0.00    -0.311 C  
HETATM   17  C   UNL     1     -10.190  12.943  66.754  1.00  0.00    -0.243 C  
HETATM   18  C   UNL     1     -10.393  10.729  64.609  1.00  0.00    -0.394 C  
HETATM   19  C   UNL     1      -9.272  14.146  67.198  1.00  0.00    -0.237 C  
HETATM   20  C   UNL     1     -11.313  11.945  64.577  1.00  0.00    -0.382 C  
ENDROOT
BRANCH   4  21
HETATM   21  O   UNL     1      -9.483   8.767  69.425  1.00  0.00    -0.159 OA 
BRANCH  21  22
HETATM   22  C   UNL     1     -10.557   9.027  70.218  1.00  0.00    -0.217 C  
HETATM   23  O   UNL     1     -11.681   9.265  69.810  1.00  0.00     0.062 OA 
BRANCH  22  24
HETATM   24  C   UNL     1     -10.109   9.034  71.679  1.00  0.00    -0.405 C  
BRANCH  24  25
HETATM   25  C   UNL     1      -9.188   7.885  72.096  1.00  0.00    -0.213 C  
BRANCH  25  26
HETATM   26  C   UNL     1      -8.300   8.150  73.318  1.00  0.00    -0.277 C  
BRANCH  26  27
HETATM   27  C   UNL     1      -7.324   7.018  73.639  1.00  0.00    -0.085 C  
BRANCH  27  28
HETATM   28  C   UNL     1      -6.233   6.910  72.569  1.00  0.00    -0.049 C  
HETATM   29  C   UNL     1      -6.428   5.684  71.690  1.00  0.00    -0.048 C  
ENDBRANCH  27  28
ENDBRANCH  26  27
ENDBRANCH  25  26
ENDBRANCH  24  25
ENDBRANCH  22  24
ENDBRANCH  21  22
ENDBRANCH   4  21
TORSDOF 7
ENDMDL
MODEL      117
REMARK 921   NORMALIZED FREE ENERGY PREDICTED BY IDOCK:   -3.47 KCAL/MOL
REMARK 922        TOTAL FREE ENERGY PREDICTED BY IDOCK:   -7.05 KCAL/MOL
REMARK 923 INTER-LIGAND FREE ENERGY PREDICTED BY IDOCK:   -5.55 KCAL/MOL
REMARK 924 INTRA-LIGAND FREE ENERGY PREDICTED BY IDOCK:   -1.50 KCAL/MOL
REMARK 927      BINDING AFFINITY PREDICTED BY RF-SCORE:    0.00 PKD
ROOT
HETATM    1  C   UNL     1     -10.161   9.693  67.177  1.00  0.00    -0.305 C  
HETATM    2  C   UNL     1      -9.059   9.352  66.340  1.00  0.00    -0.199 C  
HETATM    3  C   UNL     1      -8.531   9.625  67.713  1.00  0.00    -0.125 C  
HETATM    4  C   UNL     1      -9.989   9.934  69.111  1.00  0.00    -0.198 C  
HETATM    5  C   UNL     1      -7.587  16.165  67.597  1.00  0.00    -0.145 C  
HETATM    6  C   UNL     1      -9.552   8.710  68.663  1.00  0.00    -0.159 C  
HETATM    7  C   UNL     1      -8.150   9.384  69.778  1.00  0.00    -0.134 C  
HETATM    8  C   UNL     1      -8.625  15.549  66.755  1.00  0.00    -0.307 C  
HETATM    9  C   UNL     1     -10.027   7.300  68.820  1.00  0.00    -0.167 C  
HETATM   10  C   UNL     1      -6.596  15.208  68.170  1.00  0.00    -0.132 C  
HETATM   11  C   UNL     1      -8.124  11.195  69.683  1.00  0.00     0.448 C  
HETATM   12  C   UNL     1      -9.122  14.352  67.121  1.00  0.00    -0.238 C  
HETATM   13  O   UNL     1      -7.521  17.381  67.733  1.00  0.00    -0.182 OA 
HETATM   14  C   UNL     1      -8.690  12.080  68.276  1.00  0.00    -0.178 C  
HETATM   15  C   UNL     1      -9.770  14.077  69.488  1.00  0.00     0.580 C  
HETATM   16  C   UNL     1     -10.024  11.509  67.403  1.00  0.00    -0.209 C  
HETATM   17  C   UNL     1      -8.719  13.652  68.446  1.00  0.00    -0.153 C  
HETATM   18  C   UNL     1     -10.085  12.246  66.059  1.00  0.00    -0.269 C  
HETATM   19  C   UNL     1      -7.299  14.109  68.957  1.00  0.00    -0.102 C  
HETATM   20  C   UNL     1     -10.220  13.750  66.270  1.00  0.00    -0.298 C  
ENDROOT
BRANCH   4  21
HETATM   21  O   UNL     1     -10.310   9.358  70.472  1.00  0.00    -0.238 OA 
BRANCH  21  22
HETATM   22  C   UNL     1     -11.438   9.677  71.162  1.00  0.00    -0.384 C  
HETATM   23  O   UNL     1     -12.049   8.911  71.888  1.00  0.00    -0.325 OA 
BRANCH  22  24
HETATM   24  C   UNL     1     -11.841  11.112  70.826  1.00  0.00    -0.325 C  
BRANCH  24  25
HETATM   25  C   UNL     1     -13.270  11.506  71.210  1.00  0.00    -0.115 C  
BRANCH  25  26
HETATM   26  C   UNL     1     -13.400  12.492  72.377  1.00  0.00    -0.354 C  
BRANCH  26  27
HETATM   27  C   UNL     1     -13.232  13.959  71.979  1.00  0.00    -0.503 C  
BRANCH  27  28
HETATM   28  C   UNL     1     -12.110  14.624  72.782  1.00  0.00    -0.205 C  
HETATM   29  C   UNL     1     -11.844  16.044  72.306  1.00  0.00    -0.628 C  
ENDBRANCH  27  28
ENDBRANCH  26  27
ENDBRANCH  25  26
ENDBRANCH  24  25
ENDBRANCH  22  24
ENDBRANCH  21  22
ENDBRANCH   4  21
TORSDOF 7
ENDMDL
MODEL      118
REMARK 921   NORMALIZED FREE ENERGY PREDICTED BY IDOCK:   -3.47 KCAL/MOL
REMARK 922        TOTAL FREE ENERGY PREDICTED BY IDOCK:   -7.04 KCAL/MOL
REMARK 923 INTER-LIGAND FREE ENERGY PREDICTED BY IDOCK:   -6.03 KCAL/MOL
REMARK 924 INTRA-LIGAND FREE ENERGY PREDICTED BY IDOCK:   -1.02 KCAL/MOL
REMARK 927      BINDING AFFINITY PREDICTED BY RF-SCORE:    0.00 PKD
ROOT
HETATM    1  C   UNL     1      -7.045   8.239  67.073  1.00  0.00    -0.079 C  
HETATM    2  C   UNL     1      -7.158   6.930  66.523  1.00  0.00    -0.067 C  
HETATM    3  C   UNL     1      -8.533   7.513  66.614  1.00  0.00    -0.130 C  
HETATM    4  C   UNL     1      -8.560   9.473  67.191  1.00  0.00    -0.132 C  
HETATM    5  C   UNL     1     -10.349   5.919  72.765  1.00  0.00    -0.196 C  
HETATM    6  C   UNL     1      -8.316   9.013  65.918  1.00  0.00    -0.129 C  
HETATM    7  C   UNL     1     -10.191   8.760  66.210  1.00  0.00    -0.157 C  
HETATM    8  C   UNL     1      -8.926   6.111  72.436  1.00  0.00    -0.136 C  
HETATM    9  C   UNL     1      -7.830   9.639  64.650  1.00  0.00    -0.133 C  
HETATM   10  C   UNL     1     -11.250   5.775  71.585  1.00  0.00    -0.258 C  
HETATM   11  C   UNL     1     -10.488   8.435  67.970  1.00  0.00    -0.242 C  
HETATM   12  C   UNL     1      -8.611   6.871  71.371  1.00  0.00    -0.119 C  
HETATM   13  O   UNL     1     -10.720   5.811  73.927  1.00  0.00    -0.264 OA 
HETATM   14  C   UNL     1      -9.283   7.701  69.016  1.00  0.00    -0.140 C  
HETATM   15  C   UNL     1      -9.763   9.046  71.157  1.00  0.00    -0.369 C  
HETATM   16  C   UNL     1      -7.644   8.068  68.799  1.00  0.00    -0.103 C  
HETATM   17  C   UNL     1      -9.681   7.635  70.545  1.00  0.00    -0.182 C  
HETATM   18  C   UNL     1      -6.804   7.050  69.583  1.00  0.00    -0.050 C  
HETATM   19  C   UNL     1     -11.105   6.965  70.645  1.00  0.00    -0.322 C  
HETATM   20  C   UNL     1      -7.145   7.096  71.069  1.00  0.00    -0.069 C  
ENDROOT
BRANCH   4  21
HETATM   21  O   UNL     1      -9.179  10.743  66.651  1.00  0.00    -0.162 OA 
BRANCH  21  22
HETATM   22  C   UNL     1      -9.391  11.846  67.418  1.00  0.00    -0.176 C  
HETATM   23  O   UNL     1      -8.515  12.481  67.979  1.00  0.00    -0.156 OA 
BRANCH  22  24
HETATM   24  C   UNL     1     -10.894  12.111  67.508  1.00  0.00    -0.283 C  
BRANCH  24  25
HETATM   25  C   UNL     1     -11.626  12.235  66.170  1.00  0.00    -0.450 C  
BRANCH  25  26
HETATM   26  C   UNL     1     -12.289  13.590  65.895  1.00  0.00    -0.507 C  
BRANCH  26  27
HETATM   27  C   UNL     1     -11.354  14.629  65.275  1.00  0.00    -0.354 C  
BRANCH  27  28
HETATM   28  C   UNL     1     -10.721  15.515  66.352  1.00  0.00    -0.303 C  
HETATM   29  C   UNL     1      -9.204  15.517  66.258  1.00  0.00    -0.364 C  
ENDBRANCH  27  28
ENDBRANCH  26  27
ENDBRANCH  25  26
ENDBRANCH  24  25
ENDBRANCH  22  24
ENDBRANCH  21  22
ENDBRANCH   4  21
TORSDOF 7
ENDMDL
MODEL      119
REMARK 921   NORMALIZED FREE ENERGY PREDICTED BY IDOCK:   -3.45 KCAL/MOL
REMARK 922        TOTAL FREE ENERGY PREDICTED BY IDOCK:   -7.01 KCAL/MOL
REMARK 923 INTER-LIGAND FREE ENERGY PREDICTED BY IDOCK:   -6.13 KCAL/MOL
REMARK 924 INTRA-LIGAND FREE ENERGY PREDICTED BY IDOCK:   -0.88 KCAL/MOL
REMARK 927      BINDING AFFINITY PREDICTED BY RF-SCORE:    0.00 PKD
ROOT
HETATM    1  C   UNL     1      -7.842   9.260  67.430  1.00  0.00    -0.099 C  
HETATM    2  C   UNL     1      -7.115   8.150  66.912  1.00  0.00    -0.078 C  
HETATM    3  C   UNL     1      -8.555   7.755  67.010  1.00  0.00    -0.129 C  
HETATM    4  C   UNL     1      -9.796   9.289  67.544  1.00  0.00    -0.175 C  
HETATM    5  C   UNL     1      -9.001   5.544  73.222  1.00  0.00    -0.123 C  
HETATM    6  C   UNL     1      -9.316   9.046  66.278  1.00  0.00    -0.284 C  
HETATM    7  C   UNL     1     -10.628   7.692  66.604  1.00  0.00    -0.092 C  
HETATM    8  C   UNL     1      -8.005   6.568  72.867  1.00  0.00    -0.105 C  
HETATM    9  C   UNL     1      -9.321   9.804  64.989  1.00  0.00    -0.325 C  
HETATM   10  C   UNL     1      -9.616   4.839  72.059  1.00  0.00    -0.201 C  
HETATM   11  C   UNL     1     -10.663   7.300  68.375  1.00  0.00    -0.165 C  
HETATM   12  C   UNL     1      -8.228   7.331  71.781  1.00  0.00    -0.105 C  
HETATM   13  O   UNL     1      -9.227   5.259  74.392  1.00  0.00    -0.116 OA 
HETATM   14  C   UNL     1      -9.265   7.501  69.418  1.00  0.00    -0.149 C  
HETATM   15  C   UNL     1     -10.481   8.313  71.536  1.00  0.00    -0.289 C  
HETATM   16  C   UNL     1      -8.208   8.800  69.169  1.00  0.00    -0.119 C  
HETATM   17  C   UNL     1      -9.539   7.243  70.954  1.00  0.00    -0.170 C  
HETATM   18  C   UNL     1      -6.920   8.546  69.963  1.00  0.00    -0.043 C  
HETATM   19  C   UNL     1     -10.239   5.836  71.091  1.00  0.00    -0.275 C  
HETATM   20  C   UNL     1      -7.218   8.410  71.452  1.00  0.00    -0.086 C  
ENDROOT
BRANCH   4  21
HETATM   21  O   UNL     1     -11.068   9.885  66.985  1.00  0.00    -0.122 OA 
BRANCH  21  22
HETATM   22  C   UNL     1     -11.451  11.168  67.224  1.00  0.00    -0.136 C  
HETATM   23  O   UNL     1     -11.705  11.990  66.360  1.00  0.00    -0.518 OA 
BRANCH  22  24
HETATM   24  C   UNL     1     -11.443  11.420  68.731  1.00  0.00    -0.354 C  
BRANCH  24  25
HETATM   25  C   UNL     1     -10.927  12.792  69.171  1.00  0.00    -0.185 C  
BRANCH  25  26
HETATM   26  C   UNL     1     -11.992  13.778  69.666  1.00  0.00    -0.399 C  
BRANCH  26  27
HETATM   27  C   UNL     1     -11.545  15.241  69.652  1.00  0.00    -0.340 C  
BRANCH  27  28
HETATM   28  C   UNL     1     -11.681  15.873  71.040  1.00  0.00    -0.473 C  
HETATM   29  C   UNL     1     -13.116  15.828  71.540  1.00  0.00    -0.471 C  
ENDBRANCH  27  28
ENDBRANCH  26  27
ENDBRANCH  25  26
ENDBRANCH  24  25
ENDBRANCH  22  24
ENDBRANCH  21  22
ENDBRANCH   4  21
TORSDOF 7
ENDMDL
MODEL      120
REMARK 921   NORMALIZED FREE ENERGY PREDICTED BY IDOCK:   -3.45 KCAL/MOL
REMARK 922        TOTAL FREE ENERGY PREDICTED BY IDOCK:   -7.01 KCAL/MOL
REMARK 923 INTER-LIGAND FREE ENERGY PREDICTED BY IDOCK:   -5.49 KCAL/MOL
REMARK 924 INTRA-LIGAND FREE ENERGY PREDICTED BY IDOCK:   -1.51 KCAL/MOL
REMARK 927      BINDING AFFINITY PREDICTED BY RF-SCORE:    0.00 PKD
ROOT
HETATM    1  C   UNL     1     -10.543  11.226  69.436  1.00  0.00    -0.142 C  
HETATM    2  C   UNL     1     -11.553  11.335  68.437  1.00  0.00    -0.378 C  
HETATM    3  C   UNL     1     -11.262   9.882  68.645  1.00  0.00    -0.122 C  
HETATM    4  C   UNL     1      -9.980   9.511  70.192  1.00  0.00    -0.241 C  
HETATM    5  C   UNL     1      -6.210   8.836  64.515  1.00  0.00    -0.066 C  
HETATM    6  C   UNL     1     -11.329   9.752  70.307  1.00  0.00    -0.333 C  
HETATM    7  C   UNL     1     -11.178   7.988  69.581  1.00  0.00     0.080 C  
HETATM    8  C   UNL     1      -6.424  10.167  65.106  1.00  0.00    -0.121 C  
HETATM    9  C   UNL     1     -12.256  10.020  71.450  1.00  0.00    -0.510 C  
HETATM   10  C   UNL     1      -7.367   7.901  64.643  1.00  0.00    -0.084 C  
HETATM   11  C   UNL     1      -9.680   7.881  68.563  1.00  0.00    -0.167 C  
HETATM   12  C   UNL     1      -7.114  10.254  66.259  1.00  0.00    -0.117 C  
HETATM   13  O   UNL     1      -5.183   8.573  63.903  1.00  0.00    -0.054 OA 
HETATM   14  C   UNL     1      -8.980   9.275  67.756  1.00  0.00    -0.131 C  
HETATM   15  C   UNL     1      -6.494   8.688  68.065  1.00  0.00    -0.057 C  
HETATM   16  C   UNL     1      -9.021  10.791  68.508  1.00  0.00    -0.160 C  
HETATM   17  C   UNL     1      -7.598   9.002  67.038  1.00  0.00    -0.091 C  
HETATM   18  C   UNL     1      -8.675  11.865  67.467  1.00  0.00    -0.163 C  
HETATM   19  C   UNL     1      -7.778   7.747  66.101  1.00  0.00    -0.089 C  
HETATM   20  C   UNL     1      -7.289  11.625  66.879  1.00  0.00    -0.125 C  
ENDROOT
BRANCH   4  21
HETATM   21  O   UNL     1     -10.001   8.620  71.415  1.00  0.00    -0.207 OA 
BRANCH  21  22
HETATM   22  C   UNL     1      -8.942   8.500  72.260  1.00  0.00    -0.229 C  
HETATM   23  O   UNL     1      -7.821   8.922  72.034  1.00  0.00    -0.338 OA 
BRANCH  22  24
HETATM   24  C   UNL     1      -9.372   7.701  73.489  1.00  0.00    -0.339 C  
BRANCH  24  25
HETATM   25  C   UNL     1     -10.742   7.025  73.395  1.00  0.00    -0.379 C  
BRANCH  25  26
HETATM   26  C   UNL     1     -10.783   5.541  73.778  1.00  0.00    -0.300 C  
BRANCH  26  27
HETATM   27  C   UNL     1     -10.006   4.628  72.827  1.00  0.00    -0.201 C  
BRANCH  27  28
HETATM   28  C   UNL     1     -10.270   5.001  71.365  1.00  0.00    -0.270 C  
HETATM   29  C   UNL     1      -8.986   5.023  70.550  1.00  0.00    -0.160 C  
ENDBRANCH  27  28
ENDBRANCH  26  27
ENDBRANCH  25  26
ENDBRANCH  24  25
ENDBRANCH  22  24
ENDBRANCH  21  22
ENDBRANCH   4  21
TORSDOF 7
ENDMDL
MODEL      121
REMARK 921   NORMALIZED FREE ENERGY PREDICTED BY IDOCK:   -3.44 KCAL/MOL
REMARK 922        TOTAL FREE ENERGY PREDICTED BY IDOCK:   -7.00 KCAL/MOL
REMARK 923 INTER-LIGAND FREE ENERGY PREDICTED BY IDOCK:   -5.65 KCAL/MOL
REMARK 924 INTRA-LIGAND FREE ENERGY PREDICTED BY IDOCK:   -1.35 KCAL/MOL
REMARK 927      BINDING AFFINITY PREDICTED BY RF-SCORE:    0.00 PKD
ROOT
HETATM    1  C   UNL     1      -9.600   5.500  67.796  1.00  0.00    -0.138 C  
HETATM    2  C   UNL     1     -10.710   5.469  66.902  1.00  0.00    -0.310 C  
HETATM    3  C   UNL     1      -9.997   6.770  66.709  1.00  0.00    -0.242 C  
HETATM    4  C   UNL     1      -8.251   6.917  67.761  1.00  0.00    -0.117 C  
HETATM    5  C   UNL     1     -12.806  10.624  71.283  1.00  0.00    -0.434 C  
HETATM    6  C   UNL     1      -8.412   6.274  66.556  1.00  0.00    -0.121 C  
HETATM    7  C   UNL     1      -8.489   8.144  66.158  1.00  0.00    -0.143 C  
HETATM    8  C   UNL     1     -12.722   9.168  71.487  1.00  0.00    -0.409 C  
HETATM    9  C   UNL     1      -7.561   5.362  65.730  1.00  0.00    -0.083 C  
HETATM   10  C   UNL     1     -12.541  11.076  69.886  1.00  0.00    -0.202 C  
HETATM   11  C   UNL     1      -9.195   9.032  67.574  1.00  0.00    -0.152 C  
HETATM   12  C   UNL     1     -11.770   8.482  70.828  1.00  0.00    -0.228 C  
HETATM   13  O   UNL     1     -13.148  11.372  72.191  1.00  0.00    -0.462 OA 
HETATM   14  C   UNL     1     -10.310   8.283  68.704  1.00  0.00    -0.225 C  
HETATM   15  C   UNL     1      -9.481   9.410  70.864  1.00  0.00    -0.279 C  
HETATM   16  C   UNL     1     -10.112   6.655  69.126  1.00  0.00    -0.185 C  
HETATM   17  C   UNL     1     -10.698   9.178  69.948  1.00  0.00    -0.246 C  
HETATM   18  C   UNL     1     -11.389   6.170  69.826  1.00  0.00    -0.452 C  
HETATM   19  C   UNL     1     -11.185  10.576  69.405  1.00  0.00    -0.327 C  
HETATM   20  C   UNL     1     -11.667   6.993  71.080  1.00  0.00    -0.366 C  
ENDROOT
BRANCH   4  21
HETATM   21  O   UNL     1      -6.820   7.268  67.421  1.00  0.00    -0.071 OA 
BRANCH  21  22
HETATM   22  C   UNL     1      -5.887   7.561  68.367  1.00  0.00    -0.027 C  
HETATM   23  O   UNL     1      -5.176   8.552  68.358  1.00  0.00    -0.032 OA 
BRANCH  22  24
HETATM   24  C   UNL     1      -5.835   6.425  69.388  1.00  0.00    -0.021 C  
BRANCH  24  25
HETATM   25  C   UNL     1      -6.135   6.822  70.836  1.00  0.00    -0.032 C  
BRANCH  25  26
HETATM   26  C   UNL     1      -5.436   5.986  71.915  1.00  0.00    -0.022 C  
BRANCH  26  27
HETATM   27  C   UNL     1      -5.812   6.373  73.346  1.00  0.00    -0.054 C  
BRANCH  27  28
HETATM   28  C   UNL     1      -7.090   7.217  73.372  1.00  0.00    -0.078 C  
HETATM   29  C   UNL     1      -6.938   8.439  74.265  1.00  0.00    -0.191 C  
ENDBRANCH  27  28
ENDBRANCH  26  27
ENDBRANCH  25  26
ENDBRANCH  24  25
ENDBRANCH  22  24
ENDBRANCH  21  22
ENDBRANCH   4  21
TORSDOF 7
ENDMDL
MODEL      122
REMARK 921   NORMALIZED FREE ENERGY PREDICTED BY IDOCK:   -3.43 KCAL/MOL
REMARK 922        TOTAL FREE ENERGY PREDICTED BY IDOCK:   -6.98 KCAL/MOL
REMARK 923 INTER-LIGAND FREE ENERGY PREDICTED BY IDOCK:   -4.60 KCAL/MOL
REMARK 924 INTRA-LIGAND FREE ENERGY PREDICTED BY IDOCK:   -2.38 KCAL/MOL
REMARK 927      BINDING AFFINITY PREDICTED BY RF-SCORE:    0.00 PKD
ROOT
HETATM    1  C   UNL     1     -10.153   4.486  66.789  1.00  0.00    -0.220 C  
HETATM    2  C   UNL     1     -10.397   4.568  65.387  1.00  0.00    -0.224 C  
HETATM    3  C   UNL     1      -8.920   4.663  65.607  1.00  0.00    -0.138 C  
HETATM    4  C   UNL     1      -8.353   4.360  67.547  1.00  0.00    -0.099 C  
HETATM    5  C   UNL     1      -8.045  11.137  66.609  1.00  0.00    -0.159 C  
HETATM    6  C   UNL     1      -8.640   3.376  66.630  1.00  0.00    -0.115 C  
HETATM    7  C   UNL     1      -6.946   4.094  66.105  1.00  0.00    -0.066 C  
HETATM    8  C   UNL     1      -9.325  10.496  66.957  1.00  0.00    -0.176 C  
HETATM    9  C   UNL     1      -8.840   1.895  66.705  1.00  0.00    -0.133 C  
HETATM   10  C   UNL     1      -7.153  10.318  65.736  1.00  0.00    -0.132 C  
HETATM   11  C   UNL     1      -6.870   5.849  66.557  1.00  0.00    -0.059 C  
HETATM   12  C   UNL     1      -9.334   9.172  67.200  1.00  0.00    -0.178 C  
HETATM   13  O   UNL     1      -7.796  12.284  66.957  1.00  0.00    -0.164 OA 
HETATM   14  C   UNL     1      -8.300   6.859  66.685  1.00  0.00    -0.118 C  
HETATM   15  C   UNL     1      -7.582   8.288  68.701  1.00  0.00    -0.099 C  
HETATM   16  C   UNL     1      -9.742   6.204  67.286  1.00  0.00    -0.146 C  
HETATM   17  C   UNL     1      -8.037   8.319  67.229  1.00  0.00    -0.109 C  
HETATM   18  C   UNL     1     -10.891   7.169  66.966  1.00  0.00    -0.382 C  
HETATM   19  C   UNL     1      -6.883   8.957  66.365  1.00  0.00    -0.075 C  
HETATM   20  C   UNL     1     -10.647   8.534  67.601  1.00  0.00    -0.268 C  
ENDROOT
BRANCH   4  21
HETATM   21  O   UNL     1      -7.355   3.464  68.246  1.00  0.00    -0.050 OA 
BRANCH  21  22
HETATM   22  C   UNL     1      -7.262   3.378  69.600  1.00  0.00    -0.041 C  
HETATM   23  O   UNL     1      -7.196   2.334  70.228  1.00  0.00    -0.033 OA 
BRANCH  22  24
HETATM   24  C   UNL     1      -7.321   4.784  70.196  1.00  0.00    -0.054 C  
BRANCH  24  25
HETATM   25  C   UNL     1      -8.377   4.999  71.283  1.00  0.00    -0.117 C  
BRANCH  25  26
HETATM   26  C   UNL     1      -9.400   6.108  71.009  1.00  0.00    -0.176 C  
BRANCH  26  27
HETATM   27  C   UNL     1     -10.748   5.601  70.492  1.00  0.00    -0.344 C  
BRANCH  27  28
HETATM   28  C   UNL     1     -11.829   6.679  70.621  1.00  0.00    -0.443 C  
HETATM   29  C   UNL     1     -11.278   7.956  71.236  1.00  0.00    -0.283 C  
ENDBRANCH  27  28
ENDBRANCH  26  27
ENDBRANCH  25  26
ENDBRANCH  24  25
ENDBRANCH  22  24
ENDBRANCH  21  22
ENDBRANCH   4  21
TORSDOF 7
ENDMDL
MODEL      123
REMARK 921   NORMALIZED FREE ENERGY PREDICTED BY IDOCK:   -3.42 KCAL/MOL
REMARK 922        TOTAL FREE ENERGY PREDICTED BY IDOCK:   -6.97 KCAL/MOL
REMARK 923 INTER-LIGAND FREE ENERGY PREDICTED BY IDOCK:   -6.30 KCAL/MOL
REMARK 924 INTRA-LIGAND FREE ENERGY PREDICTED BY IDOCK:   -0.67 KCAL/MOL
REMARK 927      BINDING AFFINITY PREDICTED BY RF-SCORE:    0.00 PKD
ROOT
HETATM    1  C   UNL     1     -11.327  12.588  64.400  1.00  0.00    -0.395 C  
HETATM    2  C   UNL     1     -12.637  12.079  64.164  1.00  0.00    -0.413 C  
HETATM    3  C   UNL     1     -12.641  12.770  65.491  1.00  0.00    -0.292 C  
HETATM    4  C   UNL     1     -10.898  13.747  65.918  1.00  0.00    -0.283 C  
HETATM    5  C   UNL     1     -10.687   7.976  69.598  1.00  0.00    -0.207 C  
HETATM    6  C   UNL     1     -11.913  14.226  65.123  1.00  0.00    -0.395 C  
HETATM    7  C   UNL     1     -12.569  14.327  66.919  1.00  0.00     0.122 C  
HETATM    8  C   UNL     1     -10.255   7.971  68.190  1.00  0.00    -0.251 C  
HETATM    9  C   UNL     1     -12.065  15.392  64.199  1.00  0.00    -0.104 C  
HETATM   10  C   UNL     1     -11.818   8.900  69.902  1.00  0.00     0.450 C  
HETATM   11  C   UNL     1     -11.838  12.990  67.903  1.00  0.00    -0.389 C  
HETATM   12  C   UNL     1     -10.247   9.137  67.517  1.00  0.00    -0.304 C  
HETATM   13  O   UNL     1     -10.189   7.211  70.415  1.00  0.00    -0.192 OA 
HETATM   14  C   UNL     1     -11.312  11.471  67.197  1.00  0.00    -0.354 C  
HETATM   15  C   UNL     1      -9.219  11.081  68.643  1.00  0.00    -0.186 C  
HETATM   16  C   UNL     1     -10.612  11.457  65.656  1.00  0.00    -0.314 C  
HETATM   17  C   UNL     1     -10.572  10.494  68.196  1.00  0.00    -0.240 C  
HETATM   18  C   UNL     1     -10.574  10.010  65.146  1.00  0.00     0.421 C  
HETATM   19  C   UNL     1     -11.485  10.322  69.471  1.00  0.00    -0.273 C  
HETATM   20  C   UNL     1      -9.759   9.125  66.084  1.00  0.00    -0.357 C  
ENDROOT
BRANCH   4  21
HETATM   21  O   UNL     1     -10.531  15.149  66.351  1.00  0.00    -0.281 OA 
BRANCH  21  22
HETATM   22  C   UNL     1      -9.245  15.558  66.518  1.00  0.00    -0.293 C  
HETATM   23  O   UNL     1      -8.363  14.889  67.029  1.00  0.00    -0.207 OA 
BRANCH  22  24
HETATM   24  C   UNL     1      -9.110  16.998  66.023  1.00  0.00    -0.172 C  
BRANCH  24  25
HETATM   25  C   UNL     1      -8.519  17.991  67.027  1.00  0.00    -0.247 C  
BRANCH  25  26
HETATM   26  C   UNL     1      -7.248  18.721  66.574  1.00  0.00    -0.252 C  
BRANCH  26  27
HETATM   27  C   UNL     1      -7.509  19.939  65.688  1.00  0.00    -0.285 C  
BRANCH  27  28
HETATM   28  C   UNL     1      -6.196  20.579  65.229  1.00  0.00    -0.296 C  
HETATM   29  C   UNL     1      -5.715  19.992  63.911  1.00  0.00    -0.312 C  
ENDBRANCH  27  28
ENDBRANCH  26  27
ENDBRANCH  25  26
ENDBRANCH  24  25
ENDBRANCH  22  24
ENDBRANCH  21  22
ENDBRANCH   4  21
TORSDOF 7
ENDMDL
MODEL      124
REMARK 921   NORMALIZED FREE ENERGY PREDICTED BY IDOCK:   -3.41 KCAL/MOL
REMARK 922        TOTAL FREE ENERGY PREDICTED BY IDOCK:   -6.96 KCAL/MOL
REMARK 923 INTER-LIGAND FREE ENERGY PREDICTED BY IDOCK:   -5.99 KCAL/MOL
REMARK 924 INTRA-LIGAND FREE ENERGY PREDICTED BY IDOCK:   -0.98 KCAL/MOL
REMARK 927      BINDING AFFINITY PREDICTED BY RF-SCORE:    0.00 PKD
ROOT
HETATM    1  C   UNL     1      -7.807  10.560  69.186  1.00  0.00    -0.138 C  
HETATM    2  C   UNL     1      -6.995  10.317  68.040  1.00  0.00    -0.082 C  
HETATM    3  C   UNL     1      -8.425  10.118  67.645  1.00  0.00    -0.118 C  
HETATM    4  C   UNL     1      -9.762  10.621  69.107  1.00  0.00    -0.189 C  
HETATM    5  C   UNL     1      -9.462   3.780  69.203  1.00  0.00    -0.172 C  
HETATM    6  C   UNL     1      -9.143  11.498  68.247  1.00  0.00    -0.185 C  
HETATM    7  C   UNL     1     -10.440  10.567  67.192  1.00  0.00    -0.302 C  
HETATM    8  C   UNL     1      -8.466   4.574  69.941  1.00  0.00    -0.084 C  
HETATM    9  C   UNL     1      -9.033  12.988  68.164  1.00  0.00    -0.198 C  
HETATM   10  C   UNL     1      -9.927   4.393  67.924  1.00  0.00    -0.087 C  
HETATM   11  C   UNL     1     -10.651   8.887  67.842  1.00  0.00    -0.244 C  
HETATM   12  C   UNL     1      -8.595   5.914  69.955  1.00  0.00    -0.129 C  
HETATM   13  O   UNL     1      -9.803   2.671  69.593  1.00  0.00     0.053 OA 
HETATM   14  C   UNL     1      -9.379   8.036  68.703  1.00  0.00    -0.146 C  
HETATM   15  C   UNL     1     -10.839   6.825  70.443  1.00  0.00    -0.306 C  
HETATM   16  C   UNL     1      -8.342   8.892  69.733  1.00  0.00    -0.125 C  
HETATM   17  C   UNL     1      -9.807   6.642  69.314  1.00  0.00    -0.157 C  
HETATM   18  C   UNL     1      -7.139   8.001  70.070  1.00  0.00    -0.049 C  
HETATM   19  C   UNL     1     -10.474   5.794  68.163  1.00  0.00    -0.277 C  
HETATM   20  C   UNL     1      -7.590   6.715  70.754  1.00  0.00    -0.092 C  
ENDROOT
BRANCH   4  21
HETATM   21  O   UNL     1     -10.985  11.507  69.184  1.00  0.00    -0.220 OA 
BRANCH  21  22
HETATM   22  C   UNL     1     -11.804  11.543  70.269  1.00  0.00    -0.342 C  
HETATM   23  O   UNL     1     -12.125  10.570  70.931  1.00  0.00    -0.320 OA 
BRANCH  22  24
HETATM   24  C   UNL     1     -12.297  12.975  70.476  1.00  0.00    -0.365 C  
BRANCH  24  25
HETATM   25  C   UNL     1     -12.047  13.936  69.311  1.00  0.00    -0.383 C  
BRANCH  25  26
HETATM   26  C   UNL     1     -12.120  15.430  69.651  1.00  0.00    -0.354 C  
BRANCH  26  27
HETATM   27  C   UNL     1     -10.802  16.181  69.458  1.00  0.00    -0.329 C  
BRANCH  27  28
HETATM   28  C   UNL     1     -10.517  16.421  67.972  1.00  0.00    -0.303 C  
HETATM   29  C   UNL     1     -10.687  17.885  67.598  1.00  0.00    -0.343 C  
ENDBRANCH  27  28
ENDBRANCH  26  27
ENDBRANCH  25  26
ENDBRANCH  24  25
ENDBRANCH  22  24
ENDBRANCH  21  22
ENDBRANCH   4  21
TORSDOF 7
ENDMDL
MODEL      125
REMARK 921   NORMALIZED FREE ENERGY PREDICTED BY IDOCK:   -3.41 KCAL/MOL
REMARK 922        TOTAL FREE ENERGY PREDICTED BY IDOCK:   -6.96 KCAL/MOL
REMARK 923 INTER-LIGAND FREE ENERGY PREDICTED BY IDOCK:   -5.74 KCAL/MOL
REMARK 924 INTRA-LIGAND FREE ENERGY PREDICTED BY IDOCK:   -1.22 KCAL/MOL
REMARK 927      BINDING AFFINITY PREDICTED BY RF-SCORE:    0.00 PKD
ROOT
HETATM    1  C   UNL     1      -7.061  12.454  67.430  1.00  0.00    -0.152 C  
HETATM    2  C   UNL     1      -6.362  12.761  68.633  1.00  0.00    -0.075 C  
HETATM    3  C   UNL     1      -7.331  11.661  68.930  1.00  0.00    -0.107 C  
HETATM    4  C   UNL     1      -8.290  10.938  67.276  1.00  0.00    -0.123 C  
HETATM    5  C   UNL     1     -12.853  14.986  70.388  1.00  0.00    -0.288 C  
HETATM    6  C   UNL     1      -7.025  10.589  67.689  1.00  0.00    -0.079 C  
HETATM    7  C   UNL     1      -8.224   9.745  68.919  1.00  0.00    -0.117 C  
HETATM    8  C   UNL     1     -11.857  15.564  69.470  1.00  0.00    -0.390 C  
HETATM    9  C   UNL     1      -5.898   9.814  67.084  1.00  0.00    -0.051 C  
HETATM   10  C   UNL     1     -12.368  13.821  71.184  1.00  0.00    -0.428 C  
HETATM   11  C   UNL     1      -9.714  10.763  69.103  1.00  0.00    -0.181 C  
HETATM   12  C   UNL     1     -11.020  14.731  68.825  1.00  0.00    -0.267 C  
HETATM   13  O   UNL     1     -13.959  15.494  70.523  1.00  0.00    -0.188 OA 
HETATM   14  C   UNL     1      -9.709  12.503  68.866  1.00  0.00     0.169 C  
HETATM   15  C   UNL     1     -12.014  12.743  67.748  1.00  0.00    -0.316 C  
HETATM   16  C   UNL     1      -8.728  13.186  67.667  1.00  0.00    -0.192 C  
HETATM   17  C   UNL     1     -11.133  13.187  68.930  1.00  0.00    -0.310 C  
HETATM   18  C   UNL     1      -8.644  14.700  67.903  1.00  0.00    -0.165 C  
HETATM   19  C   UNL     1     -11.830  12.728  70.269  1.00  0.00    -0.292 C  
HETATM   20  C   UNL     1     -10.030  15.335  67.851  1.00  0.00    -0.228 C  
ENDROOT
BRANCH   4  21
HETATM   21  O   UNL     1      -8.508   9.568  66.675  1.00  0.00    -0.130 OA 
BRANCH  21  22
HETATM   22  C   UNL     1      -9.577   9.268  65.888  1.00  0.00    -0.275 C  
HETATM   23  O   UNL     1     -10.210  10.081  65.236  1.00  0.00    -0.296 OA 
BRANCH  22  24
HETATM   24  C   UNL     1      -9.884   7.776  66.010  1.00  0.00     0.164 C  
BRANCH  24  25
HETATM   25  C   UNL     1      -8.823   6.937  66.726  1.00  0.00    -0.129 C  
BRANCH  25  26
HETATM   26  C   UNL     1      -9.305   6.160  67.957  1.00  0.00    -0.114 C  
BRANCH  26  27
HETATM   27  C   UNL     1     -10.804   6.287  68.230  1.00  0.00    -0.397 C  
BRANCH  27  28
HETATM   28  C   UNL     1     -11.082   6.432  69.730  1.00  0.00    -0.459 C  
HETATM   29  C   UNL     1     -10.245   5.464  70.552  1.00  0.00    -0.326 C  
ENDBRANCH  27  28
ENDBRANCH  26  27
ENDBRANCH  25  26
ENDBRANCH  24  25
ENDBRANCH  22  24
ENDBRANCH  21  22
ENDBRANCH   4  21
TORSDOF 7
ENDMDL
MODEL      126
REMARK 921   NORMALIZED FREE ENERGY PREDICTED BY IDOCK:   -3.41 KCAL/MOL
REMARK 922        TOTAL FREE ENERGY PREDICTED BY IDOCK:   -6.96 KCAL/MOL
REMARK 923 INTER-LIGAND FREE ENERGY PREDICTED BY IDOCK:   -5.91 KCAL/MOL
REMARK 924 INTRA-LIGAND FREE ENERGY PREDICTED BY IDOCK:   -1.05 KCAL/MOL
REMARK 927      BINDING AFFINITY PREDICTED BY RF-SCORE:    0.00 PKD
ROOT
HETATM    1  C   UNL     1     -11.007  10.940  69.593  1.00  0.00    -0.311 C  
HETATM    2  C   UNL     1     -12.350  10.848  69.126  1.00  0.00    -0.028 C  
HETATM    3  C   UNL     1     -11.439  10.645  67.957  1.00  0.00    -0.289 C  
HETATM    4  C   UNL     1      -9.461  10.539  68.462  1.00  0.00    -0.164 C  
HETATM    5  C   UNL     1     -10.345  16.836  65.919  1.00  0.00    -0.328 C  
HETATM    6  C   UNL     1     -10.369   9.510  68.548  1.00  0.00    -0.234 C  
HETATM    7  C   UNL     1     -10.020   9.739  66.680  1.00  0.00    -0.292 C  
HETATM    8  C   UNL     1     -10.647  16.561  67.334  1.00  0.00    -0.300 C  
HETATM    9  C   UNL     1     -10.355   8.143  69.154  1.00  0.00    -0.228 C  
HETATM   10  C   UNL     1     -10.642  15.710  64.986  1.00  0.00    -0.422 C  
HETATM   11  C   UNL     1      -9.645  11.482  66.346  1.00  0.00    -0.230 C  
HETATM   12  C   UNL     1     -10.398  15.329  67.815  1.00  0.00    -0.244 C  
HETATM   13  O   UNL     1      -9.956  17.940  65.558  1.00  0.00    -0.481 OA 
HETATM   14  C   UNL     1     -10.266  12.792  67.336  1.00  0.00    -0.222 C  
HETATM   15  C   UNL     1      -8.204  14.330  67.276  1.00  0.00    -0.212 C  
HETATM   16  C   UNL     1     -10.428  12.580  69.008  1.00  0.00    -0.024 C  
HETATM   17  C   UNL     1      -9.710  14.225  66.969  1.00  0.00    -0.253 C  
HETATM   18  C   UNL     1     -11.301  13.713  69.566  1.00  0.00    -0.276 C  
HETATM   19  C   UNL     1      -9.917  14.443  65.420  1.00  0.00    -0.344 C  
HETATM   20  C   UNL     1     -10.671  15.073  69.282  1.00  0.00    -0.250 C  
ENDROOT
BRANCH   4  21
HETATM   21  O   UNL     1      -8.335   9.568  68.190  1.00  0.00    -0.117 OA 
BRANCH  21  22
HETATM   22  C   UNL     1      -7.022   9.912  68.291  1.00  0.00    -0.072 C  
HETATM   23  O   UNL     1      -6.609  11.054  68.401  1.00  0.00    -0.057 OA 
BRANCH  22  24
HETATM   24  C   UNL     1      -6.165   8.652  68.177  1.00  0.00    -0.051 C  
BRANCH  24  25
HETATM   25  C   UNL     1      -6.933   7.328  68.150  1.00  0.00    -0.076 C  
BRANCH  25  26
HETATM   26  C   UNL     1      -7.221   6.751  66.759  1.00  0.00    -0.076 C  
BRANCH  26  27
HETATM   27  C   UNL     1      -7.365   5.228  66.731  1.00  0.00    -0.086 C  
BRANCH  27  28
HETATM   28  C   UNL     1      -8.718   4.792  67.301  1.00  0.00    -0.103 C  
HETATM   29  C   UNL     1      -8.704   3.331  67.725  1.00  0.00    -0.135 C  
ENDBRANCH  27  28
ENDBRANCH  26  27
ENDBRANCH  25  26
ENDBRANCH  24  25
ENDBRANCH  22  24
ENDBRANCH  21  22
ENDBRANCH   4  21
TORSDOF 7
ENDMDL
MODEL      127
REMARK 921   NORMALIZED FREE ENERGY PREDICTED BY IDOCK:   -3.38 KCAL/MOL
REMARK 922        TOTAL FREE ENERGY PREDICTED BY IDOCK:   -6.92 KCAL/MOL
REMARK 923 INTER-LIGAND FREE ENERGY PREDICTED BY IDOCK:   -5.69 KCAL/MOL
REMARK 924 INTRA-LIGAND FREE ENERGY PREDICTED BY IDOCK:   -1.23 KCAL/MOL
REMARK 927      BINDING AFFINITY PREDICTED BY RF-SCORE:    0.00 PKD
ROOT
HETATM    1  C   UNL     1     -11.238   7.298  69.822  1.00  0.00    -0.151 C  
HETATM    2  C   UNL     1     -11.512   6.461  70.943  1.00  0.00    -0.406 C  
HETATM    3  C   UNL     1     -10.193   7.129  71.175  1.00  0.00    -0.200 C  
HETATM    4  C   UNL     1      -9.720   8.532  69.767  1.00  0.00    -0.179 C  
HETATM    5  C   UNL     1      -5.972   3.027  68.170  1.00  0.00    -0.024 C  
HETATM    6  C   UNL     1     -10.552   8.723  70.844  1.00  0.00    -0.276 C  
HETATM    7  C   UNL     1      -8.781   8.652  71.565  1.00  0.00    -0.266 C  
HETATM    8  C   UNL     1      -7.364   3.133  67.704  1.00  0.00    -0.054 C  
HETATM    9  C   UNL     1     -11.494   9.807  71.266  1.00  0.00    -0.457 C  
HETATM   10  C   UNL     1      -5.715   3.621  69.515  1.00  0.00    -0.018 C  
HETATM   11  C   UNL     1      -7.758   7.557  70.543  1.00  0.00    -0.094 C  
HETATM   12  C   UNL     1      -8.049   4.259  67.980  1.00  0.00    -0.090 C  
HETATM   13  O   UNL     1      -5.131   2.422  67.517  1.00  0.00    -0.007 OA 
HETATM   14  C   UNL     1      -8.430   6.229  69.611  1.00  0.00    -0.129 C  
HETATM   15  C   UNL     1      -6.912   6.407  67.541  1.00  0.00    -0.078 C  
HETATM   16  C   UNL     1      -9.947   6.397  68.879  1.00  0.00    -0.168 C  
HETATM   17  C   UNL     1      -7.396   5.484  68.674  1.00  0.00    -0.075 C  
HETATM   18  C   UNL     1     -10.440   5.010  68.443  1.00  0.00    -0.016 C  
HETATM   19  C   UNL     1      -6.151   5.080  69.553  1.00  0.00    -0.022 C  
HETATM   20  C   UNL     1      -9.466   4.374  67.457  1.00  0.00    -0.201 C  
ENDROOT
BRANCH   4  21
HETATM   21  O   UNL     1      -9.290   9.981  69.798  1.00  0.00    -0.220 OA 
BRANCH  21  22
HETATM   22  C   UNL     1      -9.015  10.695  68.673  1.00  0.00    -0.170 C  
HETATM   23  O   UNL     1      -8.226  11.623  68.614  1.00  0.00    -0.151 OA 
BRANCH  22  24
HETATM   24  C   UNL     1      -9.896  10.188  67.532  1.00  0.00    -0.211 C  
BRANCH  24  25
HETATM   25  C   UNL     1     -11.272  10.848  67.414  1.00  0.00    -0.345 C  
BRANCH  25  26
HETATM   26  C   UNL     1     -11.281  12.281  66.871  1.00  0.00    -0.367 C  
BRANCH  26  27
HETATM   27  C   UNL     1     -10.573  12.445  65.525  1.00  0.00    -0.307 C  
BRANCH  27  28
HETATM   28  C   UNL     1     -11.471  13.162  64.512  1.00  0.00    -0.390 C  
HETATM   29  C   UNL     1     -12.428  12.199  63.829  1.00  0.00    -0.620 C  
ENDBRANCH  27  28
ENDBRANCH  26  27
ENDBRANCH  25  26
ENDBRANCH  24  25
ENDBRANCH  22  24
ENDBRANCH  21  22
ENDBRANCH   4  21
TORSDOF 7
ENDMDL
MODEL      128
REMARK 921   NORMALIZED FREE ENERGY PREDICTED BY IDOCK:   -3.38 KCAL/MOL
REMARK 922        TOTAL FREE ENERGY PREDICTED BY IDOCK:   -6.91 KCAL/MOL
REMARK 923 INTER-LIGAND FREE ENERGY PREDICTED BY IDOCK:   -5.59 KCAL/MOL
REMARK 924 INTRA-LIGAND FREE ENERGY PREDICTED BY IDOCK:   -1.32 KCAL/MOL
REMARK 927      BINDING AFFINITY PREDICTED BY RF-SCORE:    0.00 PKD
ROOT
HETATM    1  C   UNL     1      -9.099  13.283  68.358  1.00  0.00    -0.137 C  
HETATM    2  C   UNL     1      -9.224  14.299  67.366  1.00  0.00    -0.200 C  
HETATM    3  C   UNL     1     -10.193  13.208  67.036  1.00  0.00    -0.250 C  
HETATM    4  C   UNL     1     -10.309  11.748  68.461  1.00  0.00    -0.217 C  
HETATM    5  C   UNL     1      -6.507   9.072  63.433  1.00  0.00    -0.090 C  
HETATM    6  C   UNL     1     -10.949  12.964  68.503  1.00  0.00    -0.288 C  
HETATM    7  C   UNL     1     -11.875  11.936  67.180  1.00  0.00    -0.216 C  
HETATM    8  C   UNL     1      -5.882   9.924  64.458  1.00  0.00    -0.100 C  
HETATM    9  C   UNL     1     -11.716  13.714  69.546  1.00  0.00    -0.380 C  
HETATM   10  C   UNL     1      -7.898   9.461  63.060  1.00  0.00    -0.131 C  
HETATM   11  C   UNL     1     -10.712  10.797  66.380  1.00  0.00    -0.228 C  
HETATM   12  C   UNL     1      -6.647  10.378  65.469  1.00  0.00    -0.125 C  
HETATM   13  O   UNL     1      -5.879   8.172  62.890  1.00  0.00    -0.071 OA 
HETATM   14  C   UNL     1      -8.993  11.132  66.252  1.00  0.00    -0.202 C  
HETATM   15  C   UNL     1      -8.110   8.739  66.599  1.00  0.00    -0.103 C  
HETATM   16  C   UNL     1      -8.194  11.926  67.516  1.00  0.00    -0.155 C  
HETATM   17  C   UNL     1      -8.129   9.952  65.650  1.00  0.00    -0.128 C  
HETATM   18  C   UNL     1      -6.823  12.398  67.012  1.00  0.00    -0.006 C  
HETATM   19  C   UNL     1      -8.794   9.510  64.290  1.00  0.00    -0.247 C  
HETATM   20  C   UNL     1      -5.982  11.216  66.541  1.00  0.00    -0.143 C  
ENDROOT
BRANCH   4  21
HETATM   21  O   UNL     1     -11.428  11.094  69.239  1.00  0.00    -0.239 OA 
BRANCH  21  22
HETATM   22  C   UNL     1     -11.213  10.131  70.176  1.00  0.00    -0.310 C  
HETATM   23  O   UNL     1     -11.885   9.977  71.182  1.00  0.00    -0.339 OA 
BRANCH  22  24
HETATM   24  C   UNL     1      -9.967   9.332  69.795  1.00  0.00    -0.213 C  
BRANCH  24  25
HETATM   25  C   UNL     1      -9.242   8.642  70.953  1.00  0.00    -0.234 C  
BRANCH  25  26
HETATM   26  C   UNL     1      -9.211   7.110  70.903  1.00  0.00    -0.152 C  
BRANCH  26  27
HETATM   27  C   UNL     1     -10.355   6.435  71.661  1.00  0.00    -0.235 C  
BRANCH  27  28
HETATM   28  C   UNL     1     -10.609   5.021  71.132  1.00  0.00    -0.147 C  
HETATM   29  C   UNL     1      -9.979   4.811  69.764  1.00  0.00    -0.308 C  
ENDBRANCH  27  28
ENDBRANCH  26  27
ENDBRANCH  25  26
ENDBRANCH  24  25
ENDBRANCH  22  24
ENDBRANCH  21  22
ENDBRANCH   4  21
TORSDOF 7
ENDMDL
MODEL      129
REMARK 921   NORMALIZED FREE ENERGY PREDICTED BY IDOCK:   -3.37 KCAL/MOL
REMARK 922        TOTAL FREE ENERGY PREDICTED BY IDOCK:   -6.90 KCAL/MOL
REMARK 923 INTER-LIGAND FREE ENERGY PREDICTED BY IDOCK:   -5.56 KCAL/MOL
REMARK 924 INTRA-LIGAND FREE ENERGY PREDICTED BY IDOCK:   -1.34 KCAL/MOL
REMARK 927      BINDING AFFINITY PREDICTED BY RF-SCORE:    0.00 PKD
ROOT
HETATM    1  C   UNL     1     -10.177  12.351  65.379  1.00  0.00    -0.302 C  
HETATM    2  C   UNL     1     -10.866  11.163  64.999  1.00  0.00    -0.244 C  
HETATM    3  C   UNL     1     -11.206  11.459  66.426  1.00  0.00    -0.250 C  
HETATM    4  C   UNL     1     -10.471  13.246  67.094  1.00  0.00    -0.248 C  
HETATM    5  C   UNL     1      -6.300   8.483  69.705  1.00  0.00    -0.035 C  
HETATM    6  C   UNL     1     -11.617  13.074  66.352  1.00  0.00    -0.413 C  
HETATM    7  C   UNL     1     -12.035  12.435  68.107  1.00  0.00    -0.272 C  
HETATM    8  C   UNL     1      -6.083   8.987  68.339  1.00  0.00    -0.046 C  
HETATM    9  C   UNL     1     -12.557  13.995  65.643  1.00  0.00    -0.542 C  
HETATM   10  C   UNL     1      -7.732   8.391  70.118  1.00  0.00    -0.083 C  
HETATM   11  C   UNL     1     -10.539  11.751  68.872  1.00  0.00    -0.211 C  
HETATM   12  C   UNL     1      -6.881   9.970  67.883  1.00  0.00    -0.075 C  
HETATM   13  O   UNL     1      -5.364   8.102  70.395  1.00  0.00    -0.023 OA 
HETATM   14  C   UNL     1      -9.219  11.073  67.933  1.00  0.00    -0.155 C  
HETATM   15  C   UNL     1      -7.257  11.901  69.377  1.00  0.00     0.114 C  
HETATM   16  C   UNL     1      -8.802  11.765  66.445  1.00  0.00    -0.170 C  
HETATM   17  C   UNL     1      -7.946  10.662  68.776  1.00  0.00    -0.135 C  
HETATM   18  C   UNL     1      -7.884  10.794  65.690  1.00  0.00    -0.076 C  
HETATM   19  C   UNL     1      -8.427   9.737  69.958  1.00  0.00    -0.229 C  
HETATM   20  C   UNL     1      -6.619  10.510  66.493  1.00  0.00    -0.100 C  
ENDROOT
BRANCH   4  21
HETATM   21  O   UNL     1     -11.058  14.457  67.783  1.00  0.00    -0.271 OA 
BRANCH  21  22
HETATM   22  C   UNL     1     -10.445  15.671  67.793  1.00  0.00    -0.273 C  
HETATM   23  O   UNL     1     -11.021  16.741  67.893  1.00  0.00    -0.337 OA 
BRANCH  22  24
HETATM   24  C   UNL     1      -8.942  15.473  67.594  1.00  0.00    -0.187 C  
BRANCH  24  25
HETATM   25  C   UNL     1      -8.086  15.591  68.857  1.00  0.00    -0.194 C  
BRANCH  25  26
HETATM   26  C   UNL     1      -6.568  15.583  68.638  1.00  0.00    -0.103 C  
BRANCH  26  27
HETATM   27  C   UNL     1      -5.893  16.932  68.890  1.00  0.00    -0.154 C  
BRANCH  27  28
HETATM   28  C   UNL     1      -6.585  18.051  68.106  1.00  0.00    -0.199 C  
HETATM   29  C   UNL     1      -6.739  19.311  68.942  1.00  0.00    -0.347 C  
ENDBRANCH  27  28
ENDBRANCH  26  27
ENDBRANCH  25  26
ENDBRANCH  24  25
ENDBRANCH  22  24
ENDBRANCH  21  22
ENDBRANCH   4  21
TORSDOF 7
ENDMDL
MODEL      130
REMARK 921   NORMALIZED FREE ENERGY PREDICTED BY IDOCK:   -3.32 KCAL/MOL
REMARK 922        TOTAL FREE ENERGY PREDICTED BY IDOCK:   -6.83 KCAL/MOL
REMARK 923 INTER-LIGAND FREE ENERGY PREDICTED BY IDOCK:   -4.73 KCAL/MOL
REMARK 924 INTRA-LIGAND FREE ENERGY PREDICTED BY IDOCK:   -2.10 KCAL/MOL
REMARK 927      BINDING AFFINITY PREDICTED BY RF-SCORE:    0.00 PKD
ROOT
HETATM    1  C   UNL     1      -9.691   4.583  69.552  1.00  0.00    -0.282 C  
HETATM    2  C   UNL     1     -10.319   4.659  68.275  1.00  0.00     0.107 C  
HETATM    3  C   UNL     1      -9.244   5.699  68.325  1.00  0.00    -0.116 C  
HETATM    4  C   UNL     1      -8.090   5.612  70.009  1.00  0.00    -0.106 C  
HETATM    5  C   UNL     1     -12.380  10.854  71.022  1.00  0.00    -0.393 C  
HETATM    6  C   UNL     1      -7.943   4.822  68.893  1.00  0.00    -0.076 C  
HETATM    7  C   UNL     1      -7.314   6.557  68.387  1.00  0.00    -0.087 C  
HETATM    8  C   UNL     1     -12.807   9.479  71.330  1.00  0.00    -0.443 C  
HETATM    9  C   UNL     1      -7.140   3.605  68.565  1.00  0.00    -0.051 C  
HETATM   10  C   UNL     1     -11.468  10.976  69.846  1.00  0.00    -0.400 C  
HETATM   11  C   UNL     1      -8.229   7.823  69.309  1.00  0.00    -0.129 C  
HETATM   12  C   UNL     1     -11.915   8.481  71.183  1.00  0.00    -0.306 C  
HETATM   13  O   UNL     1     -12.818  11.809  71.650  1.00  0.00    -0.383 OA 
HETATM   14  C   UNL     1      -9.863   7.570  69.900  1.00  0.00    -0.187 C  
HETATM   15  C   UNL     1      -9.663   8.832  72.134  1.00  0.00    -0.335 C  
HETATM   16  C   UNL     1     -10.327   6.043  70.465  1.00  0.00    -0.279 C  
HETATM   17  C   UNL     1     -10.432   8.737  70.803  1.00  0.00    -0.270 C  
HETATM   18  C   UNL     1     -11.857   6.005  70.582  1.00  0.00     0.152 C  
HETATM   19  C   UNL     1     -10.240  10.092  70.020  1.00  0.00    -0.271 C  
HETATM   20  C   UNL     1     -12.354   7.078  71.546  1.00  0.00    -0.420 C  
ENDROOT
BRANCH   4  21
HETATM   21  O   UNL     1      -6.606   5.548  70.291  1.00  0.00    -0.039 OA 
BRANCH  21  22
HETATM   22  C   UNL     1      -6.096   5.469  71.550  1.00  0.00    -0.033 C  
HETATM   23  O   UNL     1      -5.192   4.724  71.888  1.00  0.00    -0.004 OA 
BRANCH  22  24
HETATM   24  C   UNL     1      -6.878   6.409  72.466  1.00  0.00    -0.069 C  
BRANCH  24  25
HETATM   25  C   UNL     1      -6.189   7.735  72.799  1.00  0.00    -0.062 C  
BRANCH  25  26
HETATM   26  C   UNL     1      -5.400   8.383  71.655  1.00  0.00    -0.035 C  
BRANCH  26  27
HETATM   27  C   UNL     1      -5.405   9.913  71.680  1.00  0.00    -0.064 C  
BRANCH  27  28
HETATM   28  C   UNL     1      -5.408  10.487  70.260  1.00  0.00    -0.054 C  
HETATM   29  C   UNL     1      -6.715  11.197  69.944  1.00  0.00    -0.098 C  
ENDBRANCH  27  28
ENDBRANCH  26  27
ENDBRANCH  25  26
ENDBRANCH  24  25
ENDBRANCH  22  24
ENDBRANCH  21  22
ENDBRANCH   4  21
TORSDOF 7
ENDMDL
MODEL      131
REMARK 921   NORMALIZED FREE ENERGY PREDICTED BY IDOCK:   -3.27 KCAL/MOL
REMARK 922        TOTAL FREE ENERGY PREDICTED BY IDOCK:   -6.77 KCAL/MOL
REMARK 923 INTER-LIGAND FREE ENERGY PREDICTED BY IDOCK:   -5.67 KCAL/MOL
REMARK 924 INTRA-LIGAND FREE ENERGY PREDICTED BY IDOCK:   -1.10 KCAL/MOL
REMARK 927      BINDING AFFINITY PREDICTED BY RF-SCORE:    0.00 PKD
ROOT
HETATM    1  C   UNL     1     -10.919   6.556  69.504  1.00  0.00    -0.398 C  
HETATM    2  C   UNL     1     -10.642   5.390  70.275  1.00  0.00    -0.329 C  
HETATM    3  C   UNL     1      -9.390   6.205  70.203  1.00  0.00    -0.167 C  
HETATM    4  C   UNL     1      -9.641   8.025  69.307  1.00  0.00    -0.157 C  
HETATM    5  C   UNL     1      -6.631   4.084  64.585  1.00  0.00    -0.043 C  
HETATM    6  C   UNL     1      -9.944   7.724  70.614  1.00  0.00    -0.186 C  
HETATM    7  C   UNL     1      -8.034   7.794  70.529  1.00  0.00    -0.098 C  
HETATM    8  C   UNL     1      -8.093   4.047  64.756  1.00  0.00    -0.093 C  
HETATM    9  C   UNL     1     -10.675   8.428  71.713  1.00  0.00    -0.355 C  
HETATM   10  C   UNL     1      -5.859   4.295  65.845  1.00  0.00    -0.023 C  
HETATM   11  C   UNL     1      -7.485   7.271  68.880  1.00  0.00    -0.101 C  
HETATM   12  C   UNL     1      -8.656   4.884  65.647  1.00  0.00    -0.131 C  
HETATM   13  O   UNL     1      -6.116   3.876  63.493  1.00  0.00    -0.017 OA 
HETATM   14  C   UNL     1      -8.415   6.171  67.876  1.00  0.00    -0.116 C  
HETATM   15  C   UNL     1      -7.936   7.246  65.587  1.00  0.00    -0.123 C  
HETATM   16  C   UNL     1     -10.106   6.245  67.889  1.00  0.00    -0.169 C  
HETATM   17  C   UNL     1      -7.839   5.954  66.420  1.00  0.00    -0.101 C  
HETATM   18  C   UNL     1     -10.659   4.979  67.219  1.00  0.00    -0.075 C  
HETATM   19  C   UNL     1      -6.317   5.562  66.554  1.00  0.00    -0.039 C  
HETATM   20  C   UNL     1     -10.164   4.866  65.781  1.00  0.00    -0.207 C  
ENDROOT
BRANCH   4  21
HETATM   21  O   UNL     1      -9.321   9.456  69.676  1.00  0.00    -0.166 OA 
BRANCH  21  22
HETATM   22  C   UNL     1      -9.338  10.474  68.773  1.00  0.00    -0.180 C  
HETATM   23  O   UNL     1      -8.618  11.456  68.820  1.00  0.00    -0.153 OA 
BRANCH  22  24
HETATM   24  C   UNL     1     -10.439  10.212  67.747  1.00  0.00    -0.277 C  
BRANCH  24  25
HETATM   25  C   UNL     1     -11.672  11.113  67.854  1.00  0.00    -0.260 C  
BRANCH  25  26
HETATM   26  C   UNL     1     -11.681  12.344  66.939  1.00  0.00    -0.432 C  
BRANCH  26  27
HETATM   27  C   UNL     1     -11.326  12.043  65.482  1.00  0.00    -0.381 C  
BRANCH  27  28
HETATM   28  C   UNL     1     -12.060  12.991  64.529  1.00  0.00    -0.468 C  
HETATM   29  C   UNL     1     -12.745  14.123  65.278  1.00  0.00    -0.425 C  
ENDBRANCH  27  28
ENDBRANCH  26  27
ENDBRANCH  25  26
ENDBRANCH  24  25
ENDBRANCH  22  24
ENDBRANCH  21  22
ENDBRANCH   4  21
TORSDOF 7
ENDMDL
MODEL      132
REMARK 921   NORMALIZED FREE ENERGY PREDICTED BY IDOCK:   -3.24 KCAL/MOL
REMARK 922        TOTAL FREE ENERGY PREDICTED BY IDOCK:   -6.71 KCAL/MOL
REMARK 923 INTER-LIGAND FREE ENERGY PREDICTED BY IDOCK:   -5.67 KCAL/MOL
REMARK 924 INTRA-LIGAND FREE ENERGY PREDICTED BY IDOCK:   -1.04 KCAL/MOL
REMARK 927      BINDING AFFINITY PREDICTED BY RF-SCORE:    0.00 PKD
ROOT
HETATM    1  C   UNL     1      -9.061   9.913  69.437  1.00  0.00    -0.216 C  
HETATM    2  C   UNL     1     -10.331   9.489  69.927  1.00  0.00    -0.265 C  
HETATM    3  C   UNL     1     -10.172   8.963  68.535  1.00  0.00    -0.223 C  
HETATM    4  C   UNL     1      -8.322   9.295  67.734  1.00  0.00    -0.116 C  
HETATM    5  C   UNL     1     -12.407  13.978  64.857  1.00  0.00    -0.427 C  
HETATM    6  C   UNL     1      -8.653   8.277  68.598  1.00  0.00    -0.133 C  
HETATM    7  C   UNL     1      -9.445   7.811  66.920  1.00  0.00    -0.238 C  
HETATM    8  C   UNL     1     -11.803  14.234  66.175  1.00  0.00    -0.413 C  
HETATM    9  C   UNL     1      -7.876   7.261  69.372  1.00  0.00    -0.122 C  
HETATM   10  C   UNL     1     -12.770  12.553  64.601  1.00  0.00    -0.434 C  
HETATM   11  C   UNL     1      -9.895   9.323  66.024  1.00  0.00    -0.363 C  
HETATM   12  C   UNL     1     -10.952  13.321  66.680  1.00  0.00    -0.297 C  
HETATM   13  O   UNL     1     -12.653  14.896  64.085  1.00  0.00    -0.785 OA 
HETATM   14  C   UNL     1     -10.281  10.829  66.841  1.00  0.00    -0.274 C  
HETATM   15  C   UNL     1      -9.197  12.459  65.170  1.00  0.00     0.421 C  
HETATM   16  C   UNL     1      -9.450  11.259  68.252  1.00  0.00    -0.190 C  
HETATM   17  C   UNL     1     -10.505  12.066  65.882  1.00  0.00    -0.290 C  
HETATM   18  C   UNL     1     -10.205  12.406  68.937  1.00  0.00    -0.025 C  
HETATM   19  C   UNL     1     -11.561  11.646  64.788  1.00  0.00    -0.170 C  
HETATM   20  C   UNL     1     -10.304  13.617  68.016  1.00  0.00    -0.250 C  
ENDROOT
BRANCH   4  21
HETATM   21  O   UNL     1      -7.269   8.435  67.071  1.00  0.00    -0.078 OA 
BRANCH  21  22
HETATM   22  C   UNL     1      -6.272   8.949  66.302  1.00  0.00    -0.064 C  
HETATM   23  O   UNL     1      -5.542   9.868  66.633  1.00  0.00    -0.045 OA 
BRANCH  22  24
HETATM   24  C   UNL     1      -6.265   8.237  64.950  1.00  0.00    -0.052 C  
BRANCH  24  25
HETATM   25  C   UNL     1      -5.129   8.627  64.001  1.00  0.00    -0.051 C  
BRANCH  25  26
HETATM   26  C   UNL     1      -5.322   9.941  63.234  1.00  0.00    -0.093 C  
BRANCH  26  27
HETATM   27  C   UNL     1      -6.762  10.457  63.230  1.00  0.00    -0.058 C  
BRANCH  27  28
HETATM   28  C   UNL     1      -7.663   9.573  62.364  1.00  0.00    -0.119 C  
HETATM   29  C   UNL     1      -9.133   9.769  62.701  1.00  0.00    -0.297 C  
ENDBRANCH  27  28
ENDBRANCH  26  27
ENDBRANCH  25  26
ENDBRANCH  24  25
ENDBRANCH  22  24
ENDBRANCH  21  22
ENDBRANCH   4  21
TORSDOF 7
ENDMDL
MODEL      133
REMARK 921   NORMALIZED FREE ENERGY PREDICTED BY IDOCK:   -3.22 KCAL/MOL
REMARK 922        TOTAL FREE ENERGY PREDICTED BY IDOCK:   -6.68 KCAL/MOL
REMARK 923 INTER-LIGAND FREE ENERGY PREDICTED BY IDOCK:   -5.45 KCAL/MOL
REMARK 924 INTRA-LIGAND FREE ENERGY PREDICTED BY IDOCK:   -1.23 KCAL/MOL
REMARK 927      BINDING AFFINITY PREDICTED BY RF-SCORE:    0.00 PKD
ROOT
HETATM    1  C   UNL     1     -11.120   8.058  68.453  1.00  0.00     0.327 C  
HETATM    2  C   UNL     1     -10.665   7.746  69.766  1.00  0.00    -0.236 C  
HETATM    3  C   UNL     1      -9.621   8.588  69.104  1.00  0.00    -0.167 C  
HETATM    4  C   UNL     1     -10.183   9.311  67.276  1.00  0.00    -0.252 C  
HETATM    5  C   UNL     1      -5.961   4.088  65.937  1.00  0.00    -0.023 C  
HETATM    6  C   UNL     1     -10.531   9.847  68.494  1.00  0.00    -0.232 C  
HETATM    7  C   UNL     1      -8.683  10.278  68.248  1.00  0.00    -0.126 C  
HETATM    8  C   UNL     1      -7.389   3.837  66.196  1.00  0.00    -0.072 C  
HETATM    9  C   UNL     1     -11.496  10.897  68.944  1.00  0.00    -0.369 C  
HETATM   10  C   UNL     1      -5.373   5.217  66.716  1.00  0.00    -0.009 C  
HETATM   11  C   UNL     1      -7.884   8.972  67.274  1.00  0.00    -0.099 C  
HETATM   12  C   UNL     1      -8.201   4.892  66.389  1.00  0.00    -0.108 C  
HETATM   13  O   UNL     1      -5.316   3.360  65.193  1.00  0.00    -0.009 OA 
HETATM   14  C   UNL     1      -8.454   7.311  67.267  1.00  0.00    -0.118 C  
HETATM   15  C   UNL     1      -8.016   6.766  64.790  1.00  0.00    -0.120 C  
HETATM   16  C   UNL     1     -10.114   6.990  67.350  1.00  0.00    -0.252 C  
HETATM   17  C   UNL     1      -7.714   6.359  66.245  1.00  0.00    -0.099 C  
HETATM   18  C   UNL     1     -10.312   5.504  67.680  1.00  0.00    -0.256 C  
HETATM   19  C   UNL     1      -6.162   6.499  66.489  1.00  0.00    -0.040 C  
HETATM   20  C   UNL     1      -9.675   4.622  66.611  1.00  0.00    -0.213 C  
ENDROOT
BRANCH   4  21
HETATM   21  O   UNL     1     -10.220  10.676  66.627  1.00  0.00    -0.216 OA 
BRANCH  21  22
HETATM   22  C   UNL     1     -10.244  10.853  65.279  1.00  0.00    -0.288 C  
HETATM   23  O   UNL     1      -9.855  10.034  64.463  1.00  0.00    -0.305 OA 
BRANCH  22  24
HETATM   24  C   UNL     1     -10.770  12.254  64.967  1.00  0.00    -0.336 C  
BRANCH  24  25
HETATM   25  C   UNL     1     -12.133  12.599  65.571  1.00  0.00    -0.515 C  
BRANCH  25  26
HETATM   26  C   UNL     1     -12.398  14.090  65.813  1.00  0.00    -0.506 C  
BRANCH  26  27
HETATM   27  C   UNL     1     -12.110  14.553  67.242  1.00  0.00    -0.298 C  
BRANCH  27  28
HETATM   28  C   UNL     1     -10.678  15.081  67.373  1.00  0.00    -0.289 C  
HETATM   29  C   UNL     1      -9.722  14.001  67.854  1.00  0.00    -0.229 C  
ENDBRANCH  27  28
ENDBRANCH  26  27
ENDBRANCH  25  26
ENDBRANCH  24  25
ENDBRANCH  22  24
ENDBRANCH  21  22
ENDBRANCH   4  21
TORSDOF 7
ENDMDL
MODEL      134
REMARK 921   NORMALIZED FREE ENERGY PREDICTED BY IDOCK:   -3.20 KCAL/MOL
REMARK 922        TOTAL FREE ENERGY PREDICTED BY IDOCK:   -6.66 KCAL/MOL
REMARK 923 INTER-LIGAND FREE ENERGY PREDICTED BY IDOCK:   -4.44 KCAL/MOL
REMARK 924 INTRA-LIGAND FREE ENERGY PREDICTED BY IDOCK:   -2.22 KCAL/MOL
REMARK 927      BINDING AFFINITY PREDICTED BY RF-SCORE:    0.00 PKD
ROOT
HETATM    1  C   UNL     1      -6.527   9.286  69.245  1.00  0.00    -0.045 C  
HETATM    2  C   UNL     1      -6.260  10.490  69.960  1.00  0.00    -0.102 C  
HETATM    3  C   UNL     1      -7.604   9.987  70.385  1.00  0.00    -0.037 C  
HETATM    4  C   UNL     1      -8.079   8.154  69.618  1.00  0.00    -0.118 C  
HETATM    5  C   UNL     1     -11.615  12.658  65.863  1.00  0.00    -0.396 C  
HETATM    6  C   UNL     1      -7.283   8.384  70.716  1.00  0.00    -0.055 C  
HETATM    7  C   UNL     1      -9.071   8.761  71.285  1.00  0.00    -0.300 C  
HETATM    8  C   UNL     1     -10.213  12.355  65.528  1.00  0.00    -0.297 C  
HETATM    9  C   UNL     1      -6.386   7.537  71.561  1.00  0.00    -0.035 C  
HETATM   10  C   UNL     1     -11.927  12.641  67.322  1.00  0.00    -0.321 C  
HETATM   11  C   UNL     1     -10.031   9.386  69.879  1.00  0.00    -0.237 C  
HETATM   12  C   UNL     1      -9.571  11.416  66.246  1.00  0.00    -0.237 C  
HETATM   13  O   UNL     1     -12.419  12.974  64.995  1.00  0.00    -0.450 OA 
HETATM   14  C   UNL     1      -9.295  10.233  68.529  1.00  0.00    -0.155 C  
HETATM   15  C   UNL     1     -10.759   9.286  66.636  1.00  0.00    -0.066 C  
HETATM   16  C   UNL     1      -7.763   9.768  67.977  1.00  0.00    -0.083 C  
HETATM   17  C   UNL     1     -10.279  10.570  67.338  1.00  0.00    -0.253 C  
HETATM   18  C   UNL     1      -7.217  10.866  67.054  1.00  0.00    -0.114 C  
HETATM   19  C   UNL     1     -11.536  11.306  67.942  1.00  0.00    -0.360 C  
HETATM   20  C   UNL     1      -8.144  11.083  65.862  1.00  0.00    -0.075 C  
ENDROOT
BRANCH   4  21
HETATM   21  O   UNL     1      -8.552   6.839  70.196  1.00  0.00    -0.138 OA 
BRANCH  21  22
HETATM   22  C   UNL     1      -9.041   5.828  69.428  1.00  0.00    -0.126 C  
HETATM   23  O   UNL     1      -9.439   4.758  69.858  1.00  0.00    -0.130 OA 
BRANCH  22  24
HETATM   24  C   UNL     1      -8.946   6.227  67.956  1.00  0.00    -0.114 C  
BRANCH  24  25
HETATM   25  C   UNL     1      -7.864   5.513  67.144  1.00  0.00    -0.101 C  
BRANCH  25  26
HETATM   26  C   UNL     1      -6.513   6.232  67.053  1.00  0.00    -0.050 C  
BRANCH  26  27
HETATM   27  C   UNL     1      -5.498   5.795  68.111  1.00  0.00    -0.008 C  
BRANCH  27  28
HETATM   28  C   UNL     1      -5.703   4.327  68.498  1.00  0.00    -0.024 C  
HETATM   29  C   UNL     1      -5.853   4.158  70.002  1.00  0.00    -0.017 C  
ENDBRANCH  27  28
ENDBRANCH  26  27
ENDBRANCH  25  26
ENDBRANCH  24  25
ENDBRANCH  22  24
ENDBRANCH  21  22
ENDBRANCH   4  21
TORSDOF 7
ENDMDL
MODEL      135
REMARK 921   NORMALIZED FREE ENERGY PREDICTED BY IDOCK:   -3.18 KCAL/MOL
REMARK 922        TOTAL FREE ENERGY PREDICTED BY IDOCK:   -6.63 KCAL/MOL
REMARK 923 INTER-LIGAND FREE ENERGY PREDICTED BY IDOCK:   -5.05 KCAL/MOL
REMARK 924 INTRA-LIGAND FREE ENERGY PREDICTED BY IDOCK:   -1.57 KCAL/MOL
REMARK 927      BINDING AFFINITY PREDICTED BY RF-SCORE:    0.00 PKD
ROOT
HETATM    1  C   UNL     1     -10.186   6.710  69.844  1.00  0.00    -0.214 C  
HETATM    2  C   UNL     1     -11.581   6.564  69.595  1.00  0.00    -0.348 C  
HETATM    3  C   UNL     1     -10.852   6.277  68.321  1.00  0.00    -0.397 C  
HETATM    4  C   UNL     1      -8.819   6.234  68.526  1.00  0.00    -0.114 C  
HETATM    5  C   UNL     1     -10.222  12.292  65.656  1.00  0.00    -0.261 C  
HETATM    6  C   UNL     1      -9.679   5.205  68.830  1.00  0.00    -0.220 C  
HETATM    7  C   UNL     1      -9.621   5.284  66.919  1.00  0.00    -0.153 C  
HETATM    8  C   UNL     1     -10.301  12.130  67.117  1.00  0.00    -0.233 C  
HETATM    9  C   UNL     1      -9.542   3.893  69.534  1.00  0.00    -0.248 C  
HETATM   10  C   UNL     1     -10.630  11.090  64.871  1.00  0.00    -0.328 C  
HETATM   11  C   UNL     1      -9.341   6.998  66.395  1.00  0.00    -0.182 C  
HETATM   12  C   UNL     1      -9.953  10.945  67.651  1.00  0.00    -0.197 C  
HETATM   13  O   UNL     1      -9.918  13.366  65.153  1.00  0.00    -0.257 OA 
HETATM   14  C   UNL     1      -9.837   8.378  67.361  1.00  0.00    -0.249 C  
HETATM   15  C   UNL     1      -7.843   9.928  66.866  1.00  0.00    -0.102 C  
HETATM   16  C   UNL     1      -9.739   8.302  69.049  1.00  0.00    -0.167 C  
HETATM   17  C   UNL     1      -9.375   9.783  66.800  1.00  0.00    -0.190 C  
HETATM   18  C   UNL     1     -10.544   9.467  69.642  1.00  0.00    -0.239 C  
HETATM   19  C   UNL     1      -9.819   9.870  65.289  1.00  0.00    -0.373 C  
HETATM   20  C   UNL     1      -9.997  10.806  69.159  1.00  0.00    -0.206 C  
ENDROOT
BRANCH   4  21
HETATM   21  O   UNL     1      -7.724   5.257  68.164  1.00  0.00    -0.083 OA 
BRANCH  21  22
HETATM   22  C   UNL     1      -6.415   5.467  68.469  1.00  0.00    -0.040 C  
HETATM   23  O   UNL     1      -5.707   6.312  67.948  1.00  0.00    -0.008 OA 
BRANCH  22  24
HETATM   24  C   UNL     1      -5.972   4.438  69.509  1.00  0.00    -0.018 C  
BRANCH  24  25
HETATM   25  C   UNL     1      -5.825   4.964  70.939  1.00  0.00    -0.017 C  
BRANCH  25  26
HETATM   26  C   UNL     1      -6.564   6.271  71.250  1.00  0.00    -0.051 C  
BRANCH  26  27
HETATM   27  C   UNL     1      -5.651   7.492  71.369  1.00  0.00    -0.035 C  
BRANCH  27  28
HETATM   28  C   UNL     1      -6.324   8.742  70.791  1.00  0.00    -0.045 C  
HETATM   29  C   UNL     1      -5.545  10.004  71.126  1.00  0.00    -0.076 C  
ENDBRANCH  27  28
ENDBRANCH  26  27
ENDBRANCH  25  26
ENDBRANCH  24  25
ENDBRANCH  22  24
ENDBRANCH  21  22
ENDBRANCH   4  21
TORSDOF 7
ENDMDL
MODEL      136
REMARK 921   NORMALIZED FREE ENERGY PREDICTED BY IDOCK:   -3.15 KCAL/MOL
REMARK 922        TOTAL FREE ENERGY PREDICTED BY IDOCK:   -6.60 KCAL/MOL
REMARK 923 INTER-LIGAND FREE ENERGY PREDICTED BY IDOCK:   -5.51 KCAL/MOL
REMARK 924 INTRA-LIGAND FREE ENERGY PREDICTED BY IDOCK:   -1.09 KCAL/MOL
REMARK 927      BINDING AFFINITY PREDICTED BY RF-SCORE:    0.00 PKD
ROOT
HETATM    1  C   UNL     1      -6.696   9.113  68.977  1.00  0.00    -0.055 C  
HETATM    2  C   UNL     1      -6.102  10.129  69.780  1.00  0.00    -0.050 C  
HETATM    3  C   UNL     1      -7.414   9.760  70.397  1.00  0.00    -0.161 C  
HETATM    4  C   UNL     1      -8.328   8.167  69.501  1.00  0.00    -0.122 C  
HETATM    5  C   UNL     1     -11.649  13.694  67.195  1.00  0.00    -0.361 C  
HETATM    6  C   UNL     1      -7.320   8.095  70.434  1.00  0.00    -0.062 C  
HETATM    7  C   UNL     1      -8.885   8.622  71.401  1.00  0.00    -0.276 C  
HETATM    8  C   UNL     1     -10.404  13.255  66.543  1.00  0.00    -0.285 C  
HETATM    9  C   UNL     1      -6.447   6.998  70.955  1.00  0.00    -0.044 C  
HETATM   10  C   UNL     1     -11.693  13.478  68.671  1.00  0.00    -0.389 C  
HETATM   11  C   UNL     1      -9.959   9.605  70.319  1.00  0.00    -0.326 C  
HETATM   12  C   UNL     1      -9.814  12.126  66.980  1.00  0.00    -0.212 C  
HETATM   13  O   UNL     1     -12.529  14.262  66.560  1.00  0.00    -0.428 OA 
HETATM   14  C   UNL     1      -9.342  10.552  68.976  1.00  0.00    -0.205 C  
HETATM   15  C   UNL     1     -11.263  10.153  67.310  1.00  0.00    -0.024 C  
HETATM   16  C   UNL     1      -8.037   9.971  68.066  1.00  0.00    -0.112 C  
HETATM   17  C   UNL     1     -10.451  11.220  68.068  1.00  0.00    -0.215 C  
HETATM   18  C   UNL     1      -7.485  11.119  67.209  1.00  0.00    -0.118 C  
HETATM   19  C   UNL     1     -11.433  12.016  69.010  1.00  0.00    -0.357 C  
HETATM   20  C   UNL     1      -8.559  11.662  66.272  1.00  0.00    -0.103 C  
ENDROOT
BRANCH   4  21
HETATM   21  O   UNL     1      -8.909   6.855  69.977  1.00  0.00    -0.141 OA 
BRANCH  21  22
HETATM   22  C   UNL     1      -9.879   6.186  69.297  1.00  0.00    -0.149 C  
HETATM   23  O   UNL     1     -10.204   6.415  68.144  1.00  0.00    -0.142 OA 
BRANCH  22  24
HETATM   24  C   UNL     1     -10.526   5.162  70.228  1.00  0.00    -0.296 C  
BRANCH  24  25
HETATM   25  C   UNL     1      -9.726   3.878  70.460  1.00  0.00    -0.247 C  
BRANCH  25  26
HETATM   26  C   UNL     1      -9.414   3.540  71.922  1.00  0.00    -0.206 C  
BRANCH  26  27
HETATM   27  C   UNL     1     -10.081   4.472  72.936  1.00  0.00    -0.206 C  
BRANCH  27  28
HETATM   28  C   UNL     1      -9.037   5.227  73.762  1.00  0.00    -0.123 C  
HETATM   29  C   UNL     1      -7.888   4.322  74.179  1.00  0.00    -0.091 C  
ENDBRANCH  27  28
ENDBRANCH  26  27
ENDBRANCH  25  26
ENDBRANCH  24  25
ENDBRANCH  22  24
ENDBRANCH  21  22
ENDBRANCH   4  21
TORSDOF 7
ENDMDL
MODEL      137
REMARK 921   NORMALIZED FREE ENERGY PREDICTED BY IDOCK:   -3.13 KCAL/MOL
REMARK 922        TOTAL FREE ENERGY PREDICTED BY IDOCK:   -6.56 KCAL/MOL
REMARK 923 INTER-LIGAND FREE ENERGY PREDICTED BY IDOCK:   -5.28 KCAL/MOL
REMARK 924 INTRA-LIGAND FREE ENERGY PREDICTED BY IDOCK:   -1.27 KCAL/MOL
REMARK 927      BINDING AFFINITY PREDICTED BY RF-SCORE:    0.00 PKD
ROOT
HETATM    1  C   UNL     1      -7.641   8.756  69.515  1.00  0.00    -0.080 C  
HETATM    2  C   UNL     1      -7.657   9.447  70.761  1.00  0.00    -0.138 C  
HETATM    3  C   UNL     1      -9.070   9.112  70.399  1.00  0.00    -0.270 C  
HETATM    4  C   UNL     1      -9.238   7.935  68.737  1.00  0.00    -0.143 C  
HETATM    5  C   UNL     1     -10.838  14.258  66.649  1.00  0.00    -0.301 C  
HETATM    6  C   UNL     1      -8.949   7.495  70.007  1.00  0.00    -0.144 C  
HETATM    7  C   UNL     1     -10.805   7.963  70.030  1.00  0.00    -0.238 C  
HETATM    8  C   UNL     1      -9.429  13.836  66.717  1.00  0.00    -0.281 C  
HETATM    9  C   UNL     1      -8.493   6.196  70.592  1.00  0.00    -0.134 C  
HETATM   10  C   UNL     1     -11.715  13.682  67.710  1.00  0.00    -0.397 C  
HETATM   11  C   UNL     1     -11.098   9.322  68.865  1.00  0.00     0.042 C  
HETATM   12  C   UNL     1      -9.155  12.566  67.067  1.00  0.00    -0.213 C  
HETATM   13  O   UNL     1     -11.214  15.080  65.823  1.00  0.00    -0.340 OA 
HETATM   14  C   UNL     1      -9.857  10.488  68.436  1.00  0.00    -0.171 C  
HETATM   15  C   UNL     1     -10.451  10.784  65.950  1.00  0.00    -0.270 C  
HETATM   16  C   UNL     1      -8.245   9.989  68.297  1.00  0.00    -0.106 C  
HETATM   17  C   UNL     1     -10.266  11.506  67.298  1.00  0.00    -0.229 C  
HETATM   18  C   UNL     1      -7.346  11.232  68.267  1.00  0.00    -0.095 C  
HETATM   19  C   UNL     1     -11.642  12.160  67.705  1.00  0.00    -0.410 C  
HETATM   20  C   UNL     1      -7.705  12.133  67.090  1.00  0.00    -0.151 C  
ENDROOT
BRANCH   4  21
HETATM   21  O   UNL     1      -9.937   6.635  68.409  1.00  0.00    -0.139 OA 
BRANCH  21  22
HETATM   22  C   UNL     1      -9.967   6.108  67.155  1.00  0.00    -0.154 C  
HETATM   23  O   UNL     1     -10.748   5.250  66.780  1.00  0.00    -0.273 OA 
BRANCH  22  24
HETATM   24  C   UNL     1      -8.833   6.716  66.330  1.00  0.00    -0.156 C  
BRANCH  24  25
HETATM   25  C   UNL     1      -7.538   5.901  66.281  1.00  0.00    -0.094 C  
BRANCH  25  26
HETATM   26  C   UNL     1      -7.249   5.187  64.956  1.00  0.00    -0.066 C  
BRANCH  26  27
HETATM   27  C   UNL     1      -8.458   5.080  64.025  1.00  0.00    -0.135 C  
BRANCH  27  28
HETATM   28  C   UNL     1      -8.450   3.753  63.260  1.00  0.00    -0.091 C  
HETATM   29  C   UNL     1      -9.090   2.635  64.068  1.00  0.00    -0.109 C  
ENDBRANCH  27  28
ENDBRANCH  26  27
ENDBRANCH  25  26
ENDBRANCH  24  25
ENDBRANCH  22  24
ENDBRANCH  21  22
ENDBRANCH   4  21
TORSDOF 7
ENDMDL
MODEL      138
REMARK 921   NORMALIZED FREE ENERGY PREDICTED BY IDOCK:   -3.11 KCAL/MOL
REMARK 922        TOTAL FREE ENERGY PREDICTED BY IDOCK:   -6.53 KCAL/MOL
REMARK 923 INTER-LIGAND FREE ENERGY PREDICTED BY IDOCK:   -5.08 KCAL/MOL
REMARK 924 INTRA-LIGAND FREE ENERGY PREDICTED BY IDOCK:   -1.45 KCAL/MOL
REMARK 927      BINDING AFFINITY PREDICTED BY RF-SCORE:    0.00 PKD
ROOT
HETATM    1  C   UNL     1      -8.997   5.005  70.032  1.00  0.00    -0.146 C  
HETATM    2  C   UNL     1      -8.211   4.239  69.123  1.00  0.00    -0.077 C  
HETATM    3  C   UNL     1      -7.369   5.370  69.622  1.00  0.00    -0.065 C  
HETATM    4  C   UNL     1      -8.257   6.470  71.099  1.00  0.00    -0.121 C  
HETATM    5  C   UNL     1      -8.884  10.234  65.412  1.00  0.00    -0.172 C  
HETATM    6  C   UNL     1      -7.604   5.272  71.271  1.00  0.00    -0.100 C  
HETATM    7  C   UNL     1      -6.234   6.567  70.943  1.00  0.00    -0.032 C  
HETATM    8  C   UNL     1      -9.864   9.176  65.709  1.00  0.00    -0.248 C  
HETATM    9  C   UNL     1      -7.468   4.302  72.401  1.00  0.00    -0.073 C  
HETATM   10  C   UNL     1      -7.487   9.931  65.841  1.00  0.00    -0.108 C  
HETATM   11  C   UNL     1      -6.879   7.864  69.851  1.00  0.00    -0.045 C  
HETATM   12  C   UNL     1      -9.748   8.502  66.869  1.00  0.00    -0.286 C  
HETATM   13  O   UNL     1      -9.206  11.237  64.788  1.00  0.00    -0.185 OA 
HETATM   14  C   UNL     1      -8.173   7.577  68.699  1.00  0.00    -0.129 C  
HETATM   15  C   UNL     1      -9.389   9.834  68.917  1.00  0.00    -0.158 C  
HETATM   16  C   UNL     1      -9.436   6.522  69.097  1.00  0.00    -0.136 C  
HETATM   17  C   UNL     1      -8.690   8.866  67.944  1.00  0.00    -0.129 C  
HETATM   18  C   UNL     1     -10.216   6.184  67.819  1.00  0.00    -0.211 C  
HETATM   19  C   UNL     1      -7.438   9.600  67.327  1.00  0.00    -0.088 C  
HETATM   20  C   UNL     1     -10.788   7.447  67.183  1.00  0.00    -0.340 C  
ENDROOT
BRANCH   4  21
HETATM   21  O   UNL     1      -7.859   6.925  72.485  1.00  0.00    -0.095 OA 
BRANCH  21  22
HETATM   22  C   UNL     1      -8.606   7.792  73.220  1.00  0.00    -0.187 C  
HETATM   23  O   UNL     1      -8.152   8.684  73.916  1.00  0.00    -0.398 OA 
BRANCH  22  24
HETATM   24  C   UNL     1     -10.083   7.422  73.082  1.00  0.00    -0.342 C  
BRANCH  24  25
HETATM   25  C   UNL     1     -10.506   6.120  73.766  1.00  0.00    -0.295 C  
BRANCH  25  26
HETATM   26  C   UNL     1     -11.050   5.025  72.841  1.00  0.00    -0.348 C  
BRANCH  26  27
HETATM   27  C   UNL     1     -11.348   3.701  73.546  1.00  0.00    -0.233 C  
BRANCH  27  28
HETATM   28  C   UNL     1     -10.245   2.673  73.278  1.00  0.00    -0.208 C  
HETATM   29  C   UNL     1      -9.909   1.872  74.527  1.00  0.00    -0.131 C  
ENDBRANCH  27  28
ENDBRANCH  26  27
ENDBRANCH  25  26
ENDBRANCH  24  25
ENDBRANCH  22  24
ENDBRANCH  21  22
ENDBRANCH   4  21
TORSDOF 7
ENDMDL
MODEL      139
REMARK 921   NORMALIZED FREE ENERGY PREDICTED BY IDOCK:   -3.10 KCAL/MOL
REMARK 922        TOTAL FREE ENERGY PREDICTED BY IDOCK:   -6.52 KCAL/MOL
REMARK 923 INTER-LIGAND FREE ENERGY PREDICTED BY IDOCK:   -4.84 KCAL/MOL
REMARK 924 INTRA-LIGAND FREE ENERGY PREDICTED BY IDOCK:   -1.68 KCAL/MOL
REMARK 927      BINDING AFFINITY PREDICTED BY RF-SCORE:    0.00 PKD
ROOT
HETATM    1  C   UNL     1      -7.775   6.512  68.939  1.00  0.00    -0.109 C  
HETATM    2  C   UNL     1      -8.037   6.973  70.262  1.00  0.00    -0.119 C  
HETATM    3  C   UNL     1      -9.342   6.888  69.535  1.00  0.00    -0.147 C  
HETATM    4  C   UNL     1      -9.198   6.049  67.677  1.00  0.00    -0.107 C  
HETATM    5  C   UNL     1      -9.709  12.791  66.584  1.00  0.00    -0.252 C  
HETATM    6  C   UNL     1      -9.265   5.362  68.866  1.00  0.00    -0.147 C  
HETATM    7  C   UNL     1     -11.025   6.053  68.567  1.00  0.00    -0.350 C  
HETATM    8  C   UNL     1      -8.399  12.187  66.880  1.00  0.00    -0.151 C  
HETATM    9  C   UNL     1      -9.075   3.934  69.268  1.00  0.00    -0.195 C  
HETATM   10  C   UNL     1     -10.863  12.156  67.287  1.00  0.00    -0.286 C  
HETATM   11  C   UNL     1     -10.911   7.619  67.660  1.00  0.00    -0.171 C  
HETATM   12  C   UNL     1      -8.326  10.851  67.022  1.00  0.00    -0.132 C  
HETATM   13  O   UNL     1      -9.803  13.785  65.876  1.00  0.00    -0.298 OA 
HETATM   14  C   UNL     1      -9.510   8.673  67.760  1.00  0.00    -0.165 C  
HETATM   15  C   UNL     1      -9.455   9.470  65.313  1.00  0.00    -0.326 C  
HETATM   16  C   UNL     1      -7.960   8.004  67.887  1.00  0.00    -0.128 C  
HETATM   17  C   UNL     1      -9.544   9.918  66.784  1.00  0.00    -0.231 C  
HETATM   18  C   UNL     1      -6.980   9.109  68.306  1.00  0.00    -0.076 C  
HETATM   19  C   UNL     1     -10.918  10.662  66.996  1.00  0.00    -0.274 C  
HETATM   20  C   UNL     1      -6.965  10.239  67.282  1.00  0.00    -0.086 C  
ENDROOT
BRANCH   4  21
HETATM   21  O   UNL     1      -9.902   4.926  66.949  1.00  0.00    -0.162 OA 
BRANCH  21  22
HETATM   22  C   UNL     1      -9.806   4.742  65.605  1.00  0.00    -0.176 C  
HETATM   23  O   UNL     1     -10.648   4.192  64.917  1.00  0.00    -0.250 OA 
BRANCH  22  24
HETATM   24  C   UNL     1      -8.456   5.274  65.123  1.00  0.00    -0.149 C  
BRANCH  24  25
HETATM   25  C   UNL     1      -8.206   5.177  63.616  1.00  0.00    -0.118 C  
BRANCH  25  26
HETATM   26  C   UNL     1      -7.752   6.470  62.930  1.00  0.00    -0.097 C  
BRANCH  26  27
HETATM   27  C   UNL     1      -6.241   6.564  62.709  1.00  0.00    -0.034 C  
BRANCH  27  28
HETATM   28  C   UNL     1      -5.708   7.939  63.122  1.00  0.00    -0.059 C  
HETATM   29  C   UNL     1      -5.786   8.143  64.627  1.00  0.00    -0.045 C  
ENDBRANCH  27  28
ENDBRANCH  26  27
ENDBRANCH  25  26
ENDBRANCH  24  25
ENDBRANCH  22  24
ENDBRANCH  21  22
ENDBRANCH   4  21
TORSDOF 7
ENDMDL
MODEL      140
REMARK 921   NORMALIZED FREE ENERGY PREDICTED BY IDOCK:   -3.08 KCAL/MOL
REMARK 922        TOTAL FREE ENERGY PREDICTED BY IDOCK:   -6.50 KCAL/MOL
REMARK 923 INTER-LIGAND FREE ENERGY PREDICTED BY IDOCK:   -4.89 KCAL/MOL
REMARK 924 INTRA-LIGAND FREE ENERGY PREDICTED BY IDOCK:   -1.61 KCAL/MOL
REMARK 927      BINDING AFFINITY PREDICTED BY RF-SCORE:    0.00 PKD
ROOT
HETATM    1  C   UNL     1      -7.628   7.157  63.056  1.00  0.00    -0.108 C  
HETATM    2  C   UNL     1      -6.395   7.846  62.867  1.00  0.00    -0.076 C  
HETATM    3  C   UNL     1      -6.420   7.316  64.266  1.00  0.00    -0.040 C  
HETATM    4  C   UNL     1      -8.026   6.118  64.666  1.00  0.00    -0.124 C  
HETATM    5  C   UNL     1      -9.499  12.146  67.562  1.00  0.00    -0.180 C  
HETATM    6  C   UNL     1      -6.873   5.729  64.025  1.00  0.00    -0.049 C  
HETATM    7  C   UNL     1      -6.398   5.936  65.867  1.00  0.00    -0.042 C  
HETATM    8  C   UNL     1      -9.780  11.924  66.134  1.00  0.00    -0.251 C  
HETATM    9  C   UNL     1      -6.450   4.509  63.270  1.00  0.00    -0.026 C  
HETATM   10  C   UNL     1      -8.276  11.460  68.073  1.00  0.00    -0.140 C  
HETATM   11  C   UNL     1      -7.422   7.235  66.611  1.00  0.00    -0.088 C  
HETATM   12  C   UNL     1      -9.540  10.706  65.614  1.00  0.00    -0.268 C  
HETATM   13  O   UNL     1     -10.189  12.904  68.232  1.00  0.00    -0.234 OA 
HETATM   14  C   UNL     1      -8.101   8.558  65.679  1.00  0.00    -0.119 C  
HETATM   15  C   UNL     1     -10.365   8.755  66.885  1.00  0.00    -0.344 C  
HETATM   16  C   UNL     1      -8.633   8.287  64.095  1.00  0.00     0.120 C  
HETATM   17  C   UNL     1      -9.081   9.504  66.483  1.00  0.00    -0.185 C  
HETATM   18  C   UNL     1      -8.841   9.642  63.406  1.00  0.00    -0.251 C  
HETATM   19  C   UNL     1      -8.341   9.964  67.797  1.00  0.00    -0.114 C  
HETATM   20  C   UNL     1      -9.874  10.478  64.155  1.00  0.00    -0.401 C  
ENDROOT
BRANCH   4  21
HETATM   21  O   UNL     1      -8.215   4.731  65.239  1.00  0.00    -0.112 OA 
BRANCH  21  22
HETATM   22  C   UNL     1      -9.438   4.155  65.391  1.00  0.00    -0.173 C  
HETATM   23  O   UNL     1     -10.232   3.961  64.486  1.00  0.00    -0.210 OA 
BRANCH  22  24
HETATM   24  C   UNL     1      -9.670   3.857  66.872  1.00  0.00    -0.189 C  
BRANCH  24  25
HETATM   25  C   UNL     1     -10.265   5.003  67.693  1.00  0.00    -0.168 C  
BRANCH  25  26
HETATM   26  C   UNL     1      -9.546   5.326  69.008  1.00  0.00    -0.199 C  
BRANCH  26  27
HETATM   27  C   UNL     1     -10.038   6.601  69.694  1.00  0.00    -0.202 C  
BRANCH  27  28
HETATM   28  C   UNL     1     -11.182   6.299  70.666  1.00  0.00    -0.401 C  
HETATM   29  C   UNL     1     -11.784   7.572  71.240  1.00  0.00    -0.312 C  
ENDBRANCH  27  28
ENDBRANCH  26  27
ENDBRANCH  25  26
ENDBRANCH  24  25
ENDBRANCH  22  24
ENDBRANCH  21  22
ENDBRANCH   4  21
TORSDOF 7
ENDMDL
MODEL      141
REMARK 921   NORMALIZED FREE ENERGY PREDICTED BY IDOCK:   -3.03 KCAL/MOL
REMARK 922        TOTAL FREE ENERGY PREDICTED BY IDOCK:   -6.42 KCAL/MOL
REMARK 923 INTER-LIGAND FREE ENERGY PREDICTED BY IDOCK:   -5.43 KCAL/MOL
REMARK 924 INTRA-LIGAND FREE ENERGY PREDICTED BY IDOCK:   -0.99 KCAL/MOL
REMARK 927      BINDING AFFINITY PREDICTED BY RF-SCORE:    0.00 PKD
ROOT
HETATM    1  C   UNL     1      -8.939  12.166  68.175  1.00  0.00    -0.195 C  
HETATM    2  C   UNL     1      -9.518  12.768  67.020  1.00  0.00    -0.233 C  
HETATM    3  C   UNL     1     -10.153  11.427  67.211  1.00  0.00    -0.218 C  
HETATM    4  C   UNL     1      -9.599  10.490  68.940  1.00  0.00    -0.193 C  
HETATM    5  C   UNL     1      -6.007   7.418  63.984  1.00  0.00    -0.044 C  
HETATM    6  C   UNL     1     -10.561  11.466  68.828  1.00  0.00    -0.235 C  
HETATM    7  C   UNL     1     -11.330   9.890  68.061  1.00  0.00     0.008 C  
HETATM    8  C   UNL     1      -5.515   8.668  64.587  1.00  0.00    -0.047 C  
HETATM    9  C   UNL     1     -11.343  12.288  69.802  1.00  0.00    -0.149 C  
HETATM   10  C   UNL     1      -7.492   7.323  63.865  1.00  0.00    -0.100 C  
HETATM   11  C   UNL     1     -10.018   8.881  67.317  1.00  0.00    -0.277 C  
HETATM   12  C   UNL     1      -6.212   9.207  65.605  1.00  0.00    -0.056 C  
HETATM   13  O   UNL     1      -5.231   6.577  63.549  1.00  0.00    -0.024 OA 
HETATM   14  C   UNL     1      -8.522   9.569  66.708  1.00  0.00    -0.129 C  
HETATM   15  C   UNL     1      -6.917   7.687  67.419  1.00  0.00    -0.084 C  
HETATM   16  C   UNL     1      -7.812  10.881  67.508  1.00  0.00    -0.114 C  
HETATM   17  C   UNL     1      -7.449   8.510  66.231  1.00  0.00    -0.090 C  
HETATM   18  C   UNL     1      -6.743  11.495  66.593  1.00  0.00    -0.077 C  
HETATM   19  C   UNL     1      -8.156   7.526  65.221  1.00  0.00    -0.130 C  
HETATM   20  C   UNL     1      -5.671  10.468  66.246  1.00  0.00    -0.085 C  
ENDROOT
BRANCH   4  21
HETATM   21  O   UNL     1     -10.332   9.852  70.098  1.00  0.00    -0.255 OA 
BRANCH  21  22
HETATM   22  C   UNL     1      -9.693   9.241  71.132  1.00  0.00    -0.257 C  
HETATM   23  O   UNL     1      -8.495   9.315  71.350  1.00  0.00    -0.325 OA 
BRANCH  22  24
HETATM   24  C   UNL     1     -10.701   8.406  71.920  1.00  0.00    -0.373 C  
BRANCH  24  25
HETATM   25  C   UNL     1     -11.492   7.379  71.106  1.00  0.00    -0.303 C  
BRANCH  25  26
HETATM   26  C   UNL     1     -12.677   6.725  71.827  1.00  0.00    -0.342 C  
BRANCH  26  27
HETATM   27  C   UNL     1     -14.042   7.284  71.422  1.00  0.00    -0.456 C  
BRANCH  27  28
HETATM   28  C   UNL     1     -14.387   8.537  72.232  1.00  0.00    -0.483 C  
HETATM   29  C   UNL     1     -13.884   9.801  71.553  1.00  0.00    -0.163 C  
ENDBRANCH  27  28
ENDBRANCH  26  27
ENDBRANCH  25  26
ENDBRANCH  24  25
ENDBRANCH  22  24
ENDBRANCH  21  22
ENDBRANCH   4  21
TORSDOF 7
ENDMDL
MODEL      142
REMARK 921   NORMALIZED FREE ENERGY PREDICTED BY IDOCK:   -3.03 KCAL/MOL
REMARK 922        TOTAL FREE ENERGY PREDICTED BY IDOCK:   -6.42 KCAL/MOL
REMARK 923 INTER-LIGAND FREE ENERGY PREDICTED BY IDOCK:   -5.45 KCAL/MOL
REMARK 924 INTRA-LIGAND FREE ENERGY PREDICTED BY IDOCK:   -0.97 KCAL/MOL
REMARK 927      BINDING AFFINITY PREDICTED BY RF-SCORE:    0.00 PKD
ROOT
HETATM    1  C   UNL     1      -9.617   5.722  67.752  1.00  0.00    -0.121 C  
HETATM    2  C   UNL     1     -10.712   5.720  66.839  1.00  0.00    -0.381 C  
HETATM    3  C   UNL     1     -10.022   7.043  66.731  1.00  0.00    -0.266 C  
HETATM    4  C   UNL     1      -8.296   7.164  67.819  1.00  0.00    -0.118 C  
HETATM    5  C   UNL     1     -12.980  10.581  71.464  1.00  0.00    -0.460 C  
HETATM    6  C   UNL     1      -8.425   6.586  66.578  1.00  0.00    -0.120 C  
HETATM    7  C   UNL     1      -8.532   8.474  66.284  1.00  0.00    -0.130 C  
HETATM    8  C   UNL     1     -12.870   9.118  71.588  1.00  0.00    -0.431 C  
HETATM    9  C   UNL     1      -7.543   5.739  65.717  1.00  0.00    -0.090 C  
HETATM   10  C   UNL     1     -12.701  11.116  70.099  1.00  0.00    -0.157 C  
HETATM   11  C   UNL     1      -9.278   9.268  67.734  1.00  0.00    -0.141 C  
HETATM   12  C   UNL     1     -11.895   8.488  70.908  1.00  0.00    -0.243 C  
HETATM   13  O   UNL     1     -13.351  11.270  72.406  1.00  0.00    -0.259 OA 
HETATM   14  C   UNL     1     -10.396   8.435  68.801  1.00  0.00    -0.225 C  
HETATM   15  C   UNL     1      -9.625   9.455  71.035  1.00  0.00    -0.272 C  
HETATM   16  C   UNL     1     -10.174   6.791  69.136  1.00  0.00    -0.195 C  
HETATM   17  C   UNL     1     -10.822   9.252  70.086  1.00  0.00    -0.275 C  
HETATM   18  C   UNL     1     -11.452   6.243  69.785  1.00  0.00    -0.449 C  
HETATM   19  C   UNL     1     -11.328  10.669  69.614  1.00  0.00    -0.360 C  
HETATM   20  C   UNL     1     -11.765   6.989  71.078  1.00  0.00    -0.375 C  
ENDROOT
BRANCH   4  21
HETATM   21  O   UNL     1      -6.867   7.560  67.524  1.00  0.00    -0.067 OA 
BRANCH  21  22
HETATM   22  C   UNL     1      -5.883   7.529  68.463  1.00  0.00    -0.027 C  
HETATM   23  O   UNL     1      -5.532   6.532  69.071  1.00  0.00    -0.014 OA 
BRANCH  22  24
HETATM   24  C   UNL     1      -5.346   8.945  68.672  1.00  0.00    -0.037 C  
BRANCH  24  25
HETATM   25  C   UNL     1      -6.327  10.078  68.360  1.00  0.00    -0.049 C  
BRANCH  25  26
HETATM   26  C   UNL     1      -6.579  11.075  69.497  1.00  0.00    -0.118 C  
BRANCH  26  27
HETATM   27  C   UNL     1      -7.598  12.165  69.159  1.00  0.00     0.173 C  
BRANCH  27  28
HETATM   28  C   UNL     1      -6.901  13.481  68.804  1.00  0.00    -0.108 C  
HETATM   29  C   UNL     1      -5.857  13.288  67.715  1.00  0.00    -0.132 C  
ENDBRANCH  27  28
ENDBRANCH  26  27
ENDBRANCH  25  26
ENDBRANCH  24  25
ENDBRANCH  22  24
ENDBRANCH  21  22
ENDBRANCH   4  21
TORSDOF 7
ENDMDL
MODEL      143
REMARK 921   NORMALIZED FREE ENERGY PREDICTED BY IDOCK:   -3.02 KCAL/MOL
REMARK 922        TOTAL FREE ENERGY PREDICTED BY IDOCK:   -6.41 KCAL/MOL
REMARK 923 INTER-LIGAND FREE ENERGY PREDICTED BY IDOCK:   -5.35 KCAL/MOL
REMARK 924 INTRA-LIGAND FREE ENERGY PREDICTED BY IDOCK:   -1.06 KCAL/MOL
REMARK 927      BINDING AFFINITY PREDICTED BY RF-SCORE:    0.00 PKD
ROOT
HETATM    1  C   UNL     1      -5.587  12.855  68.057  1.00  0.00    -0.101 C  
HETATM    2  C   UNL     1      -5.399  13.137  69.441  1.00  0.00    -0.077 C  
HETATM    3  C   UNL     1      -6.780  12.588  69.265  1.00  0.00    -0.060 C  
HETATM    4  C   UNL     1      -7.169  11.929  67.369  1.00  0.00    -0.142 C  
HETATM    5  C   UNL     1     -10.292  18.004  67.850  1.00  0.00    -0.392 C  
HETATM    6  C   UNL     1      -6.494  11.228  68.341  1.00  0.00    -0.057 C  
HETATM    7  C   UNL     1      -8.332  11.209  68.872  1.00  0.00    -0.101 C  
HETATM    8  C   UNL     1      -8.863  17.934  67.504  1.00  0.00    -0.248 C  
HETATM    9  C   UNL     1      -5.691   9.967  68.362  1.00  0.00    -0.042 C  
HETATM   10  C   UNL     1     -10.757  16.956  68.805  1.00  0.00    -0.333 C  
HETATM   11  C   UNL     1      -9.139  12.731  68.303  1.00  0.00    -0.180 C  
HETATM   12  C   UNL     1      -8.299  16.721  67.352  1.00  0.00    -0.197 C  
HETATM   13  O   UNL     1     -11.001  18.912  67.432  1.00  0.00    -0.437 OA 
HETATM   14  C   UNL     1      -8.265  14.234  68.059  1.00  0.00    -0.153 C  
HETATM   15  C   UNL     1      -9.519  15.073  65.975  1.00  0.00    -0.337 C  
HETATM   16  C   UNL     1      -6.683  14.199  67.457  1.00  0.00    -0.127 C  
HETATM   17  C   UNL     1      -9.118  15.404  67.425  1.00  0.00    -0.206 C  
HETATM   18  C   UNL     1      -6.044  15.578  67.673  1.00  0.00    -0.158 C  
HETATM   19  C   UNL     1     -10.433  15.564  68.280  1.00  0.00    -0.242 C  
HETATM   20  C   UNL     1      -6.839  16.663  66.953  1.00  0.00    -0.253 C  
ENDROOT
BRANCH   4  21
HETATM   21  O   UNL     1      -7.699  10.648  66.766  1.00  0.00    -0.116 OA 
BRANCH  21  22
HETATM   22  C   UNL     1      -7.428  10.264  65.490  1.00  0.00    -0.149 C  
HETATM   23  O   UNL     1      -6.623  10.812  64.755  1.00  0.00     0.053 OA 
BRANCH  22  24
HETATM   24  C   UNL     1      -8.335   9.092  65.116  1.00  0.00    -0.160 C  
BRANCH  24  25
HETATM   25  C   UNL     1      -9.809   9.248  65.497  1.00  0.00    -0.155 C  
BRANCH  25  26
HETATM   26  C   UNL     1     -10.229   8.598  66.821  1.00  0.00    -0.361 C  
BRANCH  26  27
HETATM   27  C   UNL     1      -9.154   7.711  67.451  1.00  0.00    -0.136 C  
BRANCH  27  28
HETATM   28  C   UNL     1      -9.490   6.227  67.274  1.00  0.00    -0.126 C  
HETATM   29  C   UNL     1     -10.984   6.006  67.100  1.00  0.00    -0.360 C  
ENDBRANCH  27  28
ENDBRANCH  26  27
ENDBRANCH  25  26
ENDBRANCH  24  25
ENDBRANCH  22  24
ENDBRANCH  21  22
ENDBRANCH   4  21
TORSDOF 7
ENDMDL
MODEL      144
REMARK 921   NORMALIZED FREE ENERGY PREDICTED BY IDOCK:   -3.02 KCAL/MOL
REMARK 922        TOTAL FREE ENERGY PREDICTED BY IDOCK:   -6.40 KCAL/MOL
REMARK 923 INTER-LIGAND FREE ENERGY PREDICTED BY IDOCK:   -5.05 KCAL/MOL
REMARK 924 INTRA-LIGAND FREE ENERGY PREDICTED BY IDOCK:   -1.35 KCAL/MOL
REMARK 927      BINDING AFFINITY PREDICTED BY RF-SCORE:    0.00 PKD
ROOT
HETATM    1  C   UNL     1      -5.987  10.759  68.566  1.00  0.00    -0.043 C  
HETATM    2  C   UNL     1      -5.868  11.006  69.965  1.00  0.00    -0.102 C  
HETATM    3  C   UNL     1      -7.184  10.336  69.723  1.00  0.00    -0.147 C  
HETATM    4  C   UNL     1      -7.451   9.714  67.795  1.00  0.00    -0.087 C  
HETATM    5  C   UNL     1     -11.155  15.444  68.376  1.00  0.00    -0.301 C  
HETATM    6  C   UNL     1      -6.741   9.045  68.765  1.00  0.00    -0.054 C  
HETATM    7  C   UNL     1      -8.585   8.832  69.232  1.00  0.00    -0.130 C  
HETATM    8  C   UNL     1      -9.715  15.522  68.076  1.00  0.00    -0.207 C  
HETATM    9  C   UNL     1      -5.822   7.865  68.770  1.00  0.00    -0.035 C  
HETATM   10  C   UNL     1     -11.546  14.322  69.279  1.00  0.00    -0.350 C  
HETATM   11  C   UNL     1      -9.516  10.291  68.689  1.00  0.00    -0.169 C  
HETATM   12  C   UNL     1      -9.033  14.374  67.903  1.00  0.00    -0.186 C  
HETATM   13  O   UNL     1     -11.934  16.295  67.966  1.00  0.00     0.102 OA 
HETATM   14  C   UNL     1      -8.783  11.877  68.525  1.00  0.00    -0.108 C  
HETATM   15  C   UNL     1     -10.048  12.671  66.430  1.00  0.00    -0.263 C  
HETATM   16  C   UNL     1      -7.187  12.015  67.976  1.00  0.00    -0.096 C  
HETATM   17  C   UNL     1      -9.724  12.984  67.902  1.00  0.00    -0.218 C  
HETATM   18  C   UNL     1      -6.690  13.439  68.259  1.00  0.00    -0.105 C  
HETATM   19  C   UNL     1     -11.074  12.987  68.719  1.00  0.00    -0.311 C  
HETATM   20  C   UNL     1      -7.564  14.469  67.551  1.00  0.00    -0.211 C  
ENDROOT
BRANCH   4  21
HETATM   21  O   UNL     1      -7.837   8.411  67.131  1.00  0.00    -0.098 OA 
BRANCH  21  22
HETATM   22  C   UNL     1      -8.335   8.345  65.867  1.00  0.00    -0.134 C  
HETATM   23  O   UNL     1      -8.467   9.301  65.121  1.00  0.00    -0.140 OA 
BRANCH  22  24
HETATM   24  C   UNL     1      -8.755   6.906  65.569  1.00  0.00    -0.041 C  
BRANCH  24  25
HETATM   25  C   UNL     1      -8.798   5.966  66.776  1.00  0.00    -0.118 C  
BRANCH  25  26
HETATM   26  C   UNL     1     -10.170   5.366  67.106  1.00  0.00    -0.266 C  
BRANCH  26  27
HETATM   27  C   UNL     1     -10.986   6.182  68.110  1.00  0.00    -0.398 C  
BRANCH  27  28
HETATM   28  C   UNL     1     -10.654   5.777  69.549  1.00  0.00    -0.390 C  
HETATM   29  C   UNL     1     -11.506   6.533  70.556  1.00  0.00    -0.448 C  
ENDBRANCH  27  28
ENDBRANCH  26  27
ENDBRANCH  25  26
ENDBRANCH  24  25
ENDBRANCH  22  24
ENDBRANCH  21  22
ENDBRANCH   4  21
TORSDOF 7
ENDMDL
MODEL      145
REMARK 921   NORMALIZED FREE ENERGY PREDICTED BY IDOCK:   -3.00 KCAL/MOL
REMARK 922        TOTAL FREE ENERGY PREDICTED BY IDOCK:   -6.38 KCAL/MOL
REMARK 923 INTER-LIGAND FREE ENERGY PREDICTED BY IDOCK:   -4.72 KCAL/MOL
REMARK 924 INTRA-LIGAND FREE ENERGY PREDICTED BY IDOCK:   -1.66 KCAL/MOL
REMARK 927      BINDING AFFINITY PREDICTED BY RF-SCORE:    0.00 PKD
ROOT
HETATM    1  C   UNL     1     -10.179   6.793  68.093  1.00  0.00    -0.198 C  
HETATM    2  C   UNL     1     -11.007   6.235  67.077  1.00  0.00    -0.442 C  
HETATM    3  C   UNL     1      -9.644   5.631  66.947  1.00  0.00    -0.151 C  
HETATM    4  C   UNL     1      -8.363   6.156  68.450  1.00  0.00    -0.114 C  
HETATM    5  C   UNL     1      -6.520   9.985  63.080  1.00  0.00    -0.133 C  
HETATM    6  C   UNL     1      -9.321   5.172  68.518  1.00  0.00    -0.161 C  
HETATM    7  C   UNL     1      -7.936   4.471  67.399  1.00  0.00    -0.100 C  
HETATM    8  C   UNL     1      -7.617  10.424  63.959  1.00  0.00    -0.013 C  
HETATM    9  C   UNL     1      -9.894   4.337  69.618  1.00  0.00    -0.244 C  
HETATM   10  C   UNL     1      -6.424   8.508  62.889  1.00  0.00    -0.090 C  
HETATM   11  C   UNL     1      -7.140   5.832  66.502  1.00  0.00    -0.069 C  
HETATM   12  C   UNL     1      -7.908   9.680  65.043  1.00  0.00    -0.118 C  
HETATM   13  O   UNL     1      -5.809  10.797  62.502  1.00  0.00    -0.148 OA 
HETATM   14  C   UNL     1      -7.974   7.327  66.112  1.00  0.00    -0.112 C  
HETATM   15  C   UNL     1      -6.014   8.960  66.456  1.00  0.00    -0.056 C  
HETATM   16  C   UNL     1      -9.093   7.976  67.204  1.00  0.00    -0.159 C  
HETATM   17  C   UNL     1      -7.066   8.443  65.456  1.00  0.00    -0.074 C  
HETATM   18  C   UNL     1      -9.913   9.055  66.485  1.00  0.00    -0.355 C  
HETATM   19  C   UNL     1      -6.312   7.796  64.231  1.00  0.00    -0.053 C  
HETATM   20  C   UNL     1      -9.008  10.166  65.962  1.00  0.00    -0.174 C  
ENDROOT
BRANCH   4  21
HETATM   21  O   UNL     1      -7.473   5.404  69.414  1.00  0.00    -0.067 OA 
BRANCH  21  22
HETATM   22  C   UNL     1      -6.883   5.993  70.489  1.00  0.00    -0.054 C  
HETATM   23  O   UNL     1      -6.217   5.407  71.325  1.00  0.00    -0.031 OA 
BRANCH  22  24
HETATM   24  C   UNL     1      -7.245   7.478  70.506  1.00  0.00    -0.064 C  
BRANCH  24  25
HETATM   25  C   UNL     1      -8.061   7.947  71.713  1.00  0.00    -0.127 C  
BRANCH  25  26
HETATM   26  C   UNL     1      -9.240   8.876  71.400  1.00  0.00    -0.328 C  
BRANCH  26  27
HETATM   27  C   UNL     1     -10.564   8.439  72.030  1.00  0.00    -0.387 C  
BRANCH  27  28
HETATM   28  C   UNL     1     -11.274   7.400  71.158  1.00  0.00    -0.279 C  
HETATM   29  C   UNL     1     -12.730   7.227  71.562  1.00  0.00    -0.422 C  
ENDBRANCH  27  28
ENDBRANCH  26  27
ENDBRANCH  25  26
ENDBRANCH  24  25
ENDBRANCH  22  24
ENDBRANCH  21  22
ENDBRANCH   4  21
TORSDOF 7
ENDMDL
MODEL      146
REMARK 921   NORMALIZED FREE ENERGY PREDICTED BY IDOCK:   -3.00 KCAL/MOL
REMARK 922        TOTAL FREE ENERGY PREDICTED BY IDOCK:   -6.38 KCAL/MOL
REMARK 923 INTER-LIGAND FREE ENERGY PREDICTED BY IDOCK:   -5.72 KCAL/MOL
REMARK 924 INTRA-LIGAND FREE ENERGY PREDICTED BY IDOCK:   -0.66 KCAL/MOL
REMARK 927      BINDING AFFINITY PREDICTED BY RF-SCORE:    0.00 PKD
ROOT
HETATM    1  C   UNL     1     -10.731  15.016  64.720  1.00  0.00    -0.354 C  
HETATM    2  C   UNL     1     -12.149  14.871  64.714  1.00  0.00    -0.335 C  
HETATM    3  C   UNL     1     -11.712  15.094  66.128  1.00  0.00     0.007 C  
HETATM    4  C   UNL     1      -9.724  15.528  66.318  1.00  0.00    -0.302 C  
HETATM    5  C   UNL     1     -10.326   8.962  68.169  1.00  0.00    -0.212 C  
HETATM    6  C   UNL     1     -10.713  16.420  65.974  1.00  0.00    -0.194 C  
HETATM    7  C   UNL     1     -10.954  16.073  67.841  1.00  0.00    -0.327 C  
HETATM    8  C   UNL     1     -10.195   9.320  66.746  1.00  0.00    -0.325 C  
HETATM    9  C   UNL     1     -10.730  17.825  65.462  1.00  0.00    -0.009 C  
HETATM   10  C   UNL     1     -11.092   9.943  68.993  1.00  0.00    -0.184 C  
HETATM   11  C   UNL     1     -10.424  14.378  68.211  1.00  0.00    -0.245 C  
HETATM   12  C   UNL     1     -10.011  10.614  66.425  1.00  0.00    -0.273 C  
HETATM   13  O   UNL     1      -9.898   7.897  68.595  1.00  0.00    -0.162 OA 
HETATM   14  C   UNL     1     -10.465  13.090  67.020  1.00  0.00    -0.249 C  
HETATM   15  C   UNL     1      -8.308  11.864  67.705  1.00  0.00    -0.149 C  
HETATM   16  C   UNL     1     -10.109  13.429  65.400  1.00  0.00    -0.270 C  
HETATM   17  C   UNL     1      -9.828  11.723  67.496  1.00  0.00    -0.195 C  
HETATM   18  C   UNL     1     -10.554  12.239  64.538  1.00  0.00    -0.346 C  
HETATM   19  C   UNL     1     -10.487  11.336  68.875  1.00  0.00    -0.232 C  
HETATM   20  C   UNL     1      -9.833  10.963  64.962  1.00  0.00    -0.336 C  
ENDROOT
BRANCH   4  21
HETATM   21  O   UNL     1      -8.924  16.622  66.989  1.00  0.00    -0.197 OA 
BRANCH  21  22
HETATM   22  C   UNL     1      -7.623  16.877  66.687  1.00  0.00    -0.266 C  
HETATM   23  O   UNL     1      -7.034  16.431  65.717  1.00  0.00     0.686 OA 
BRANCH  22  24
HETATM   24  C   UNL     1      -7.015  17.748  67.786  1.00  0.00    -0.191 C  
BRANCH  24  25
HETATM   25  C   UNL     1      -7.002  19.253  67.507  1.00  0.00    -0.229 C  
BRANCH  25  26
HETATM   26  C   UNL     1      -6.443  20.135  68.629  1.00  0.00    -0.341 C  
BRANCH  26  27
HETATM   27  C   UNL     1      -6.345  19.435  69.985  1.00  0.00    -0.234 C  
BRANCH  27  28
HETATM   28  C   UNL     1      -5.165  19.973  70.800  1.00  0.00    -0.270 C  
HETATM   29  C   UNL     1      -5.630  20.680  72.064  1.00  0.00     0.011 C  
ENDBRANCH  27  28
ENDBRANCH  26  27
ENDBRANCH  25  26
ENDBRANCH  24  25
ENDBRANCH  22  24
ENDBRANCH  21  22
ENDBRANCH   4  21
TORSDOF 7
ENDMDL
MODEL      147
REMARK 921   NORMALIZED FREE ENERGY PREDICTED BY IDOCK:   -2.98 KCAL/MOL
REMARK 922        TOTAL FREE ENERGY PREDICTED BY IDOCK:   -6.35 KCAL/MOL
REMARK 923 INTER-LIGAND FREE ENERGY PREDICTED BY IDOCK:   -4.93 KCAL/MOL
REMARK 924 INTRA-LIGAND FREE ENERGY PREDICTED BY IDOCK:   -1.42 KCAL/MOL
REMARK 927      BINDING AFFINITY PREDICTED BY RF-SCORE:    0.00 PKD
ROOT
HETATM    1  C   UNL     1     -11.347   8.578  70.478  1.00  0.00    -0.235 C  
HETATM    2  C   UNL     1     -11.274   9.197  71.760  1.00  0.00    -0.451 C  
HETATM    3  C   UNL     1      -9.918   9.273  71.131  1.00  0.00    -0.356 C  
HETATM    4  C   UNL     1      -9.868   8.618  69.196  1.00  0.00    -0.185 C  
HETATM    5  C   UNL     1      -7.202   3.515  72.904  1.00  0.00    -0.046 C  
HETATM    6  C   UNL     1     -10.276   9.863  69.613  1.00  0.00    -0.261 C  
HETATM    7  C   UNL     1      -8.373   9.849  69.809  1.00  0.00    -0.196 C  
HETATM    8  C   UNL     1      -8.662   3.633  72.752  1.00  0.00    -0.100 C  
HETATM    9  C   UNL     1     -10.956  11.022  68.955  1.00  0.00    -0.277 C  
HETATM   10  C   UNL     1      -6.473   4.816  72.968  1.00  0.00    -0.047 C  
HETATM   11  C   UNL     1      -7.820   8.164  70.194  1.00  0.00    -0.098 C  
HETATM   12  C   UNL     1      -9.147   4.608  71.961  1.00  0.00    -0.155 C  
HETATM   13  O   UNL     1      -6.667   2.423  73.046  1.00  0.00    -0.020 OA 
HETATM   14  C   UNL     1      -8.842   6.994  71.013  1.00  0.00    -0.146 C  
HETATM   15  C   UNL     1      -8.104   4.883  69.739  1.00  0.00    -0.069 C  
HETATM   16  C   UNL     1     -10.505   6.963  70.697  1.00  0.00    -0.233 C  
HETATM   17  C   UNL     1      -8.229   5.541  71.126  1.00  0.00    -0.120 C  
HETATM   18  C   UNL     1     -11.194   6.115  71.775  1.00  0.00    -0.338 C  
HETATM   19  C   UNL     1      -6.786   5.671  71.747  1.00  0.00    -0.058 C  
HETATM   20  C   UNL     1     -10.648   4.691  71.777  1.00  0.00    -0.078 C  
ENDROOT
BRANCH   4  21
HETATM   21  O   UNL     1      -9.371   9.182  67.884  1.00  0.00    -0.137 OA 
BRANCH  21  22
HETATM   22  C   UNL     1      -9.622   8.593  66.684  1.00  0.00    -0.221 C  
HETATM   23  O   UNL     1     -10.523   7.798  66.474  1.00  0.00    -0.227 OA 
BRANCH  22  24
HETATM   24  C   UNL     1      -8.560   9.036  65.678  1.00  0.00    -0.187 C  
BRANCH  24  25
HETATM   25  C   UNL     1      -7.160   9.267  66.251  1.00  0.00    -0.087 C  
BRANCH  25  26
HETATM   26  C   UNL     1      -6.528  10.630  65.941  1.00  0.00    -0.121 C  
BRANCH  26  27
HETATM   27  C   UNL     1      -6.478  11.583  67.137  1.00  0.00    -0.123 C  
BRANCH  27  28
HETATM   28  C   UNL     1      -7.822  12.291  67.334  1.00  0.00    -0.171 C  
HETATM   29  C   UNL     1      -7.650  13.797  67.461  1.00  0.00    -0.185 C  
ENDBRANCH  27  28
ENDBRANCH  26  27
ENDBRANCH  25  26
ENDBRANCH  24  25
ENDBRANCH  22  24
ENDBRANCH  21  22
ENDBRANCH   4  21
TORSDOF 7
ENDMDL
MODEL      148
REMARK 921   NORMALIZED FREE ENERGY PREDICTED BY IDOCK:   -2.88 KCAL/MOL
REMARK 922        TOTAL FREE ENERGY PREDICTED BY IDOCK:   -6.21 KCAL/MOL
REMARK 923 INTER-LIGAND FREE ENERGY PREDICTED BY IDOCK:   -3.94 KCAL/MOL
REMARK 924 INTRA-LIGAND FREE ENERGY PREDICTED BY IDOCK:   -2.27 KCAL/MOL
REMARK 927      BINDING AFFINITY PREDICTED BY RF-SCORE:    0.00 PKD
ROOT
HETATM    1  C   UNL     1      -9.617   3.809  65.885  1.00  0.00    -0.166 C  
HETATM    2  C   UNL     1     -10.162   3.969  64.578  1.00  0.00    -0.222 C  
HETATM    3  C   UNL     1      -8.756   4.480  64.559  1.00  0.00    -0.148 C  
HETATM    4  C   UNL     1      -7.734   4.147  66.298  1.00  0.00    -0.090 C  
HETATM    5  C   UNL     1      -9.499  10.762  66.471  1.00  0.00    -0.169 C  
HETATM    6  C   UNL     1      -7.926   3.231  65.291  1.00  0.00    -0.082 C  
HETATM    7  C   UNL     1      -6.643   4.480  64.616  1.00  0.00    -0.043 C  
HETATM    8  C   UNL     1     -10.451   9.731  66.917  1.00  0.00    -0.281 C  
HETATM    9  C   UNL     1      -7.692   1.760  65.148  1.00  0.00    -0.071 C  
HETATM   10  C   UNL     1      -8.620  10.353  65.336  1.00  0.00    -0.183 C  
HETATM   11  C   UNL     1      -6.958   6.115  65.336  1.00  0.00    -0.056 C  
HETATM   12  C   UNL     1     -10.046   8.447  66.933  1.00  0.00    -0.364 C  
HETATM   13  O   UNL     1      -9.507  11.885  66.960  1.00  0.00    -0.182 OA 
HETATM   14  C   UNL     1      -8.550   6.625  65.870  1.00  0.00    -0.153 C  
HETATM   15  C   UNL     1      -7.845   7.971  67.948  1.00  0.00    -0.126 C  
HETATM   16  C   UNL     1      -9.598   5.505  66.587  1.00  0.00    -0.163 C  
HETATM   17  C   UNL     1      -8.589   8.028  66.600  1.00  0.00    -0.141 C  
HETATM   18  C   UNL     1     -11.008   6.107  66.631  1.00  0.00    -0.225 C  
HETATM   19  C   UNL     1      -7.862   9.076  65.674  1.00  0.00    -0.102 C  
HETATM   20  C   UNL     1     -11.020   7.403  67.436  1.00  0.00    -0.214 C  
ENDROOT
BRANCH   4  21
HETATM   21  O   UNL     1      -6.406   3.522  66.659  1.00  0.00    -0.031 OA 
BRANCH  21  22
HETATM   22  C   UNL     1      -5.958   3.427  67.940  1.00  0.00    -0.027 C  
HETATM   23  O   UNL     1      -5.525   2.408  68.452  1.00  0.00    -0.016 OA 
BRANCH  22  24
HETATM   24  C   UNL     1      -6.147   4.774  68.637  1.00  0.00    -0.030 C  
BRANCH  24  25
HETATM   25  C   UNL     1      -6.155   4.733  70.167  1.00  0.00    -0.021 C  
BRANCH  25  26
HETATM   26  C   UNL     1      -7.499   5.045  70.836  1.00  0.00    -0.077 C  
BRANCH  26  27
HETATM   27  C   UNL     1      -8.707   4.906  69.907  1.00  0.00    -0.117 C  
BRANCH  27  28
HETATM   28  C   UNL     1      -9.520   3.653  70.243  1.00  0.00    -0.257 C  
HETATM   29  C   UNL     1      -9.152   2.486  69.340  1.00  0.00    -0.186 C  
ENDBRANCH  27  28
ENDBRANCH  26  27
ENDBRANCH  25  26
ENDBRANCH  24  25
ENDBRANCH  22  24
ENDBRANCH  21  22
ENDBRANCH   4  21
TORSDOF 7
ENDMDL
MODEL      149
REMARK 921   NORMALIZED FREE ENERGY PREDICTED BY IDOCK:   -2.87 KCAL/MOL
REMARK 922        TOTAL FREE ENERGY PREDICTED BY IDOCK:   -6.20 KCAL/MOL
REMARK 923 INTER-LIGAND FREE ENERGY PREDICTED BY IDOCK:   -5.15 KCAL/MOL
REMARK 924 INTRA-LIGAND FREE ENERGY PREDICTED BY IDOCK:   -1.05 KCAL/MOL
REMARK 927      BINDING AFFINITY PREDICTED BY RF-SCORE:    0.00 PKD
ROOT
HETATM    1  C   UNL     1      -6.840   9.881  67.775  1.00  0.00    -0.080 C  
HETATM    2  C   UNL     1      -7.012   9.463  69.127  1.00  0.00    -0.058 C  
HETATM    3  C   UNL     1      -8.301   9.231  68.403  1.00  0.00    -0.119 C  
HETATM    4  C   UNL     1      -8.192   9.580  66.392  1.00  0.00    -0.115 C  
HETATM    5  C   UNL     1     -11.343  15.067  69.013  1.00  0.00    -0.290 C  
HETATM    6  C   UNL     1      -7.787   8.432  67.032  1.00  0.00    -0.096 C  
HETATM    7  C   UNL     1      -9.700   8.393  67.059  1.00  0.00    -0.268 C  
HETATM    8  C   UNL     1      -9.872  14.992  69.007  1.00  0.00    -0.236 C  
HETATM    9  C   UNL     1      -7.014   7.218  66.624  1.00  0.00    -0.073 C  
HETATM   10  C   UNL     1     -12.035  13.760  69.215  1.00  0.00    -0.399 C  
HETATM   11  C   UNL     1     -10.337  10.090  67.126  1.00  0.00    -0.300 C  
HETATM   12  C   UNL     1      -9.286  13.930  68.423  1.00  0.00    -0.201 C  
HETATM   13  O   UNL     1     -11.922  16.143  68.935  1.00  0.00    -0.296 OA 
HETATM   14  C   UNL     1      -9.431  11.415  67.837  1.00  0.00    -0.174 C  
HETATM   15  C   UNL     1     -10.111  13.272  66.190  1.00  0.00    -0.293 C  
HETATM   16  C   UNL     1      -7.747  11.472  67.665  1.00  0.00    -0.123 C  
HETATM   17  C   UNL     1     -10.095  12.840  67.668  1.00  0.00    -0.220 C  
HETATM   18  C   UNL     1      -7.186  12.504  68.653  1.00  0.00    -0.103 C  
HETATM   19  C   UNL     1     -11.585  12.743  68.175  1.00  0.00    -0.380 C  
HETATM   20  C   UNL     1      -7.773  13.886  68.385  1.00  0.00    -0.139 C  
ENDROOT
BRANCH   4  21
HETATM   21  O   UNL     1      -8.548   8.801  65.147  1.00  0.00    -0.175 OA 
BRANCH  21  22
HETATM   22  C   UNL     1      -8.233   9.225  63.893  1.00  0.00    -0.165 C  
HETATM   23  O   UNL     1      -8.105  10.393  63.566  1.00  0.00    -0.159 OA 
BRANCH  22  24
HETATM   24  C   UNL     1      -8.131   8.014  62.966  1.00  0.00    -0.120 C  
BRANCH  24  25
HETATM   25  C   UNL     1      -6.886   7.143  63.147  1.00  0.00    -0.053 C  
BRANCH  25  26
HETATM   26  C   UNL     1      -7.135   5.634  63.246  1.00  0.00    -0.046 C  
BRANCH  26  27
HETATM   27  C   UNL     1      -8.467   5.260  63.899  1.00  0.00    -0.100 C  
BRANCH  27  28
HETATM   28  C   UNL     1      -8.929   3.869  63.455  1.00  0.00    -0.109 C  
HETATM   29  C   UNL     1     -10.427   3.690  63.639  1.00  0.00    -0.262 C  
ENDBRANCH  27  28
ENDBRANCH  26  27
ENDBRANCH  25  26
ENDBRANCH  24  25
ENDBRANCH  22  24
ENDBRANCH  21  22
ENDBRANCH   4  21
TORSDOF 7
ENDMDL
MODEL      150
REMARK 921   NORMALIZED FREE ENERGY PREDICTED BY IDOCK:   -2.85 KCAL/MOL
REMARK 922        TOTAL FREE ENERGY PREDICTED BY IDOCK:   -6.16 KCAL/MOL
REMARK 923 INTER-LIGAND FREE ENERGY PREDICTED BY IDOCK:   -4.73 KCAL/MOL
REMARK 924 INTRA-LIGAND FREE ENERGY PREDICTED BY IDOCK:   -1.44 KCAL/MOL
REMARK 927      BINDING AFFINITY PREDICTED BY RF-SCORE:    0.00 PKD
ROOT
HETATM    1  C   UNL     1      -6.612  17.419  69.388  1.00  0.00    -0.213 C  
HETATM    2  C   UNL     1      -5.313  17.687  68.867  1.00  0.00    -0.157 C  
HETATM    3  C   UNL     1      -6.149  17.126  67.760  1.00  0.00    -0.147 C  
HETATM    4  C   UNL     1      -8.113  16.866  68.262  1.00  0.00    -0.217 C  
HETATM    5  C   UNL     1      -5.334  10.613  68.528  1.00  0.00    -0.040 C  
HETATM    6  C   UNL     1      -7.533  18.050  67.872  1.00  0.00    -0.222 C  
HETATM    7  C   UNL     1      -7.657  16.987  66.286  1.00  0.00    -0.340 C  
HETATM    8  C   UNL     1      -5.232  11.516  69.686  1.00  0.00    -0.058 C  
HETATM    9  C   UNL     1      -7.971  19.480  67.857  1.00  0.00    -0.336 C  
HETATM   10  C   UNL     1      -5.285  11.290  67.199  1.00  0.00    -0.063 C  
HETATM   11  C   UNL     1      -7.510  15.233  66.723  1.00  0.00     0.203 C  
HETATM   12  C   UNL     1      -5.848  12.712  69.623  1.00  0.00    -0.114 C  
HETATM   13  O   UNL     1      -5.374   9.398  68.675  1.00  0.00    -0.037 OA 
HETATM   14  C   UNL     1      -6.633  14.679  68.139  1.00  0.00    -0.139 C  
HETATM   15  C   UNL     1      -8.182  12.737  68.814  1.00  0.00     0.117 C  
HETATM   16  C   UNL     1      -6.670  15.593  69.564  1.00  0.00    -0.185 C  
HETATM   17  C   UNL     1      -6.743  13.127  68.425  1.00  0.00    -0.095 C  
HETATM   18  C   UNL     1      -5.566  15.087  70.502  1.00  0.00    -0.140 C  
HETATM   19  C   UNL     1      -6.361  12.363  67.099  1.00  0.00    -0.093 C  
HETATM   20  C   UNL     1      -5.773  13.613  70.837  1.00  0.00    -0.197 C  
ENDROOT
BRANCH   4  21
HETATM   21  O   UNL     1      -9.438  17.278  67.661  1.00  0.00    -0.241 OA 
BRANCH  21  22
HETATM   22  C   UNL     1     -10.630  17.063  68.281  1.00  0.00    -0.372 C  
HETATM   23  O   UNL     1     -11.645  17.706  68.077  1.00  0.00     0.453 OA 
BRANCH  22  24
HETATM   24  C   UNL     1     -10.465  15.941  69.305  1.00  0.00    -0.253 C  
BRANCH  24  25
HETATM   25  C   UNL     1     -11.388  16.016  70.524  1.00  0.00    -0.420 C  
BRANCH  25  26
HETATM   26  C   UNL     1     -12.327  14.821  70.725  1.00  0.00    -0.397 C  
BRANCH  26  27
HETATM   27  C   UNL     1     -11.932  13.574  69.932  1.00  0.00    -0.416 C  
BRANCH  27  28
HETATM   28  C   UNL     1     -12.481  12.305  70.589  1.00  0.00    -0.323 C  
HETATM   29  C   UNL     1     -12.371  11.101  69.666  1.00  0.00    -0.287 C  
ENDBRANCH  27  28
ENDBRANCH  26  27
ENDBRANCH  25  26
ENDBRANCH  24  25
ENDBRANCH  22  24
ENDBRANCH  21  22
ENDBRANCH   4  21
TORSDOF 7
ENDMDL
MODEL      151
REMARK 921   NORMALIZED FREE ENERGY PREDICTED BY IDOCK:   -2.81 KCAL/MOL
REMARK 922        TOTAL FREE ENERGY PREDICTED BY IDOCK:   -6.12 KCAL/MOL
REMARK 923 INTER-LIGAND FREE ENERGY PREDICTED BY IDOCK:   -4.86 KCAL/MOL
REMARK 924 INTRA-LIGAND FREE ENERGY PREDICTED BY IDOCK:   -1.26 KCAL/MOL
REMARK 927      BINDING AFFINITY PREDICTED BY RF-SCORE:    0.00 PKD
ROOT
HETATM    1  C   UNL     1      -6.860  10.132  68.363  1.00  0.00    -0.061 C  
HETATM    2  C   UNL     1      -6.333  10.480  69.640  1.00  0.00    -0.074 C  
HETATM    3  C   UNL     1      -7.673   9.847  69.849  1.00  0.00    -0.177 C  
HETATM    4  C   UNL     1      -8.503   9.091  68.142  1.00  0.00    -0.129 C  
HETATM    5  C   UNL     1     -11.782  14.992  69.290  1.00  0.00    -0.323 C  
HETATM    6  C   UNL     1      -7.551   8.470  68.916  1.00  0.00    -0.096 C  
HETATM    7  C   UNL     1      -9.180   8.367  69.915  1.00  0.00    -0.151 C  
HETATM    8  C   UNL     1     -10.493  14.989  68.579  1.00  0.00    -0.232 C  
HETATM    9  C   UNL     1      -6.690   7.258  68.753  1.00  0.00    -0.067 C  
HETATM   10  C   UNL     1     -11.909  13.959  70.359  1.00  0.00    -0.335 C  
HETATM   11  C   UNL     1     -10.206   9.816  69.546  1.00  0.00    -0.238 C  
HETATM   12  C   UNL     1      -9.910  13.806  68.312  1.00  0.00    -0.232 C  
HETATM   13  O   UNL     1     -12.633  15.840  69.053  1.00  0.00     0.087 OA 
HETATM   14  C   UNL     1      -9.527  11.355  69.043  1.00  0.00     0.020 C  
HETATM   15  C   UNL     1     -11.339  12.037  67.347  1.00  0.00    -0.393 C  
HETATM   16  C   UNL     1      -8.161  11.387  68.044  1.00  0.00    -0.140 C  
HETATM   17  C   UNL     1     -10.592  12.449  68.630  1.00  0.00    -0.243 C  
HETATM   18  C   UNL     1      -7.580  12.807  68.049  1.00  0.00    -0.131 C  
HETATM   19  C   UNL     1     -11.643  12.567  69.800  1.00  0.00    -0.291 C  
HETATM   20  C   UNL     1      -8.606  13.815  67.541  1.00  0.00    -0.194 C  
ENDROOT
BRANCH   4  21
HETATM   21  O   UNL     1      -9.088   7.758  67.732  1.00  0.00    -0.134 OA 
BRANCH  21  22
HETATM   22  C   UNL     1      -9.980   7.624  66.713  1.00  0.00    -0.247 C  
HETATM   23  O   UNL     1     -10.060   8.375  65.756  1.00  0.00     0.170 OA 
BRANCH  22  24
HETATM   24  C   UNL     1     -10.893   6.433  67.001  1.00  0.00    -0.464 C  
BRANCH  24  25
HETATM   25  C   UNL     1     -10.301   5.349  67.906  1.00  0.00    -0.222 C  
BRANCH  25  26
HETATM   26  C   UNL     1      -9.676   4.147  67.187  1.00  0.00    -0.224 C  
BRANCH  26  27
HETATM   27  C   UNL     1      -8.180   4.295  66.907  1.00  0.00    -0.101 C  
BRANCH  27  28
HETATM   28  C   UNL     1      -7.846   3.900  65.465  1.00  0.00    -0.093 C  
HETATM   29  C   UNL     1      -8.655   4.706  64.461  1.00  0.00    -0.141 C  
ENDBRANCH  27  28
ENDBRANCH  26  27
ENDBRANCH  25  26
ENDBRANCH  24  25
ENDBRANCH  22  24
ENDBRANCH  21  22
ENDBRANCH   4  21
TORSDOF 7
ENDMDL
MODEL      152
REMARK 921   NORMALIZED FREE ENERGY PREDICTED BY IDOCK:   -2.77 KCAL/MOL
REMARK 922        TOTAL FREE ENERGY PREDICTED BY IDOCK:   -6.06 KCAL/MOL
REMARK 923 INTER-LIGAND FREE ENERGY PREDICTED BY IDOCK:   -5.01 KCAL/MOL
REMARK 924 INTRA-LIGAND FREE ENERGY PREDICTED BY IDOCK:   -1.05 KCAL/MOL
REMARK 927      BINDING AFFINITY PREDICTED BY RF-SCORE:    0.00 PKD
ROOT
HETATM    1  C   UNL     1     -11.441  10.919  70.791  1.00  0.00    -0.115 C  
HETATM    2  C   UNL     1     -12.808  10.641  70.498  1.00  0.00    -0.356 C  
HETATM    3  C   UNL     1     -11.974   9.562  69.883  1.00  0.00     0.227 C  
HETATM    4  C   UNL     1      -9.991   9.674  70.368  1.00  0.00    -0.271 C  
HETATM    5  C   UNL     1     -10.436  12.137  63.994  1.00  0.00    -0.386 C  
HETATM    6  C   UNL     1     -10.981   9.129  71.152  1.00  0.00    -0.390 C  
HETATM    7  C   UNL     1     -10.701   7.881  69.728  1.00  0.00    -0.233 C  
HETATM    8  C   UNL     1     -10.695  13.017  65.146  1.00  0.00    -0.324 C  
HETATM    9  C   UNL     1     -11.058   8.651  72.567  1.00  0.00    -0.234 C  
HETATM   10  C   UNL     1     -10.875  10.722  64.177  1.00  0.00     0.095 C  
HETATM   11  C   UNL     1     -10.191   8.776  68.235  1.00  0.00    -0.240 C  
HETATM   12  C   UNL     1     -10.532  12.516  66.385  1.00  0.00    -0.269 C  
HETATM   13  O   UNL     1      -9.970  12.579  62.952  1.00  0.00     0.080 OA 
HETATM   14  C   UNL     1     -10.648  10.443  67.925  1.00  0.00    -0.273 C  
HETATM   15  C   UNL     1      -8.463  11.241  66.824  1.00  0.00    -0.161 C  
HETATM   16  C   UNL     1     -10.748  11.541  69.210  1.00  0.00    -0.171 C  
HETATM   17  C   UNL     1      -9.985  11.087  66.642  1.00  0.00    -0.249 C  
HETATM   18  C   UNL     1     -11.491  12.795  68.729  1.00  0.00    -0.347 C  
HETATM   19  C   UNL     1     -10.245  10.118  65.425  1.00  0.00    -0.281 C  
HETATM   20  C   UNL     1     -10.758  13.444  67.560  1.00  0.00    -0.263 C  
ENDROOT
BRANCH   4  21
HETATM   21  O   UNL     1      -8.969   8.714  70.933  1.00  0.00    -0.154 OA 
BRANCH  21  22
HETATM   22  C   UNL     1      -7.631   8.859  70.734  1.00  0.00    -0.103 C  
HETATM   23  O   UNL     1      -7.017   9.905  70.867  1.00  0.00    -0.310 OA 
BRANCH  22  24
HETATM   24  C   UNL     1      -7.049   7.528  70.261  1.00  0.00    -0.060 C  
BRANCH  24  25
HETATM   25  C   UNL     1      -6.274   7.576  68.941  1.00  0.00    -0.035 C  
BRANCH  25  26
HETATM   26  C   UNL     1      -6.406   6.339  68.045  1.00  0.00    -0.040 C  
BRANCH  26  27
HETATM   27  C   UNL     1      -5.440   6.320  66.859  1.00  0.00    -0.012 C  
BRANCH  27  28
HETATM   28  C   UNL     1      -6.199   6.316  65.529  1.00  0.00    -0.037 C  
HETATM   29  C   UNL     1      -7.562   6.977  65.658  1.00  0.00    -0.093 C  
ENDBRANCH  27  28
ENDBRANCH  26  27
ENDBRANCH  25  26
ENDBRANCH  24  25
ENDBRANCH  22  24
ENDBRANCH  21  22
ENDBRANCH   4  21
TORSDOF 7
ENDMDL
MODEL      153
REMARK 921   NORMALIZED FREE ENERGY PREDICTED BY IDOCK:   -2.72 KCAL/MOL
REMARK 922        TOTAL FREE ENERGY PREDICTED BY IDOCK:   -5.99 KCAL/MOL
REMARK 923 INTER-LIGAND FREE ENERGY PREDICTED BY IDOCK:   -5.00 KCAL/MOL
REMARK 924 INTRA-LIGAND FREE ENERGY PREDICTED BY IDOCK:   -0.99 KCAL/MOL
REMARK 927      BINDING AFFINITY PREDICTED BY RF-SCORE:    0.00 PKD
ROOT
HETATM    1  C   UNL     1      -9.482   7.755  67.436  1.00  0.00    -0.177 C  
HETATM    2  C   UNL     1     -10.611   6.894  67.566  1.00  0.00    -0.351 C  
HETATM    3  C   UNL     1     -10.660   7.894  68.679  1.00  0.00    -0.145 C  
HETATM    4  C   UNL     1      -9.230   9.348  68.545  1.00  0.00    -0.131 C  
HETATM    5  C   UNL     1      -6.962   5.015  73.339  1.00  0.00    -0.076 C  
HETATM    6  C   UNL     1     -10.424   9.329  67.862  1.00  0.00    -0.290 C  
HETATM    7  C   UNL     1     -10.871   9.745  69.676  1.00  0.00    -0.274 C  
HETATM    8  C   UNL     1      -6.712   4.738  71.915  1.00  0.00    -0.043 C  
HETATM    9  C   UNL     1     -11.007  10.129  66.741  1.00  0.00    -0.049 C  
HETATM   10  C   UNL     1      -8.268   5.679  73.627  1.00  0.00    -0.112 C  
HETATM   11  C   UNL     1      -9.682   8.944  70.788  1.00  0.00    -0.281 C  
HETATM   12  C   UNL     1      -7.113   5.645  71.004  1.00  0.00    -0.070 C  
HETATM   13  O   UNL     1      -6.178   4.645  74.203  1.00  0.00    -0.043 OA 
HETATM   14  C   UNL     1      -8.829   7.470  70.362  1.00  0.00    -0.145 C  
HETATM   15  C   UNL     1      -6.561   8.011  71.450  1.00  0.00    -0.044 C  
HETATM   16  C   UNL     1      -8.336   7.215  68.763  1.00  0.00    -0.126 C  
HETATM   17  C   UNL     1      -7.732   7.012  71.404  1.00  0.00    -0.094 C  
HETATM   18  C   UNL     1      -7.945   5.740  68.598  1.00  0.00    -0.101 C  
HETATM   19  C   UNL     1      -8.405   6.969  72.830  1.00  0.00    -0.120 C  
HETATM   20  C   UNL     1      -6.810   5.369  69.547  1.00  0.00    -0.057 C  
ENDROOT
BRANCH   4  21
HETATM   21  O   UNL     1      -9.231  10.860  68.573  1.00  0.00    -0.166 OA 
BRANCH  21  22
HETATM   22  C   UNL     1      -8.123  11.604  68.312  1.00  0.00    -0.150 C  
HETATM   23  O   UNL     1      -7.191  11.757  69.083  1.00  0.00    -0.105 OA 
BRANCH  22  24
HETATM   24  C   UNL     1      -8.272  12.259  66.940  1.00  0.00    -0.112 C  
BRANCH  24  25
HETATM   25  C   UNL     1      -8.951  13.631  66.931  1.00  0.00    -0.229 C  
BRANCH  25  26
HETATM   26  C   UNL     1     -10.481  13.620  67.027  1.00  0.00    -0.270 C  
BRANCH  26  27
HETATM   27  C   UNL     1     -11.181  14.488  65.980  1.00  0.00    -0.337 C  
BRANCH  27  28
HETATM   28  C   UNL     1     -11.232  13.782  64.623  1.00  0.00    -0.383 C  
HETATM   29  C   UNL     1     -12.404  12.816  64.536  1.00  0.00    -0.515 C  
ENDBRANCH  27  28
ENDBRANCH  26  27
ENDBRANCH  25  26
ENDBRANCH  24  25
ENDBRANCH  22  24
ENDBRANCH  21  22
ENDBRANCH   4  21
TORSDOF 7
ENDMDL
MODEL      154
REMARK 921   NORMALIZED FREE ENERGY PREDICTED BY IDOCK:   -2.72 KCAL/MOL
REMARK 922        TOTAL FREE ENERGY PREDICTED BY IDOCK:   -5.98 KCAL/MOL
REMARK 923 INTER-LIGAND FREE ENERGY PREDICTED BY IDOCK:   -4.46 KCAL/MOL
REMARK 924 INTRA-LIGAND FREE ENERGY PREDICTED BY IDOCK:   -1.52 KCAL/MOL
REMARK 927      BINDING AFFINITY PREDICTED BY RF-SCORE:    0.00 PKD
ROOT
HETATM    1  C   UNL     1      -7.813   8.353  67.835  1.00  0.00    -0.107 C  
HETATM    2  C   UNL     1      -7.312   7.205  67.155  1.00  0.00    -0.090 C  
HETATM    3  C   UNL     1      -8.789   7.036  67.322  1.00  0.00    -0.119 C  
HETATM    4  C   UNL     1      -9.725   8.678  68.098  1.00  0.00    -0.158 C  
HETATM    5  C   UNL     1      -9.233   4.248  73.297  1.00  0.00    -0.109 C  
HETATM    6  C   UNL     1      -9.367   8.504  66.782  1.00  0.00    -0.232 C  
HETATM    7  C   UNL     1     -10.864   7.347  67.068  1.00  0.00    -0.307 C  
HETATM    8  C   UNL     1      -8.103   5.135  72.972  1.00  0.00    -0.105 C  
HETATM    9  C   UNL     1      -9.321   9.392  65.579  1.00  0.00    -0.315 C  
HETATM   10  C   UNL     1     -10.022   3.783  72.119  1.00  0.00    -0.239 C  
HETATM   11  C   UNL     1     -10.860   6.772  68.789  1.00  0.00    -0.280 C  
HETATM   12  C   UNL     1      -8.259   6.039  71.987  1.00  0.00    -0.107 C  
HETATM   13  O   UNL     1      -9.434   3.876  74.446  1.00  0.00    -0.101 OA 
HETATM   14  C   UNL     1      -9.390   6.632  69.739  1.00  0.00    -0.145 C  
HETATM   15  C   UNL     1     -10.329   7.387  72.012  1.00  0.00    -0.223 C  
HETATM   16  C   UNL     1      -8.149   7.767  69.541  1.00  0.00    -0.126 C  
HETATM   17  C   UNL     1      -9.613   6.252  71.257  1.00  0.00    -0.189 C  
HETATM   18  C   UNL     1      -6.876   7.225  70.206  1.00  0.00    -0.052 C  
HETATM   19  C   UNL     1     -10.527   4.968  71.305  1.00  0.00    -0.213 C  
HETATM   20  C   UNL     1      -7.106   6.974  71.693  1.00  0.00    -0.070 C  
ENDROOT
BRANCH   4  21
HETATM   21  O   UNL     1     -10.912   9.526  67.699  1.00  0.00    -0.248 OA 
BRANCH  21  22
HETATM   22  C   UNL     1     -11.463  10.459  68.520  1.00  0.00    -0.162 C  
HETATM   23  O   UNL     1     -12.249  10.216  69.420  1.00  0.00     0.060 OA 
BRANCH  22  24
HETATM   24  C   UNL     1     -10.989  11.847  68.090  1.00  0.00    -0.272 C  
BRANCH  24  25
HETATM   25  C   UNL     1      -9.595  12.251  68.576  1.00  0.00    -0.128 C  
BRANCH  25  26
HETATM   26  C   UNL     1      -8.679  12.885  67.522  1.00  0.00    -0.190 C  
BRANCH  26  27
HETATM   27  C   UNL     1      -7.202  12.923  67.919  1.00  0.00    -0.125 C  
BRANCH  27  28
HETATM   28  C   UNL     1      -6.522  11.578  67.644  1.00  0.00    -0.067 C  
HETATM   29  C   UNL     1      -5.374  11.321  68.608  1.00  0.00    -0.043 C  
ENDBRANCH  27  28
ENDBRANCH  26  27
ENDBRANCH  25  26
ENDBRANCH  24  25
ENDBRANCH  22  24
ENDBRANCH  21  22
ENDBRANCH   4  21
TORSDOF 7
ENDMDL
MODEL      155
REMARK 921   NORMALIZED FREE ENERGY PREDICTED BY IDOCK:   -2.69 KCAL/MOL
REMARK 922        TOTAL FREE ENERGY PREDICTED BY IDOCK:   -5.95 KCAL/MOL
REMARK 923 INTER-LIGAND FREE ENERGY PREDICTED BY IDOCK:   -5.47 KCAL/MOL
REMARK 924 INTRA-LIGAND FREE ENERGY PREDICTED BY IDOCK:   -0.48 KCAL/MOL
REMARK 927      BINDING AFFINITY PREDICTED BY RF-SCORE:    0.00 PKD
ROOT
HETATM    1  C   UNL     1     -10.512  10.285  68.106  1.00  0.00    -0.224 C  
HETATM    2  C   UNL     1     -11.207  10.221  66.864  1.00  0.00     0.124 C  
HETATM    3  C   UNL     1      -9.804  10.661  66.587  1.00  0.00    -0.245 C  
HETATM    4  C   UNL     1      -8.587  10.617  68.229  1.00  0.00    -0.128 C  
HETATM    5  C   UNL     1     -10.195  17.215  67.345  1.00  0.00    -0.321 C  
HETATM    6  C   UNL     1      -8.916   9.538  67.443  1.00  0.00    -0.141 C  
HETATM    7  C   UNL     1      -7.700  10.586  66.401  1.00  0.00    -0.135 C  
HETATM    8  C   UNL     1     -11.106  16.325  68.085  1.00  0.00    -0.329 C  
HETATM    9  C   UNL     1      -8.729   8.058  67.556  1.00  0.00    -0.125 C  
HETATM   10  C   UNL     1      -9.467  16.566  66.216  1.00  0.00    -0.339 C  
HETATM   11  C   UNL     1      -7.895  12.338  66.829  1.00  0.00     0.043 C  
HETATM   12  C   UNL     1     -10.726  15.051  68.297  1.00  0.00    -0.253 C  
HETATM   13  O   UNL     1     -10.123  18.408  67.610  1.00  0.00    -0.326 OA 
HETATM   14  C   UNL     1      -9.403  13.004  67.436  1.00  0.00    -0.209 C  
HETATM   15  C   UNL     1      -8.428  14.682  69.125  1.00  0.00    -0.044 C  
HETATM   16  C   UNL     1     -10.377  12.080  68.467  1.00  0.00    -0.228 C  
HETATM   17  C   UNL     1      -9.328  14.518  67.886  1.00  0.00    -0.201 C  
HETATM   18  C   UNL     1     -11.761  12.737  68.557  1.00  0.00    -0.371 C  
HETATM   19  C   UNL     1      -8.697  15.345  66.700  1.00  0.00    -0.332 C  
HETATM   20  C   UNL     1     -11.652  14.159  69.097  1.00  0.00    -0.349 C  
ENDROOT
BRANCH   4  21
HETATM   21  O   UNL     1      -7.237  10.016  68.548  1.00  0.00    -0.074 OA 
BRANCH  21  22
HETATM   22  C   UNL     1      -6.797   9.823  69.821  1.00  0.00    -0.074 C  
HETATM   23  O   UNL     1      -6.756  10.685  70.681  1.00  0.00    -0.332 OA 
BRANCH  22  24
HETATM   24  C   UNL     1      -6.308   8.382  69.967  1.00  0.00    -0.035 C  
BRANCH  24  25
HETATM   25  C   UNL     1      -7.163   7.480  70.860  1.00  0.00    -0.067 C  
BRANCH  25  26
HETATM   26  C   UNL     1      -7.592   6.143  70.243  1.00  0.00    -0.096 C  
BRANCH  26  27
HETATM   27  C   UNL     1      -9.098   6.016  70.009  1.00  0.00    -0.152 C  
BRANCH  27  28
HETATM   28  C   UNL     1      -9.620   4.661  70.495  1.00  0.00    -0.268 C  
HETATM   29  C   UNL     1      -9.390   3.568  69.463  1.00  0.00    -0.243 C  
ENDBRANCH  27  28
ENDBRANCH  26  27
ENDBRANCH  25  26
ENDBRANCH  24  25
ENDBRANCH  22  24
ENDBRANCH  21  22
ENDBRANCH   4  21
TORSDOF 7
ENDMDL
MODEL      156
REMARK 921   NORMALIZED FREE ENERGY PREDICTED BY IDOCK:   -2.67 KCAL/MOL
REMARK 922        TOTAL FREE ENERGY PREDICTED BY IDOCK:   -5.91 KCAL/MOL
REMARK 923 INTER-LIGAND FREE ENERGY PREDICTED BY IDOCK:   -3.74 KCAL/MOL
REMARK 924 INTRA-LIGAND FREE ENERGY PREDICTED BY IDOCK:   -2.17 KCAL/MOL
REMARK 927      BINDING AFFINITY PREDICTED BY RF-SCORE:    0.00 PKD
ROOT
HETATM    1  C   UNL     1      -9.129   4.904  68.975  1.00  0.00    -0.150 C  
HETATM    2  C   UNL     1      -8.816   4.634  67.611  1.00  0.00    -0.114 C  
HETATM    3  C   UNL     1      -7.619   5.271  68.242  1.00  0.00    -0.080 C  
HETATM    4  C   UNL     1      -7.800   5.550  70.259  1.00  0.00    -0.093 C  
HETATM    5  C   UNL     1      -8.871  11.715  67.477  1.00  0.00    -0.158 C  
HETATM    6  C   UNL     1      -7.448   4.374  69.638  1.00  0.00    -0.051 C  
HETATM    7  C   UNL     1      -5.924   5.521  69.479  1.00  0.00    -0.017 C  
HETATM    8  C   UNL     1      -9.978  10.750  67.583  1.00  0.00    -0.199 C  
HETATM    9  C   UNL     1      -7.280   2.957  70.087  1.00  0.00    -0.040 C  
HETATM   10  C   UNL     1      -7.534  11.107  67.215  1.00  0.00    -0.118 C  
HETATM   11  C   UNL     1      -6.476   7.247  69.384  1.00  0.00    -0.036 C  
HETATM   12  C   UNL     1      -9.747   9.574  68.196  1.00  0.00    -0.166 C  
HETATM   13  O   UNL     1      -9.077  12.921  67.525  1.00  0.00    -0.174 OA 
HETATM   14  C   UNL     1      -8.047   7.706  68.749  1.00  0.00    -0.127 C  
HETATM   15  C   UNL     1      -8.561   9.644  70.362  1.00  0.00    -0.200 C  
HETATM   16  C   UNL     1      -9.392   6.719  69.036  1.00  0.00    -0.134 C  
HETATM   17  C   UNL     1      -8.396   9.242  68.884  1.00  0.00    -0.120 C  
HETATM   18  C   UNL     1     -10.528   7.150  68.099  1.00  0.00    -0.244 C  
HETATM   19  C   UNL     1      -7.197  10.066  68.275  1.00  0.00    -0.077 C  
HETATM   20  C   UNL     1     -10.905   8.609  68.338  1.00  0.00     0.003 C  
ENDROOT
BRANCH   4  21
HETATM   21  O   UNL     1      -6.965   5.200  71.470  1.00  0.00    -0.053 OA 
BRANCH  21  22
HETATM   22  C   UNL     1      -7.293   5.589  72.731  1.00  0.00    -0.092 C  
HETATM   23  O   UNL     1      -6.673   5.284  73.736  1.00  0.00    -0.071 OA 
BRANCH  22  24
HETATM   24  C   UNL     1      -8.587   6.401  72.683  1.00  0.00    -0.122 C  
BRANCH  24  25
HETATM   25  C   UNL     1      -9.773   5.804  73.444  1.00  0.00    -0.156 C  
BRANCH  25  26
HETATM   26  C   UNL     1     -11.033   6.676  73.505  1.00  0.00    -0.114 C  
BRANCH  26  27
HETATM   27  C   UNL     1     -11.044   7.832  72.504  1.00  0.00    -0.403 C  
BRANCH  27  28
HETATM   28  C   UNL     1     -12.424   7.990  71.858  1.00  0.00    -0.364 C  
HETATM   29  C   UNL     1     -12.878   6.705  71.183  1.00  0.00    -0.073 C  
ENDBRANCH  27  28
ENDBRANCH  26  27
ENDBRANCH  25  26
ENDBRANCH  24  25
ENDBRANCH  22  24
ENDBRANCH  21  22
ENDBRANCH   4  21
TORSDOF 7
ENDMDL
MODEL      157
REMARK 921   NORMALIZED FREE ENERGY PREDICTED BY IDOCK:   -2.65 KCAL/MOL
REMARK 922        TOTAL FREE ENERGY PREDICTED BY IDOCK:   -5.88 KCAL/MOL
REMARK 923 INTER-LIGAND FREE ENERGY PREDICTED BY IDOCK:   -4.96 KCAL/MOL
REMARK 924 INTRA-LIGAND FREE ENERGY PREDICTED BY IDOCK:   -0.92 KCAL/MOL
REMARK 927      BINDING AFFINITY PREDICTED BY RF-SCORE:    0.00 PKD
ROOT
HETATM    1  C   UNL     1     -10.773  12.606  63.738  1.00  0.00    -0.454 C  
HETATM    2  C   UNL     1     -11.870  11.846  63.237  1.00  0.00    -0.418 C  
HETATM    3  C   UNL     1     -11.711  11.527  64.690  1.00  0.00    -0.049 C  
HETATM    4  C   UNL     1     -10.313  12.677  65.639  1.00  0.00    -0.273 C  
HETATM    5  C   UNL     1      -7.275   6.629  64.595  1.00  0.00    -0.071 C  
HETATM    6  C   UNL     1     -11.609  13.048  65.367  1.00  0.00    -0.374 C  
HETATM    7  C   UNL     1     -11.723  11.773  66.789  1.00  0.00    -0.197 C  
HETATM    8  C   UNL     1      -7.283   7.645  63.529  1.00  0.00    -0.080 C  
HETATM    9  C   UNL     1     -12.373  14.331  65.443  1.00  0.00    -0.421 C  
HETATM   10  C   UNL     1      -8.501   6.603  65.444  1.00  0.00    -0.112 C  
HETATM   11  C   UNL     1     -10.363  10.581  66.640  1.00  0.00    -0.295 C  
HETATM   12  C   UNL     1      -7.831   8.847  63.793  1.00  0.00    -0.138 C  
HETATM   13  O   UNL     1      -6.353   5.830  64.699  1.00  0.00    -0.031 OA 
HETATM   14  C   UNL     1      -9.615  10.184  65.102  1.00  0.00    -0.354 C  
HETATM   15  C   UNL     1      -7.184   9.940  65.911  1.00  0.00    -0.108 C  
HETATM   16  C   UNL     1      -9.415  11.387  63.928  1.00  0.00    -0.171 C  
HETATM   17  C   UNL     1      -8.355   9.234  65.202  1.00  0.00    -0.155 C  
HETATM   18  C   UNL     1      -9.075  10.717  62.590  1.00  0.00    -0.321 C  
HETATM   19  C   UNL     1      -8.765   7.973  66.055  1.00  0.00    -0.183 C  
HETATM   20  C   UNL     1      -7.794   9.897  62.703  1.00  0.00    -0.131 C  
ENDROOT
BRANCH   4  21
HETATM   21  O   UNL     1     -10.294  13.533  66.885  1.00  0.00    -0.260 OA 
BRANCH  21  22
HETATM   22  C   UNL     1      -9.154  13.810  67.574  1.00  0.00    -0.209 C  
HETATM   23  O   UNL     1      -9.116  14.327  68.678  1.00  0.00    -0.195 OA 
BRANCH  22  24
HETATM   24  C   UNL     1      -7.947  13.430  66.716  1.00  0.00     0.332 C  
BRANCH  24  25
HETATM   25  C   UNL     1      -6.887  12.570  67.408  1.00  0.00    -0.145 C  
BRANCH  25  26
HETATM   26  C   UNL     1      -7.174  12.202  68.869  1.00  0.00    -0.079 C  
BRANCH  26  27
HETATM   27  C   UNL     1      -6.096  11.334  69.520  1.00  0.00    -0.085 C  
BRANCH  27  28
HETATM   28  C   UNL     1      -6.675   9.998  69.993  1.00  0.00    -0.112 C  
HETATM   29  C   UNL     1      -8.160  10.107  70.302  1.00  0.00     0.128 C  
ENDBRANCH  27  28
ENDBRANCH  26  27
ENDBRANCH  25  26
ENDBRANCH  24  25
ENDBRANCH  22  24
ENDBRANCH  21  22
ENDBRANCH   4  21
TORSDOF 7
ENDMDL
MODEL      158
REMARK 921   NORMALIZED FREE ENERGY PREDICTED BY IDOCK:   -2.57 KCAL/MOL
REMARK 922        TOTAL FREE ENERGY PREDICTED BY IDOCK:   -5.77 KCAL/MOL
REMARK 923 INTER-LIGAND FREE ENERGY PREDICTED BY IDOCK:   -4.92 KCAL/MOL
REMARK 924 INTRA-LIGAND FREE ENERGY PREDICTED BY IDOCK:   -0.86 KCAL/MOL
REMARK 927      BINDING AFFINITY PREDICTED BY RF-SCORE:    0.00 PKD
ROOT
HETATM    1  C   UNL     1      -6.838   8.630  66.807  1.00  0.00    -0.069 C  
HETATM    2  C   UNL     1      -5.832   9.582  66.472  1.00  0.00    -0.055 C  
HETATM    3  C   UNL     1      -6.444   9.994  67.773  1.00  0.00    -0.066 C  
HETATM    4  C   UNL     1      -7.774   8.638  68.526  1.00  0.00    -0.100 C  
HETATM    5  C   UNL     1     -11.609  13.627  65.825  1.00  0.00    -0.333 C  
HETATM    6  C   UNL     1      -6.405   8.569  68.639  1.00  0.00    -0.053 C  
HETATM    7  C   UNL     1      -6.953   9.968  69.824  1.00  0.00    -0.107 C  
HETATM    8  C   UNL     1     -11.098  12.543  64.970  1.00  0.00    -0.335 C  
HETATM    9  C   UNL     1      -5.440   7.525  69.102  1.00  0.00    -0.015 C  
HETATM   10  C   UNL     1     -10.695  14.036  66.931  1.00  0.00    -0.285 C  
HETATM   11  C   UNL     1      -8.439  10.772  69.161  1.00  0.00    -0.105 C  
HETATM   12  C   UNL     1     -10.404  11.544  65.546  1.00  0.00    -0.322 C  
HETATM   13  O   UNL     1     -12.671  14.183  65.574  1.00  0.00    -0.507 OA 
HETATM   14  C   UNL     1      -8.806  10.819  67.445  1.00  0.00    -0.129 C  
HETATM   15  C   UNL     1     -11.360  10.541  67.591  1.00  0.00    -0.233 C  
HETATM   16  C   UNL     1      -8.421   9.494  66.465  1.00  0.00    -0.130 C  
HETATM   17  C   UNL     1     -10.215  11.438  67.083  1.00  0.00    -0.234 C  
HETATM   18  C   UNL     1      -8.515   9.924  64.995  1.00  0.00    -0.161 C  
HETATM   19  C   UNL     1     -10.326  12.839  67.798  1.00  0.00    -0.222 C  
HETATM   20  C   UNL     1      -9.921  10.413  64.662  1.00  0.00    -0.408 C  
ENDROOT
BRANCH   4  21
HETATM   21  O   UNL     1      -7.953   7.931  69.851  1.00  0.00    -0.105 OA 
BRANCH  21  22
HETATM   22  C   UNL     1      -8.746   6.836  70.003  1.00  0.00    -0.141 C  
HETATM   23  O   UNL     1      -8.700   5.842  69.300  1.00  0.00    -0.112 OA 
BRANCH  22  24
HETATM   24  C   UNL     1      -9.731   7.087  71.144  1.00  0.00    -0.173 C  
BRANCH  24  25
HETATM   25  C   UNL     1      -9.167   7.840  72.352  1.00  0.00    -0.218 C  
BRANCH  25  26
HETATM   26  C   UNL     1      -8.028   7.140  73.103  1.00  0.00    -0.113 C  
BRANCH  26  27
HETATM   27  C   UNL     1      -8.035   5.616  72.972  1.00  0.00    -0.104 C  
BRANCH  27  28
HETATM   28  C   UNL     1      -6.687   5.020  73.388  1.00  0.00    -0.069 C  
HETATM   29  C   UNL     1      -5.909   4.500  72.190  1.00  0.00    -0.015 C  
ENDBRANCH  27  28
ENDBRANCH  26  27
ENDBRANCH  25  26
ENDBRANCH  24  25
ENDBRANCH  22  24
ENDBRANCH  21  22
ENDBRANCH   4  21
TORSDOF 7
ENDMDL
MODEL      159
REMARK 921   NORMALIZED FREE ENERGY PREDICTED BY IDOCK:   -2.47 KCAL/MOL
REMARK 922        TOTAL FREE ENERGY PREDICTED BY IDOCK:   -5.63 KCAL/MOL
REMARK 923 INTER-LIGAND FREE ENERGY PREDICTED BY IDOCK:   -4.71 KCAL/MOL
REMARK 924 INTRA-LIGAND FREE ENERGY PREDICTED BY IDOCK:   -0.93 KCAL/MOL
REMARK 927      BINDING AFFINITY PREDICTED BY RF-SCORE:    0.00 PKD
ROOT
HETATM    1  C   UNL     1      -7.326   9.455  68.277  1.00  0.00    -0.078 C  
HETATM    2  C   UNL     1      -6.676   8.633  67.311  1.00  0.00    -0.063 C  
HETATM    3  C   UNL     1      -8.036   8.063  67.564  1.00  0.00    -0.123 C  
HETATM    4  C   UNL     1      -9.204   9.224  68.774  1.00  0.00    -0.136 C  
HETATM    5  C   UNL     1      -6.981   4.117  72.759  1.00  0.00    -0.057 C  
HETATM    6  C   UNL     1      -9.006   9.414  67.427  1.00  0.00    -0.134 C  
HETATM    7  C   UNL     1     -10.142   7.880  67.572  1.00  0.00    -0.276 C  
HETATM    8  C   UNL     1      -6.142   5.308  72.548  1.00  0.00    -0.027 C  
HETATM    9  C   UNL     1      -9.335  10.505  66.459  1.00  0.00    -0.189 C  
HETATM   10  C   UNL     1      -7.801   3.712  71.580  1.00  0.00    -0.061 C  
HETATM   11  C   UNL     1      -9.763   6.993  69.108  1.00  0.00    -0.156 C  
HETATM   12  C   UNL     1      -6.639   6.321  71.813  1.00  0.00    -0.058 C  
HETATM   13  O   UNL     1      -6.928   3.484  73.806  1.00  0.00    -0.043 OA 
HETATM   14  C   UNL     1      -8.181   7.045  69.868  1.00  0.00    -0.130 C  
HETATM   15  C   UNL     1      -8.937   7.066  72.328  1.00  0.00    -0.144 C  
HETATM   16  C   UNL     1      -7.273   8.474  69.827  1.00  0.00    -0.052 C  
HETATM   17  C   UNL     1      -8.094   6.325  71.273  1.00  0.00    -0.118 C  
HETATM   18  C   UNL     1      -5.830   8.152  70.235  1.00  0.00    -0.028 C  
HETATM   19  C   UNL     1      -8.674   4.867  71.106  1.00  0.00    -0.143 C  
HETATM   20  C   UNL     1      -5.783   7.558  71.640  1.00  0.00    -0.036 C  
ENDROOT
BRANCH   4  21
HETATM   21  O   UNL     1     -10.598   9.804  68.685  1.00  0.00    -0.208 OA 
BRANCH  21  22
HETATM   22  C   UNL     1     -11.201  10.440  69.725  1.00  0.00    -0.293 C  
HETATM   23  O   UNL     1     -11.737   9.880  70.666  1.00  0.00    -0.284 OA 
BRANCH  22  24
HETATM   24  C   UNL     1     -11.152  11.949  69.485  1.00  0.00    -0.169 C  
BRANCH  24  25
HETATM   25  C   UNL     1     -12.014  12.464  68.331  1.00  0.00    -0.269 C  
BRANCH  25  26
HETATM   26  C   UNL     1     -11.494  13.717  67.616  1.00  0.00    -0.354 C  
BRANCH  26  27
HETATM   27  C   UNL     1     -10.744  13.429  66.314  1.00  0.00    -0.290 C  
BRANCH  27  28
HETATM   28  C   UNL     1     -11.687  13.491  65.109  1.00  0.00    -0.341 C  
HETATM   29  C   UNL     1     -11.418  12.362  64.127  1.00  0.00    -0.448 C  
ENDBRANCH  27  28
ENDBRANCH  26  27
ENDBRANCH  25  26
ENDBRANCH  24  25
ENDBRANCH  22  24
ENDBRANCH  21  22
ENDBRANCH   4  21
TORSDOF 7
ENDMDL
MODEL      160
REMARK 921   NORMALIZED FREE ENERGY PREDICTED BY IDOCK:   -2.40 KCAL/MOL
REMARK 922        TOTAL FREE ENERGY PREDICTED BY IDOCK:   -5.53 KCAL/MOL
REMARK 923 INTER-LIGAND FREE ENERGY PREDICTED BY IDOCK:   -3.93 KCAL/MOL
REMARK 924 INTRA-LIGAND FREE ENERGY PREDICTED BY IDOCK:   -1.60 KCAL/MOL
REMARK 927      BINDING AFFINITY PREDICTED BY RF-SCORE:    0.00 PKD
ROOT
HETATM    1  C   UNL     1     -10.226   9.519  66.983  1.00  0.00    -0.321 C  
HETATM    2  C   UNL     1     -10.989  10.012  68.081  1.00  0.00    -0.289 C  
HETATM    3  C   UNL     1      -9.548  10.000  68.486  1.00  0.00    -0.157 C  
HETATM    4  C   UNL     1      -8.269   9.514  66.969  1.00  0.00    -0.113 C  
HETATM    5  C   UNL     1      -8.772   3.857  70.796  1.00  0.00    -0.073 C  
HETATM    6  C   UNL     1      -8.820  10.755  67.189  1.00  0.00    -0.135 C  
HETATM    7  C   UNL     1      -7.502  10.523  68.557  1.00  0.00    -0.091 C  
HETATM    8  C   UNL     1      -9.779   4.140  69.760  1.00  0.00    -0.278 C  
HETATM    9  C   UNL     1      -8.882  12.031  66.412  1.00  0.00    -0.126 C  
HETATM   10  C   UNL     1      -8.229   5.063  71.486  1.00  0.00    -0.114 C  
HETATM   11  C   UNL     1      -7.371   8.763  68.977  1.00  0.00    -0.073 C  
HETATM   12  C   UNL     1      -9.611   5.226  68.982  1.00  0.00    -0.199 C  
HETATM   13  O   UNL     1      -8.483   2.707  71.100  1.00  0.00    -0.060 OA 
HETATM   14  C   UNL     1      -8.707   7.640  68.782  1.00  0.00    -0.128 C  
HETATM   15  C   UNL     1      -7.368   5.582  68.010  1.00  0.00    -0.073 C  
HETATM   16  C   UNL     1      -9.766   7.811  67.472  1.00  0.00    -0.201 C  
HETATM   17  C   UNL     1      -8.350   6.126  69.066  1.00  0.00    -0.112 C  
HETATM   18  C   UNL     1     -11.010   6.950  67.730  1.00  0.00    -0.280 C  
HETATM   19  C   UNL     1      -7.653   6.050  70.479  1.00  0.00    -0.092 C  
HETATM   20  C   UNL     1     -10.630   5.481  67.891  1.00  0.00    -0.219 C  
ENDROOT
BRANCH   4  21
HETATM   21  O   UNL     1      -7.025  10.135  66.373  1.00  0.00    -0.095 OA 
BRANCH  21  22
HETATM   22  C   UNL     1      -6.510   9.751  65.174  1.00  0.00    -0.095 C  
HETATM   23  O   UNL     1      -5.765  10.431  64.489  1.00  0.00    -0.127 OA 
BRANCH  22  24
HETATM   24  C   UNL     1      -7.065   8.376  64.808  1.00  0.00    -0.080 C  
BRANCH  24  25
HETATM   25  C   UNL     1      -6.156   7.187  65.130  1.00  0.00    -0.037 C  
BRANCH  25  26
HETATM   26  C   UNL     1      -6.751   5.800  64.863  1.00  0.00    -0.047 C  
BRANCH  26  27
HETATM   27  C   UNL     1      -8.277   5.784  64.755  1.00  0.00    -0.135 C  
BRANCH  27  28
HETATM   28  C   UNL     1      -8.736   4.958  63.549  1.00  0.00    -0.107 C  
HETATM   29  C   UNL     1      -7.840   5.182  62.341  1.00  0.00    -0.071 C  
ENDBRANCH  27  28
ENDBRANCH  26  27
ENDBRANCH  25  26
ENDBRANCH  24  25
ENDBRANCH  22  24
ENDBRANCH  21  22
ENDBRANCH   4  21
TORSDOF 7
ENDMDL
MODEL      161
REMARK 921   NORMALIZED FREE ENERGY PREDICTED BY IDOCK:   -2.38 KCAL/MOL
REMARK 922        TOTAL FREE ENERGY PREDICTED BY IDOCK:   -5.51 KCAL/MOL
REMARK 923 INTER-LIGAND FREE ENERGY PREDICTED BY IDOCK:   -4.64 KCAL/MOL
REMARK 924 INTRA-LIGAND FREE ENERGY PREDICTED BY IDOCK:   -0.86 KCAL/MOL
REMARK 927      BINDING AFFINITY PREDICTED BY RF-SCORE:    0.00 PKD
ROOT
HETATM    1  C   UNL     1     -10.848  11.792  66.653  1.00  0.00    -0.318 C  
HETATM    2  C   UNL     1     -12.164  11.543  66.168  1.00  0.00     1.331 C  
HETATM    3  C   UNL     1     -11.959  13.024  66.208  1.00  0.00    -0.477 C  
HETATM    4  C   UNL     1     -10.051  13.580  66.686  1.00  0.00    -0.277 C  
HETATM    5  C   UNL     1     -13.700  14.535  72.402  1.00  0.00    -0.480 C  
HETATM    6  C   UNL     1     -10.486  13.188  65.442  1.00  0.00    -0.307 C  
HETATM    7  C   UNL     1     -11.209  14.938  65.716  1.00  0.00    -0.334 C  
HETATM    8  C   UNL     1     -13.157  13.203  72.086  1.00  0.00    -0.481 C  
HETATM    9  C   UNL     1      -9.812  12.846  64.151  1.00  0.00     0.079 C  
HETATM   10  C   UNL     1     -14.128  15.334  71.216  1.00  0.00    -0.527 C  
HETATM   11  C   UNL     1     -11.523  15.190  67.485  1.00  0.00    -0.306 C  
HETATM   12  C   UNL     1     -12.388  13.068  70.989  1.00  0.00    -0.335 C  
HETATM   13  O   UNL     1     -13.851  14.898  73.561  1.00  0.00     0.017 OA 
HETATM   14  C   UNL     1     -11.868  13.866  68.585  1.00  0.00    -0.407 C  
HETATM   15  C   UNL     1     -10.604  14.741  70.648  1.00  0.00     0.256 C  
HETATM   16  C   UNL     1     -11.094  12.374  68.376  1.00  0.00    -0.288 C  
HETATM   17  C   UNL     1     -11.969  14.276  70.109  1.00  0.00    -0.391 C  
HETATM   18  C   UNL     1     -11.820  11.320  69.223  1.00  0.00    -0.423 C  
HETATM   19  C   UNL     1     -12.984  15.478  70.220  1.00  0.00    -0.141 C  
HETATM   20  C   UNL     1     -11.800  11.703  70.700  1.00  0.00    -0.238 C  
ENDROOT
BRANCH   4  21
HETATM   21  O   UNL     1      -9.013  14.493  66.073  1.00  0.00    -0.064 OA 
BRANCH  21  22
HETATM   22  C   UNL     1      -7.887  14.879  66.731  1.00  0.00     0.188 C  
HETATM   23  O   UNL     1      -7.031  14.117  67.149  1.00  0.00    -0.146 OA 
BRANCH  22  24
HETATM   24  C   UNL     1      -7.909  16.396  66.913  1.00  0.00    -0.273 C  
BRANCH  24  25
HETATM   25  C   UNL     1      -8.231  16.889  68.326  1.00  0.00    -0.222 C  
BRANCH  25  26
HETATM   26  C   UNL     1      -7.036  17.013  69.278  1.00  0.00    -0.198 C  
BRANCH  26  27
HETATM   27  C   UNL     1      -6.260  15.710  69.481  1.00  0.00    -0.152 C  
BRANCH  27  28
HETATM   28  C   UNL     1      -6.854  14.887  70.628  1.00  0.00     0.358 C  
HETATM   29  C   UNL     1      -5.983  13.688  70.969  1.00  0.00    -0.086 C  
ENDBRANCH  27  28
ENDBRANCH  26  27
ENDBRANCH  25  26
ENDBRANCH  24  25
ENDBRANCH  22  24
ENDBRANCH  21  22
ENDBRANCH   4  21
TORSDOF 7
ENDMDL
MODEL      162
REMARK 921   NORMALIZED FREE ENERGY PREDICTED BY IDOCK:   -2.34 KCAL/MOL
REMARK 922        TOTAL FREE ENERGY PREDICTED BY IDOCK:   -5.45 KCAL/MOL
REMARK 923 INTER-LIGAND FREE ENERGY PREDICTED BY IDOCK:   -4.33 KCAL/MOL
REMARK 924 INTRA-LIGAND FREE ENERGY PREDICTED BY IDOCK:   -1.11 KCAL/MOL
REMARK 927      BINDING AFFINITY PREDICTED BY RF-SCORE:    0.00 PKD
ROOT
HETATM    1  C   UNL     1     -10.294   9.779  67.458  1.00  0.00    -0.291 C  
HETATM    2  C   UNL     1     -11.246   9.758  68.519  1.00  0.00    -0.069 C  
HETATM    3  C   UNL     1      -9.880   9.654  69.121  1.00  0.00    -0.189 C  
HETATM    4  C   UNL     1      -8.364   9.873  67.768  1.00  0.00    -0.114 C  
HETATM    5  C   UNL     1      -8.755   3.143  68.974  1.00  0.00    -0.086 C  
HETATM    6  C   UNL     1      -9.071  10.896  68.355  1.00  0.00    -0.164 C  
HETATM    7  C   UNL     1      -7.930  10.201  69.726  1.00  0.00    -0.172 C  
HETATM    8  C   UNL     1      -9.639   3.768  67.976  1.00  0.00    -0.179 C  
HETATM    9  C   UNL     1      -9.167  12.371  68.132  1.00  0.00    -0.205 C  
HETATM   10  C   UNL     1      -8.443   3.999  70.156  1.00  0.00    -0.093 C  
HETATM   11  C   UNL     1      -7.666   8.428  69.448  1.00  0.00    -0.097 C  
HETATM   12  C   UNL     1      -9.488   5.080  67.717  1.00  0.00    -0.159 C  
HETATM   13  O   UNL     1      -8.385   1.982  68.853  1.00  0.00    -0.054 OA 
HETATM   14  C   UNL     1      -8.833   7.414  68.617  1.00  0.00    -0.126 C  
HETATM   15  C   UNL     1      -7.188   5.899  67.344  1.00  0.00    -0.076 C  
HETATM   16  C   UNL     1      -9.721   8.041  67.319  1.00  0.00    -0.232 C  
HETATM   17  C   UNL     1      -8.354   5.931  68.349  1.00  0.00    -0.112 C  
HETATM   18  C   UNL     1     -10.887   7.091  67.015  1.00  0.00    -0.413 C  
HETATM   19  C   UNL     1      -7.849   5.331  69.718  1.00  0.00    -0.073 C  
HETATM   20  C   UNL     1     -10.374   5.700  66.657  1.00  0.00    -0.311 C  
ENDROOT
BRANCH   4  21
HETATM   21  O   UNL     1      -7.127  10.738  67.673  1.00  0.00    -0.087 OA 
BRANCH  21  22
HETATM   22  C   UNL     1      -6.449  10.933  66.510  1.00  0.00    -0.128 C  
HETATM   23  O   UNL     1      -6.706  10.379  65.454  1.00  0.00    -0.127 OA 
BRANCH  22  24
HETATM   24  C   UNL     1      -5.291  11.898  66.761  1.00  0.00    -0.051 C  
BRANCH  24  25
HETATM   25  C   UNL     1      -5.233  12.512  68.162  1.00  0.00    -0.069 C  
BRANCH  25  26
HETATM   26  C   UNL     1      -5.146  14.041  68.218  1.00  0.00    -0.111 C  
BRANCH  26  27
HETATM   27  C   UNL     1      -6.474  14.753  67.957  1.00  0.00    -0.163 C  
BRANCH  27  28
HETATM   28  C   UNL     1      -6.948  15.511  69.201  1.00  0.00    -0.158 C  
HETATM   29  C   UNL     1      -6.261  16.861  69.332  1.00  0.00    -0.226 C  
ENDBRANCH  27  28
ENDBRANCH  26  27
ENDBRANCH  25  26
ENDBRANCH  24  25
ENDBRANCH  22  24
ENDBRANCH  21  22
ENDBRANCH   4  21
TORSDOF 7
ENDMDL
MODEL      163
REMARK 921   NORMALIZED FREE ENERGY PREDICTED BY IDOCK:   -2.27 KCAL/MOL
REMARK 922        TOTAL FREE ENERGY PREDICTED BY IDOCK:   -5.35 KCAL/MOL
REMARK 923 INTER-LIGAND FREE ENERGY PREDICTED BY IDOCK:   -4.57 KCAL/MOL
REMARK 924 INTRA-LIGAND FREE ENERGY PREDICTED BY IDOCK:   -0.78 KCAL/MOL
REMARK 927      BINDING AFFINITY PREDICTED BY RF-SCORE:    0.00 PKD
ROOT
HETATM    1  C   UNL     1     -12.557  12.478  69.411  1.00  0.00     0.477 C  
HETATM    2  C   UNL     1     -12.242  12.251  70.782  1.00  0.00    -0.354 C  
HETATM    3  C   UNL     1     -11.175  13.124  70.200  1.00  0.00     0.311 C  
HETATM    4  C   UNL     1     -11.558  13.730  68.287  1.00  0.00    -0.338 C  
HETATM    5  C   UNL     1      -6.936   8.711  67.703  1.00  0.00    -0.075 C  
HETATM    6  C   UNL     1     -12.074  14.298  69.428  1.00  0.00    -0.361 C  
HETATM    7  C   UNL     1     -10.235  14.826  69.372  1.00  0.00    -0.141 C  
HETATM    8  C   UNL     1      -8.369   8.388  67.811  1.00  0.00    -0.130 C  
HETATM    9  C   UNL     1     -13.139  15.309  69.711  1.00  0.00     0.342 C  
HETATM   10  C   UNL     1      -6.504   9.906  68.486  1.00  0.00    -0.050 C  
HETATM   11  C   UNL     1      -9.260  13.528  68.563  1.00  0.00    -0.101 C  
HETATM   12  C   UNL     1      -9.253   9.401  67.857  1.00  0.00    -0.139 C  
HETATM   13  O   UNL     1      -6.170   7.990  67.076  1.00  0.00    -0.052 OA 
HETATM   14  C   UNL     1      -9.735  11.838  68.576  1.00  0.00    -0.181 C  
HETATM   15  C   UNL     1      -8.983  11.210  66.196  1.00  0.00    -0.205 C  
HETATM   16  C   UNL     1     -11.374  11.423  68.486  1.00  0.00    -0.333 C  
HETATM   17  C   UNL     1      -8.831  10.886  67.694  1.00  0.00    -0.133 C  
HETATM   18  C   UNL     1     -11.529   9.944  68.866  1.00  0.00     0.022 C  
HETATM   19  C   UNL     1      -7.328  11.128  68.105  1.00  0.00    -0.087 C  
HETATM   20  C   UNL     1     -10.726   9.054  67.923  1.00  0.00    -0.200 C  
ENDROOT
BRANCH   4  21
HETATM   21  O   UNL     1     -11.592  15.061  67.569  1.00  0.00    -0.344 OA 
BRANCH  21  22
HETATM   22  C   UNL     1     -11.303  15.195  66.247  1.00  0.00    -0.219 C  
HETATM   23  O   UNL     1     -11.613  14.393  65.382  1.00  0.00    -0.332 OA 
BRANCH  22  24
HETATM   24  C   UNL     1     -10.480  16.466  66.041  1.00  0.00    -0.333 C  
BRANCH  24  25
HETATM   25  C   UNL     1     -10.652  17.547  67.112  1.00  0.00    -0.264 C  
BRANCH  25  26
HETATM   26  C   UNL     1      -9.986  18.895  66.813  1.00  0.00    -0.403 C  
BRANCH  26  27
HETATM   27  C   UNL     1      -8.491  18.941  67.136  1.00  0.00    -0.290 C  
BRANCH  27  28
HETATM   28  C   UNL     1      -7.705  19.629  66.017  1.00  0.00    -0.335 C  
HETATM   29  C   UNL     1      -6.528  18.784  65.556  1.00  0.00    -0.317 C  
ENDBRANCH  27  28
ENDBRANCH  26  27
ENDBRANCH  25  26
ENDBRANCH  24  25
ENDBRANCH  22  24
ENDBRANCH  21  22
ENDBRANCH   4  21
TORSDOF 7
ENDMDL
MODEL      164
REMARK 921   NORMALIZED FREE ENERGY PREDICTED BY IDOCK:   -2.24 KCAL/MOL
REMARK 922        TOTAL FREE ENERGY PREDICTED BY IDOCK:   -5.31 KCAL/MOL
REMARK 923 INTER-LIGAND FREE ENERGY PREDICTED BY IDOCK:   -4.14 KCAL/MOL
REMARK 924 INTRA-LIGAND FREE ENERGY PREDICTED BY IDOCK:   -1.17 KCAL/MOL
REMARK 927      BINDING AFFINITY PREDICTED BY RF-SCORE:    0.00 PKD
ROOT
HETATM    1  C   UNL     1      -9.238  16.619  65.427  1.00  0.00     0.737 C  
HETATM    2  C   UNL     1     -10.523  17.205  65.239  1.00  0.00    -0.003 C  
HETATM    3  C   UNL     1     -10.165  17.330  66.686  1.00  0.00    -0.319 C  
HETATM    4  C   UNL     1      -8.261  16.727  67.119  1.00  0.00    -0.184 C  
HETATM    5  C   UNL     1     -12.298  11.593  69.179  1.00  0.00     0.031 C  
HETATM    6  C   UNL     1      -8.619  17.951  66.605  1.00  0.00    -0.283 C  
HETATM    7  C   UNL     1      -9.173  17.976  68.437  1.00  0.00    -0.301 C  
HETATM    8  C   UNL     1     -11.874  11.680  67.771  1.00  0.00    -0.247 C  
HETATM    9  C   UNL     1      -7.869  19.110  66.030  1.00  0.00    -0.254 C  
HETATM   10  C   UNL     1     -12.527  12.908  69.846  1.00  0.00    -0.034 C  
HETATM   11  C   UNL     1      -9.620  16.295  68.954  1.00  0.00    -0.243 C  
HETATM   12  C   UNL     1     -11.026  12.664  67.417  1.00  0.00    -0.289 C  
HETATM   13  O   UNL     1     -12.515  10.510  69.708  1.00  0.00    -0.235 OA 
HETATM   14  C   UNL     1     -10.204  15.081  67.829  1.00  0.00    -0.236 C  
HETATM   15  C   UNL     1      -9.049  13.022  68.854  1.00  0.00     0.311 C  
HETATM   16  C   UNL     1      -9.579  15.018  66.257  1.00  0.00    -0.335 C  
HETATM   17  C   UNL     1     -10.401  13.640  68.450  1.00  0.00    -0.248 C  
HETATM   18  C   UNL     1     -10.488  14.127  65.401  1.00  0.00    -0.372 C  
HETATM   19  C   UNL     1     -11.287  13.787  69.746  1.00  0.00    -0.200 C  
HETATM   20  C   UNL     1     -10.563  12.716  65.976  1.00  0.00    -0.294 C  
ENDROOT
BRANCH   4  21
HETATM   21  O   UNL     1      -7.080  17.337  67.839  1.00  0.00    -0.162 OA 
BRANCH  21  22
HETATM   22  C   UNL     1      -6.214  16.604  68.592  1.00  0.00    -0.142 C  
HETATM   23  O   UNL     1      -5.912  16.856  69.746  1.00  0.00    -0.215 OA 
BRANCH  22  24
HETATM   24  C   UNL     1      -5.645  15.471  67.739  1.00  0.00    -0.139 C  
BRANCH  24  25
HETATM   25  C   UNL     1      -5.579  14.101  68.417  1.00  0.00    -0.106 C  
BRANCH  25  26
HETATM   26  C   UNL     1      -5.251  12.917  67.499  1.00  0.00    -0.046 C  
BRANCH  26  27
HETATM   27  C   UNL     1      -6.475  12.119  67.045  1.00  0.00    -0.088 C  
BRANCH  27  28
HETATM   28  C   UNL     1      -6.062  10.900  66.216  1.00  0.00    -0.137 C  
HETATM   29  C   UNL     1      -7.177  10.450  65.284  1.00  0.00    -0.106 C  
ENDBRANCH  27  28
ENDBRANCH  26  27
ENDBRANCH  25  26
ENDBRANCH  24  25
ENDBRANCH  22  24
ENDBRANCH  21  22
ENDBRANCH   4  21
TORSDOF 7
ENDMDL
MODEL      165
REMARK 921   NORMALIZED FREE ENERGY PREDICTED BY IDOCK:   -2.21 KCAL/MOL
REMARK 922        TOTAL FREE ENERGY PREDICTED BY IDOCK:   -5.26 KCAL/MOL
REMARK 923 INTER-LIGAND FREE ENERGY PREDICTED BY IDOCK:   -3.95 KCAL/MOL
REMARK 924 INTRA-LIGAND FREE ENERGY PREDICTED BY IDOCK:   -1.31 KCAL/MOL
REMARK 927      BINDING AFFINITY PREDICTED BY RF-SCORE:    0.00 PKD
ROOT
HETATM    1  C   UNL     1     -11.037   6.970  69.176  1.00  0.00    -0.143 C  
HETATM    2  C   UNL     1     -11.016   5.860  70.069  1.00  0.00    -0.430 C  
HETATM    3  C   UNL     1      -9.728   6.604  70.225  1.00  0.00    -0.182 C  
HETATM    4  C   UNL     1      -9.653   8.353  69.171  1.00  0.00    -0.164 C  
HETATM    5  C   UNL     1      -5.941   3.890  65.538  1.00  0.00    -0.023 C  
HETATM    6  C   UNL     1     -10.257   8.177  70.393  1.00  0.00    -0.203 C  
HETATM    7  C   UNL     1      -8.375   8.145  70.737  1.00  0.00    -0.120 C  
HETATM    8  C   UNL     1      -7.403   3.939  65.377  1.00  0.00    -0.072 C  
HETATM    9  C   UNL     1     -11.164   9.005  71.247  1.00  0.00    -0.385 C  
HETATM   10  C   UNL     1      -5.454   4.166  66.922  1.00  0.00    -0.013 C  
HETATM   11  C   UNL     1      -7.511   7.461  69.296  1.00  0.00    -0.092 C  
HETATM   12  C   UNL     1      -8.093   4.873  66.057  1.00  0.00    -0.108 C  
HETATM   13  O   UNL     1      -5.212   3.567  64.609  1.00  0.00    -0.008 OA 
HETATM   14  C   UNL     1      -8.266   6.329  68.187  1.00  0.00    -0.115 C  
HETATM   15  C   UNL     1      -7.222   7.184  65.996  1.00  0.00    -0.074 C  
HETATM   16  C   UNL     1      -9.909   6.486  67.812  1.00  0.00    -0.139 C  
HETATM   17  C   UNL     1      -7.398   5.962  66.917  1.00  0.00    -0.079 C  
HETATM   18  C   UNL     1     -10.384   5.198  67.125  1.00  0.00    -0.246 C  
HETATM   19  C   UNL     1      -5.973   5.509  67.419  1.00  0.00    -0.022 C  
HETATM   20  C   UNL     1      -9.591   4.941  65.848  1.00  0.00    -0.185 C  
ENDROOT
BRANCH   4  21
HETATM   21  O   UNL     1      -9.327   9.793  69.501  1.00  0.00    -0.185 OA 
BRANCH  21  22
HETATM   22  C   UNL     1      -9.538  10.816  68.631  1.00  0.00    -0.187 C  
HETATM   23  O   UNL     1      -9.692  11.982  68.953  1.00  0.00    -0.073 OA 
BRANCH  22  24
HETATM   24  C   UNL     1      -9.612  10.257  67.210  1.00  0.00    -0.186 C  
BRANCH  24  25
HETATM   25  C   UNL     1      -8.645  10.881  66.201  1.00  0.00    -0.170 C  
BRANCH  25  26
HETATM   26  C   UNL     1      -7.232  10.285  66.174  1.00  0.00    -0.121 C  
BRANCH  26  27
HETATM   27  C   UNL     1      -6.389  10.618  67.405  1.00  0.00    -0.058 C  
BRANCH  27  28
HETATM   28  C   UNL     1      -6.399  12.123  67.691  1.00  0.00    -0.109 C  
HETATM   29  C   UNL     1      -5.243  12.532  68.590  1.00  0.00    -0.059 C  
ENDBRANCH  27  28
ENDBRANCH  26  27
ENDBRANCH  25  26
ENDBRANCH  24  25
ENDBRANCH  22  24
ENDBRANCH  21  22
ENDBRANCH   4  21
TORSDOF 7
ENDMDL
MODEL      166
REMARK 921   NORMALIZED FREE ENERGY PREDICTED BY IDOCK:   -2.18 KCAL/MOL
REMARK 922        TOTAL FREE ENERGY PREDICTED BY IDOCK:   -5.22 KCAL/MOL
REMARK 923 INTER-LIGAND FREE ENERGY PREDICTED BY IDOCK:   -3.95 KCAL/MOL
REMARK 924 INTRA-LIGAND FREE ENERGY PREDICTED BY IDOCK:   -1.28 KCAL/MOL
REMARK 927      BINDING AFFINITY PREDICTED BY RF-SCORE:    0.00 PKD
ROOT
HETATM    1  C   UNL     1     -10.212   7.422  70.904  1.00  0.00    -0.195 C  
HETATM    2  C   UNL     1     -10.688   6.121  71.237  1.00  0.00    -0.310 C  
HETATM    3  C   UNL     1      -9.192   6.079  71.234  1.00  0.00    -0.156 C  
HETATM    4  C   UNL     1      -8.317   7.908  70.977  1.00  0.00    -0.111 C  
HETATM    5  C   UNL     1      -7.817   4.793  64.899  1.00  0.00    -0.091 C  
HETATM    6  C   UNL     1      -8.810   7.412  72.161  1.00  0.00    -0.144 C  
HETATM    7  C   UNL     1      -7.195   6.441  71.824  1.00  0.00    -0.087 C  
HETATM    8  C   UNL     1      -9.049   5.513  65.261  1.00  0.00    -0.021 C  
HETATM    9  C   UNL     1      -9.072   7.990  73.516  1.00  0.00    -0.327 C  
HETATM   10  C   UNL     1      -7.133   4.112  66.038  1.00  0.00    -0.067 C  
HETATM   11  C   UNL     1      -6.950   6.284  70.034  1.00  0.00    -0.066 C  
HETATM   12  C   UNL     1      -9.087   6.170  66.436  1.00  0.00    -0.158 C  
HETATM   13  O   UNL     1      -7.452   4.711  63.733  1.00  0.00    -0.057 OA 
HETATM   14  C   UNL     1      -8.282   6.286  68.890  1.00  0.00    -0.113 C  
HETATM   15  C   UNL     1      -7.152   7.603  66.989  1.00  0.00    -0.084 C  
HETATM   16  C   UNL     1      -9.630   7.270  69.170  1.00  0.00    -0.155 C  
HETATM   17  C   UNL     1      -7.851   6.284  67.368  1.00  0.00    -0.101 C  
HETATM   18  C   UNL     1     -10.765   6.827  68.237  1.00  0.00    -0.290 C  
HETATM   19  C   UNL     1      -6.831   5.100  67.156  1.00  0.00    -0.060 C  
HETATM   20  C   UNL     1     -10.344   6.943  66.776  1.00  0.00    -0.287 C  
ENDROOT
BRANCH   4  21
HETATM   21  O   UNL     1      -7.263   8.706  71.711  1.00  0.00    -0.096 OA 
BRANCH  21  22
HETATM   22  C   UNL     1      -6.554   9.708  71.125  1.00  0.00     0.021 C  
HETATM   23  O   UNL     1      -5.566  10.235  71.608  1.00  0.00    -0.256 OA 
BRANCH  22  24
HETATM   24  C   UNL     1      -7.233  10.101  69.813  1.00  0.00    -0.141 C  
BRANCH  24  25
HETATM   25  C   UNL     1      -6.795  11.440  69.215  1.00  0.00    -0.119 C  
BRANCH  25  26
HETATM   26  C   UNL     1      -7.523  11.869  67.936  1.00  0.00    -0.114 C  
BRANCH  26  27
HETATM   27  C   UNL     1      -7.780  13.374  67.838  1.00  0.00    -0.153 C  
BRANCH  27  28
HETATM   28  C   UNL     1      -8.870  13.813  68.820  1.00  0.00     0.044 C  
HETATM   29  C   UNL     1     -10.238  13.292  68.410  1.00  0.00    -0.249 C  
ENDBRANCH  27  28
ENDBRANCH  26  27
ENDBRANCH  25  26
ENDBRANCH  24  25
ENDBRANCH  22  24
ENDBRANCH  21  22
ENDBRANCH   4  21
TORSDOF 7
ENDMDL
MODEL      167
REMARK 921   NORMALIZED FREE ENERGY PREDICTED BY IDOCK:   -2.01 KCAL/MOL
REMARK 922        TOTAL FREE ENERGY PREDICTED BY IDOCK:   -4.98 KCAL/MOL
REMARK 923 INTER-LIGAND FREE ENERGY PREDICTED BY IDOCK:   -3.96 KCAL/MOL
REMARK 924 INTRA-LIGAND FREE ENERGY PREDICTED BY IDOCK:   -1.02 KCAL/MOL
REMARK 927      BINDING AFFINITY PREDICTED BY RF-SCORE:    0.00 PKD
ROOT
HETATM    1  C   UNL     1      -9.733   6.192  71.103  1.00  0.00    -0.199 C  
HETATM    2  C   UNL     1      -9.793   5.087  72.000  1.00  0.00    -0.226 C  
HETATM    3  C   UNL     1      -8.363   5.512  71.885  1.00  0.00    -0.119 C  
HETATM    4  C   UNL     1      -8.097   7.221  70.795  1.00  0.00    -0.111 C  
HETATM    5  C   UNL     1      -6.289   2.107  66.614  1.00  0.00    -0.024 C  
HETATM    6  C   UNL     1      -8.475   7.160  72.116  1.00  0.00    -0.118 C  
HETATM    7  C   UNL     1      -6.620   6.690  72.086  1.00  0.00    -0.058 C  
HETATM    8  C   UNL     1      -7.704   2.493  66.740  1.00  0.00    -0.071 C  
HETATM    9  C   UNL     1      -8.984   8.155  73.110  1.00  0.00    -0.330 C  
HETATM   10  C   UNL     1      -5.492   2.233  67.870  1.00  0.00    -0.017 C  
HETATM   11  C   UNL     1      -6.234   5.858  70.521  1.00  0.00    -0.031 C  
HETATM   12  C   UNL     1      -8.015   3.546  67.519  1.00  0.00    -0.081 C  
HETATM   13  O   UNL     1      -5.850   1.646  65.568  1.00  0.00    -0.015 OA 
HETATM   14  C   UNL     1      -7.430   4.954  69.608  1.00  0.00    -0.056 C  
HETATM   15  C   UNL     1      -6.667   5.596  67.235  1.00  0.00    -0.059 C  
HETATM   16  C   UNL     1      -9.035   5.493  69.557  1.00  0.00    -0.129 C  
HETATM   17  C   UNL     1      -6.935   4.427  68.202  1.00  0.00    -0.056 C  
HETATM   18  C   UNL     1      -9.916   4.364  69.006  1.00  0.00    -0.100 C  
HETATM   19  C   UNL     1      -5.582   3.648  68.427  1.00  0.00    -0.017 C  
HETATM   20  C   UNL     1      -9.469   3.960  67.605  1.00  0.00    -0.233 C  
ENDROOT
BRANCH   4  21
HETATM   21  O   UNL     1      -7.392   8.539  71.022  1.00  0.00    -0.058 OA 
BRANCH  21  22
HETATM   22  C   UNL     1      -7.681   9.663  70.312  1.00  0.00    -0.172 C  
HETATM   23  O   UNL     1      -7.068  10.714  70.393  1.00  0.00    -0.249 OA 
BRANCH  22  24
HETATM   24  C   UNL     1      -8.923   9.409  69.458  1.00  0.00    -0.167 C  
BRANCH  24  25
HETATM   25  C   UNL     1      -8.664   9.152  67.971  1.00  0.00    -0.129 C  
BRANCH  25  26
HETATM   26  C   UNL     1      -9.840   9.434  67.030  1.00  0.00    -0.258 C  
BRANCH  26  27
HETATM   27  C   UNL     1     -10.742  10.584  67.483  1.00  0.00    -0.326 C  
BRANCH  27  28
HETATM   28  C   UNL     1     -10.995  11.571  66.339  1.00  0.00    -0.336 C  
HETATM   29  C   UNL     1     -12.133  12.526  66.662  1.00  0.00    -0.212 C  
ENDBRANCH  27  28
ENDBRANCH  26  27
ENDBRANCH  25  26
ENDBRANCH  24  25
ENDBRANCH  22  24
ENDBRANCH  21  22
ENDBRANCH   4  21
TORSDOF 7
ENDMDL
MODEL      168
REMARK 921   NORMALIZED FREE ENERGY PREDICTED BY IDOCK:   -1.98 KCAL/MOL
REMARK 922        TOTAL FREE ENERGY PREDICTED BY IDOCK:   -4.93 KCAL/MOL
REMARK 923 INTER-LIGAND FREE ENERGY PREDICTED BY IDOCK:   -3.77 KCAL/MOL
REMARK 924 INTRA-LIGAND FREE ENERGY PREDICTED BY IDOCK:   -1.16 KCAL/MOL
REMARK 927      BINDING AFFINITY PREDICTED BY RF-SCORE:    0.00 PKD
ROOT
HETATM    1  C   UNL     1      -5.913  14.208  67.313  1.00  0.00     0.504 C  
HETATM    2  C   UNL     1      -5.128  14.636  68.423  1.00  0.00    -0.108 C  
HETATM    3  C   UNL     1      -6.525  14.405  68.906  1.00  0.00    -0.094 C  
HETATM    4  C   UNL     1      -7.760  13.587  67.497  1.00  0.00    -0.175 C  
HETATM    5  C   UNL     1      -9.418  20.228  67.724  1.00  0.00    -0.322 C  
HETATM    6  C   UNL     1      -6.861  12.897  68.277  1.00  0.00    -0.093 C  
HETATM    7  C   UNL     1      -8.295  13.384  69.447  1.00  0.00     0.899 C  
HETATM    8  C   UNL     1      -8.290  19.776  66.893  1.00  0.00    -0.348 C  
HETATM    9  C   UNL     1      -6.329  11.499  68.280  1.00  0.00    -0.046 C  
HETATM   10  C   UNL     1      -9.603  19.467  68.995  1.00  0.00    -0.419 C  
HETATM   11  C   UNL     1      -9.017  14.954  68.894  1.00  0.00    -0.184 C  
HETATM   12  C   UNL     1      -8.035  18.456  66.820  1.00  0.00    -0.261 C  
HETATM   13  O   UNL     1     -10.085  21.205  67.408  1.00  0.00    -0.111 OA 
HETATM   14  C   UNL     1      -8.099  16.159  68.006  1.00  0.00    -0.149 C  
HETATM   15  C   UNL     1      -9.955  16.957  66.412  1.00  0.00    -0.321 C  
HETATM   16  C   UNL     1      -6.934  15.669  66.880  1.00  0.00     0.081 C  
HETATM   17  C   UNL     1      -8.945  17.392  67.490  1.00  0.00    -0.231 C  
HETATM   18  C   UNL     1      -6.057  16.877  66.522  1.00  0.00    -0.106 C  
HETATM   19  C   UNL     1      -9.746  17.977  68.717  1.00  0.00    -0.336 C  
HETATM   20  C   UNL     1      -6.899  18.002  65.928  1.00  0.00    -0.332 C  
ENDROOT
BRANCH   4  21
HETATM   21  O   UNL     1      -8.684  12.392  67.444  1.00  0.00    -0.166 OA 
BRANCH  21  22
HETATM   22  C   UNL     1      -9.343  12.017  66.315  1.00  0.00    -0.223 C  
HETATM   23  O   UNL     1      -8.891  12.102  65.185  1.00  0.00     0.425 OA 
BRANCH  22  24
HETATM   24  C   UNL     1     -10.747  11.542  66.689  1.00  0.00    -0.311 C  
BRANCH  24  25
HETATM   25  C   UNL     1     -11.451  12.352  67.781  1.00  0.00    -0.383 C  
BRANCH  25  26
HETATM   26  C   UNL     1     -11.834  13.788  67.405  1.00  0.00    -0.431 C  
BRANCH  26  27
HETATM   27  C   UNL     1     -12.523  14.567  68.527  1.00  0.00     0.166 C  
BRANCH  27  28
HETATM   28  C   UNL     1     -11.833  14.323  69.872  1.00  0.00    -0.382 C  
HETATM   29  C   UNL     1     -12.687  13.470  70.796  1.00  0.00    -0.316 C  
ENDBRANCH  27  28
ENDBRANCH  26  27
ENDBRANCH  25  26
ENDBRANCH  24  25
ENDBRANCH  22  24
ENDBRANCH  21  22
ENDBRANCH   4  21
TORSDOF 7
ENDMDL
MODEL      169
REMARK 921   NORMALIZED FREE ENERGY PREDICTED BY IDOCK:   -1.96 KCAL/MOL
REMARK 922        TOTAL FREE ENERGY PREDICTED BY IDOCK:   -4.91 KCAL/MOL
REMARK 923 INTER-LIGAND FREE ENERGY PREDICTED BY IDOCK:   -3.74 KCAL/MOL
REMARK 924 INTRA-LIGAND FREE ENERGY PREDICTED BY IDOCK:   -1.17 KCAL/MOL
REMARK 927      BINDING AFFINITY PREDICTED BY RF-SCORE:    0.00 PKD
ROOT
HETATM    1  C   UNL     1     -10.367   8.027  68.462  1.00  0.00    -0.229 C  
HETATM    2  C   UNL     1     -11.271   7.241  69.234  1.00  0.00     0.026 C  
HETATM    3  C   UNL     1     -10.060   7.511  70.071  1.00  0.00    -0.199 C  
HETATM    4  C   UNL     1      -8.730   8.800  69.207  1.00  0.00    -0.135 C  
HETATM    5  C   UNL     1      -6.022   2.567  68.360  1.00  0.00    -0.024 C  
HETATM    6  C   UNL     1      -9.872   9.158  69.884  1.00  0.00    -0.206 C  
HETATM    7  C   UNL     1      -8.638   8.568  71.224  1.00  0.00    -0.219 C  
HETATM    8  C   UNL     1      -7.023   3.073  67.407  1.00  0.00    -0.049 C  
HETATM    9  C   UNL     1     -10.629  10.434  70.068  1.00  0.00    -0.282 C  
HETATM   10  C   UNL     1      -6.229   3.000  69.774  1.00  0.00    -0.028 C  
HETATM   11  C   UNL     1      -7.559   7.288  70.527  1.00  0.00    -0.088 C  
HETATM   12  C   UNL     1      -7.483   4.328  67.566  1.00  0.00    -0.069 C  
HETATM   13  O   UNL     1      -5.146   1.789  68.005  1.00  0.00    -0.007 OA 
HETATM   14  C   UNL     1      -8.057   6.243  69.207  1.00  0.00    -0.110 C  
HETATM   15  C   UNL     1      -5.811   6.103  67.960  1.00  0.00    -0.016 C  
HETATM   16  C   UNL     1      -9.041   6.856  67.973  1.00  0.00    -0.120 C  
HETATM   17  C   UNL     1      -6.925   5.291  68.648  1.00  0.00    -0.057 C  
HETATM   18  C   UNL     1      -9.605   5.681  67.163  1.00  0.00    -0.137 C  
HETATM   19  C   UNL     1      -6.295   4.518  69.869  1.00  0.00    -0.027 C  
HETATM   20  C   UNL     1      -8.479   4.852  66.553  1.00  0.00    -0.110 C  
ENDROOT
BRANCH   4  21
HETATM   21  O   UNL     1      -8.036  10.073  69.636  1.00  0.00    -0.139 OA 
BRANCH  21  22
HETATM   22  C   UNL     1      -6.964  10.588  68.976  1.00  0.00    -0.076 C  
HETATM   23  O   UNL     1      -5.903  10.009  68.815  1.00  0.00    -0.035 OA 
BRANCH  22  24
HETATM   24  C   UNL     1      -7.286  12.015  68.536  1.00  0.00    -0.101 C  
BRANCH  24  25
HETATM   25  C   UNL     1      -8.334  12.147  67.428  1.00  0.00    -0.174 C  
BRANCH  25  26
HETATM   26  C   UNL     1      -8.938  13.544  67.244  1.00  0.00    -0.222 C  
BRANCH  26  27
HETATM   27  C   UNL     1      -9.665  14.080  68.478  1.00  0.00    -0.215 C  
BRANCH  27  28
HETATM   28  C   UNL     1     -11.183  13.949  68.325  1.00  0.00    -0.298 C  
HETATM   29  C   UNL     1     -11.876  13.835  69.674  1.00  0.00    -0.393 C  
ENDBRANCH  27  28
ENDBRANCH  26  27
ENDBRANCH  25  26
ENDBRANCH  24  25
ENDBRANCH  22  24
ENDBRANCH  21  22
ENDBRANCH   4  21
TORSDOF 7
ENDMDL
MODEL      170
REMARK 921   NORMALIZED FREE ENERGY PREDICTED BY IDOCK:   -1.91 KCAL/MOL
REMARK 922        TOTAL FREE ENERGY PREDICTED BY IDOCK:   -4.84 KCAL/MOL
REMARK 923 INTER-LIGAND FREE ENERGY PREDICTED BY IDOCK:   -3.79 KCAL/MOL
REMARK 924 INTRA-LIGAND FREE ENERGY PREDICTED BY IDOCK:   -1.04 KCAL/MOL
REMARK 927      BINDING AFFINITY PREDICTED BY RF-SCORE:    0.00 PKD
ROOT
HETATM    1  C   UNL     1     -11.087   8.666  68.711  1.00  0.00     0.239 C  
HETATM    2  C   UNL     1     -11.389   7.959  69.911  1.00  0.00     0.034 C  
HETATM    3  C   UNL     1     -10.017   8.541  70.049  1.00  0.00    -0.191 C  
HETATM    4  C   UNL     1      -9.482   9.767  68.504  1.00  0.00    -0.145 C  
HETATM    5  C   UNL     1      -6.213   3.862  67.345  1.00  0.00    -0.036 C  
HETATM    6  C   UNL     1     -10.264  10.121  69.578  1.00  0.00    -0.258 C  
HETATM    7  C   UNL     1      -8.482   9.978  70.261  1.00  0.00     0.054 C  
HETATM    8  C   UNL     1      -7.607   4.034  66.903  1.00  0.00    -0.084 C  
HETATM    9  C   UNL     1     -11.107  11.309  69.918  1.00  0.00    -0.183 C  
HETATM   10  C   UNL     1      -5.871   4.555  68.621  1.00  0.00    -0.025 C  
HETATM   11  C   UNL     1      -7.577   8.716  69.322  1.00  0.00    -0.094 C  
HETATM   12  C   UNL     1      -8.196   5.230  67.088  1.00  0.00    -0.108 C  
HETATM   13  O   UNL     1      -5.440   3.136  66.732  1.00  0.00    -0.018 OA 
HETATM   14  C   UNL     1      -8.376   7.366  68.535  1.00  0.00    -0.126 C  
HETATM   15  C   UNL     1      -6.913   7.233  66.422  1.00  0.00    -0.069 C  
HETATM   16  C   UNL     1      -9.898   7.584  67.826  1.00  0.00    -0.191 C  
HETATM   17  C   UNL     1      -7.431   6.459  67.649  1.00  0.00    -0.093 C  
HETATM   18  C   UNL     1     -10.507   6.206  67.534  1.00  0.00    -0.301 C  
HETATM   19  C   UNL     1      -6.193   6.041  68.533  1.00  0.00    -0.032 C  
HETATM   20  C   UNL     1      -9.615   5.407  66.590  1.00  0.00    -0.161 C  
ENDROOT
BRANCH   4  21
HETATM   21  O   UNL     1      -8.943  11.175  68.389  1.00  0.00    -0.152 OA 
BRANCH  21  22
HETATM   22  C   UNL     1      -8.267  11.620  67.295  1.00  0.00    -0.159 C  
HETATM   23  O   UNL     1      -7.740  10.901  66.463  1.00  0.00    -0.138 OA 
BRANCH  22  24
HETATM   24  C   UNL     1      -8.225  13.148  67.321  1.00  0.00    -0.172 C  
BRANCH  24  25
HETATM   25  C   UNL     1      -9.531  13.840  67.720  1.00  0.00    -0.216 C  
BRANCH  25  26
HETATM   26  C   UNL     1      -9.467  14.711  68.980  1.00  0.00    -0.127 C  
BRANCH  26  27
HETATM   27  C   UNL     1     -10.779  15.421  69.318  1.00  0.00    -0.251 C  
BRANCH  27  28
HETATM   28  C   UNL     1     -10.930  15.612  70.830  1.00  0.00    -0.343 C  
HETATM   29  C   UNL     1     -12.364  15.393  71.284  1.00  0.00    -0.446 C  
ENDBRANCH  27  28
ENDBRANCH  26  27
ENDBRANCH  25  26
ENDBRANCH  24  25
ENDBRANCH  22  24
ENDBRANCH  21  22
ENDBRANCH   4  21
TORSDOF 7
ENDMDL
MODEL      171
REMARK 921   NORMALIZED FREE ENERGY PREDICTED BY IDOCK:   -1.86 KCAL/MOL
REMARK 922        TOTAL FREE ENERGY PREDICTED BY IDOCK:   -4.77 KCAL/MOL
REMARK 923 INTER-LIGAND FREE ENERGY PREDICTED BY IDOCK:   -3.04 KCAL/MOL
REMARK 924 INTRA-LIGAND FREE ENERGY PREDICTED BY IDOCK:   -1.73 KCAL/MOL
REMARK 927      BINDING AFFINITY PREDICTED BY RF-SCORE:    0.00 PKD
ROOT
HETATM    1  C   UNL     1     -10.343   8.204  68.362  1.00  0.00    -0.236 C  
HETATM    2  C   UNL     1     -11.317   7.431  69.058  1.00  0.00     0.292 C  
HETATM    3  C   UNL     1     -10.187   7.708  69.999  1.00  0.00    -0.213 C  
HETATM    4  C   UNL     1      -8.779   8.982  69.244  1.00  0.00    -0.138 C  
HETATM    5  C   UNL     1      -6.029   2.732  68.729  1.00  0.00    -0.024 C  
HETATM    6  C   UNL     1      -9.977   9.352  69.809  1.00  0.00    -0.217 C  
HETATM    7  C   UNL     1      -8.873   8.777  71.263  1.00  0.00    -0.288 C  
HETATM    8  C   UNL     1      -6.936   3.228  67.681  1.00  0.00    -0.050 C  
HETATM    9  C   UNL     1     -10.742  10.633  69.906  1.00  0.00    -0.260 C  
HETATM   10  C   UNL     1      -6.363   3.183  70.112  1.00  0.00    -0.028 C  
HETATM   11  C   UNL     1      -7.740   7.484  70.684  1.00  0.00    -0.090 C  
HETATM   12  C   UNL     1      -7.404   4.486  67.781  1.00  0.00    -0.069 C  
HETATM   13  O   UNL     1      -5.127   1.946  68.465  1.00  0.00    -0.007 OA 
HETATM   14  C   UNL     1      -8.119   6.424  69.338  1.00  0.00    -0.118 C  
HETATM   15  C   UNL     1      -5.768   6.261  68.304  1.00  0.00    -0.012 C  
HETATM   16  C   UNL     1      -8.983   7.023  68.011  1.00  0.00    -0.126 C  
HETATM   17  C   UNL     1      -6.943   5.462  68.897  1.00  0.00    -0.056 C  
HETATM   18  C   UNL     1      -9.475   5.839  67.168  1.00  0.00    -0.121 C  
HETATM   19  C   UNL     1      -6.432   4.703  70.181  1.00  0.00    -0.035 C  
HETATM   20  C   UNL     1      -8.301   5.000  66.675  1.00  0.00    -0.107 C  
ENDROOT
BRANCH   4  21
HETATM   21  O   UNL     1      -8.122  10.259  69.718  1.00  0.00    -0.166 OA 
BRANCH  21  22
HETATM   22  C   UNL     1      -6.903  10.670  69.277  1.00  0.00    -0.086 C  
HETATM   23  O   UNL     1      -5.898   9.980  69.266  1.00  0.00    -0.038 OA 
BRANCH  22  24
HETATM   24  C   UNL     1      -6.989  12.140  68.867  1.00  0.00    -0.102 C  
BRANCH  24  25
HETATM   25  C   UNL     1      -7.417  12.400  67.420  1.00  0.00    -0.157 C  
BRANCH  25  26
HETATM   26  C   UNL     1      -8.761  11.792  67.002  1.00  0.00    -0.181 C  
BRANCH  26  27
HETATM   27  C   UNL     1      -8.653  10.720  65.916  1.00  0.00    -0.182 C  
BRANCH  27  28
HETATM   28  C   UNL     1      -7.196  10.302  65.697  1.00  0.00    -0.148 C  
HETATM   29  C   UNL     1      -6.980   8.831  66.014  1.00  0.00    -0.080 C  
ENDBRANCH  27  28
ENDBRANCH  26  27
ENDBRANCH  25  26
ENDBRANCH  24  25
ENDBRANCH  22  24
ENDBRANCH  21  22
ENDBRANCH   4  21
TORSDOF 7
ENDMDL
MODEL      172
REMARK 921   NORMALIZED FREE ENERGY PREDICTED BY IDOCK:   -1.76 KCAL/MOL
REMARK 922        TOTAL FREE ENERGY PREDICTED BY IDOCK:   -4.63 KCAL/MOL
REMARK 923 INTER-LIGAND FREE ENERGY PREDICTED BY IDOCK:   -5.16 KCAL/MOL
REMARK 924 INTRA-LIGAND FREE ENERGY PREDICTED BY IDOCK:    0.53 KCAL/MOL
REMARK 927      BINDING AFFINITY PREDICTED BY RF-SCORE:    0.00 PKD
ROOT
HETATM    1  C   UNL     1     -11.213  16.535  69.253  1.00  0.00    -0.213 C  
HETATM    2  C   UNL     1     -10.839  16.154  70.574  1.00  0.00    -0.199 C  
HETATM    3  C   UNL     1      -9.594  16.249  69.750  1.00  0.00     0.153 C  
HETATM    4  C   UNL     1      -9.904  16.985  67.869  1.00  0.00    -0.269 C  
HETATM    5  C   UNL     1      -9.197  10.220  67.072  1.00  0.00    -0.150 C  
HETATM    6  C   UNL     1      -9.780  17.735  69.015  1.00  0.00    -0.187 C  
HETATM    7  C   UNL     1      -8.020  17.096  68.622  1.00  0.00    -0.265 C  
HETATM    8  C   UNL     1     -10.506  10.789  67.433  1.00  0.00    -0.268 C  
HETATM    9  C   UNL     1     -10.000  19.174  69.359  1.00  0.00    -0.103 C  
HETATM   10  C   UNL     1      -8.023  10.932  67.657  1.00  0.00    -0.114 C  
HETATM   11  C   UNL     1      -8.134  15.481  67.803  1.00  0.00    -0.153 C  
HETATM   12  C   UNL     1     -10.624  12.127  67.515  1.00  0.00    -0.240 C  
HETATM   13  O   UNL     1      -9.114   9.195  66.408  1.00  0.00    -0.151 OA 
HETATM   14  C   UNL     1      -9.480  14.382  68.056  1.00  0.00    -0.209 C  
HETATM   15  C   UNL     1      -9.677  13.459  65.663  1.00  0.00    -0.103 C  
HETATM   16  C   UNL     1     -11.043  14.999  68.264  1.00  0.00    -0.292 C  
HETATM   17  C   UNL     1      -9.465  13.091  67.143  1.00  0.00    -0.230 C  
HETATM   18  C   UNL     1     -11.944  13.882  68.808  1.00  0.00    -0.393 C  
HETATM   19  C   UNL     1      -8.050  12.410  67.290  1.00  0.00    -0.182 C  
HETATM   20  C   UNL     1     -11.986  12.701  67.844  1.00  0.00    -0.307 C  
ENDROOT
BRANCH   4  21
HETATM   21  O   UNL     1      -9.300  18.095  67.037  1.00  0.00    -0.258 OA 
BRANCH  21  22
HETATM   22  C   UNL     1      -9.996  19.204  66.670  1.00  0.00    -0.376 C  
HETATM   23  O   UNL     1     -11.131  19.198  66.224  1.00  0.00    -0.128 OA 
BRANCH  22  24
HETATM   24  C   UNL     1      -9.105  20.434  66.846  1.00  0.00    -0.412 C  
BRANCH  24  25
HETATM   25  C   UNL     1      -8.070  20.665  65.743  1.00  0.00     0.387 C  
BRANCH  25  26
HETATM   26  C   UNL     1      -6.621  20.842  66.213  1.00  0.00    -0.282 C  
BRANCH  26  27
HETATM   27  C   UNL     1      -6.020  19.598  66.869  1.00  0.00    -0.175 C  
BRANCH  27  28
HETATM   28  C   UNL     1      -5.358  18.690  65.829  1.00  0.00    -0.186 C  
HETATM   29  C   UNL     1      -6.060  17.345  65.729  1.00  0.00     0.141 C  
ENDBRANCH  27  28
ENDBRANCH  26  27
ENDBRANCH  25  26
ENDBRANCH  24  25
ENDBRANCH  22  24
ENDBRANCH  21  22
ENDBRANCH   4  21
TORSDOF 7
ENDMDL
MODEL      173
REMARK 921   NORMALIZED FREE ENERGY PREDICTED BY IDOCK:   -1.06 KCAL/MOL
REMARK 922        TOTAL FREE ENERGY PREDICTED BY IDOCK:   -3.65 KCAL/MOL
REMARK 923 INTER-LIGAND FREE ENERGY PREDICTED BY IDOCK:   -2.91 KCAL/MOL
REMARK 924 INTRA-LIGAND FREE ENERGY PREDICTED BY IDOCK:   -0.73 KCAL/MOL
REMARK 927      BINDING AFFINITY PREDICTED BY RF-SCORE:    0.00 PKD
ROOT
HETATM    1  C   UNL     1     -11.382  14.950  67.188  1.00  0.00    -0.348 C  
HETATM    2  C   UNL     1     -12.663  14.326  67.178  1.00  0.00     0.567 C  
HETATM    3  C   UNL     1     -11.832  13.660  68.228  1.00  0.00    -0.404 C  
HETATM    4  C   UNL     1     -10.020  14.554  68.536  1.00  0.00    -0.238 C  
HETATM    5  C   UNL     1      -8.677   8.983  64.787  1.00  0.00    -0.153 C  
HETATM    6  C   UNL     1     -11.220  14.967  69.064  1.00  0.00    -0.279 C  
HETATM    7  C   UNL     1     -10.752  13.379  70.023  1.00  0.00     0.833 C  
HETATM    8  C   UNL     1      -9.100  10.231  64.130  1.00  0.00    -0.284 C  
HETATM    9  C   UNL     1     -11.681  16.184  69.801  1.00  0.00    -0.193 C  
HETATM   10  C   UNL     1      -9.299   8.735  66.120  1.00  0.00    -0.297 C  
HETATM   11  C   UNL     1      -9.809  12.275  68.936  1.00  0.00     0.087 C  
HETATM   12  C   UNL     1      -9.291  11.324  64.892  1.00  0.00    -0.181 C  
HETATM   13  O   UNL     1      -7.932   8.192  64.222  1.00  0.00    -0.137 OA 
HETATM   14  C   UNL     1      -9.993  12.278  67.190  1.00  0.00    -0.213 C  
HETATM   15  C   UNL     1      -7.537  11.866  66.545  1.00  0.00     0.133 C  
HETATM   16  C   UNL     1     -10.272  13.736  66.376  1.00  0.00    -0.292 C  
HETATM   17  C   UNL     1      -8.980  11.346  66.413  1.00  0.00    -0.196 C  
HETATM   18  C   UNL     1     -10.738  13.421  64.948  1.00  0.00    -0.381 C  
HETATM   19  C   UNL     1      -9.052   9.909  67.058  1.00  0.00    -0.156 C  
HETATM   20  C   UNL     1      -9.683  12.612  64.199  1.00  0.00     0.087 C  
ENDROOT
BRANCH   4  21
HETATM   21  O   UNL     1      -9.271  15.075  69.742  1.00  0.00    -0.077 OA 
BRANCH  21  22
HETATM   22  C   UNL     1      -7.913  15.115  69.807  1.00  0.00    -0.019 C  
HETATM   23  O   UNL     1      -7.252  14.737  70.759  1.00  0.00     0.451 OA 
BRANCH  22  24
HETATM   24  C   UNL     1      -7.370  15.765  68.535  1.00  0.00    -0.124 C  
BRANCH  24  25
HETATM   25  C   UNL     1      -8.170  16.959  68.008  1.00  0.00    -0.203 C  
BRANCH  25  26
HETATM   26  C   UNL     1      -7.419  17.899  67.058  1.00  0.00    -0.223 C  
BRANCH  26  27
HETATM   27  C   UNL     1      -6.029  17.402  66.656  1.00  0.00    -0.235 C  
BRANCH  27  28
HETATM   28  C   UNL     1      -5.144  18.560  66.184  1.00  0.00    -0.174 C  
HETATM   29  C   UNL     1      -5.746  19.274  64.984  1.00  0.00    -0.263 C  
ENDBRANCH  27  28
ENDBRANCH  26  27
ENDBRANCH  25  26
ENDBRANCH  24  25
ENDBRANCH  22  24
ENDBRANCH  21  22
ENDBRANCH   4  21
TORSDOF 7
ENDMDL
MODEL      174
REMARK 921   NORMALIZED FREE ENERGY PREDICTED BY IDOCK:   -1.00 KCAL/MOL
REMARK 922        TOTAL FREE ENERGY PREDICTED BY IDOCK:   -3.55 KCAL/MOL
REMARK 923 INTER-LIGAND FREE ENERGY PREDICTED BY IDOCK:   -2.78 KCAL/MOL
REMARK 924 INTRA-LIGAND FREE ENERGY PREDICTED BY IDOCK:   -0.78 KCAL/MOL
REMARK 927      BINDING AFFINITY PREDICTED BY RF-SCORE:    0.00 PKD
ROOT
HETATM    1  C   UNL     1      -8.211   8.799  68.366  1.00  0.00    -0.118 C  
HETATM    2  C   UNL     1      -7.154   9.678  68.741  1.00  0.00    -0.067 C  
HETATM    3  C   UNL     1      -7.940   9.348  69.971  1.00  0.00    -0.142 C  
HETATM    4  C   UNL     1      -9.382   7.931  69.671  1.00  0.00    -0.153 C  
HETATM    5  C   UNL     1     -12.725  13.905  69.867  1.00  0.00     0.025 C  
HETATM    6  C   UNL     1      -8.045   7.686  69.876  1.00  0.00    -0.124 C  
HETATM    7  C   UNL     1      -8.737   8.227  71.576  1.00  0.00    -0.208 C  
HETATM    8  C   UNL     1     -12.111  13.443  68.611  1.00  0.00    -0.281 C  
HETATM    9  C   UNL     1      -7.169   6.478  69.769  1.00  0.00    -0.078 C  
HETATM   10  C   UNL     1     -11.972  13.540  71.103  1.00  0.00     0.020 C  
HETATM   11  C   UNL     1     -10.102   9.396  71.326  1.00  0.00    -0.309 C  
HETATM   12  C   UNL     1     -11.520  12.233  68.593  1.00  0.00    -0.355 C  
HETATM   13  O   UNL     1     -13.732  14.601  69.860  1.00  0.00     0.943 OA 
HETATM   14  C   UNL     1     -10.219  10.428  69.910  1.00  0.00    -0.190 C  
HETATM   15  C   UNL     1     -12.772  10.352  69.591  1.00  0.00     0.276 C  
HETATM   16  C   UNL     1      -9.716   9.848  68.401  1.00  0.00    -0.161 C  
HETATM   17  C   UNL     1     -11.554  11.269  69.809  1.00  0.00    -0.408 C  
HETATM   18  C   UNL     1      -9.595  11.033  67.434  1.00  0.00    -0.180 C  
HETATM   19  C   UNL     1     -11.747  12.036  71.174  1.00  0.00     0.927 C  
HETATM   20  C   UNL     1     -10.932  11.750  67.284  1.00  0.00    -0.318 C  
ENDROOT
BRANCH   4  21
HETATM   21  O   UNL     1      -9.758   6.625  70.334  1.00  0.00    -0.174 OA 
BRANCH  21  22
HETATM   22  C   UNL     1     -11.047   6.228  70.508  1.00  0.00    -0.335 C  
HETATM   23  O   UNL     1     -11.991   6.623  69.844  1.00  0.00    -0.301 OA 
BRANCH  22  24
HETATM   24  C   UNL     1     -11.121   5.272  71.697  1.00  0.00    -0.047 C  
BRANCH  24  25
HETATM   25  C   UNL     1     -11.157   5.933  73.078  1.00  0.00    -0.289 C  
BRANCH  25  26
HETATM   26  C   UNL     1     -10.195   5.353  74.121  1.00  0.00    -0.282 C  
BRANCH  26  27
HETATM   27  C   UNL     1     -10.533   3.927  74.560  1.00  0.00    -0.254 C  
BRANCH  27  28
HETATM   28  C   UNL     1      -9.284   3.040  74.563  1.00  0.00    -0.102 C  
HETATM   29  C   UNL     1      -9.435   1.853  73.625  1.00  0.00    -0.091 C  
ENDBRANCH  27  28
ENDBRANCH  26  27
ENDBRANCH  25  26
ENDBRANCH  24  25
ENDBRANCH  22  24
ENDBRANCH  21  22
ENDBRANCH   4  21
TORSDOF 7
ENDMDL
MODEL      175
REMARK 921   NORMALIZED FREE ENERGY PREDICTED BY IDOCK:   -0.97 KCAL/MOL
REMARK 922        TOTAL FREE ENERGY PREDICTED BY IDOCK:   -3.51 KCAL/MOL
REMARK 923 INTER-LIGAND FREE ENERGY PREDICTED BY IDOCK:   -3.84 KCAL/MOL
REMARK 924 INTRA-LIGAND FREE ENERGY PREDICTED BY IDOCK:    0.33 KCAL/MOL
REMARK 927      BINDING AFFINITY PREDICTED BY RF-SCORE:    0.00 PKD
ROOT
HETATM    1  C   UNL     1      -6.437  17.429  69.752  1.00  0.00    -0.073 C  
HETATM    2  C   UNL     1      -5.125  17.490  69.199  1.00  0.00    -0.172 C  
HETATM    3  C   UNL     1      -6.062  17.045  68.120  1.00  0.00    -0.132 C  
HETATM    4  C   UNL     1      -8.031  17.094  68.666  1.00  0.00    -0.265 C  
HETATM    5  C   UNL     1      -6.225  10.496  68.989  1.00  0.00    -0.044 C  
HETATM    6  C   UNL     1      -7.287  18.171  68.243  1.00  0.00    -0.265 C  
HETATM    7  C   UNL     1      -7.607  17.116  66.679  1.00  0.00    -0.299 C  
HETATM    8  C   UNL     1      -5.961  11.391  70.128  1.00  0.00    -0.152 C  
HETATM    9  C   UNL     1      -7.504  19.650  68.211  1.00  0.00    -0.349 C  
HETATM   10  C   UNL     1      -6.105  11.139  67.647  1.00  0.00    -0.049 C  
HETATM   11  C   UNL     1      -7.717  15.366  67.145  1.00  0.00    -0.246 C  
HETATM   12  C   UNL     1      -6.390  12.665  70.056  1.00  0.00     0.013 C  
HETATM   13  O   UNL     1      -6.446   9.303  69.159  1.00  0.00    -0.042 OA 
HETATM   14  C   UNL     1      -6.902  14.706  68.553  1.00  0.00    -0.098 C  
HETATM   15  C   UNL     1      -8.711  13.032  69.294  1.00  0.00     0.916 C  
HETATM   16  C   UNL     1      -6.767  15.636  69.961  1.00  0.00    -0.024 C  
HETATM   17  C   UNL     1      -7.240  13.194  68.869  1.00  0.00    -0.048 C  
HETATM   18  C   UNL     1      -5.732  14.982  70.886  1.00  0.00    -0.058 C  
HETATM   19  C   UNL     1      -7.009  12.360  67.550  1.00  0.00    -0.142 C  
HETATM   20  C   UNL     1      -6.152  13.562  71.252  1.00  0.00     0.287 C  
ENDROOT
BRANCH   4  21
HETATM   21  O   UNL     1      -9.292  17.693  68.085  1.00  0.00    -0.263 OA 
BRANCH  21  22
HETATM   22  C   UNL     1     -10.500  17.071  68.142  1.00  0.00    -0.357 C  
HETATM   23  O   UNL     1     -11.530  17.589  68.539  1.00  0.00     0.346 OA 
BRANCH  22  24
HETATM   24  C   UNL     1     -10.337  15.619  67.695  1.00  0.00    -0.275 C  
BRANCH  24  25
HETATM   25  C   UNL     1     -11.452  14.664  68.126  1.00  0.00    -0.346 C  
BRANCH  25  26
HETATM   26  C   UNL     1     -12.130  13.876  66.999  1.00  0.00    -0.451 C  
BRANCH  26  27
HETATM   27  C   UNL     1     -11.374  13.912  65.669  1.00  0.00    -0.310 C  
BRANCH  27  28
HETATM   28  C   UNL     1     -12.300  13.565  64.499  1.00  0.00    -0.406 C  
HETATM   29  C   UNL     1     -12.064  12.149  63.997  1.00  0.00    -0.540 C  
ENDBRANCH  27  28
ENDBRANCH  26  27
ENDBRANCH  25  26
ENDBRANCH  24  25
ENDBRANCH  22  24
ENDBRANCH  21  22
ENDBRANCH   4  21
TORSDOF 7
ENDMDL
MODEL      176
REMARK 921   NORMALIZED FREE ENERGY PREDICTED BY IDOCK:   -0.09 KCAL/MOL
REMARK 922        TOTAL FREE ENERGY PREDICTED BY IDOCK:   -2.28 KCAL/MOL
REMARK 923 INTER-LIGAND FREE ENERGY PREDICTED BY IDOCK:   -1.03 KCAL/MOL
REMARK 924 INTRA-LIGAND FREE ENERGY PREDICTED BY IDOCK:   -1.25 KCAL/MOL
REMARK 927      BINDING AFFINITY PREDICTED BY RF-SCORE:    0.00 PKD
ROOT
HETATM    1  C   UNL     1      -8.433  13.938  66.714  1.00  0.00    -0.003 C  
HETATM    2  C   UNL     1      -7.483  14.569  67.569  1.00  0.00    -0.216 C  
HETATM    3  C   UNL     1      -7.924  13.299  68.225  1.00  0.00    -0.144 C  
HETATM    4  C   UNL     1      -9.138  12.144  67.055  1.00  0.00    -0.198 C  
HETATM    5  C   UNL     1     -13.319  15.206  71.533  1.00  0.00    -0.448 C  
HETATM    6  C   UNL     1      -7.766  12.197  66.983  1.00  0.00    -0.112 C  
HETATM    7  C   UNL     1      -8.164  11.230  68.586  1.00  0.00    -0.146 C  
HETATM    8  C   UNL     1     -12.916  15.905  70.301  1.00  0.00     0.372 C  
HETATM    9  C   UNL     1      -6.743  11.676  66.024  1.00  0.00     0.547 C  
HETATM   10  C   UNL     1     -12.271  14.321  72.121  1.00  0.00    -0.163 C  
HETATM   11  C   UNL     1      -9.727  11.834  69.281  1.00  0.00     0.400 C  
HETATM   12  C   UNL     1     -12.148  15.247  69.412  1.00  0.00    -0.301 C  
HETATM   13  O   UNL     1     -14.407  15.417  72.053  1.00  0.00    -0.533 OA 
HETATM   14  C   UNL     1     -10.313  13.468  69.019  1.00  0.00    -0.025 C  
HETATM   15  C   UNL     1     -12.825  12.947  68.820  1.00  0.00     1.490 C  
HETATM   16  C   UNL     1     -10.051  14.228  67.529  1.00  0.00    -0.236 C  
HETATM   17  C   UNL     1     -11.761  13.754  69.587  1.00  0.00    -0.379 C  
HETATM   18  C   UNL     1     -10.338  15.727  67.684  1.00  0.00    -0.281 C  
HETATM   19  C   UNL     1     -11.786  13.303  71.098  1.00  0.00     0.419 C  
HETATM   20  C   UNL     1     -11.778  15.961  68.129  1.00  0.00    -0.134 C  
ENDROOT
BRANCH   4  21
HETATM   21  O   UNL     1      -9.140  10.700  66.608  1.00  0.00    -0.157 OA 
BRANCH  21  22
HETATM   22  C   UNL     1     -10.279  10.024  66.297  1.00  0.00    -0.215 C  
HETATM   23  O   UNL     1     -11.113  10.401  65.492  1.00  0.00     0.254 OA 
BRANCH  22  24
HETATM   24  C   UNL     1     -10.366   8.767  67.162  1.00  0.00    -0.364 C  
BRANCH  24  25
HETATM   25  C   UNL     1      -9.037   8.059  67.437  1.00  0.00    -0.147 C  
BRANCH  25  26
HETATM   26  C   UNL     1      -8.773   7.681  68.900  1.00  0.00    -0.135 C  
BRANCH  26  27
HETATM   27  C   UNL     1      -7.301   7.422  69.223  1.00  0.00    -0.086 C  
BRANCH  27  28
HETATM   28  C   UNL     1      -6.388   7.981  68.127  1.00  0.00    -0.054 C  
HETATM   29  C   UNL     1      -5.297   8.869  68.703  1.00  0.00    -0.037 C  
ENDBRANCH  27  28
ENDBRANCH  26  27
ENDBRANCH  25  26
ENDBRANCH  24  25
ENDBRANCH  22  24
ENDBRANCH  21  22
ENDBRANCH   4  21
TORSDOF 7
ENDMDL
MODEL      177
REMARK 921   NORMALIZED FREE ENERGY PREDICTED BY IDOCK:    0.54 KCAL/MOL
REMARK 922        TOTAL FREE ENERGY PREDICTED BY IDOCK:   -1.39 KCAL/MOL
REMARK 923 INTER-LIGAND FREE ENERGY PREDICTED BY IDOCK:   -0.95 KCAL/MOL
REMARK 924 INTRA-LIGAND FREE ENERGY PREDICTED BY IDOCK:   -0.45 KCAL/MOL
REMARK 927      BINDING AFFINITY PREDICTED BY RF-SCORE:    0.00 PKD
ROOT
HETATM    1  C   UNL     1      -7.882   6.379  69.201  1.00  0.00    -0.109 C  
HETATM    2  C   UNL     1      -7.117   5.695  68.212  1.00  0.00    -0.074 C  
HETATM    3  C   UNL     1      -6.451   7.006  68.487  1.00  0.00    -0.036 C  
HETATM    4  C   UNL     1      -7.289   8.049  70.032  1.00  0.00    -0.062 C  
HETATM    5  C   UNL     1      -9.584  11.089  64.341  1.00  0.00    -0.259 C  
HETATM    6  C   UNL     1      -6.388   7.017  70.154  1.00  0.00    -0.035 C  
HETATM    7  C   UNL     1      -5.380   8.512  69.513  1.00  0.00    -0.030 C  
HETATM    8  C   UNL     1     -10.268   9.897  64.869  1.00  0.00     0.133 C  
HETATM    9  C   UNL     1      -5.876   6.197  71.296  1.00  0.00    -0.027 C  
HETATM   10  C   UNL     1      -8.103  11.097  64.531  1.00  0.00     0.546 C  
HETATM   11  C   UNL     1      -6.444   9.558  68.481  1.00  0.00    -0.052 C  
HETATM   12  C   UNL     1      -9.830   9.366  66.026  1.00  0.00    -0.366 C  
HETATM   13  O   UNL     1     -10.199  11.952  63.728  1.00  0.00    -0.340 OA 
HETATM   14  C   UNL     1      -7.823   8.927  67.596  1.00  0.00    -0.101 C  
HETATM   15  C   UNL     1      -9.418  10.924  67.898  1.00  0.00    -0.166 C  
HETATM   16  C   UNL     1      -8.765   7.693  68.273  1.00  0.00    -0.123 C  
HETATM   17  C   UNL     1      -8.706  10.021  66.873  1.00  0.00    -0.135 C  
HETATM   18  C   UNL     1      -9.659   7.099  67.176  1.00  0.00    -0.191 C  
HETATM   19  C   UNL     1      -7.746  10.919  66.001  1.00  0.00    -0.107 C  
HETATM   20  C   UNL     1     -10.570   8.167  66.581  1.00  0.00    -0.076 C  
ENDROOT
BRANCH   4  21
HETATM   21  O   UNL     1      -6.771   8.696  71.297  1.00  0.00    -0.058 OA 
BRANCH  21  22
HETATM   22  C   UNL     1      -7.343   8.500  72.515  1.00  0.00    -0.032 C  
HETATM   23  O   UNL     1      -6.732   8.441  73.569  1.00  0.00    -0.118 OA 
BRANCH  22  24
HETATM   24  C   UNL     1      -8.848   8.305  72.335  1.00  0.00    -0.286 C  
BRANCH  24  25
HETATM   25  C   UNL     1      -9.500   7.285  73.271  1.00  0.00    -0.240 C  
BRANCH  25  26
HETATM   26  C   UNL     1     -10.965   7.555  73.637  1.00  0.00     0.143 C  
BRANCH  26  27
HETATM   27  C   UNL     1     -11.935   7.438  72.460  1.00  0.00    -0.172 C  
BRANCH  27  28
HETATM   28  C   UNL     1     -12.858   6.227  72.624  1.00  0.00     0.507 C  
HETATM   29  C   UNL     1     -14.308   6.647  72.809  1.00  0.00     0.921 C  
ENDBRANCH  27  28
ENDBRANCH  26  27
ENDBRANCH  25  26
ENDBRANCH  24  25
ENDBRANCH  22  24
ENDBRANCH  21  22
ENDBRANCH   4  21
TORSDOF 7
ENDMDL
MODEL      178
REMARK 921   NORMALIZED FREE ENERGY PREDICTED BY IDOCK:    1.08 KCAL/MOL
REMARK 922        TOTAL FREE ENERGY PREDICTED BY IDOCK:   -0.63 KCAL/MOL
REMARK 923 INTER-LIGAND FREE ENERGY PREDICTED BY IDOCK:   -2.62 KCAL/MOL
REMARK 924 INTRA-LIGAND FREE ENERGY PREDICTED BY IDOCK:    1.99 KCAL/MOL
REMARK 927      BINDING AFFINITY PREDICTED BY RF-SCORE:    0.00 PKD
ROOT
HETATM    1  C   UNL     1     -12.738  13.286  69.902  1.00  0.00     0.175 C  
HETATM    2  C   UNL     1     -12.437  13.657  71.245  1.00  0.00    -0.412 C  
HETATM    3  C   UNL     1     -11.218  13.903  70.413  1.00  0.00     0.207 C  
HETATM    4  C   UNL     1     -11.516  13.623  68.411  1.00  0.00    -0.311 C  
HETATM    5  C   UNL     1      -8.197   8.026  70.547  1.00  0.00    -0.118 C  
HETATM    6  C   UNL     1     -11.848  14.751  69.123  1.00  0.00    -0.340 C  
HETATM    7  C   UNL     1      -9.940  14.775  68.973  1.00  0.00    -0.218 C  
HETATM    8  C   UNL     1      -9.661   8.113  70.680  1.00  0.00    -0.184 C  
HETATM    9  C   UNL     1     -12.641  15.985  68.828  1.00  0.00     1.036 C  
HETATM   10  C   UNL     1      -7.475   9.320  70.728  1.00  0.00    -0.144 C  
HETATM   11  C   UNL     1      -9.319  13.071  68.926  1.00  0.00     0.275 C  
HETATM   12  C   UNL     1     -10.287   9.199  70.188  1.00  0.00    -0.244 C  
HETATM   13  O   UNL     1      -7.640   6.949  70.381  1.00  0.00    -0.084 OA 
HETATM   14  C   UNL     1     -10.169  11.730  69.674  1.00  0.00     0.671 C  
HETATM   15  C   UNL     1      -9.664   9.925  67.911  1.00  0.00    -0.162 C  
HETATM   16  C   UNL     1     -11.862  11.692  69.657  1.00  0.00    -0.419 C  
HETATM   17  C   UNL     1      -9.539  10.306  69.398  1.00  0.00    -0.237 C  
HETATM   18  C   UNL     1     -12.341  10.632  70.658  1.00  0.00    -0.462 C  
HETATM   19  C   UNL     1      -8.008  10.375  69.767  1.00  0.00    -0.082 C  
HETATM   20  C   UNL     1     -11.796   9.255  70.292  1.00  0.00    -0.015 C  
ENDROOT
BRANCH   4  21
HETATM   21  O   UNL     1     -11.267  14.441  67.164  1.00  0.00    -0.306 OA 
BRANCH  21  22
HETATM   22  C   UNL     1     -10.232  14.198  66.315  1.00  0.00    -0.295 C  
HETATM   23  O   UNL     1      -9.733  13.103  66.123  1.00  0.00    -0.276 OA 
BRANCH  22  24
HETATM   24  C   UNL     1      -9.767  15.519  65.703  1.00  0.00    -0.355 C  
BRANCH  24  25
HETATM   25  C   UNL     1     -10.661  16.090  64.600  1.00  0.00    -0.069 C  
BRANCH  25  26
HETATM   26  C   UNL     1     -11.998  15.370  64.384  1.00  0.00    -0.235 C  
BRANCH  26  27
HETATM   27  C   UNL     1     -11.863  13.959  63.808  1.00  0.00    -0.234 C  
BRANCH  27  28
HETATM   28  C   UNL     1     -12.919  13.020  64.397  1.00  0.00    -0.039 C  
HETATM   29  C   UNL     1     -12.301  11.727  64.905  1.00  0.00     0.255 C  
ENDBRANCH  27  28
ENDBRANCH  26  27
ENDBRANCH  25  26
ENDBRANCH  24  25
ENDBRANCH  22  24
ENDBRANCH  21  22
ENDBRANCH   4  21
TORSDOF 7
ENDMDL
MODEL      179
REMARK 921   NORMALIZED FREE ENERGY PREDICTED BY IDOCK:    1.53 KCAL/MOL
REMARK 922        TOTAL FREE ENERGY PREDICTED BY IDOCK:    0.01 KCAL/MOL
REMARK 923 INTER-LIGAND FREE ENERGY PREDICTED BY IDOCK:   -4.52 KCAL/MOL
REMARK 924 INTRA-LIGAND FREE ENERGY PREDICTED BY IDOCK:    4.53 KCAL/MOL
REMARK 927      BINDING AFFINITY PREDICTED BY RF-SCORE:    0.00 PKD
ROOT
HETATM    1  C   UNL     1     -10.162  11.248  66.089  1.00  0.00    -0.291 C  
HETATM    2  C   UNL     1     -11.066  10.255  65.612  1.00  0.00     0.670 C  
HETATM    3  C   UNL     1     -11.099  10.231  67.108  1.00  0.00    -0.165 C  
HETATM    4  C   UNL     1     -10.016  11.728  67.981  1.00  0.00    -0.188 C  
HETATM    5  C   UNL     1      -6.143   6.111  68.573  1.00  0.00    -0.024 C  
HETATM    6  C   UNL     1     -11.289  11.847  67.473  1.00  0.00    -0.381 C  
HETATM    7  C   UNL     1     -11.469  10.847  69.095  1.00  0.00    -0.373 C  
HETATM    8  C   UNL     1      -6.108   6.906  67.334  1.00  0.00    -0.036 C  
HETATM    9  C   UNL     1     -12.205  12.995  67.191  1.00  0.00    -0.200 C  
HETATM   10  C   UNL     1      -7.476   6.057  69.244  1.00  0.00    -0.089 C  
HETATM   11  C   UNL     1      -9.969   9.863  69.366  1.00  0.00    -0.227 C  
HETATM   12  C   UNL     1      -6.831   8.040  67.278  1.00  0.00    -0.074 C  
HETATM   13  O   UNL     1      -5.160   5.490  68.955  1.00  0.00     0.000 OA 
HETATM   14  C   UNL     1      -8.946   9.311  68.050  1.00  0.00    -0.128 C  
HETATM   15  C   UNL     1      -6.661   9.582  69.200  1.00  0.00    -0.049 C  
HETATM   16  C   UNL     1      -8.712  10.299  66.694  1.00  0.00    -0.134 C  
HETATM   17  C   UNL     1      -7.612   8.593  68.501  1.00  0.00    -0.095 C  
HETATM   18  C   UNL     1      -8.089   9.456  65.573  1.00  0.00    -0.116 C  
HETATM   19  C   UNL     1      -7.995   7.460  69.528  1.00  0.00    -0.127 C  
HETATM   20  C   UNL     1      -6.751   8.870  66.015  1.00  0.00    -0.069 C  
ENDROOT
BRANCH   4  21
HETATM   21  O   UNL     1     -10.295  12.788  69.022  1.00  0.00    -0.093 OA 
BRANCH  21  22
HETATM   22  C   UNL     1     -10.860  13.988  68.722  1.00  0.00    -0.263 C  
HETATM   23  O   UNL     1     -10.661  14.613  67.694  1.00  0.00    -0.263 OA 
BRANCH  22  24
HETATM   24  C   UNL     1     -11.721  14.445  69.900  1.00  0.00    -0.363 C  
BRANCH  24  25
HETATM   25  C   UNL     1     -10.953  14.926  71.134  1.00  0.00    -0.003 C  
BRANCH  25  26
HETATM   26  C   UNL     1     -11.812  15.332  72.338  1.00  0.00    -0.532 C  
BRANCH  26  27
HETATM   27  C   UNL     1     -12.689  14.206  72.889  1.00  0.00    -0.347 C  
BRANCH  27  28
HETATM   28  C   UNL     1     -13.397  13.454  71.758  1.00  0.00    -0.479 C  
HETATM   29  C   UNL     1     -13.661  12.003  72.128  1.00  0.00    -0.080 C  
ENDBRANCH  27  28
ENDBRANCH  26  27
ENDBRANCH  25  26
ENDBRANCH  24  25
ENDBRANCH  22  24
ENDBRANCH  21  22
ENDBRANCH   4  21
TORSDOF 7
ENDMDL
MODEL      180
REMARK 921   NORMALIZED FREE ENERGY PREDICTED BY IDOCK:    2.20 KCAL/MOL
REMARK 922        TOTAL FREE ENERGY PREDICTED BY IDOCK:    0.95 KCAL/MOL
REMARK 923 INTER-LIGAND FREE ENERGY PREDICTED BY IDOCK:    1.83 KCAL/MOL
REMARK 924 INTRA-LIGAND FREE ENERGY PREDICTED BY IDOCK:   -0.88 KCAL/MOL
REMARK 927      BINDING AFFINITY PREDICTED BY RF-SCORE:    0.00 PKD
ROOT
HETATM    1  C   UNL     1      -8.020  14.307  66.718  1.00  0.00     0.309 C  
HETATM    2  C   UNL     1      -7.343  15.462  67.206  1.00  0.00    -0.239 C  
HETATM    3  C   UNL     1      -7.294  14.413  68.272  1.00  0.00    -0.122 C  
HETATM    4  C   UNL     1      -8.039  12.604  67.682  1.00  0.00    -0.173 C  
HETATM    5  C   UNL     1     -12.962  15.423  71.518  1.00  0.00    -0.447 C  
HETATM    6  C   UNL     1      -6.776  13.078  67.417  1.00  0.00    -0.123 C  
HETATM    7  C   UNL     1      -6.780  12.626  69.276  1.00  0.00    -0.054 C  
HETATM    8  C   UNL     1     -12.852  15.763  70.090  1.00  0.00     0.089 C  
HETATM    9  C   UNL     1      -5.650  12.636  66.537  1.00  0.00     1.328 C  
HETATM   10  C   UNL     1     -11.659  15.181  72.205  1.00  0.00    -0.473 C  
HETATM   11  C   UNL     1      -8.444  12.876  69.953  1.00  0.00     2.730 C  
HETATM   12  C   UNL     1     -11.915  15.139  69.352  1.00  0.00    -0.337 C  
HETATM   13  O   UNL     1     -14.046  15.424  72.088  1.00  0.00    -0.495 OA 
HETATM   14  C   UNL     1      -9.576  14.040  69.284  1.00  0.00     0.315 C  
HETATM   15  C   UNL     1     -11.743  12.686  69.587  1.00  0.00    -0.373 C  
HETATM   16  C   UNL     1      -9.623  14.302  67.612  1.00  0.00    -0.219 C  
HETATM   17  C   UNL     1     -11.022  14.005  69.922  1.00  0.00     0.055 C  
HETATM   18  C   UNL     1     -10.420  15.584  67.337  1.00  0.00    -0.281 C  
HETATM   19  C   UNL     1     -10.862  14.100  71.488  1.00  0.00     2.320 C  
HETATM   20  C   UNL     1     -11.842  15.465  67.875  1.00  0.00    -0.090 C  
ENDROOT
BRANCH   4  21
HETATM   21  O   UNL     1      -7.536  11.178  67.702  1.00  0.00    -0.099 OA 
BRANCH  21  22
HETATM   22  C   UNL     1      -8.358  10.107  67.870  1.00  0.00    -0.117 C  
HETATM   23  O   UNL     1      -9.268   9.804  67.117  1.00  0.00    -0.136 OA 
BRANCH  22  24
HETATM   24  C   UNL     1      -7.995   9.398  69.175  1.00  0.00    -0.091 C  
BRANCH  24  25
HETATM   25  C   UNL     1      -9.148   8.682  69.882  1.00  0.00    -0.151 C  
BRANCH  25  26
HETATM   26  C   UNL     1      -9.903   9.507  70.932  1.00  0.00    -0.279 C  
BRANCH  26  27
HETATM   27  C   UNL     1     -11.204   8.865  71.415  1.00  0.00    -0.382 C  
BRANCH  27  28
HETATM   28  C   UNL     1     -11.240   7.371  71.079  1.00  0.00    -0.285 C  
HETATM   29  C   UNL     1     -11.878   6.559  72.195  1.00  0.00    -0.348 C  
ENDBRANCH  27  28
ENDBRANCH  26  27
ENDBRANCH  25  26
ENDBRANCH  24  25
ENDBRANCH  22  24
ENDBRANCH  21  22
ENDBRANCH   4  21
TORSDOF 7
ENDMDL
MODEL      181
REMARK 921   NORMALIZED FREE ENERGY PREDICTED BY IDOCK:    2.61 KCAL/MOL
REMARK 922        TOTAL FREE ENERGY PREDICTED BY IDOCK:    1.53 KCAL/MOL
REMARK 923 INTER-LIGAND FREE ENERGY PREDICTED BY IDOCK:   -3.74 KCAL/MOL
REMARK 924 INTRA-LIGAND FREE ENERGY PREDICTED BY IDOCK:    5.26 KCAL/MOL
REMARK 927      BINDING AFFINITY PREDICTED BY RF-SCORE:    0.00 PKD
ROOT
HETATM    1  C   UNL     1     -10.161  11.251  66.091  1.00  0.00    -0.279 C  
HETATM    2  C   UNL     1     -11.054  10.254  65.603  1.00  0.00     0.670 C  
HETATM    3  C   UNL     1     -11.098  10.223  67.098  1.00  0.00    -0.165 C  
HETATM    4  C   UNL     1     -10.032  11.724  67.986  1.00  0.00    -0.188 C  
HETATM    5  C   UNL     1      -6.122   6.134  68.582  1.00  0.00    -0.028 C  
HETATM    6  C   UNL     1     -11.302  11.836  67.470  1.00  0.00    -0.377 C  
HETATM    7  C   UNL     1     -11.487  10.827  69.086  1.00  0.00    -0.368 C  
HETATM    8  C   UNL     1      -6.084   6.934  67.346  1.00  0.00    -0.036 C  
HETATM    9  C   UNL     1     -12.225  12.978  67.186  1.00  0.00    -0.200 C  
HETATM   10  C   UNL     1      -7.459   6.066  69.242  1.00  0.00    -0.089 C  
HETATM   11  C   UNL     1      -9.981   9.853  69.363  1.00  0.00    -0.227 C  
HETATM   12  C   UNL     1      -6.815   8.063  67.290  1.00  0.00    -0.074 C  
HETATM   13  O   UNL     1      -5.137   5.518  68.968  1.00  0.00     0.000 OA 
HETATM   14  C   UNL     1      -8.945   9.315  68.052  1.00  0.00    -0.128 C  
HETATM   15  C   UNL     1      -6.670   9.597  69.221  1.00  0.00    -0.049 C  
HETATM   16  C   UNL     1      -8.709  10.310  66.703  1.00  0.00    -0.134 C  
HETATM   17  C   UNL     1      -7.609   8.605  68.509  1.00  0.00    -0.095 C  
HETATM   18  C   UNL     1      -8.071   9.477  65.582  1.00  0.00    -0.112 C  
HETATM   19  C   UNL     1      -7.991   7.464  69.529  1.00  0.00    -0.127 C  
HETATM   20  C   UNL     1      -6.732   8.900  66.031  1.00  0.00    -0.069 C  
ENDROOT
BRANCH   4  21
HETATM   21  O   UNL     1     -10.328  12.777  69.030  1.00  0.00    -0.093 OA 
BRANCH  21  22
HETATM   22  C   UNL     1     -10.894  13.977  68.730  1.00  0.00    -0.263 C  
HETATM   23  O   UNL     1     -12.089  14.215  68.786  1.00  0.00    -0.341 OA 
BRANCH  22  24
HETATM   24  C   UNL     1      -9.806  14.939  68.257  1.00  0.00    -0.218 C  
BRANCH  24  25
HETATM   25  C   UNL     1      -9.243  14.667  66.859  1.00  0.00    -0.267 C  
BRANCH  25  26
HETATM   26  C   UNL     1      -8.113  15.598  66.402  1.00  0.00    -0.046 C  
BRANCH  26  27
HETATM   27  C   UNL     1      -6.871  15.559  67.293  1.00  0.00    -0.168 C  
BRANCH  27  28
HETATM   28  C   UNL     1      -7.253  15.615  68.775  1.00  0.00    -0.133 C  
HETATM   29  C   UNL     1      -6.234  14.895  69.645  1.00  0.00    -0.133 C  
ENDBRANCH  27  28
ENDBRANCH  26  27
ENDBRANCH  25  26
ENDBRANCH  24  25
ENDBRANCH  22  24
ENDBRANCH  21  22
ENDBRANCH   4  21
TORSDOF 7
ENDMDL
MODEL      182
REMARK 921   NORMALIZED FREE ENERGY PREDICTED BY IDOCK:    3.50 KCAL/MOL
REMARK 922        TOTAL FREE ENERGY PREDICTED BY IDOCK:    2.79 KCAL/MOL
REMARK 923 INTER-LIGAND FREE ENERGY PREDICTED BY IDOCK:   -2.19 KCAL/MOL
REMARK 924 INTRA-LIGAND FREE ENERGY PREDICTED BY IDOCK:    4.98 KCAL/MOL
REMARK 927      BINDING AFFINITY PREDICTED BY RF-SCORE:    0.00 PKD
ROOT
HETATM    1  C   UNL     1      -7.958   5.350  62.721  1.00  0.00    -0.094 C  
HETATM    2  C   UNL     1      -6.576   5.398  62.377  1.00  0.00    -0.029 C  
HETATM    3  C   UNL     1      -6.681   4.998  63.815  1.00  0.00    -0.042 C  
HETATM    4  C   UNL     1      -8.599   4.674  64.442  1.00  0.00    -0.142 C  
HETATM    5  C   UNL     1      -6.903  10.836  66.904  1.00  0.00    -0.101 C  
HETATM    6  C   UNL     1      -7.818   3.779  63.750  1.00  0.00    -0.083 C  
HETATM    7  C   UNL     1      -7.102   3.828  65.524  1.00  0.00    -0.063 C  
HETATM    8  C   UNL     1      -7.408  10.704  65.527  1.00  0.00    -0.056 C  
HETATM    9  C   UNL     1      -8.068   2.468  63.075  1.00  0.00    -0.069 C  
HETATM   10  C   UNL     1      -6.067   9.694  67.376  1.00  0.00    -0.059 C  
HETATM   11  C   UNL     1      -7.351   5.480  66.229  1.00  0.00    -0.078 C  
HETATM   12  C   UNL     1      -7.794   9.487  65.099  1.00  0.00    -0.113 C  
HETATM   13  O   UNL     1      -7.106  11.852  67.557  1.00  0.00    -0.102 OA 
HETATM   14  C   UNL     1      -7.466   6.926  65.240  1.00  0.00    -0.089 C  
HETATM   15  C   UNL     1      -9.259   8.178  66.597  1.00  0.00    -0.225 C  
HETATM   16  C   UNL     1      -8.233   6.856  63.732  1.00  0.00     0.094 C  
HETATM   17  C   UNL     1      -7.828   8.246  66.031  1.00  0.00    -0.095 C  
HETATM   18  C   UNL     1      -7.889   8.128  62.945  1.00  0.00    -0.144 C  
HETATM   19  C   UNL     1      -6.821   8.378  67.238  1.00  0.00    -0.070 C  
HETATM   20  C   UNL     1      -8.353   9.373  63.696  1.00  0.00    -0.184 C  
ENDROOT
BRANCH   4  21
HETATM   21  O   UNL     1      -9.322   3.550  65.148  1.00  0.00    -0.145 OA 
BRANCH  21  22
HETATM   22  C   UNL     1      -9.384   3.447  66.503  1.00  0.00    -0.155 C  
HETATM   23  O   UNL     1     -10.312   3.842  67.189  1.00  0.00     0.299 OA 
BRANCH  22  24
HETATM   24  C   UNL     1      -8.087   2.823  67.017  1.00  0.00    -0.076 C  
BRANCH  24  25
HETATM   25  C   UNL     1      -7.743   3.120  68.479  1.00  0.00    -0.054 C  
BRANCH  25  26
HETATM   26  C   UNL     1      -6.921   2.047  69.203  1.00  0.00    -0.036 C  
BRANCH  26  27
HETATM   27  C   UNL     1      -7.223   1.931  70.698  1.00  0.00    -0.033 C  
BRANCH  27  28
HETATM   28  C   UNL     1      -8.690   2.258  70.992  1.00  0.00    -0.112 C  
HETATM   29  C   UNL     1      -8.832   3.564  71.759  1.00  0.00    -0.135 C  
ENDBRANCH  27  28
ENDBRANCH  26  27
ENDBRANCH  25  26
ENDBRANCH  24  25
ENDBRANCH  22  24
ENDBRANCH  21  22
ENDBRANCH   4  21
TORSDOF 7
ENDMDL
MODEL      183
REMARK 921   NORMALIZED FREE ENERGY PREDICTED BY IDOCK:    4.52 KCAL/MOL
REMARK 922        TOTAL FREE ENERGY PREDICTED BY IDOCK:    4.22 KCAL/MOL
REMARK 923 INTER-LIGAND FREE ENERGY PREDICTED BY IDOCK:   -3.86 KCAL/MOL
REMARK 924 INTRA-LIGAND FREE ENERGY PREDICTED BY IDOCK:    8.08 KCAL/MOL
REMARK 927      BINDING AFFINITY PREDICTED BY RF-SCORE:    0.00 PKD
ROOT
HETATM    1  C   UNL     1      -7.879   5.879  69.488  1.00  0.00    -0.098 C  
HETATM    2  C   UNL     1      -7.186   5.068  68.543  1.00  0.00    -0.062 C  
HETATM    3  C   UNL     1      -6.360   6.289  68.800  1.00  0.00    -0.041 C  
HETATM    4  C   UNL     1      -7.093   7.483  70.288  1.00  0.00    -0.060 C  
HETATM    5  C   UNL     1      -8.817  10.610  64.445  1.00  0.00    -0.173 C  
HETATM    6  C   UNL     1      -6.339   6.346  70.467  1.00  0.00    -0.040 C  
HETATM    7  C   UNL     1      -5.126   7.674  69.814  1.00  0.00    -0.023 C  
HETATM    8  C   UNL     1      -9.666   9.536  64.986  1.00  0.00    -0.138 C  
HETATM    9  C   UNL     1      -5.970   5.504  71.647  1.00  0.00    -0.029 C  
HETATM   10  C   UNL     1      -7.354  10.430  64.679  1.00  0.00    -0.026 C  
HETATM   11  C   UNL     1      -6.016   8.816  68.720  1.00  0.00    -0.044 C  
HETATM   12  C   UNL     1      -9.332   8.990  66.171  1.00  0.00    -0.294 C  
HETATM   13  O   UNL     1      -9.297  11.526  63.789  1.00  0.00    -0.158 OA 
HETATM   14  C   UNL     1      -7.442   8.343  67.813  1.00  0.00    -0.098 C  
HETATM   15  C   UNL     1      -8.767  10.541  68.008  1.00  0.00    -0.128 C  
HETATM   16  C   UNL     1      -8.556   7.266  68.496  1.00  0.00    -0.124 C  
HETATM   17  C   UNL     1      -8.154   9.519  67.032  1.00  0.00    -0.113 C  
HETATM   18  C   UNL     1      -9.492   6.758  67.391  1.00  0.00    -0.150 C  
HETATM   19  C   UNL     1      -7.062  10.254  66.164  1.00  0.00    -0.121 C  
HETATM   20  C   UNL     1     -10.238   7.917  66.737  1.00  0.00    -0.358 C  
ENDROOT
BRANCH   4  21
HETATM   21  O   UNL     1      -6.526   8.097  71.548  1.00  0.00    -0.039 OA 
BRANCH  21  22
HETATM   22  C   UNL     1      -7.136   7.993  72.760  1.00  0.00    -0.094 C  
HETATM   23  O   UNL     1      -6.552   7.879  73.824  1.00  0.00    -0.087 OA 
BRANCH  22  24
HETATM   24  C   UNL     1      -8.651   7.975  72.558  1.00  0.00    -0.227 C  
BRANCH  24  25
HETATM   25  C   UNL     1      -9.206   9.047  71.616  1.00  0.00    -0.223 C  
BRANCH  25  26
HETATM   26  C   UNL     1      -9.688   8.549  70.249  1.00  0.00    -0.182 C  
BRANCH  26  27
HETATM   27  C   UNL     1     -10.891   9.313  69.693  1.00  0.00    -0.228 C  
BRANCH  27  28
HETATM   28  C   UNL     1     -10.508  10.748  69.319  1.00  0.00    -0.243 C  
HETATM   29  C   UNL     1     -10.785  11.039  67.852  1.00  0.00    -0.263 C  
ENDBRANCH  27  28
ENDBRANCH  26  27
ENDBRANCH  25  26
ENDBRANCH  24  25
ENDBRANCH  22  24
ENDBRANCH  21  22
ENDBRANCH   4  21
TORSDOF 7
ENDMDL
MODEL      184
REMARK 921   NORMALIZED FREE ENERGY PREDICTED BY IDOCK:    4.52 KCAL/MOL
REMARK 922        TOTAL FREE ENERGY PREDICTED BY IDOCK:    4.22 KCAL/MOL
REMARK 923 INTER-LIGAND FREE ENERGY PREDICTED BY IDOCK:    0.53 KCAL/MOL
REMARK 924 INTRA-LIGAND FREE ENERGY PREDICTED BY IDOCK:    3.69 KCAL/MOL
REMARK 927      BINDING AFFINITY PREDICTED BY RF-SCORE:    0.00 PKD
ROOT
HETATM    1  C   UNL     1      -8.012   5.310  62.680  1.00  0.00    -0.085 C  
HETATM    2  C   UNL     1      -6.629   5.489  62.388  1.00  0.00    -0.029 C  
HETATM    3  C   UNL     1      -6.747   5.034  63.808  1.00  0.00    -0.042 C  
HETATM    4  C   UNL     1      -8.649   4.525  64.356  1.00  0.00    -0.138 C  
HETATM    5  C   UNL     1      -7.585  10.726  67.061  1.00  0.00    -0.114 C  
HETATM    6  C   UNL     1      -7.770   3.724  63.666  1.00  0.00    -0.074 C  
HETATM    7  C   UNL     1      -7.120   3.776  65.465  1.00  0.00    -0.063 C  
HETATM    8  C   UNL     1      -8.029  10.596  65.663  1.00  0.00    -0.136 C  
HETATM    9  C   UNL     1      -7.881   2.420  62.943  1.00  0.00    -0.063 C  
HETATM   10  C   UNL     1      -6.668   9.646  67.529  1.00  0.00    -0.070 C  
HETATM   11  C   UNL     1      -7.538   5.377  66.210  1.00  0.00    -0.087 C  
HETATM   12  C   UNL     1      -8.293   9.365  65.186  1.00  0.00    -0.151 C  
HETATM   13  O   UNL     1      -7.898  11.698  67.736  1.00  0.00    -0.116 OA 
HETATM   14  C   UNL     1      -7.746   6.839  65.261  1.00  0.00    -0.106 C  
HETATM   15  C   UNL     1      -9.686   7.885  66.590  1.00  0.00    -0.305 C  
HETATM   16  C   UNL     1      -8.453   6.753  63.725  1.00  0.00     0.321 C  
HETATM   17  C   UNL     1      -8.248   8.096  66.078  1.00  0.00    -0.121 C  
HETATM   18  C   UNL     1      -8.196   8.075  62.990  1.00  0.00    -0.073 C  
HETATM   19  C   UNL     1      -7.298   8.275  67.324  1.00  0.00    -0.089 C  
HETATM   20  C   UNL     1      -8.792   9.249  63.760  1.00  0.00    -0.150 C  
ENDROOT
BRANCH   4  21
HETATM   21  O   UNL     1      -9.294   3.319  65.001  1.00  0.00    -0.144 OA 
BRANCH  21  22
HETATM   22  C   UNL     1      -9.949   3.380  66.192  1.00  0.00     0.304 C  
HETATM   23  O   UNL     1     -10.690   2.513  66.623  1.00  0.00     3.234 OA 
BRANCH  22  24
HETATM   24  C   UNL     1      -9.657   4.726  66.855  1.00  0.00    -0.185 C  
BRANCH  24  25
HETATM   25  C   UNL     1     -10.875   5.470  67.407  1.00  0.00    -0.118 C  
BRANCH  25  26
HETATM   26  C   UNL     1     -10.759   5.960  68.855  1.00  0.00    -0.370 C  
BRANCH  26  27
HETATM   27  C   UNL     1      -9.575   5.368  69.622  1.00  0.00    -0.217 C  
BRANCH  27  28
HETATM   28  C   UNL     1      -8.858   6.443  70.445  1.00  0.00    -0.151 C  
HETATM   29  C   UNL     1      -8.702   7.738  69.663  1.00  0.00    -0.135 C  
ENDBRANCH  27  28
ENDBRANCH  26  27
ENDBRANCH  25  26
ENDBRANCH  24  25
ENDBRANCH  22  24
ENDBRANCH  21  22
ENDBRANCH   4  21
TORSDOF 7
ENDMDL
MODEL      185
REMARK 921   NORMALIZED FREE ENERGY PREDICTED BY IDOCK:    6.35 KCAL/MOL
REMARK 922        TOTAL FREE ENERGY PREDICTED BY IDOCK:    6.80 KCAL/MOL
REMARK 923 INTER-LIGAND FREE ENERGY PREDICTED BY IDOCK:    7.23 KCAL/MOL
REMARK 924 INTRA-LIGAND FREE ENERGY PREDICTED BY IDOCK:   -0.43 KCAL/MOL
REMARK 927      BINDING AFFINITY PREDICTED BY RF-SCORE:    0.00 PKD
ROOT
HETATM    1  C   UNL     1      -9.985   9.508  66.538  1.00  0.00    -0.329 C  
HETATM    2  C   UNL     1     -10.869   8.479  66.974  1.00  0.00    -0.030 C  
HETATM    3  C   UNL     1     -11.039   9.653  67.887  1.00  0.00    -0.102 C  
HETATM    4  C   UNL     1      -9.999  11.311  67.299  1.00  0.00    -0.183 C  
HETATM    5  C   UNL     1      -6.352   8.612  72.428  1.00  0.00    -0.068 C  
HETATM    6  C   UNL     1     -11.217  10.908  66.802  1.00  0.00    -0.109 C  
HETATM    7  C   UNL     1     -11.571  11.585  68.557  1.00  0.00    -0.377 C  
HETATM    8  C   UNL     1      -6.182   8.107  71.055  1.00  0.00    -0.034 C  
HETATM    9  C   UNL     1     -12.072  11.325  65.648  1.00  0.00     1.405 C  
HETATM   10  C   UNL     1      -7.740   9.038  72.771  1.00  0.00     0.540 C  
HETATM   11  C   UNL     1     -10.129  11.291  69.618  1.00  0.00     0.359 C  
HETATM   12  C   UNL     1      -6.866   8.706  70.062  1.00  0.00    -0.042 C  
HETATM   13  O   UNL     1      -5.424   8.596  73.227  1.00  0.00    -0.066 OA 
HETATM   14  C   UNL     1      -9.007   9.968  69.348  1.00  0.00    -0.205 C  
HETATM   15  C   UNL     1      -6.828  11.175  69.997  1.00  0.00     0.010 C  
HETATM   16  C   UNL     1      -8.624   9.498  67.768  1.00  0.00    -0.115 C  
HETATM   17  C   UNL     1      -7.739   9.969  70.293  1.00  0.00    -0.093 C  
HETATM   18  C   UNL     1      -7.924   8.133  67.816  1.00  0.00    -0.127 C  
HETATM   19  C   UNL     1      -8.245  10.081  71.783  1.00  0.00     2.996 C  
HETATM   20  C   UNL     1      -6.649   8.206  68.649  1.00  0.00    -0.058 C  
ENDROOT
BRANCH   4  21
HETATM   21  O   UNL     1     -10.343  12.764  67.056  1.00  0.00    -0.232 OA 
BRANCH  21  22
HETATM   22  C   UNL     1      -9.431  13.677  66.627  1.00  0.00    -0.277 C  
HETATM   23  O   UNL     1      -9.355  14.100  65.486  1.00  0.00     0.010 OA 
BRANCH  22  24
HETATM   24  C   UNL     1      -8.492  14.027  67.781  1.00  0.00    -0.184 C  
BRANCH  24  25
HETATM   25  C   UNL     1      -9.052  13.788  69.186  1.00  0.00     0.417 C  
BRANCH  25  26
HETATM   26  C   UNL     1      -8.445  14.647  70.301  1.00  0.00     1.223 C  
BRANCH  26  27
HETATM   27  C   UNL     1      -9.473  15.231  71.271  1.00  0.00     2.560 C  
BRANCH  27  28
HETATM   28  C   UNL     1     -10.308  16.325  70.599  1.00  0.00     0.657 C  
HETATM   29  C   UNL     1     -11.769  16.251  71.011  1.00  0.00    -0.317 C  
ENDBRANCH  27  28
ENDBRANCH  26  27
ENDBRANCH  25  26
ENDBRANCH  24  25
ENDBRANCH  22  24
ENDBRANCH  21  22
ENDBRANCH   4  21
TORSDOF 7
ENDMDL
MODEL      186
REMARK 921   NORMALIZED FREE ENERGY PREDICTED BY IDOCK:    7.28 KCAL/MOL
REMARK 922        TOTAL FREE ENERGY PREDICTED BY IDOCK:    8.10 KCAL/MOL
REMARK 923 INTER-LIGAND FREE ENERGY PREDICTED BY IDOCK:   -3.21 KCAL/MOL
REMARK 924 INTRA-LIGAND FREE ENERGY PREDICTED BY IDOCK:   11.31 KCAL/MOL
REMARK 927      BINDING AFFINITY PREDICTED BY RF-SCORE:    0.00 PKD
ROOT
HETATM    1  C   UNL     1     -10.735  15.471  68.025  1.00  0.00    -0.283 C  
HETATM    2  C   UNL     1     -10.703  15.537  69.448  1.00  0.00    -0.251 C  
HETATM    3  C   UNL     1      -9.326  15.826  68.940  1.00  0.00    -0.228 C  
HETATM    4  C   UNL     1      -9.212  15.979  66.905  1.00  0.00    -0.224 C  
HETATM    5  C   UNL     1      -6.711   9.781  68.398  1.00  0.00    -0.060 C  
HETATM    6  C   UNL     1      -9.626  16.970  67.764  1.00  0.00    -0.244 C  
HETATM    7  C   UNL     1      -7.731  16.842  67.996  1.00  0.00    -0.179 C  
HETATM    8  C   UNL     1      -8.164   9.978  68.260  1.00  0.00    -0.106 C  
HETATM    9  C   UNL     1     -10.275  18.307  67.592  1.00  0.00    -0.397 C  
HETATM   10  C   UNL     1      -5.976  10.938  68.987  1.00  0.00    -0.041 C  
HETATM   11  C   UNL     1      -7.203  15.131  67.706  1.00  0.00    -0.185 C  
HETATM   12  C   UNL     1      -8.615  11.194  67.900  1.00  0.00    -0.135 C  
HETATM   13  O   UNL     1      -6.189   8.710  68.116  1.00  0.00    -0.050 OA 
HETATM   14  C   UNL     1      -8.261  13.755  67.971  1.00  0.00    -0.164 C  
HETATM   15  C   UNL     1      -7.492  12.296  65.995  1.00  0.00     1.361 C  
HETATM   16  C   UNL     1      -9.912  13.882  67.619  1.00  0.00    -0.237 C  
HETATM   17  C   UNL     1      -7.662  12.361  67.525  1.00  0.00    -0.161 C  
HETATM   18  C   UNL     1     -10.644  12.694  68.258  1.00  0.00    -0.250 C  
HETATM   19  C   UNL     1      -6.240  12.209  68.190  1.00  0.00    -0.055 C  
HETATM   20  C   UNL     1     -10.108  11.372  67.718  1.00  0.00    -0.198 C  
ENDROOT
BRANCH   4  21
HETATM   21  O   UNL     1      -8.666  17.001  65.934  1.00  0.00    -0.524 OA 
BRANCH  21  22
HETATM   22  C   UNL     1      -7.658  17.857  66.253  1.00  0.00    -0.280 C  
HETATM   23  O   UNL     1      -7.766  19.071  66.306  1.00  0.00    -0.262 OA 
BRANCH  22  24
HETATM   24  C   UNL     1      -6.372  17.059  66.464  1.00  0.00    -0.219 C  
BRANCH  24  25
HETATM   25  C   UNL     1      -5.418  17.608  67.528  1.00  0.00    -0.145 C  
BRANCH  25  26
HETATM   26  C   UNL     1      -5.171  16.698  68.737  1.00  0.00    -0.122 C  
BRANCH  26  27
HETATM   27  C   UNL     1      -5.134  17.435  70.077  1.00  0.00    -0.191 C  
BRANCH  27  28
HETATM   28  C   UNL     1      -5.518  16.503  71.230  1.00  0.00     0.197 C  
HETATM   29  C   UNL     1      -6.414  15.368  70.760  1.00  0.00     0.420 C  
ENDBRANCH  27  28
ENDBRANCH  26  27
ENDBRANCH  25  26
ENDBRANCH  24  25
ENDBRANCH  22  24
ENDBRANCH  21  22
ENDBRANCH   4  21
TORSDOF 7
ENDMDL
MODEL      187
REMARK 921   NORMALIZED FREE ENERGY PREDICTED BY IDOCK:    7.82 KCAL/MOL
REMARK 922        TOTAL FREE ENERGY PREDICTED BY IDOCK:    8.87 KCAL/MOL
REMARK 923 INTER-LIGAND FREE ENERGY PREDICTED BY IDOCK:    1.73 KCAL/MOL
REMARK 924 INTRA-LIGAND FREE ENERGY PREDICTED BY IDOCK:    7.14 KCAL/MOL
REMARK 927      BINDING AFFINITY PREDICTED BY RF-SCORE:    0.00 PKD
ROOT
HETATM    1  C   UNL     1      -8.769  16.914  67.697  1.00  0.00    -0.212 C  
HETATM    2  C   UNL     1      -9.816  17.261  66.795  1.00  0.00    -0.296 C  
HETATM    3  C   UNL     1     -10.057  17.983  68.083  1.00  0.00    -0.378 C  
HETATM    4  C   UNL     1      -8.545  17.772  69.442  1.00  0.00     0.479 C  
HETATM    5  C   UNL     1     -13.495  13.548  71.575  1.00  0.00    -0.240 C  
HETATM    6  C   UNL     1      -8.560  18.654  68.386  1.00  0.00    -0.366 C  
HETATM    7  C   UNL     1      -9.797  19.357  69.667  1.00  0.00     0.041 C  
HETATM    8  C   UNL     1     -12.537  13.105  70.548  1.00  0.00    -0.237 C  
HETATM    9  C   UNL     1      -7.546  19.549  67.749  1.00  0.00    -0.307 C  
HETATM   10  C   UNL     1     -13.857  14.995  71.510  1.00  0.00    -0.570 C  
HETATM   11  C   UNL     1     -10.556  17.989  70.586  1.00  0.00     1.987 C  
HETATM   12  C   UNL     1     -11.537  13.937  70.202  1.00  0.00    -0.249 C  
HETATM   13  O   UNL     1     -13.998  12.751  72.357  1.00  0.00    -0.438 OA 
HETATM   14  C   UNL     1     -10.744  16.381  69.907  1.00  0.00    -0.300 C  
HETATM   15  C   UNL     1     -10.277  15.011  72.035  1.00  0.00     2.375 C  
HETATM   16  C   UNL     1      -9.550  15.753  68.885  1.00  0.00    -0.229 C  
HETATM   17  C   UNL     1     -11.296  15.295  70.915  1.00  0.00    -0.380 C  
HETATM   18  C   UNL     1     -10.114  14.518  68.170  1.00  0.00    -0.227 C  
HETATM   19  C   UNL     1     -12.610  15.867  71.572  1.00  0.00    -0.456 C  
HETATM   20  C   UNL     1     -10.534  13.452  69.177  1.00  0.00     0.034 C  
ENDROOT
BRANCH   4  21
HETATM   21  O   UNL     1      -7.702  18.720  70.265  1.00  0.00     1.176 OA 
BRANCH  21  22
HETATM   22  C   UNL     1      -6.617  19.370  69.764  1.00  0.00    -0.226 C  
HETATM   23  O   UNL     1      -6.407  20.565  69.881  1.00  0.00    -0.306 OA 
BRANCH  22  24
HETATM   24  C   UNL     1      -5.754  18.375  68.988  1.00  0.00    -0.211 C  
BRANCH  24  25
HETATM   25  C   UNL     1      -5.998  16.898  69.305  1.00  0.00    -0.190 C  
BRANCH  25  26
HETATM   26  C   UNL     1      -6.207  15.981  68.094  1.00  0.00    -0.127 C  
BRANCH  26  27
HETATM   27  C   UNL     1      -5.256  16.258  66.928  1.00  0.00     0.185 C  
BRANCH  27  28
HETATM   28  C   UNL     1      -5.744  17.441  66.087  1.00  0.00    -0.172 C  
HETATM   29  C   UNL     1      -5.166  17.408  64.681  1.00  0.00     1.566 C  
ENDBRANCH  27  28
ENDBRANCH  26  27
ENDBRANCH  25  26
ENDBRANCH  24  25
ENDBRANCH  22  24
ENDBRANCH  21  22
ENDBRANCH   4  21
TORSDOF 7
ENDMDL
MODEL      188
REMARK 921   NORMALIZED FREE ENERGY PREDICTED BY IDOCK:    9.51 KCAL/MOL
REMARK 922        TOTAL FREE ENERGY PREDICTED BY IDOCK:   11.25 KCAL/MOL
REMARK 923 INTER-LIGAND FREE ENERGY PREDICTED BY IDOCK:   -3.32 KCAL/MOL
REMARK 924 INTRA-LIGAND FREE ENERGY PREDICTED BY IDOCK:   14.57 KCAL/MOL
REMARK 927      BINDING AFFINITY PREDICTED BY RF-SCORE:    0.00 PKD
ROOT
HETATM    1  C   UNL     1      -9.669  16.525  66.148  1.00  0.00    -0.344 C  
HETATM    2  C   UNL     1     -10.973  16.696  66.696  1.00  0.00     0.104 C  
HETATM    3  C   UNL     1     -10.012  16.531  67.831  1.00  0.00    -0.245 C  
HETATM    4  C   UNL     1      -8.053  16.477  67.251  1.00  0.00    -0.168 C  
HETATM    5  C   UNL     1      -9.746   9.965  68.527  1.00  0.00    -0.154 C  
HETATM    6  C   UNL     1      -8.810  17.612  67.423  1.00  0.00    -0.235 C  
HETATM    7  C   UNL     1      -8.447  16.960  69.185  1.00  0.00    -0.057 C  
HETATM    8  C   UNL     1     -10.043  10.562  67.214  1.00  0.00    -0.242 C  
HETATM    9  C   UNL     1      -8.619  19.061  67.102  1.00  0.00    -0.298 C  
HETATM   10  C   UNL     1      -9.858  10.904  69.681  1.00  0.00     0.151 C  
HETATM   11  C   UNL     1      -8.313  15.152  69.143  1.00  0.00    -0.221 C  
HETATM   12  C   UNL     1      -9.636  11.823  66.976  1.00  0.00    -0.196 C  
HETATM   13  O   UNL     1      -9.507   8.769  68.638  1.00  0.00    -0.141 OA 
HETATM   14  C   UNL     1      -9.138  14.167  67.945  1.00  0.00    -0.189 C  
HETATM   15  C   UNL     1      -7.311  12.391  67.585  1.00  0.00    -0.132 C  
HETATM   16  C   UNL     1      -9.311  14.738  66.361  1.00  0.00    -0.320 C  
HETATM   17  C   UNL     1      -8.778  12.628  67.988  1.00  0.00    -0.190 C  
HETATM   18  C   UNL     1     -10.348  13.870  65.636  1.00  0.00    -0.337 C  
HETATM   19  C   UNL     1      -8.974  12.126  69.470  1.00  0.00     1.439 C  
HETATM   20  C   UNL     1      -9.909  12.410  65.607  1.00  0.00    -0.235 C  
ENDROOT
BRANCH   4  21
HETATM   21  O   UNL     1      -6.795  17.213  67.651  1.00  0.00    -0.136 OA 
BRANCH  21  22
HETATM   22  C   UNL     1      -5.936  17.754  66.746  1.00  0.00    -0.159 C  
HETATM   23  O   UNL     1      -5.195  17.111  66.021  1.00  0.00    -0.344 OA 
BRANCH  22  24
HETATM   24  C   UNL     1      -6.006  19.277  66.837  1.00  0.00    -0.164 C  
BRANCH  24  25
HETATM   25  C   UNL     1      -6.730  19.835  68.065  1.00  0.00    -0.289 C  
BRANCH  25  26
HETATM   26  C   UNL     1      -7.936  20.737  67.777  1.00  0.00    -0.077 C  
BRANCH  26  27
HETATM   27  C   UNL     1      -8.892  20.184  66.719  1.00  0.00    -0.407 C  
BRANCH  27  28
HETATM   28  C   UNL     1     -10.339  20.586  67.019  1.00  0.00    -0.189 C  
HETATM   29  C   UNL     1     -11.283  20.163  65.904  1.00  0.00     0.459 C  
ENDBRANCH  27  28
ENDBRANCH  26  27
ENDBRANCH  25  26
ENDBRANCH  24  25
ENDBRANCH  22  24
ENDBRANCH  21  22
ENDBRANCH   4  21
TORSDOF 7
ENDMDL
MODEL      189
REMARK 921   NORMALIZED FREE ENERGY PREDICTED BY IDOCK:   11.84 KCAL/MOL
REMARK 922        TOTAL FREE ENERGY PREDICTED BY IDOCK:   14.53 KCAL/MOL
REMARK 923 INTER-LIGAND FREE ENERGY PREDICTED BY IDOCK:   12.42 KCAL/MOL
REMARK 924 INTRA-LIGAND FREE ENERGY PREDICTED BY IDOCK:    2.11 KCAL/MOL
REMARK 927      BINDING AFFINITY PREDICTED BY RF-SCORE:    0.00 PKD
ROOT
HETATM    1  C   UNL     1     -10.768  16.430  64.986  1.00  0.00    -0.279 C  
HETATM    2  C   UNL     1     -12.054  16.111  64.459  1.00  0.00     0.383 C  
HETATM    3  C   UNL     1     -12.021  15.682  65.892  1.00  0.00     0.742 C  
HETATM    4  C   UNL     1     -10.323  16.241  66.883  1.00  0.00    -0.299 C  
HETATM    5  C   UNL     1      -9.501   9.586  65.494  1.00  0.00    -0.268 C  
HETATM    6  C   UNL     1     -11.416  17.042  66.645  1.00  0.00     1.067 C  
HETATM    7  C   UNL     1     -11.963  15.808  68.001  1.00  0.00     0.183 C  
HETATM    8  C   UNL     1      -9.159  10.600  64.482  1.00  0.00    -0.243 C  
HETATM    9  C   UNL     1     -11.702  18.502  66.796  1.00  0.00     2.036 C  
HETATM   10  C   UNL     1     -10.670   9.931  66.355  1.00  0.00    -0.034 C  
HETATM   11  C   UNL     1     -11.086  14.236  67.775  1.00  0.00    -0.294 C  
HETATM   12  C   UNL     1      -9.270  11.899  64.814  1.00  0.00     0.257 C  
HETATM   13  O   UNL     1      -8.904   8.518  65.547  1.00  0.00    -0.178 OA 
HETATM   14  C   UNL     1     -10.505  13.691  66.211  1.00  0.00    -0.291 C  
HETATM   15  C   UNL     1      -8.305  12.598  66.978  1.00  0.00    -0.130 C  
HETATM   16  C   UNL     1      -9.903  14.815  65.097  1.00  0.00    -0.164 C  
HETATM   17  C   UNL     1      -9.641  12.367  66.247  1.00  0.00    -0.245 C  
HETATM   18  C   UNL     1      -9.801  14.140  63.723  1.00  0.00     3.569 C  
HETATM   19  C   UNL     1     -10.460  11.276  67.038  1.00  0.00    -0.272 C  
HETATM   20  C   UNL     1      -8.872  12.932  63.779  1.00  0.00     3.496 C  
ENDROOT
BRANCH   4  21
HETATM   21  O   UNL     1     -10.024  16.973  68.171  1.00  0.00    -0.264 OA 
BRANCH  21  22
HETATM   22  C   UNL     1      -9.287  18.115  68.218  1.00  0.00    -0.303 C  
HETATM   23  O   UNL     1      -8.114  18.199  67.896  1.00  0.00    -0.238 OA 
BRANCH  22  24
HETATM   24  C   UNL     1     -10.144  19.241  68.796  1.00  0.00    -0.477 C  
BRANCH  24  25
HETATM   25  C   UNL     1     -10.787  18.953  70.155  1.00  0.00     2.351 C  
BRANCH  25  26
HETATM   26  C   UNL     1     -11.074  17.478  70.459  1.00  0.00     1.582 C  
BRANCH  26  27
HETATM   27  C   UNL     1     -11.231  17.164  71.948  1.00  0.00     1.180 C  
BRANCH  27  28
HETATM   28  C   UNL     1     -11.145  15.657  72.206  1.00  0.00     0.073 C  
HETATM   29  C   UNL     1     -12.256  15.181  73.129  1.00  0.00    -0.521 C  
ENDBRANCH  27  28
ENDBRANCH  26  27
ENDBRANCH  25  26
ENDBRANCH  24  25
ENDBRANCH  22  24
ENDBRANCH  21  22
ENDBRANCH   4  21
TORSDOF 7
ENDMDL
MODEL      190
REMARK 921   NORMALIZED FREE ENERGY PREDICTED BY IDOCK:   12.49 KCAL/MOL
REMARK 922        TOTAL FREE ENERGY PREDICTED BY IDOCK:   15.45 KCAL/MOL
REMARK 923 INTER-LIGAND FREE ENERGY PREDICTED BY IDOCK:   16.29 KCAL/MOL
REMARK 924 INTRA-LIGAND FREE ENERGY PREDICTED BY IDOCK:   -0.85 KCAL/MOL
REMARK 927      BINDING AFFINITY PREDICTED BY RF-SCORE:    0.00 PKD
ROOT
HETATM    1  C   UNL     1      -9.088  14.450  69.711  1.00  0.00     0.746 C  
HETATM    2  C   UNL     1      -9.043  15.872  69.633  1.00  0.00    -0.049 C  
HETATM    3  C   UNL     1     -10.473  15.463  69.789  1.00  0.00    -0.303 C  
HETATM    4  C   UNL     1     -10.727  13.463  70.124  1.00  0.00     1.115 C  
HETATM    5  C   UNL     1     -12.343  14.416  63.537  1.00  0.00     0.431 C  
HETATM    6  C   UNL     1     -10.389  14.400  71.072  1.00  0.00     1.872 C  
HETATM    7  C   UNL     1     -12.236  14.707  70.676  1.00  0.00    -0.394 C  
HETATM    8  C   UNL     1     -10.937  14.231  63.934  1.00  0.00     0.665 C  
HETATM    9  C   UNL     1      -9.923  14.338  72.492  1.00  0.00     6.627 C  
HETATM   10  C   UNL     1     -13.179  15.157  64.526  1.00  0.00     1.365 C  
HETATM   11  C   UNL     1     -12.563  14.265  68.947  1.00  0.00     0.315 C  
HETATM   12  C   UNL     1     -10.663  13.979  65.228  1.00  0.00    -0.367 C  
HETATM   13  O   UNL     1     -12.744  14.049  62.440  1.00  0.00     0.632 OA 
HETATM   14  C   UNL     1     -11.329  14.334  67.701  1.00  0.00    -0.344 C  
HETATM   15  C   UNL     1     -12.027  12.255  66.355  1.00  0.00    -0.286 C  
HETATM   16  C   UNL     1      -9.730  13.920  68.075  1.00  0.00    -0.226 C  
HETATM   17  C   UNL     1     -11.775  13.773  66.291  1.00  0.00    -0.400 C  
HETATM   18  C   UNL     1      -8.819  14.396  66.936  1.00  0.00    -0.246 C  
HETATM   19  C   UNL     1     -13.124  14.486  65.892  1.00  0.00     0.406 C  
HETATM   20  C   UNL     1      -9.218  13.747  65.615  1.00  0.00     0.404 C  
ENDROOT
BRANCH   4  21
HETATM   21  O   UNL     1     -11.454  12.631  71.156  1.00  0.00     1.134 OA 
BRANCH  21  22
HETATM   22  C   UNL     1     -11.485  11.272  71.122  1.00  0.00     0.971 C  
HETATM   23  O   UNL     1     -11.692  10.556  72.087  1.00  0.00     0.819 OA 
BRANCH  22  24
HETATM   24  C   UNL     1     -11.157  10.800  69.706  1.00  0.00    -0.346 C  
BRANCH  24  25
HETATM   25  C   UNL     1     -12.128   9.780  69.105  1.00  0.00     0.777 C  
BRANCH  25  26
HETATM   26  C   UNL     1     -12.810   8.839  70.105  1.00  0.00     1.350 C  
BRANCH  26  27
HETATM   27  C   UNL     1     -11.995   7.590  70.445  1.00  0.00     0.004 C  
BRANCH  27  28
HETATM   28  C   UNL     1     -10.834   7.405  69.465  1.00  0.00    -0.201 C  
HETATM   29  C   UNL     1      -9.745   6.516  70.045  1.00  0.00    -0.178 C  
ENDBRANCH  27  28
ENDBRANCH  26  27
ENDBRANCH  25  26
ENDBRANCH  24  25
ENDBRANCH  22  24
ENDBRANCH  21  22
ENDBRANCH   4  21
TORSDOF 7
ENDMDL
MODEL      191
REMARK 921   NORMALIZED FREE ENERGY PREDICTED BY IDOCK:   12.53 KCAL/MOL
REMARK 922        TOTAL FREE ENERGY PREDICTED BY IDOCK:   15.50 KCAL/MOL
REMARK 923 INTER-LIGAND FREE ENERGY PREDICTED BY IDOCK:   13.60 KCAL/MOL
REMARK 924 INTRA-LIGAND FREE ENERGY PREDICTED BY IDOCK:    1.91 KCAL/MOL
REMARK 927      BINDING AFFINITY PREDICTED BY RF-SCORE:    0.00 PKD
ROOT
HETATM    1  C   UNL     1      -6.576   8.642  69.091  1.00  0.00    -0.047 C  
HETATM    2  C   UNL     1      -5.265   9.142  69.340  1.00  0.00    -0.035 C  
HETATM    3  C   UNL     1      -6.223   9.909  70.196  1.00  0.00    -0.073 C  
HETATM    4  C   UNL     1      -8.138   9.198  70.130  1.00  0.00    -0.140 C  
HETATM    5  C   UNL     1      -8.142  14.779  66.161  1.00  0.00     1.302 C  
HETATM    6  C   UNL     1      -7.116   8.686  70.894  1.00  0.00    -0.067 C  
HETATM    7  C   UNL     1      -7.612  10.334  71.731  1.00  0.00     3.251 C  
HETATM    8  C   UNL     1      -7.717  13.481  65.611  1.00  0.00     4.666 C  
HETATM    9  C   UNL     1      -6.936   7.449  71.716  1.00  0.00    -0.062 C  
HETATM   10  C   UNL     1      -7.782  14.999  67.593  1.00  0.00    -0.186 C  
HETATM   11  C   UNL     1      -8.203  11.496  70.469  1.00  0.00     4.120 C  
HETATM   12  C   UNL     1      -7.793  12.394  66.400  1.00  0.00     0.504 C  
HETATM   13  O   UNL     1      -8.676  15.623  65.452  1.00  0.00     0.497 OA 
HETATM   14  C   UNL     1      -7.669  11.433  68.798  1.00  0.00    -0.135 C  
HETATM   15  C   UNL     1      -9.891  12.060  67.661  1.00  0.00    -0.191 C  
HETATM   16  C   UNL     1      -7.374   9.936  68.064  1.00  0.00    -0.084 C  
HETATM   17  C   UNL     1      -8.407  12.438  67.825  1.00  0.00    -0.164 C  
HETATM   18  C   UNL     1      -6.599  10.171  66.760  1.00  0.00    -0.073 C  
HETATM   19  C   UNL     1      -8.328  13.877  68.466  1.00  0.00    -0.132 C  
HETATM   20  C   UNL     1      -7.396  11.058  65.808  1.00  0.00     0.084 C  
ENDROOT
BRANCH   4  21
HETATM   21  O   UNL     1      -9.163   8.780  71.159  1.00  0.00    -0.192 OA 
BRANCH  21  22
HETATM   22  C   UNL     1     -10.424   9.289  71.196  1.00  0.00    -0.331 C  
HETATM   23  O   UNL     1     -11.313   8.892  71.930  1.00  0.00    -0.338 OA 
BRANCH  22  24
HETATM   24  C   UNL     1     -10.554  10.380  70.134  1.00  0.00    -0.245 C  
BRANCH  24  25
HETATM   25  C   UNL     1     -11.798  11.266  70.242  1.00  0.00    -0.446 C  
BRANCH  25  26
HETATM   26  C   UNL     1     -11.622  12.722  69.795  1.00  0.00    -0.288 C  
BRANCH  26  27
HETATM   27  C   UNL     1     -12.936  13.459  69.532  1.00  0.00     1.020 C  
BRANCH  27  28
HETATM   28  C   UNL     1     -13.062  14.698  70.424  1.00  0.00    -0.161 C  
HETATM   29  C   UNL     1     -14.395  15.401  70.224  1.00  0.00     1.544 C  
ENDBRANCH  27  28
ENDBRANCH  26  27
ENDBRANCH  25  26
ENDBRANCH  24  25
ENDBRANCH  22  24
ENDBRANCH  21  22
ENDBRANCH   4  21
TORSDOF 7
ENDMDL
MODEL      192
REMARK 921   NORMALIZED FREE ENERGY PREDICTED BY IDOCK:   13.12 KCAL/MOL
REMARK 922        TOTAL FREE ENERGY PREDICTED BY IDOCK:   16.34 KCAL/MOL
REMARK 923 INTER-LIGAND FREE ENERGY PREDICTED BY IDOCK:   11.75 KCAL/MOL
REMARK 924 INTRA-LIGAND FREE ENERGY PREDICTED BY IDOCK:    4.60 KCAL/MOL
REMARK 927      BINDING AFFINITY PREDICTED BY RF-SCORE:    0.00 PKD
ROOT
HETATM    1  C   UNL     1     -11.044  16.565  65.242  1.00  0.00    -0.080 C  
HETATM    2  C   UNL     1     -12.027  17.187  66.065  1.00  0.00     3.005 C  
HETATM    3  C   UNL     1     -10.793  16.992  66.887  1.00  0.00    -0.013 C  
HETATM    4  C   UNL     1      -9.194  16.296  65.822  1.00  0.00    -0.116 C  
HETATM    5  C   UNL     1     -11.601  10.865  69.229  1.00  0.00    -0.318 C  
HETATM    6  C   UNL     1      -9.610  17.605  65.883  1.00  0.00    -0.003 C  
HETATM    7  C   UNL     1      -8.812  17.235  67.583  1.00  0.00    -0.220 C  
HETATM    8  C   UNL     1     -12.199  11.254  67.941  1.00  0.00     0.457 C  
HETATM    9  C   UNL     1      -9.258  18.856  65.143  1.00  0.00     2.281 C  
HETATM   10  C   UNL     1     -11.132  12.005  70.070  1.00  0.00     0.259 C  
HETATM   11  C   UNL     1      -9.057  15.485  67.995  1.00  0.00    -0.182 C  
HETATM   12  C   UNL     1     -11.657  12.285  67.267  1.00  0.00    -0.427 C  
HETATM   13  O   UNL     1     -11.578   9.695  69.589  1.00  0.00    -0.088 OA 
HETATM   14  C   UNL     1     -10.412  14.548  67.388  1.00  0.00    -0.264 C  
HETATM   15  C   UNL     1      -9.199  12.308  67.027  1.00  0.00    -0.205 C  
HETATM   16  C   UNL     1     -10.992  14.825  65.822  1.00  0.00    -0.334 C  
HETATM   17  C   UNL     1     -10.368  13.008  67.743  1.00  0.00    -0.227 C  
HETATM   18  C   UNL     1     -12.362  14.148  65.677  1.00  0.00    -0.473 C  
HETATM   19  C   UNL     1     -10.149  12.877  69.300  1.00  0.00     0.478 C  
HETATM   20  C   UNL     1     -12.253  12.646  65.923  1.00  0.00    -0.375 C  
ENDROOT
BRANCH   4  21
HETATM   21  O   UNL     1      -7.756  16.726  65.640  1.00  0.00     0.002 OA 
BRANCH  21  22
HETATM   22  C   UNL     1      -6.707  16.044  66.175  1.00  0.00     1.796 C  
HETATM   23  O   UNL     1      -5.800  15.546  65.530  1.00  0.00     5.496 OA 
BRANCH  22  24
HETATM   24  C   UNL     1      -6.891  15.951  67.689  1.00  0.00    -0.191 C  
BRANCH  24  25
HETATM   25  C   UNL     1      -5.632  15.608  68.489  1.00  0.00    -0.103 C  
BRANCH  25  26
HETATM   26  C   UNL     1      -5.830  15.422  69.998  1.00  0.00    -0.142 C  
BRANCH  26  27
HETATM   27  C   UNL     1      -7.233  14.959  70.393  1.00  0.00     0.393 C  
BRANCH  27  28
HETATM   28  C   UNL     1      -7.433  13.473  70.080  1.00  0.00     1.407 C  
HETATM   29  C   UNL     1      -6.159  12.676  70.306  1.00  0.00    -0.066 C  
ENDBRANCH  27  28
ENDBRANCH  26  27
ENDBRANCH  25  26
ENDBRANCH  24  25
ENDBRANCH  22  24
ENDBRANCH  21  22
ENDBRANCH   4  21
TORSDOF 7
ENDMDL
MODEL      193
REMARK 921   NORMALIZED FREE ENERGY PREDICTED BY IDOCK:   14.67 KCAL/MOL
REMARK 922        TOTAL FREE ENERGY PREDICTED BY IDOCK:   18.52 KCAL/MOL
REMARK 923 INTER-LIGAND FREE ENERGY PREDICTED BY IDOCK:   15.60 KCAL/MOL
REMARK 924 INTRA-LIGAND FREE ENERGY PREDICTED BY IDOCK:    2.92 KCAL/MOL
REMARK 927      BINDING AFFINITY PREDICTED BY RF-SCORE:    0.00 PKD
ROOT
HETATM    1  C   UNL     1     -10.634   5.797  66.763  1.00  0.00    -0.373 C  
HETATM    2  C   UNL     1     -10.787   7.060  66.121  1.00  0.00     1.265 C  
HETATM    3  C   UNL     1      -9.695   7.185  67.136  1.00  0.00    -0.212 C  
HETATM    4  C   UNL     1      -9.185   5.416  68.023  1.00  0.00    -0.110 C  
HETATM    5  C   UNL     1     -13.029   8.711  72.634  1.00  0.00    -0.202 C  
HETATM    6  C   UNL     1      -8.752   5.853  66.793  1.00  0.00    -0.117 C  
HETATM    7  C   UNL     1      -7.822   6.921  68.079  1.00  0.00    -0.114 C  
HETATM    8  C   UNL     1     -13.668   7.914  71.574  1.00  0.00    -0.384 C  
HETATM    9  C   UNL     1      -8.009   5.226  65.656  1.00  0.00    -0.106 C  
HETATM   10  C   UNL     1     -11.770   9.400  72.226  1.00  0.00     0.063 C  
HETATM   11  C   UNL     1      -8.864   7.139  69.548  1.00  0.00    -0.137 C  
HETATM   12  C   UNL     1     -12.881   7.225  70.726  1.00  0.00    -0.057 C  
HETATM   13  O   UNL     1     -13.557   8.844  73.731  1.00  0.00     0.954 OA 
HETATM   14  C   UNL     1     -10.618   7.091  69.482  1.00  0.00    -0.253 C  
HETATM   15  C   UNL     1     -11.054   5.890  71.716  1.00  0.00    -0.324 C  
HETATM   16  C   UNL     1     -11.392   6.026  68.418  1.00  0.00     0.121 C  
HETATM   17  C   UNL     1     -11.339   7.157  70.888  1.00  0.00    -0.319 C  
HETATM   18  C   UNL     1     -12.869   6.428  68.306  1.00  0.00     8.536 C  
HETATM   19  C   UNL     1     -10.764   8.401  71.669  1.00  0.00    -0.333 C  
HETATM   20  C   UNL     1     -13.551   6.374  69.668  1.00  0.00     6.944 C  
ENDROOT
BRANCH   4  21
HETATM   21  O   UNL     1      -7.895   4.660  68.246  1.00  0.00    -0.080 OA 
BRANCH  21  22
HETATM   22  C   UNL     1      -7.568   3.536  67.554  1.00  0.00    -0.070 C  
HETATM   23  O   UNL     1      -6.493   2.964  67.624  1.00  0.00    -0.035 OA 
BRANCH  22  24
HETATM   24  C   UNL     1      -8.731   3.155  66.640  1.00  0.00    -0.132 C  
BRANCH  24  25
HETATM   25  C   UNL     1      -8.595   1.812  65.918  1.00  0.00    -0.112 C  
BRANCH  25  26
HETATM   26  C   UNL     1      -9.503   1.614  64.699  1.00  0.00    -0.086 C  
BRANCH  26  27
HETATM   27  C   UNL     1     -10.734   2.520  64.682  1.00  0.00     0.893 C  
BRANCH  27  28
HETATM   28  C   UNL     1     -11.484   2.407  63.351  1.00  0.00     0.463 C  
HETATM   29  C   UNL     1     -10.999   3.437  62.343  1.00  0.00    -0.086 C  
ENDBRANCH  27  28
ENDBRANCH  26  27
ENDBRANCH  25  26
ENDBRANCH  24  25
ENDBRANCH  22  24
ENDBRANCH  21  22
ENDBRANCH   4  21
TORSDOF 7
ENDMDL
MODEL      194
REMARK 921   NORMALIZED FREE ENERGY PREDICTED BY IDOCK:   15.33 KCAL/MOL
REMARK 922        TOTAL FREE ENERGY PREDICTED BY IDOCK:   19.45 KCAL/MOL
REMARK 923 INTER-LIGAND FREE ENERGY PREDICTED BY IDOCK:   19.82 KCAL/MOL
REMARK 924 INTRA-LIGAND FREE ENERGY PREDICTED BY IDOCK:   -0.37 KCAL/MOL
REMARK 927      BINDING AFFINITY PREDICTED BY RF-SCORE:    0.00 PKD
ROOT
HETATM    1  C   UNL     1      -6.742  16.876  71.677  1.00  0.00     4.517 C  
HETATM    2  C   UNL     1      -5.382  16.570  71.973  1.00  0.00     0.690 C  
HETATM    3  C   UNL     1      -5.432  17.196  70.614  1.00  0.00    -0.165 C  
HETATM    4  C   UNL     1      -7.281  17.894  70.095  1.00  0.00     1.392 C  
HETATM    5  C   UNL     1      -6.551  11.995  66.693  1.00  0.00     0.167 C  
HETATM    6  C   UNL     1      -6.370  18.546  70.892  1.00  0.00     0.975 C  
HETATM    7  C   UNL     1      -5.677  18.662  69.112  1.00  0.00    -0.221 C  
HETATM    8  C   UNL     1      -7.023  11.990  68.087  1.00  0.00    -0.079 C  
HETATM    9  C   UNL     1      -6.416  19.762  71.762  1.00  0.00     0.302 C  
HETATM   10  C   UNL     1      -5.552  13.058  66.374  1.00  0.00     2.542 C  
HETATM   11  C   UNL     1      -6.178  17.192  68.174  1.00  0.00    -0.136 C  
HETATM   12  C   UNL     1      -7.219  13.172  68.702  1.00  0.00    -0.106 C  
HETATM   13  O   UNL     1      -6.908  11.132  65.901  1.00  0.00    -0.028 OA 
HETATM   14  C   UNL     1      -6.506  15.646  68.938  1.00  0.00    -0.113 C  
HETATM   15  C   UNL     1      -8.474  14.897  67.458  1.00  0.00    -0.198 C  
HETATM   16  C   UNL     1      -7.248  15.599  70.459  1.00  0.00     0.952 C  
HETATM   17  C   UNL     1      -7.068  14.531  67.968  1.00  0.00    -0.147 C  
HETATM   18  C   UNL     1      -7.098  14.185  71.037  1.00  0.00     1.549 C  
HETATM   19  C   UNL     1      -6.098  14.435  66.728  1.00  0.00     2.113 C  
HETATM   20  C   UNL     1      -7.747  13.153  70.121  1.00  0.00     2.292 C  
ENDROOT
BRANCH   4  21
HETATM   21  O   UNL     1      -7.828  19.208  69.585  1.00  0.00     0.071 OA 
BRANCH  21  22
HETATM   22  C   UNL     1      -8.846  19.286  68.686  1.00  0.00    -0.374 C  
HETATM   23  O   UNL     1      -9.229  20.316  68.157  1.00  0.00    -0.220 OA 
BRANCH  22  24
HETATM   24  C   UNL     1      -9.462  17.899  68.507  1.00  0.00    -0.316 C  
BRANCH  24  25
HETATM   25  C   UNL     1     -10.980  17.868  68.314  1.00  0.00     0.041 C  
BRANCH  25  26
HETATM   26  C   UNL     1     -11.467  17.513  66.904  1.00  0.00     1.144 C  
BRANCH  26  27
HETATM   27  C   UNL     1     -10.399  16.874  66.015  1.00  0.00    -0.335 C  
BRANCH  27  28
HETATM   28  C   UNL     1     -10.047  17.782  64.834  1.00  0.00     2.051 C  
HETATM   29  C   UNL     1      -9.627  19.168  65.296  1.00  0.00     1.463 C  
ENDBRANCH  27  28
ENDBRANCH  26  27
ENDBRANCH  25  26
ENDBRANCH  24  25
ENDBRANCH  22  24
ENDBRANCH  21  22
ENDBRANCH   4  21
TORSDOF 7
ENDMDL
MODEL      195
REMARK 921   NORMALIZED FREE ENERGY PREDICTED BY IDOCK:   20.16 KCAL/MOL
REMARK 922        TOTAL FREE ENERGY PREDICTED BY IDOCK:   26.26 KCAL/MOL
REMARK 923 INTER-LIGAND FREE ENERGY PREDICTED BY IDOCK:   22.30 KCAL/MOL
REMARK 924 INTRA-LIGAND FREE ENERGY PREDICTED BY IDOCK:    3.96 KCAL/MOL
REMARK 927      BINDING AFFINITY PREDICTED BY RF-SCORE:    0.00 PKD
ROOT
HETATM    1  C   UNL     1     -11.903  12.668  69.385  1.00  0.00    -0.356 C  
HETATM    2  C   UNL     1     -12.463  12.309  70.645  1.00  0.00    -0.323 C  
HETATM    3  C   UNL     1     -10.981  12.117  70.725  1.00  0.00     2.429 C  
HETATM    4  C   UNL     1      -9.974  12.776  69.073  1.00  0.00     0.248 C  
HETATM    5  C   UNL     1     -10.220   5.961  68.444  1.00  0.00    -0.191 C  
HETATM    6  C   UNL     1     -10.414  13.561  70.113  1.00  0.00     1.424 C  
HETATM    7  C   UNL     1      -8.920  12.581  70.800  1.00  0.00     8.915 C  
HETATM    8  C   UNL     1     -11.353   6.786  67.994  1.00  0.00    -0.013 C  
HETATM    9  C   UNL     1     -10.518  15.035  70.346  1.00  0.00    -0.013 C  
HETATM   10  C   UNL     1      -9.510   6.478  69.651  1.00  0.00    -0.149 C  
HETATM   11  C   UNL     1      -8.829  10.967  69.977  1.00  0.00     1.090 C  
HETATM   12  C   UNL     1     -11.242   8.125  68.071  1.00  0.00     0.560 C  
HETATM   13  O   UNL     1      -9.954   4.898  67.898  1.00  0.00    -0.158 OA 
HETATM   14  C   UNL     1     -10.241  10.157  69.319  1.00  0.00    -0.238 C  
HETATM   15  C   UNL     1      -9.154   9.135  67.222  1.00  0.00    -0.143 C  
HETATM   16  C   UNL     1     -11.474  11.067  68.598  1.00  0.00    -0.375 C  
HETATM   17  C   UNL     1      -9.933   8.830  68.515  1.00  0.00    -0.200 C  
HETATM   18  C   UNL     1     -12.712  10.175  68.435  1.00  0.00     3.677 C  
HETATM   19  C   UNL     1      -9.037   7.908  69.429  1.00  0.00    -0.145 C  
HETATM   20  C   UNL     1     -12.397   8.963  67.564  1.00  0.00     7.149 C  
ENDROOT
BRANCH   4  21
HETATM   21  O   UNL     1      -8.801  13.698  68.828  1.00  0.00    -0.072 OA 
BRANCH  21  22
HETATM   22  C   UNL     1      -8.117  13.727  67.653  1.00  0.00    -0.177 C  
HETATM   23  O   UNL     1      -7.709  14.741  67.111  1.00  0.00    -0.200 OA 
BRANCH  22  24
HETATM   24  C   UNL     1      -8.006  12.306  67.103  1.00  0.00    -0.161 C  
BRANCH  24  25
HETATM   25  C   UNL     1      -6.876  11.455  67.690  1.00  0.00    -0.080 C  
BRANCH  25  26
HETATM   26  C   UNL     1      -7.239  10.624  68.925  1.00  0.00    -0.090 C  
BRANCH  26  27
HETATM   27  C   UNL     1      -6.053   9.897  69.561  1.00  0.00    -0.044 C  
BRANCH  27  28
HETATM   28  C   UNL     1      -5.426   8.901  68.581  1.00  0.00    -0.037 C  
HETATM   29  C   UNL     1      -5.822   7.469  68.905  1.00  0.00    -0.023 C  
ENDBRANCH  27  28
ENDBRANCH  26  27
ENDBRANCH  25  26
ENDBRANCH  24  25
ENDBRANCH  22  24
ENDBRANCH  21  22
ENDBRANCH   4  21
TORSDOF 7
ENDMDL
MODEL      196
REMARK 921   NORMALIZED FREE ENERGY PREDICTED BY IDOCK:   30.65 KCAL/MOL
REMARK 922        TOTAL FREE ENERGY PREDICTED BY IDOCK:   41.04 KCAL/MOL
REMARK 923 INTER-LIGAND FREE ENERGY PREDICTED BY IDOCK:    7.88 KCAL/MOL
REMARK 924 INTRA-LIGAND FREE ENERGY PREDICTED BY IDOCK:   33.16 KCAL/MOL
REMARK 927      BINDING AFFINITY PREDICTED BY RF-SCORE:    0.00 PKD
ROOT
HETATM    1  C   UNL     1      -9.862  16.834  66.065  1.00  0.00    -0.311 C  
HETATM    2  C   UNL     1     -11.157  16.627  66.623  1.00  0.00     0.247 C  
HETATM    3  C   UNL     1     -10.153  16.010  67.544  1.00  0.00    -0.247 C  
HETATM    4  C   UNL     1      -8.213  16.381  67.017  1.00  0.00    -0.198 C  
HETATM    5  C   UNL     1      -9.436   9.948  65.010  1.00  0.00    -0.280 C  
HETATM    6  C   UNL     1      -9.036  17.238  67.709  1.00  0.00    -0.235 C  
HETATM    7  C   UNL     1      -8.578  15.851  68.945  1.00  0.00    -0.221 C  
HETATM    8  C   UNL     1      -9.812  11.077  64.142  1.00  0.00    -0.360 C  
HETATM    9  C   UNL     1      -8.951  18.673  68.122  1.00  0.00    -0.335 C  
HETATM   10  C   UNL     1      -9.573  10.211  66.473  1.00  0.00    -0.236 C  
HETATM   11  C   UNL     1      -8.327  14.298  68.041  1.00  0.00    -0.157 C  
HETATM   12  C   UNL     1      -9.496  12.324  64.539  1.00  0.00     0.230 C  
HETATM   13  O   UNL     1      -9.116   8.866  64.536  1.00  0.00    -0.058 OA 
HETATM   14  C   UNL     1      -9.122  13.949  66.516  1.00  0.00    -0.165 C  
HETATM   15  C   UNL     1      -7.195  12.699  65.356  1.00  0.00     4.966 C  
HETATM   16  C   UNL     1      -9.381  15.193  65.397  1.00  0.00     0.207 C  
HETATM   17  C   UNL     1      -8.662  12.607  65.817  1.00  0.00     0.727 C  
HETATM   18  C   UNL     1     -10.381  14.705  64.341  1.00  0.00     0.412 C  
HETATM   19  C   UNL     1      -8.778  11.445  66.877  1.00  0.00    -0.165 C  
HETATM   20  C   UNL     1      -9.849  13.473  63.618  1.00  0.00     2.433 C  
ENDROOT
BRANCH   4  21
HETATM   21  O   UNL     1      -6.994  16.925  67.727  1.00  0.00    -0.135 OA 
BRANCH  21  22
HETATM   22  C   UNL     1      -6.523  18.186  67.525  1.00  0.00    -0.184 C  
HETATM   23  O   UNL     1      -5.465  18.454  66.983  1.00  0.00    -0.129 OA 
BRANCH  22  24
HETATM   24  C   UNL     1      -7.498  19.188  68.142  1.00  0.00    -0.316 C  
BRANCH  24  25
HETATM   25  C   UNL     1      -8.778  18.590  68.733  1.00  0.00    -0.268 C  
BRANCH  25  26
HETATM   26  C   UNL     1     -10.090  19.236  68.275  1.00  0.00    -0.516 C  
BRANCH  26  27
HETATM   27  C   UNL     1     -10.189  19.449  66.763  1.00  0.00    -0.521 C  
BRANCH  27  28
HETATM   28  C   UNL     1     -11.647  19.603  66.322  1.00  0.00     1.105 C  
HETATM   29  C   UNL     1     -11.751  20.062  64.875  1.00  0.00     2.593 C  
ENDBRANCH  27  28
ENDBRANCH  26  27
ENDBRANCH  25  26
ENDBRANCH  24  25
ENDBRANCH  22  24
ENDBRANCH  21  22
ENDBRANCH   4  21
TORSDOF 7
ENDMDL
MODEL      197
REMARK 921   NORMALIZED FREE ENERGY PREDICTED BY IDOCK:   50.27 KCAL/MOL
REMARK 922        TOTAL FREE ENERGY PREDICTED BY IDOCK:   68.70 KCAL/MOL
REMARK 923 INTER-LIGAND FREE ENERGY PREDICTED BY IDOCK:   57.76 KCAL/MOL
REMARK 924 INTRA-LIGAND FREE ENERGY PREDICTED BY IDOCK:   10.94 KCAL/MOL
REMARK 927      BINDING AFFINITY PREDICTED BY RF-SCORE:    0.00 PKD
ROOT
HETATM    1  C   UNL     1     -11.069  16.531  64.617  1.00  0.00    -0.135 C  
HETATM    2  C   UNL     1     -12.395  16.729  64.134  1.00  0.00     2.888 C  
HETATM    3  C   UNL     1     -12.483  16.047  65.463  1.00  0.00     1.967 C  
HETATM    4  C   UNL     1     -10.685  15.858  66.414  1.00  0.00    -0.256 C  
HETATM    5  C   UNL     1     -12.017   9.664  63.815  1.00  0.00    10.349 C  
HETATM    6  C   UNL     1     -11.472  16.985  66.400  1.00  0.00     1.163 C  
HETATM    7  C   UNL     1     -12.365  15.745  67.551  1.00  0.00     1.248 C  
HETATM    8  C   UNL     1     -11.384  10.696  62.977  1.00  0.00     1.723 C  
HETATM    9  C   UNL     1     -11.282  18.406  66.827  1.00  0.00     0.547 C  
HETATM   10  C   UNL     1     -13.007  10.181  64.804  1.00  0.00    10.650 C  
HETATM   11  C   UNL     1     -12.030  14.053  66.989  1.00  0.00    -0.472 C  
HETATM   12  C   UNL     1     -11.076  11.879  63.540  1.00  0.00    -0.506 C  
HETATM   13  O   UNL     1     -11.786   8.474  63.635  1.00  0.00    15.660 OA 
HETATM   14  C   UNL     1     -11.668  13.663  65.316  1.00  0.00    -0.349 C  
HETATM   15  C   UNL     1      -9.916  11.823  65.720  1.00  0.00    -0.269 C  
HETATM   16  C   UNL     1     -10.756  14.738  64.379  1.00  0.00     0.090 C  
HETATM   17  C   UNL     1     -11.265  12.157  65.056  1.00  0.00    -0.372 C  
HETATM   18  C   UNL     1     -10.887  14.339  62.903  1.00  0.00     5.227 C  
HETATM   19  C   UNL     1     -12.376  11.240  65.698  1.00  0.00     2.249 C  
HETATM   20  C   UNL     1     -10.386  12.916  62.679  1.00  0.00     3.427 C  
ENDROOT
BRANCH   4  21
HETATM   21  O   UNL     1     -10.155  16.204  67.788  1.00  0.00    -0.241 OA 
BRANCH  21  22
HETATM   22  C   UNL     1     -10.412  17.390  68.401  1.00  0.00    -0.384 C  
HETATM   23  O   UNL     1      -9.849  18.441  68.146  1.00  0.00    -0.308 OA 
BRANCH  22  24
HETATM   24  C   UNL     1     -11.461  17.172  69.491  1.00  0.00     1.033 C  
BRANCH  24  25
HETATM   25  C   UNL     1     -11.386  15.831  70.224  1.00  0.00    -0.371 C  
BRANCH  25  26
HETATM   26  C   UNL     1     -10.804  14.662  69.420  1.00  0.00    -0.261 C  
BRANCH  26  27
HETATM   27  C   UNL     1     -10.299  13.502  70.279  1.00  0.00     1.992 C  
BRANCH  27  28
HETATM   28  C   UNL     1      -9.436  12.541  69.455  1.00  0.00     1.457 C  
HETATM   29  C   UNL     1     -10.061  11.157  69.370  1.00  0.00     0.009 C  
ENDBRANCH  27  28
ENDBRANCH  26  27
ENDBRANCH  25  26
ENDBRANCH  24  25
ENDBRANCH  22  24
ENDBRANCH  21  22
ENDBRANCH   4  21
TORSDOF 7
ENDMDL
MODEL      198
REMARK 921   NORMALIZED FREE ENERGY PREDICTED BY IDOCK:   54.13 KCAL/MOL
REMARK 922        TOTAL FREE ENERGY PREDICTED BY IDOCK:   74.13 KCAL/MOL
REMARK 923 INTER-LIGAND FREE ENERGY PREDICTED BY IDOCK:   40.13 KCAL/MOL
REMARK 924 INTRA-LIGAND FREE ENERGY PREDICTED BY IDOCK:   34.00 KCAL/MOL
REMARK 927      BINDING AFFINITY PREDICTED BY RF-SCORE:    0.00 PKD
ROOT
HETATM    1  C   UNL     1     -10.655  12.538  70.314  1.00  0.00     2.058 C  
HETATM    2  C   UNL     1     -10.257  12.343  71.668  1.00  0.00    11.153 C  
HETATM    3  C   UNL     1      -9.310  11.584  70.793  1.00  0.00     6.001 C  
HETATM    4  C   UNL     1      -9.596  11.905  68.795  1.00  0.00    -0.012 C  
HETATM    5  C   UNL     1     -12.394   5.784  70.061  1.00  0.00     3.015 C  
HETATM    6  C   UNL     1      -8.903  12.729  69.651  1.00  0.00     2.028 C  
HETATM    7  C   UNL     1      -7.783  11.201  69.383  1.00  0.00     0.026 C  
HETATM    8  C   UNL     1     -13.169   7.014  70.297  1.00  0.00     1.271 C  
HETATM    9  C   UNL     1      -8.332  14.108  69.551  1.00  0.00     0.560 C  
HETATM   10  C   UNL     1     -10.933   5.902  70.341  1.00  0.00    -0.376 C  
HETATM   11  C   UNL     1      -8.818   9.738  69.101  1.00  0.00    -0.160 C  
HETATM   12  C   UNL     1     -12.611   8.196  69.974  1.00  0.00     1.440 C  
HETATM   13  O   UNL     1     -12.946   4.741  69.737  1.00  0.00    12.158 OA 
HETATM   14  C   UNL     1     -10.444   9.588  69.745  1.00  0.00    -0.253 C  
HETATM   15  C   UNL     1     -11.531   8.365  67.758  1.00  0.00     1.375 C  
HETATM   16  C   UNL     1     -11.443  10.952  69.833  1.00  0.00    -0.402 C  
HETATM   17  C   UNL     1     -11.232   8.303  69.268  1.00  0.00     0.277 C  
HETATM   18  C   UNL     1     -12.642  10.627  70.735  1.00  0.00    -0.479 C  
HETATM   19  C   UNL     1     -10.320   7.046  69.544  1.00  0.00    -0.225 C  
HETATM   20  C   UNL     1     -13.435   9.449  70.180  1.00  0.00     1.168 C  
ENDROOT
BRANCH   4  21
HETATM   21  O   UNL     1      -8.713  12.311  67.636  1.00  0.00    -0.158 OA 
BRANCH  21  22
HETATM   22  C   UNL     1      -7.487  11.766  67.416  1.00  0.00    -0.143 C  
HETATM   23  O   UNL     1      -7.069  11.411  66.327  1.00  0.00    -0.057 OA 
BRANCH  22  24
HETATM   24  C   UNL     1      -6.759  11.616  68.752  1.00  0.00    -0.077 C  
BRANCH  24  25
HETATM   25  C   UNL     1      -6.820  12.832  69.679  1.00  0.00     0.178 C  
BRANCH  25  26
HETATM   26  C   UNL     1      -5.735  12.903  70.760  1.00  0.00    -0.146 C  
BRANCH  26  27
HETATM   27  C   UNL     1      -5.351  11.545  71.351  1.00  0.00     0.049 C  
BRANCH  27  28
HETATM   28  C   UNL     1      -5.848  10.398  70.467  1.00  0.00    -0.100 C  
HETATM   29  C   UNL     1      -5.710  10.727  68.989  1.00  0.00    -0.040 C  
ENDBRANCH  27  28
ENDBRANCH  26  27
ENDBRANCH  25  26
ENDBRANCH  24  25
ENDBRANCH  22  24
ENDBRANCH  21  22
ENDBRANCH   4  21
TORSDOF 7
ENDMDL
