MODEL        1
REMARK 921   NORMALIZED FREE ENERGY PREDICTED BY IDOCK:   -7.48 KCAL/MOL
REMARK 922        TOTAL FREE ENERGY PREDICTED BY IDOCK:  -14.73 KCAL/MOL
REMARK 923 INTER-LIGAND FREE ENERGY PREDICTED BY IDOCK:  -11.42 KCAL/MOL
REMARK 924 INTRA-LIGAND FREE ENERGY PREDICTED BY IDOCK:   -3.31 KCAL/MOL
REMARK 927      BINDING AFFINITY PREDICTED BY RF-SCORE:    0.00 PKD
ROOT
HETATM    1  N   UNL     1      -7.943   7.956  65.536  1.00  0.00    -0.112 N  
HETATM    2  C   UNL     1      -7.606   6.957  66.435  1.00  0.00    -0.089 C  
HETATM    3  C   UNL     1      -9.744   4.026  62.816  1.00  0.00    -0.144 A  
HETATM    4  H   UNL     1      -7.148   8.434  65.112  1.00  0.00     0.000 HD 
HETATM    5  C   UNL     1      -9.181   4.875  68.954  1.00  0.00    -0.164 A  
HETATM    6  O   UNL     1      -6.534   7.139  67.070  1.00  0.00    -0.053 OA 
HETATM    7  C   UNL     1     -11.070   5.929  70.028  1.00  0.00    -0.411 A  
HETATM    8  C   UNL     1      -8.366   5.614  66.610  1.00  0.00    -0.112 C  
HETATM    9  O   UNL     1      -7.326   4.655  66.975  1.00  0.00    -0.078 OA 
HETATM   10  C   UNL     1      -9.344   5.674  67.798  1.00  0.00    -0.113 A  
HETATM   11  C   UNL     1     -10.000   4.216  65.218  1.00  0.00    -0.216 A  
HETATM   12  C   UNL     1      -8.875   5.050  65.289  1.00  0.00    -0.153 A  
HETATM   13  C   UNL     1     -10.427   6.559  67.778  1.00  0.00    -0.279 A  
HETATM   14  C   UNL     1      -8.151   5.282  64.101  1.00  0.00    -0.121 A  
HETATM   15  C   UNL     1     -10.433   3.715  63.984  1.00  0.00    -0.271 A  
HETATM   16  H   UNL     1      -7.791   3.834  67.082  1.00  0.00     0.000 HD 
HETATM   17  C   UNL     1     -10.033   5.008  70.057  1.00  0.00    -0.324 A  
HETATM   18  C   UNL     1      -8.593   4.806  62.872  1.00  0.00    -0.119 A  
HETATM   19  C   UNL     1     -11.277   6.695  68.881  1.00  0.00    -0.273 A  
ENDROOT
BRANCH   1  20
HETATM   20  N   UNL     1      -9.213   8.424  65.106  1.00  0.00    -0.389 NA 
HETATM   21  H   UNL     1      -9.973   7.807  64.822  1.00  0.00     0.000 HD 
BRANCH  20  22
HETATM   22  C   UNL     1      -9.307   9.728  65.112  1.00  0.00    -0.260 C  
HETATM   23  C   UNL     1     -10.531  11.885  64.607  1.00  0.00    -0.340 C  
HETATM   24  C   UNL     1     -10.773  12.039  66.125  1.00  0.00    -0.312 C  
HETATM   25  C   UNL     1     -10.358  10.751  66.822  1.00  0.00    -0.294 C  
HETATM   26  C   UNL     1      -9.981  10.733  64.102  1.00  0.00    -0.405 C  
HETATM   27  C   UNL     1     -10.965  13.196  63.917  1.00  0.00    -0.308 C  
HETATM   28  C   UNL     1      -8.936  10.468  66.355  1.00  0.00    -0.174 C  
HETATM   29  C   UNL     1     -12.271  12.239  66.439  1.00  0.00     0.104 C  
HETATM   30  C   UNL     1     -10.537  14.572  64.641  1.00  0.00    -0.298 C  
HETATM   31  C   UNL     1     -10.356  14.569  66.215  1.00  0.00    -0.300 C  
HETATM   32  C   UNL     1      -9.446  15.729  66.869  1.00  0.00    -0.244 C  
HETATM   33  C   UNL     1     -10.289  17.019  67.130  1.00  0.00    -0.305 C  
HETATM   34  C   UNL     1     -10.493  17.123  68.657  1.00  0.00    -0.366 C  
HETATM   35  C   UNL     1     -10.205  15.703  69.138  1.00  0.00    -0.233 C  
HETATM   36  C   UNL     1      -9.837  13.186  66.595  1.00  0.00    -0.261 C  
HETATM   37  C   UNL     1      -8.910  15.391  68.333  1.00  0.00    -0.177 C  
HETATM   38  C   UNL     1      -9.477  13.008  68.066  1.00  0.00    -0.217 C  
HETATM   39  C   UNL     1      -8.420  13.971  68.466  1.00  0.00    -0.143 C  
HETATM   40  C   UNL     1      -7.667  16.216  68.765  1.00  0.00    -0.200 C  
BRANCH  35  41
HETATM   41  O   UNL     1     -10.234  15.488  70.557  1.00  0.00    -0.191 OA 
BRANCH  41  42
HETATM   42  C   UNL     1     -11.501  15.169  70.986  1.00  0.00    -0.330 C  
HETATM   43  O   UNL     1     -12.047  15.718  71.938  1.00  0.00    -0.377 OA 
BRANCH  42  44
HETATM   44  C   UNL     1     -12.247  14.067  70.267  1.00  0.00    -0.430 C  
BRANCH  44  45
HETATM   45  C   UNL     1     -12.522  12.714  70.907  1.00  0.00    -0.368 C  
BRANCH  45  46
HETATM   46  C   UNL     1     -12.067  11.535  70.056  1.00  0.00    -0.408 C  
BRANCH  46  47
HETATM   47  C   UNL     1     -11.551  10.340  70.867  1.00  0.00    -0.454 C  
BRANCH  47  48
HETATM   48  C   UNL     1     -10.179   9.836  70.416  1.00  0.00    -0.343 C  
HETATM   49  C   UNL     1      -9.538   8.942  71.470  1.00  0.00    -0.362 C  
ENDBRANCH  47  48
ENDBRANCH  46  47
ENDBRANCH  45  46
ENDBRANCH  44  45
ENDBRANCH  42  44
ENDBRANCH  41  42
ENDBRANCH  35  41
ENDBRANCH  20  22
ENDBRANCH   1  20
TORSDOF 9
ENDMDL
MODEL        2
REMARK 921   NORMALIZED FREE ENERGY PREDICTED BY IDOCK:   -7.34 KCAL/MOL
REMARK 922        TOTAL FREE ENERGY PREDICTED BY IDOCK:  -14.52 KCAL/MOL
REMARK 923 INTER-LIGAND FREE ENERGY PREDICTED BY IDOCK:  -11.64 KCAL/MOL
REMARK 924 INTRA-LIGAND FREE ENERGY PREDICTED BY IDOCK:   -2.88 KCAL/MOL
REMARK 927      BINDING AFFINITY PREDICTED BY RF-SCORE:    0.00 PKD
ROOT
HETATM    1  N   UNL     1      -9.071  14.067  68.659  1.00  0.00    -0.320 N  
HETATM    2  C   UNL     1      -9.953  15.120  68.843  1.00  0.00    -0.227 C  
HETATM    3  C   UNL     1     -12.208  12.949  64.787  1.00  0.00    -0.499 A  
HETATM    4  H   UNL     1      -9.067  13.378  69.411  1.00  0.00     0.000 HD 
HETATM    5  C   UNL     1     -10.688  18.377  67.422  1.00  0.00    -0.397 A  
HETATM    6  O   UNL     1     -10.156  15.453  70.041  1.00  0.00    -0.287 OA 
HETATM    7  C   UNL     1      -8.752  19.474  66.483  1.00  0.00    -0.388 A  
HETATM    8  C   UNL     1     -10.779  15.806  67.720  1.00  0.00    -0.307 C  
HETATM    9  O   UNL     1     -12.021  16.205  68.379  1.00  0.00    -0.290 OA 
HETATM   10  C   UNL     1     -10.102  17.102  67.238  1.00  0.00    -0.294 A  
HETATM   11  C   UNL     1     -11.531  15.207  65.346  1.00  0.00    -0.239 A  
HETATM   12  C   UNL     1     -11.274  14.820  66.669  1.00  0.00    -0.346 A  
HETATM   13  C   UNL     1      -8.849  17.056  66.617  1.00  0.00    -0.282 A  
HETATM   14  C   UNL     1     -11.582  13.494  67.039  1.00  0.00    -0.394 A  
HETATM   15  C   UNL     1     -11.989  14.271  64.411  1.00  0.00    -0.476 A  
HETATM   16  H   UNL     1     -12.526  16.625  67.692  1.00  0.00     0.000 HD 
HETATM   17  C   UNL     1     -10.016  19.547  67.053  1.00  0.00    -0.489 A  
HETATM   18  C   UNL     1     -12.013  12.558  66.107  1.00  0.00    -0.432 A  
HETATM   19  C   UNL     1      -8.174  18.226  66.251  1.00  0.00    -0.241 A  
ENDROOT
BRANCH   1  20
HETATM   20  N   UNL     1      -8.173  13.788  67.595  1.00  0.00    -0.163 NA 
HETATM   21  H   UNL     1      -7.771  14.508  66.994  1.00  0.00     0.000 HD 
BRANCH  20  22
HETATM   22  C   UNL     1      -7.915  12.514  67.462  1.00  0.00    -0.175 C  
HETATM   23  C   UNL     1      -6.513  10.456  67.914  1.00  0.00    -0.060 C  
HETATM   24  C   UNL     1      -7.650   9.948  68.827  1.00  0.00    -0.081 C  
HETATM   25  C   UNL     1      -8.663  11.068  69.020  1.00  0.00    -0.072 C  
HETATM   26  C   UNL     1      -6.553  11.724  67.389  1.00  0.00    -0.118 C  
HETATM   27  C   UNL     1      -5.492   9.311  67.737  1.00  0.00    -0.037 C  
HETATM   28  C   UNL     1      -9.033  11.536  67.618  1.00  0.00    -0.160 C  
HETATM   29  C   UNL     1      -7.126   9.592  70.234  1.00  0.00    -0.110 C  
HETATM   30  C   UNL     1      -6.094   7.836  67.489  1.00  0.00    -0.049 C  
HETATM   31  C   UNL     1      -7.519   7.494  68.091  1.00  0.00    -0.105 C  
HETATM   32  C   UNL     1      -8.341   6.274  67.430  1.00  0.00    -0.109 C  
HETATM   33  C   UNL     1      -7.924   4.909  68.066  1.00  0.00    -0.086 C  
HETATM   34  C   UNL     1      -9.097   4.450  68.960  1.00  0.00    -0.180 C  
HETATM   35  C   UNL     1      -9.884   5.740  69.180  1.00  0.00    -0.162 C  
HETATM   36  C   UNL     1      -8.332   8.784  68.057  1.00  0.00    -0.119 C  
HETATM   37  C   UNL     1      -9.908   6.304  67.730  1.00  0.00    -0.130 C  
HETATM   38  C   UNL     1      -9.789   8.647  68.485  1.00  0.00    -0.183 C  
HETATM   39  C   UNL     1     -10.503   7.685  67.608  1.00  0.00    -0.313 C  
HETATM   40  C   UNL     1     -10.766   5.481  66.730  1.00  0.00    -0.329 C  
BRANCH  35  41
HETATM   41  O   UNL     1     -11.107   5.626  69.923  1.00  0.00    -0.321 OA 
BRANCH  41  42
HETATM   42  C   UNL     1     -10.912   5.934  71.249  1.00  0.00    -0.259 C  
HETATM   43  O   UNL     1     -11.365   5.260  72.170  1.00  0.00    -0.144 OA 
BRANCH  42  44
HETATM   44  C   UNL     1     -10.127   7.182  71.590  1.00  0.00    -0.197 C  
BRANCH  44  45
HETATM   45  C   UNL     1     -10.799   8.483  72.002  1.00  0.00    -0.405 C  
BRANCH  45  46
HETATM   46  C   UNL     1     -12.100   8.757  71.258  1.00  0.00    -0.344 C  
BRANCH  46  47
HETATM   47  C   UNL     1     -12.564  10.217  71.323  1.00  0.00    -0.522 C  
BRANCH  47  48
HETATM   48  C   UNL     1     -12.243  11.023  70.063  1.00  0.00    -0.418 C  
HETATM   49  C   UNL     1     -12.132  12.512  70.365  1.00  0.00    -0.380 C  
ENDBRANCH  47  48
ENDBRANCH  46  47
ENDBRANCH  45  46
ENDBRANCH  44  45
ENDBRANCH  42  44
ENDBRANCH  41  42
ENDBRANCH  35  41
ENDBRANCH  20  22
ENDBRANCH   1  20
TORSDOF 9
ENDMDL
MODEL        3
REMARK 921   NORMALIZED FREE ENERGY PREDICTED BY IDOCK:   -7.11 KCAL/MOL
REMARK 922        TOTAL FREE ENERGY PREDICTED BY IDOCK:  -14.16 KCAL/MOL
REMARK 923 INTER-LIGAND FREE ENERGY PREDICTED BY IDOCK:  -10.86 KCAL/MOL
REMARK 924 INTRA-LIGAND FREE ENERGY PREDICTED BY IDOCK:   -3.30 KCAL/MOL
REMARK 927      BINDING AFFINITY PREDICTED BY RF-SCORE:    0.00 PKD
ROOT
HETATM    1  N   UNL     1      -9.976   7.629  66.258  1.00  0.00    -0.464 N  
HETATM    2  C   UNL     1     -10.208   6.386  66.825  1.00  0.00    -0.195 C  
HETATM    3  C   UNL     1      -8.314   8.759  70.953  1.00  0.00    -0.196 A  
HETATM    4  H   UNL     1     -10.817   8.132  65.975  1.00  0.00     0.000 HD 
HETATM    5  C   UNL     1      -8.369   3.407  67.778  1.00  0.00    -0.095 A  
HETATM    6  O   UNL     1     -11.226   5.779  66.400  1.00  0.00    -0.071 OA 
HETATM    7  C   UNL     1      -6.423   3.001  66.407  1.00  0.00    -0.032 A  
HETATM    8  C   UNL     1      -9.401   5.772  68.002  1.00  0.00    -0.109 C  
HETATM    9  O   UNL     1     -10.381   4.972  68.733  1.00  0.00    -0.139 OA 
HETATM   10  C   UNL     1      -8.327   4.793  67.494  1.00  0.00    -0.104 A  
HETATM   11  C   UNL     1      -7.857   6.652  69.846  1.00  0.00    -0.115 A  
HETATM   12  C   UNL     1      -8.994   6.810  69.040  1.00  0.00    -0.131 A  
HETATM   13  C   UNL     1      -7.272   5.252  66.697  1.00  0.00    -0.077 A  
HETATM   14  C   UNL     1      -9.823   7.925  69.281  1.00  0.00    -0.177 A  
HETATM   15  C   UNL     1      -7.519   7.628  70.792  1.00  0.00    -0.071 A  
HETATM   16  H   UNL     1      -9.888   4.596  69.452  1.00  0.00     0.000 HD 
HETATM   17  C   UNL     1      -7.430   2.524  67.235  1.00  0.00    -0.061 A  
HETATM   18  C   UNL     1      -9.476   8.907  70.203  1.00  0.00    -0.198 A  
HETATM   19  C   UNL     1      -6.335   4.369  66.150  1.00  0.00    -0.033 A  
ENDROOT
BRANCH   1  20
HETATM   20  N   UNL     1      -8.760   8.318  66.006  1.00  0.00    -0.147 NA 
HETATM   21  H   UNL     1      -7.847   7.863  65.996  1.00  0.00     0.000 HD 
BRANCH  20  22
HETATM   22  C   UNL     1      -8.930   9.595  65.788  1.00  0.00    -0.169 C  
HETATM   23  C   UNL     1     -10.277  11.560  64.931  1.00  0.00    -0.324 C  
HETATM   24  C   UNL     1     -10.528  11.959  66.402  1.00  0.00    -0.258 C  
HETATM   25  C   UNL     1     -10.039  10.837  67.307  1.00  0.00    -0.233 C  
HETATM   26  C   UNL     1      -9.661  10.371  64.626  1.00  0.00    -0.392 C  
HETATM   27  C   UNL     1     -10.787  12.705  64.030  1.00  0.00    -0.452 C  
HETATM   28  C   UNL     1      -8.603  10.559  66.881  1.00  0.00    -0.125 C  
HETATM   29  C   UNL     1     -12.035  12.123  66.692  1.00  0.00    -0.186 C  
HETATM   30  C   UNL     1     -10.440  14.207  64.502  1.00  0.00    -0.232 C  
HETATM   31  C   UNL     1     -10.259  14.486  66.051  1.00  0.00    -0.329 C  
HETATM   32  C   UNL     1      -9.418  15.792  66.486  1.00  0.00    -0.298 C  
HETATM   33  C   UNL     1     -10.334  17.057  66.530  1.00  0.00    -0.298 C  
HETATM   34  C   UNL     1     -10.544  17.411  68.019  1.00  0.00    -0.389 C  
HETATM   35  C   UNL     1     -10.175  16.114  68.734  1.00  0.00    -0.238 C  
HETATM   36  C   UNL     1      -9.660  13.221  66.658  1.00  0.00    -0.262 C  
HETATM   37  C   UNL     1      -8.863  15.743  67.982  1.00  0.00    -0.176 C  
HETATM   38  C   UNL     1      -9.291  13.320  68.134  1.00  0.00    -0.220 C  
HETATM   39  C   UNL     1      -8.292  14.397  68.352  1.00  0.00    -0.155 C  
HETATM   40  C   UNL     1      -7.670  16.699  68.252  1.00  0.00    -0.183 C  
BRANCH  35  41
HETATM   41  O   UNL     1     -10.190  16.145  70.169  1.00  0.00    -0.163 OA 
BRANCH  41  42
HETATM   42  C   UNL     1     -11.390  15.689  70.662  1.00  0.00    -0.368 C  
HETATM   43  O   UNL     1     -11.949  16.183  71.637  1.00  0.00    -0.465 OA 
BRANCH  42  44
HETATM   44  C   UNL     1     -12.038  14.499  69.988  1.00  0.00    -0.395 C  
BRANCH  44  45
HETATM   45  C   UNL     1     -12.500  13.273  70.762  1.00  0.00    -0.403 C  
BRANCH  45  46
HETATM   46  C   UNL     1     -11.821  11.983  70.319  1.00  0.00    -0.356 C  
BRANCH  46  47
HETATM   47  C   UNL     1     -12.721  10.744  70.392  1.00  0.00    -0.346 C  
BRANCH  47  48
HETATM   48  C   UNL     1     -13.062  10.313  71.820  1.00  0.00    -0.570 C  
HETATM   49  C   UNL     1     -12.464   8.952  72.150  1.00  0.00    -0.459 C  
ENDBRANCH  47  48
ENDBRANCH  46  47
ENDBRANCH  45  46
ENDBRANCH  44  45
ENDBRANCH  42  44
ENDBRANCH  41  42
ENDBRANCH  35  41
ENDBRANCH  20  22
ENDBRANCH   1  20
TORSDOF 9
ENDMDL
MODEL        4
REMARK 921   NORMALIZED FREE ENERGY PREDICTED BY IDOCK:   -6.98 KCAL/MOL
REMARK 922        TOTAL FREE ENERGY PREDICTED BY IDOCK:  -13.96 KCAL/MOL
REMARK 923 INTER-LIGAND FREE ENERGY PREDICTED BY IDOCK:  -10.88 KCAL/MOL
REMARK 924 INTRA-LIGAND FREE ENERGY PREDICTED BY IDOCK:   -3.09 KCAL/MOL
REMARK 927      BINDING AFFINITY PREDICTED BY RF-SCORE:    0.00 PKD
ROOT
HETATM    1  N   UNL     1      -7.541   7.738  66.936  1.00  0.00    -0.097 N  
HETATM    2  C   UNL     1      -7.353   6.913  68.035  1.00  0.00    -0.097 C  
HETATM    3  C   UNL     1      -8.299   3.298  64.527  1.00  0.00    -0.093 A  
HETATM    4  H   UNL     1      -6.708   8.243  66.637  1.00  0.00     0.000 HD 
HETATM    5  C   UNL     1      -9.322   5.015  70.420  1.00  0.00    -0.216 A  
HETATM    6  O   UNL     1      -6.487   7.301  68.862  1.00  0.00    -0.037 OA 
HETATM    7  C   UNL     1     -11.495   5.977  70.853  1.00  0.00    -0.230 A  
HETATM    8  C   UNL     1      -8.022   5.525  68.239  1.00  0.00    -0.096 C  
HETATM    9  O   UNL     1      -7.028   4.751  68.979  1.00  0.00    -0.049 OA 
HETATM   10  C   UNL     1      -9.262   5.629  69.147  1.00  0.00    -0.136 A  
HETATM   11  C   UNL     1      -9.148   3.775  66.746  1.00  0.00    -0.171 A  
HETATM   12  C   UNL     1      -8.146   4.736  66.942  1.00  0.00    -0.107 A  
HETATM   13  C   UNL     1     -10.376   6.372  68.740  1.00  0.00    -0.232 A  
HETATM   14  C   UNL     1      -7.175   4.890  65.930  1.00  0.00    -0.076 A  
HETATM   15  C   UNL     1      -9.225   3.067  65.541  1.00  0.00    -0.135 A  
HETATM   16  H   UNL     1      -7.437   3.903  69.104  1.00  0.00     0.000 HD 
HETATM   17  C   UNL     1     -10.425   5.194  71.263  1.00  0.00    -0.245 A  
HETATM   18  C   UNL     1      -7.264   4.206  64.724  1.00  0.00    -0.070 A  
HETATM   19  C   UNL     1     -11.477   6.555  69.583  1.00  0.00    -0.417 A  
ENDROOT
BRANCH   1  20
HETATM   20  N   UNL     1      -8.701   7.994  66.159  1.00  0.00    -0.146 NA 
HETATM   21  H   UNL     1      -9.332   7.262  65.832  1.00  0.00     0.000 HD 
BRANCH  20  22
HETATM   22  C   UNL     1      -8.878   9.263  65.906  1.00  0.00    -0.166 C  
HETATM   23  C   UNL     1     -10.224  11.193  64.972  1.00  0.00    -0.354 C  
HETATM   24  C   UNL     1     -10.508  11.627  66.427  1.00  0.00    -0.283 C  
HETATM   25  C   UNL     1     -10.028  10.533  67.370  1.00  0.00    -0.214 C  
HETATM   26  C   UNL     1      -9.592  10.002  64.710  1.00  0.00    -0.374 C  
HETATM   27  C   UNL     1     -10.726  12.310  64.031  1.00  0.00    -0.438 C  
HETATM   28  C   UNL     1      -8.581  10.257  66.980  1.00  0.00    -0.129 C  
HETATM   29  C   UNL     1     -12.022  11.785  66.683  1.00  0.00     0.162 C  
HETATM   30  C   UNL     1     -10.402  13.827  64.471  1.00  0.00    -0.311 C  
HETATM   31  C   UNL     1     -10.254  14.147  66.016  1.00  0.00    -0.318 C  
HETATM   32  C   UNL     1      -9.433  15.471  66.434  1.00  0.00    -0.320 C  
HETATM   33  C   UNL     1     -10.361  16.728  66.427  1.00  0.00    -0.309 C  
HETATM   34  C   UNL     1     -10.604  17.118  67.902  1.00  0.00    -0.376 C  
HETATM   35  C   UNL     1     -10.238  15.843  68.657  1.00  0.00    -0.223 C  
HETATM   36  C   UNL     1      -9.656  12.903  66.667  1.00  0.00    -0.257 C  
HETATM   37  C   UNL     1      -8.909  15.465  67.941  1.00  0.00    -0.168 C  
HETATM   38  C   UNL     1      -9.318  13.043  68.147  1.00  0.00    -0.217 C  
HETATM   39  C   UNL     1      -8.333  14.134  68.358  1.00  0.00    -0.161 C  
HETATM   40  C   UNL     1      -7.729  16.439  68.210  1.00  0.00    -0.162 C  
BRANCH  35  41
HETATM   41  O   UNL     1     -10.282  15.911  70.091  1.00  0.00    -0.255 OA 
BRANCH  41  42
HETATM   42  C   UNL     1     -11.497  15.481  70.570  1.00  0.00    -0.347 C  
HETATM   43  O   UNL     1     -12.126  16.075  71.441  1.00  0.00    -0.426 OA 
BRANCH  42  44
HETATM   44  C   UNL     1     -12.074  14.196  70.018  1.00  0.00    -0.409 C  
BRANCH  44  45
HETATM   45  C   UNL     1     -12.413  13.006  70.904  1.00  0.00    -0.396 C  
BRANCH  45  46
HETATM   46  C   UNL     1     -12.131  11.660  70.247  1.00  0.00    -0.443 C  
BRANCH  46  47
HETATM   47  C   UNL     1     -12.820  10.473  70.932  1.00  0.00    -0.485 C  
BRANCH  47  48
HETATM   48  C   UNL     1     -11.859   9.555  71.688  1.00  0.00    -0.468 C  
HETATM   49  C   UNL     1     -10.477   9.544  71.048  1.00  0.00    -0.377 C  
ENDBRANCH  47  48
ENDBRANCH  46  47
ENDBRANCH  45  46
ENDBRANCH  44  45
ENDBRANCH  42  44
ENDBRANCH  41  42
ENDBRANCH  35  41
ENDBRANCH  20  22
ENDBRANCH   1  20
TORSDOF 9
ENDMDL
MODEL        5
REMARK 921   NORMALIZED FREE ENERGY PREDICTED BY IDOCK:   -6.91 KCAL/MOL
REMARK 922        TOTAL FREE ENERGY PREDICTED BY IDOCK:  -13.85 KCAL/MOL
REMARK 923 INTER-LIGAND FREE ENERGY PREDICTED BY IDOCK:  -11.34 KCAL/MOL
REMARK 924 INTRA-LIGAND FREE ENERGY PREDICTED BY IDOCK:   -2.52 KCAL/MOL
REMARK 927      BINDING AFFINITY PREDICTED BY RF-SCORE:    0.00 PKD
ROOT
HETATM    1  N   UNL     1      -7.290   7.871  68.100  1.00  0.00    -0.096 N  
HETATM    2  C   UNL     1      -7.210   7.649  69.466  1.00  0.00    -0.080 C  
HETATM    3  C   UNL     1      -8.533   2.918  68.009  1.00  0.00    -0.103 A  
HETATM    4  H   UNL     1      -6.401   8.091  67.651  1.00  0.00     0.000 HD 
HETATM    5  C   UNL     1      -9.407   7.306  72.333  1.00  0.00    -0.166 A  
HETATM    6  O   UNL     1      -6.312   8.295  70.067  1.00  0.00    -0.034 OA 
HETATM    7  C   UNL     1     -11.457   8.564  72.127  1.00  0.00    -0.446 A  
HETATM    8  C   UNL     1      -8.036   6.595  70.254  1.00  0.00    -0.121 C  
HETATM    9  O   UNL     1      -7.145   6.170  71.331  1.00  0.00    -0.074 OA 
HETATM   10  C   UNL     1      -9.264   7.236  70.927  1.00  0.00    -0.155 A  
HETATM   11  C   UNL     1      -9.343   4.466  69.688  1.00  0.00    -0.228 A  
HETATM   12  C   UNL     1      -8.238   5.303  69.473  1.00  0.00    -0.095 A  
HETATM   13  C   UNL     1     -10.281   7.803  70.151  1.00  0.00    -0.205 A  
HETATM   14  C   UNL     1      -7.246   4.866  68.570  1.00  0.00    -0.062 A  
HETATM   15  C   UNL     1      -9.489   3.284  68.952  1.00  0.00    -0.191 A  
HETATM   16  H   UNL     1      -7.650   5.526  71.813  1.00  0.00     0.000 HD 
HETATM   17  C   UNL     1     -10.489   7.968  72.923  1.00  0.00    -0.402 A  
HETATM   18  C   UNL     1      -7.402   3.705  67.821  1.00  0.00    -0.062 A  
HETATM   19  C   UNL     1     -11.361   8.468  70.739  1.00  0.00    -0.296 A  
ENDROOT
BRANCH   1  20
HETATM   20  N   UNL     1      -8.406   7.841  67.222  1.00  0.00    -0.118 NA 
HETATM   21  H   UNL     1      -8.959   7.002  67.043  1.00  0.00     0.000 HD 
BRANCH  20  22
HETATM   22  C   UNL     1      -8.652   8.998  66.666  1.00  0.00    -0.127 C  
HETATM   23  C   UNL     1     -10.110  10.569  65.321  1.00  0.00    -0.369 C  
HETATM   24  C   UNL     1     -10.393  11.339  66.630  1.00  0.00    -0.279 C  
HETATM   25  C   UNL     1      -9.843  10.537  67.801  1.00  0.00    -0.188 C  
HETATM   26  C   UNL     1      -9.421   9.382  65.345  1.00  0.00    -0.322 C  
HETATM   27  C   UNL     1     -10.682  11.392  64.146  1.00  0.00    -0.434 C  
HETATM   28  C   UNL     1      -8.390  10.241  67.452  1.00  0.00    -0.118 C  
HETATM   29  C   UNL     1     -11.909  11.485  66.880  1.00  0.00     0.124 C  
HETATM   30  C   UNL     1     -10.430  12.985  64.187  1.00  0.00    -0.395 C  
HETATM   31  C   UNL     1     -10.276  13.686  65.600  1.00  0.00    -0.316 C  
HETATM   32  C   UNL     1      -9.518  15.109  65.654  1.00  0.00    -0.208 C  
HETATM   33  C   UNL     1     -10.509  16.280  65.361  1.00  0.00    -0.365 C  
HETATM   34  C   UNL     1     -10.750  17.014  66.698  1.00  0.00    -0.092 C  
HETATM   35  C   UNL     1     -10.307  15.985  67.736  1.00  0.00    -0.279 C  
HETATM   36  C   UNL     1      -9.605  12.673  66.522  1.00  0.00    -0.248 C  
HETATM   37  C   UNL     1      -8.971  15.503  67.100  1.00  0.00    -0.232 C  
HETATM   38  C   UNL     1      -9.251  13.192  67.912  1.00  0.00    -0.207 C  
HETATM   39  C   UNL     1      -8.321  14.346  67.817  1.00  0.00    -0.172 C  
HETATM   40  C   UNL     1      -7.839  16.567  67.087  1.00  0.00    -0.215 C  
BRANCH  35  41
HETATM   41  O   UNL     1     -10.333  16.406  69.108  1.00  0.00    -0.251 OA 
BRANCH  41  42
HETATM   42  C   UNL     1     -11.308  15.741  69.813  1.00  0.00    -0.339 C  
HETATM   43  O   UNL     1     -12.058  14.911  69.306  1.00  0.00    -0.299 OA 
BRANCH  42  44
HETATM   44  C   UNL     1     -11.487  16.069  71.279  1.00  0.00    -0.475 C  
BRANCH  44  45
HETATM   45  C   UNL     1     -12.797  15.831  72.016  1.00  0.00    -0.511 C  
BRANCH  45  46
HETATM   46  C   UNL     1     -12.819  14.532  72.812  1.00  0.00    -0.518 C  
BRANCH  46  47
HETATM   47  C   UNL     1     -13.810  13.489  72.281  1.00  0.00    -0.680 C  
BRANCH  47  48
HETATM   48  C   UNL     1     -13.187  12.114  72.039  1.00  0.00    -0.496 C  
HETATM   49  C   UNL     1     -12.304  12.111  70.798  1.00  0.00    -0.391 C  
ENDBRANCH  47  48
ENDBRANCH  46  47
ENDBRANCH  45  46
ENDBRANCH  44  45
ENDBRANCH  42  44
ENDBRANCH  41  42
ENDBRANCH  35  41
ENDBRANCH  20  22
ENDBRANCH   1  20
TORSDOF 9
ENDMDL
MODEL        6
REMARK 921   NORMALIZED FREE ENERGY PREDICTED BY IDOCK:   -6.79 KCAL/MOL
REMARK 922        TOTAL FREE ENERGY PREDICTED BY IDOCK:  -13.67 KCAL/MOL
REMARK 923 INTER-LIGAND FREE ENERGY PREDICTED BY IDOCK:  -11.15 KCAL/MOL
REMARK 924 INTRA-LIGAND FREE ENERGY PREDICTED BY IDOCK:   -2.52 KCAL/MOL
REMARK 927      BINDING AFFINITY PREDICTED BY RF-SCORE:    0.00 PKD
ROOT
HETATM    1  N   UNL     1     -11.354   7.128  71.047  1.00  0.00    -0.268 N  
HETATM    2  C   UNL     1     -11.578   6.186  72.039  1.00  0.00    -0.310 C  
HETATM    3  C   UNL     1      -7.124   8.050  73.757  1.00  0.00    -0.164 A  
HETATM    4  H   UNL     1     -12.023   7.898  71.033  1.00  0.00     0.000 HD 
HETATM    5  C   UNL     1     -10.469   2.861  72.979  1.00  0.00    -0.252 A  
HETATM    6  O   UNL     1     -12.783   6.017  72.364  1.00  0.00    -0.069 OA 
HETATM    7  C   UNL     1      -9.830   1.493  71.095  1.00  0.00    -0.160 A  
HETATM    8  C   UNL     1     -10.471   5.447  72.841  1.00  0.00    -0.211 C  
HETATM    9  O   UNL     1     -11.059   5.240  74.162  1.00  0.00    -0.423 OA 
HETATM   10  C   UNL     1     -10.197   4.048  72.259  1.00  0.00    -0.227 A  
HETATM   11  C   UNL     1      -7.989   5.823  73.348  1.00  0.00    -0.109 A  
HETATM   12  C   UNL     1      -9.278   6.341  73.156  1.00  0.00    -0.131 A  
HETATM   13  C   UNL     1      -9.685   3.909  70.964  1.00  0.00    -0.252 A  
HETATM   14  C   UNL     1      -9.470   7.723  73.359  1.00  0.00    -0.349 A  
HETATM   15  C   UNL     1      -6.919   6.678  73.640  1.00  0.00    -0.076 A  
HETATM   16  H   UNL     1     -10.382   4.788  74.653  1.00  0.00     0.000 HD 
HETATM   17  C   UNL     1     -10.293   1.600  72.399  1.00  0.00    -0.228 A  
HETATM   18  C   UNL     1      -8.405   8.576  73.625  1.00  0.00    -0.048 A  
HETATM   19  C   UNL     1      -9.512   2.649  70.381  1.00  0.00    -0.185 A  
ENDROOT
BRANCH   1  20
HETATM   20  N   UNL     1     -10.348   7.197  70.048  1.00  0.00    -0.203 NA 
HETATM   21  H   UNL     1      -9.994   6.381  69.548  1.00  0.00     0.000 HD 
BRANCH  20  22
HETATM   22  C   UNL     1      -9.921   8.414  69.835  1.00  0.00    -0.190 C  
HETATM   23  C   UNL     1      -8.235  10.066  68.921  1.00  0.00    -0.121 C  
HETATM   24  C   UNL     1      -9.264  10.426  67.826  1.00  0.00    -0.148 C  
HETATM   25  C   UNL     1     -10.415   9.432  67.886  1.00  0.00    -0.296 C  
HETATM   26  C   UNL     1      -8.466   9.018  69.777  1.00  0.00    -0.132 C  
HETATM   27  C   UNL     1      -7.072  11.078  68.839  1.00  0.00    -0.098 C  
HETATM   28  C   UNL     1     -10.888   9.436  69.334  1.00  0.00    -0.208 C  
HETATM   29  C   UNL     1      -8.653  10.296  66.415  1.00  0.00    -0.138 C  
HETATM   30  C   UNL     1      -7.473  12.625  68.621  1.00  0.00    -0.094 C  
HETATM   31  C   UNL     1      -8.818  12.953  67.850  1.00  0.00    -0.190 C  
HETATM   32  C   UNL     1      -9.485  14.403  68.085  1.00  0.00    -0.204 C  
HETATM   33  C   UNL     1      -8.864  15.464  67.121  1.00  0.00    -0.234 C  
HETATM   34  C   UNL     1      -9.935  15.788  66.056  1.00  0.00    -0.358 C  
HETATM   35  C   UNL     1     -10.885  14.597  66.153  1.00  0.00    -0.321 C  
HETATM   36  C   UNL     1      -9.802  11.837  68.190  1.00  0.00    -0.190 C  
HETATM   37  C   UNL     1     -11.031  14.481  67.698  1.00  0.00    -0.293 C  
HETATM   38  C   UNL     1     -11.212  12.023  67.642  1.00  0.00    -0.343 C  
HETATM   39  C   UNL     1     -11.814  13.278  68.162  1.00  0.00    -0.388 C  
HETATM   40  C   UNL     1     -11.797  15.656  68.366  1.00  0.00    -0.211 C  
BRANCH  35  41
HETATM   41  O   UNL     1     -12.057  14.642  65.326  1.00  0.00    -0.347 OA 
BRANCH  41  42
HETATM   42  C   UNL     1     -11.938  13.795  64.250  1.00  0.00    -0.443 C  
HETATM   43  O   UNL     1     -12.707  13.809  63.293  1.00  0.00    -0.783 OA 
BRANCH  42  44
HETATM   44  C   UNL     1     -10.821  12.774  64.259  1.00  0.00    -0.419 C  
BRANCH  44  45
HETATM   45  C   UNL     1     -10.748  11.634  63.254  1.00  0.00    -0.404 C  
BRANCH  45  46
HETATM   46  C   UNL     1      -9.326  11.283  62.835  1.00  0.00    -0.376 C  
BRANCH  46  47
HETATM   47  C   UNL     1      -9.103   9.789  62.568  1.00  0.00    -0.301 C  
BRANCH  47  48
HETATM   48  C   UNL     1      -7.710   9.294  62.961  1.00  0.00    -0.121 C  
HETATM   49  C   UNL     1      -7.756   7.875  63.513  1.00  0.00    -0.136 C  
ENDBRANCH  47  48
ENDBRANCH  46  47
ENDBRANCH  45  46
ENDBRANCH  44  45
ENDBRANCH  42  44
ENDBRANCH  41  42
ENDBRANCH  35  41
ENDBRANCH  20  22
ENDBRANCH   1  20
TORSDOF 9
ENDMDL
MODEL        7
REMARK 921   NORMALIZED FREE ENERGY PREDICTED BY IDOCK:   -6.57 KCAL/MOL
REMARK 922        TOTAL FREE ENERGY PREDICTED BY IDOCK:  -13.34 KCAL/MOL
REMARK 923 INTER-LIGAND FREE ENERGY PREDICTED BY IDOCK:  -10.16 KCAL/MOL
REMARK 924 INTRA-LIGAND FREE ENERGY PREDICTED BY IDOCK:   -3.19 KCAL/MOL
REMARK 927      BINDING AFFINITY PREDICTED BY RF-SCORE:    0.00 PKD
ROOT
HETATM    1  N   UNL     1     -12.042  12.176  68.349  1.00  0.00    -0.184 N  
HETATM    2  C   UNL     1     -11.449  13.408  68.126  1.00  0.00    -0.304 C  
HETATM    3  C   UNL     1     -12.175  12.026  63.245  1.00  0.00    -0.531 A  
HETATM    4  H   UNL     1     -12.959  12.219  68.794  1.00  0.00     0.000 HD 
HETATM    5  C   UNL     1      -8.224  14.781  67.185  1.00  0.00    -0.239 A  
HETATM    6  O   UNL     1     -11.731  14.305  68.964  1.00  0.00    -0.278 OA 
HETATM    7  C   UNL     1      -6.358  13.422  67.894  1.00  0.00    -0.151 A  
HETATM    8  C   UNL     1     -10.594  13.781  66.883  1.00  0.00    -0.276 C  
HETATM    9  O   UNL     1     -10.864  15.201  66.672  1.00  0.00    -0.311 OA 
HETATM   10  C   UNL     1      -9.088  13.660  67.182  1.00  0.00    -0.241 A  
HETATM   11  C   UNL     1     -10.288  12.874  64.507  1.00  0.00    -0.380 A  
HETATM   12  C   UNL     1     -11.123  13.158  65.598  1.00  0.00    -0.296 A  
HETATM   13  C   UNL     1      -8.526  12.417  67.493  1.00  0.00    -0.175 A  
HETATM   14  C   UNL     1     -12.508  12.939  65.441  1.00  0.00    -0.511 A  
HETATM   15  C   UNL     1     -10.815  12.305  63.342  1.00  0.00    -0.457 A  
HETATM   16  H   UNL     1     -10.341  15.429  65.912  1.00  0.00     0.000 HD 
HETATM   17  C   UNL     1      -6.877  14.660  67.544  1.00  0.00    -0.174 A  
HETATM   18  C   UNL     1     -13.029  12.351  64.294  1.00  0.00    -0.257 A  
HETATM   19  C   UNL     1      -7.180  12.296  67.855  1.00  0.00    -0.106 A  
ENDROOT
BRANCH   1  20
HETATM   20  N   UNL     1     -11.585  10.863  68.059  1.00  0.00    -0.575 NA 
HETATM   21  H   UNL     1     -11.583  10.462  67.121  1.00  0.00     0.000 HD 
BRANCH  20  22
HETATM   22  C   UNL     1     -11.168  10.220  69.118  1.00  0.00    -0.215 C  
HETATM   23  C   UNL     1     -11.530   8.654  71.073  1.00  0.00    -0.324 C  
HETATM   24  C   UNL     1     -10.679   7.608  70.321  1.00  0.00    -0.244 C  
HETATM   25  C   UNL     1     -10.427   8.103  68.904  1.00  0.00    -0.202 C  
HETATM   26  C   UNL     1     -11.898   9.826  70.458  1.00  0.00    -0.316 C  
HETATM   27  C   UNL     1     -11.783   8.130  72.503  1.00  0.00    -0.457 C  
HETATM   28  C   UNL     1      -9.857   9.508  69.054  1.00  0.00    -0.178 C  
HETATM   29  C   UNL     1     -11.428   6.265  70.183  1.00  0.00    -0.452 C  
HETATM   30  C   UNL     1     -10.528   7.455  73.259  1.00  0.00    -0.424 C  
HETATM   31  C   UNL     1      -9.410   6.755  72.381  1.00  0.00    -0.146 C  
HETATM   32  C   UNL     1      -7.949   6.562  73.040  1.00  0.00    -0.104 C  
HETATM   33  C   UNL     1      -7.886   5.247  73.880  1.00  0.00    -0.101 C  
HETATM   34  C   UNL     1      -7.020   4.244  73.086  1.00  0.00    -0.063 C  
HETATM   35  C   UNL     1      -7.041   4.821  71.672  1.00  0.00    -0.060 C  
HETATM   36  C   UNL     1      -9.322   7.537  71.074  1.00  0.00    -0.157 C  
HETATM   37  C   UNL     1      -6.782   6.324  71.979  1.00  0.00    -0.067 C  
HETATM   38  C   UNL     1      -8.212   7.098  70.126  1.00  0.00    -0.135 C  
HETATM   39  C   UNL     1      -6.884   7.232  70.778  1.00  0.00    -0.052 C  
HETATM   40  C   UNL     1      -5.358   6.639  72.515  1.00  0.00    -0.037 C  
BRANCH  35  41
HETATM   41  O   UNL     1      -6.241   4.143  70.691  1.00  0.00    -0.017 OA 
BRANCH  41  42
HETATM   42  C   UNL     1      -7.021   3.374  69.860  1.00  0.00    -0.041 C  
HETATM   43  O   UNL     1      -6.584   2.429  69.211  1.00  0.00    -0.029 OA 
BRANCH  42  44
HETATM   44  C   UNL     1      -8.486   3.729  69.717  1.00  0.00    -0.092 C  
BRANCH  44  45
HETATM   45  C   UNL     1      -9.316   3.298  68.517  1.00  0.00    -0.237 C  
BRANCH  45  46
HETATM   46  C   UNL     1      -9.613   4.432  67.544  1.00  0.00    -0.213 C  
BRANCH  46  47
HETATM   47  C   UNL     1      -8.368   5.194  67.072  1.00  0.00    -0.107 C  
BRANCH  47  48
HETATM   48  C   UNL     1      -8.685   6.480  66.309  1.00  0.00    -0.148 C  
HETATM   49  C   UNL     1      -7.593   7.525  66.496  1.00  0.00    -0.089 C  
ENDBRANCH  47  48
ENDBRANCH  46  47
ENDBRANCH  45  46
ENDBRANCH  44  45
ENDBRANCH  42  44
ENDBRANCH  41  42
ENDBRANCH  35  41
ENDBRANCH  20  22
ENDBRANCH   1  20
TORSDOF 9
ENDMDL
MODEL        8
REMARK 921   NORMALIZED FREE ENERGY PREDICTED BY IDOCK:   -6.56 KCAL/MOL
REMARK 922        TOTAL FREE ENERGY PREDICTED BY IDOCK:  -13.32 KCAL/MOL
REMARK 923 INTER-LIGAND FREE ENERGY PREDICTED BY IDOCK:  -10.37 KCAL/MOL
REMARK 924 INTRA-LIGAND FREE ENERGY PREDICTED BY IDOCK:   -2.95 KCAL/MOL
REMARK 927      BINDING AFFINITY PREDICTED BY RF-SCORE:    0.00 PKD
ROOT
HETATM    1  N   UNL     1     -12.145  12.358  68.253  1.00  0.00    -0.193 N  
HETATM    2  C   UNL     1     -11.645  13.621  67.976  1.00  0.00    -0.333 C  
HETATM    3  C   UNL     1     -12.254  11.974  63.162  1.00  0.00    -0.365 A  
HETATM    4  H   UNL     1     -13.063  12.351  68.697  1.00  0.00     0.000 HD 
HETATM    5  C   UNL     1      -8.532  15.191  66.972  1.00  0.00    -0.259 A  
HETATM    6  O   UNL     1     -11.996  14.530  68.774  1.00  0.00    -0.313 OA 
HETATM    7  C   UNL     1      -6.570  14.010  67.738  1.00  0.00    -0.188 A  
HETATM    8  C   UNL     1     -10.818  14.002  66.717  1.00  0.00    -0.294 C  
HETATM    9  O   UNL     1     -11.195  15.387  66.444  1.00  0.00    -0.282 OA 
HETATM   10  C   UNL     1      -9.309  14.009  67.019  1.00  0.00    -0.256 A  
HETATM   11  C   UNL     1     -10.439  13.018  64.383  1.00  0.00    -0.426 A  
HETATM   12  C   UNL     1     -11.296  13.285  65.461  1.00  0.00    -0.315 A  
HETATM   13  C   UNL     1      -8.655  12.827  67.383  1.00  0.00    -0.194 A  
HETATM   14  C   UNL     1     -12.660  12.955  65.315  1.00  0.00    -0.502 A  
HETATM   15  C   UNL     1     -10.919  12.359  63.244  1.00  0.00    -0.325 A  
HETATM   16  H   UNL     1     -10.689  15.620  65.674  1.00  0.00     0.000 HD 
HETATM   17  C   UNL     1      -7.180  15.189  67.334  1.00  0.00    -0.231 A  
HETATM   18  C   UNL     1     -13.132  12.280  64.196  1.00  0.00    -0.144 A  
HETATM   19  C   UNL     1      -7.305  12.824  67.749  1.00  0.00    -0.130 A  
ENDROOT
BRANCH   1  20
HETATM   20  N   UNL     1     -11.589  11.072  68.021  1.00  0.00    -0.522 NA 
HETATM   21  H   UNL     1     -11.478  10.667  67.092  1.00  0.00     0.000 HD 
BRANCH  20  22
HETATM   22  C   UNL     1     -11.234  10.462  69.121  1.00  0.00    -0.246 C  
HETATM   23  C   UNL     1     -11.651   8.826  71.007  1.00  0.00    -0.337 C  
HETATM   24  C   UNL     1     -10.597   7.899  70.363  1.00  0.00    -0.228 C  
HETATM   25  C   UNL     1     -10.231   8.448  68.991  1.00  0.00    -0.217 C  
HETATM   26  C   UNL     1     -12.074   9.959  70.357  1.00  0.00    -0.230 C  
HETATM   27  C   UNL     1     -12.016   8.249  72.392  1.00  0.00    -0.447 C  
HETATM   28  C   UNL     1      -9.851   9.906  69.218  1.00  0.00    -0.217 C  
HETATM   29  C   UNL     1     -11.163   6.483  70.125  1.00  0.00    -0.437 C  
HETATM   30  C   UNL     1     -10.795   7.708  73.296  1.00  0.00    -0.379 C  
HETATM   31  C   UNL     1      -9.503   7.158  72.562  1.00  0.00    -0.167 C  
HETATM   32  C   UNL     1      -8.123   7.121  73.397  1.00  0.00    -0.128 C  
HETATM   33  C   UNL     1      -8.012   5.806  74.233  1.00  0.00    -0.104 C  
HETATM   34  C   UNL     1      -6.944   4.925  73.548  1.00  0.00    -0.072 C  
HETATM   35  C   UNL     1      -6.856   5.522  72.146  1.00  0.00    -0.075 C  
HETATM   36  C   UNL     1      -9.346   7.970  71.280  1.00  0.00    -0.182 C  
HETATM   37  C   UNL     1      -6.813   7.039  72.490  1.00  0.00    -0.065 C  
HETATM   38  C   UNL     1      -8.083   7.680  70.477  1.00  0.00    -0.105 C  
HETATM   39  C   UNL     1      -6.871   7.953  71.291  1.00  0.00    -0.046 C  
HETATM   40  C   UNL     1      -5.513   7.505  73.202  1.00  0.00    -0.044 C  
BRANCH  35  41
HETATM   41  O   UNL     1      -5.867   4.960  71.270  1.00  0.00    -0.015 OA 
BRANCH  41  42
HETATM   42  C   UNL     1      -6.379   3.900  70.560  1.00  0.00    -0.027 C  
HETATM   43  O   UNL     1      -5.793   2.829  70.434  1.00  0.00    -0.017 OA 
BRANCH  42  44
HETATM   44  C   UNL     1      -7.717   4.072  69.874  1.00  0.00    -0.052 C  
BRANCH  44  45
HETATM   45  C   UNL     1      -8.915   3.188  70.187  1.00  0.00    -0.172 C  
BRANCH  45  46
HETATM   46  C   UNL     1      -9.555   3.488  71.537  1.00  0.00    -0.232 C  
BRANCH  46  47
HETATM   47  C   UNL     1     -10.146   2.258  72.237  1.00  0.00    -0.229 C  
BRANCH  47  48
HETATM   48  C   UNL     1     -11.005   2.596  73.457  1.00  0.00    -0.312 C  
HETATM   49  C   UNL     1     -11.284   4.091  73.547  1.00  0.00    -0.325 C  
ENDBRANCH  47  48
ENDBRANCH  46  47
ENDBRANCH  45  46
ENDBRANCH  44  45
ENDBRANCH  42  44
ENDBRANCH  41  42
ENDBRANCH  35  41
ENDBRANCH  20  22
ENDBRANCH   1  20
TORSDOF 9
ENDMDL
MODEL        9
REMARK 921   NORMALIZED FREE ENERGY PREDICTED BY IDOCK:   -6.54 KCAL/MOL
REMARK 922        TOTAL FREE ENERGY PREDICTED BY IDOCK:  -13.30 KCAL/MOL
REMARK 923 INTER-LIGAND FREE ENERGY PREDICTED BY IDOCK:  -10.47 KCAL/MOL
REMARK 924 INTRA-LIGAND FREE ENERGY PREDICTED BY IDOCK:   -2.83 KCAL/MOL
REMARK 927      BINDING AFFINITY PREDICTED BY RF-SCORE:    0.00 PKD
ROOT
HETATM    1  N   UNL     1     -10.293   7.911  66.469  1.00  0.00    -0.483 N  
HETATM    2  C   UNL     1     -10.376   6.629  66.989  1.00  0.00    -0.262 C  
HETATM    3  C   UNL     1      -5.746   7.880  68.795  1.00  0.00    -0.031 A  
HETATM    4  H   UNL     1     -10.963   8.573  66.861  1.00  0.00     0.000 HD 
HETATM    5  C   UNL     1      -9.129   3.292  66.299  1.00  0.00    -0.161 A  
HETATM    6  O   UNL     1     -11.525   6.264  67.352  1.00  0.00    -0.110 OA 
HETATM    7  C   UNL     1      -8.737   2.880  63.952  1.00  0.00    -0.089 A  
HETATM    8  C   UNL     1      -9.167   5.694  67.267  1.00  0.00    -0.110 C  
HETATM    9  O   UNL     1      -9.572   4.917  68.437  1.00  0.00    -0.132 OA 
HETATM   10  C   UNL     1      -8.963   4.686  66.121  1.00  0.00    -0.121 A  
HETATM   11  C   UNL     1      -6.642   5.978  67.589  1.00  0.00    -0.056 A  
HETATM   12  C   UNL     1      -7.948   6.446  67.787  1.00  0.00    -0.114 A  
HETATM   13  C   UNL     1      -8.627   5.133  64.838  1.00  0.00    -0.151 A  
HETATM   14  C   UNL     1      -8.121   7.602  68.576  1.00  0.00    -0.124 A  
HETATM   15  C   UNL     1      -5.549   6.698  68.086  1.00  0.00    -0.012 A  
HETATM   16  H   UNL     1      -8.833   4.345  68.607  1.00  0.00     0.000 HD 
HETATM   17  C   UNL     1      -9.022   2.403  65.224  1.00  0.00    -0.127 A  
HETATM   18  C   UNL     1      -7.037   8.331  69.050  1.00  0.00    -0.065 A  
HETATM   19  C   UNL     1      -8.525   4.245  63.762  1.00  0.00    -0.105 A  
ENDROOT
BRANCH   1  20
HETATM   20  N   UNL     1      -9.430   8.454  65.482  1.00  0.00    -0.418 NA 
HETATM   21  H   UNL     1      -8.852   7.884  64.864  1.00  0.00     0.000 HD 
BRANCH  20  22
HETATM   22  C   UNL     1      -9.450   9.760  65.447  1.00  0.00    -0.269 C  
HETATM   23  C   UNL     1     -10.511  11.965  64.799  1.00  0.00    -0.333 C  
HETATM   24  C   UNL     1     -10.847  12.179  66.292  1.00  0.00    -0.317 C  
HETATM   25  C   UNL     1     -10.556  10.892  67.051  1.00  0.00    -0.307 C  
HETATM   26  C   UNL     1      -9.995  10.770  64.365  1.00  0.00    -0.400 C  
HETATM   27  C   UNL     1     -10.822  13.276  64.045  1.00  0.00    -0.287 C  
HETATM   28  C   UNL     1      -9.123  10.517  66.692  1.00  0.00    -0.172 C  
HETATM   29  C   UNL     1     -12.350  12.470  66.494  1.00  0.00     0.198 C  
HETATM   30  C   UNL     1     -10.367  14.648  64.760  1.00  0.00    -0.286 C  
HETATM   31  C   UNL     1     -10.294  14.684  66.342  1.00  0.00    -0.293 C  
HETATM   32  C   UNL     1      -9.366  15.812  67.027  1.00  0.00    -0.235 C  
HETATM   33  C   UNL     1     -10.150  17.153  67.194  1.00  0.00    -0.295 C  
HETATM   34  C   UNL     1     -10.452  17.315  68.700  1.00  0.00    -0.356 C  
HETATM   35  C   UNL     1     -10.280  15.897  69.237  1.00  0.00    -0.250 C  
HETATM   36  C   UNL     1      -9.882  13.286  66.795  1.00  0.00    -0.264 C  
HETATM   37  C   UNL     1      -8.952  15.490  68.534  1.00  0.00    -0.191 C  
HETATM   38  C   UNL     1      -9.634  13.134  68.291  1.00  0.00    -0.218 C  
HETATM   39  C   UNL     1      -8.554  14.049  68.739  1.00  0.00    -0.032 C  
HETATM   40  C   UNL     1      -7.696  16.258  69.029  1.00  0.00    -0.224 C  
BRANCH  35  41
HETATM   41  O   UNL     1     -10.417  15.727  70.656  1.00  0.00    -0.189 OA 
BRANCH  41  42
HETATM   42  C   UNL     1     -11.716  15.431  70.997  1.00  0.00    -0.364 C  
HETATM   43  O   UNL     1     -12.358  16.071  71.824  1.00  0.00    -0.452 OA 
BRANCH  42  44
HETATM   44  C   UNL     1     -12.376  14.236  70.343  1.00  0.00    -0.419 C  
BRANCH  44  45
HETATM   45  C   UNL     1     -12.521  12.895  71.047  1.00  0.00    -0.374 C  
BRANCH  45  46
HETATM   46  C   UNL     1     -12.497  11.704  70.097  1.00  0.00    -0.209 C  
BRANCH  46  47
HETATM   47  C   UNL     1     -12.156  10.371  70.773  1.00  0.00    -0.463 C  
BRANCH  47  48
HETATM   48  C   UNL     1     -10.733   9.883  70.492  1.00  0.00    -0.382 C  
HETATM   49  C   UNL     1     -10.227   8.970  71.601  1.00  0.00    -0.418 C  
ENDBRANCH  47  48
ENDBRANCH  46  47
ENDBRANCH  45  46
ENDBRANCH  44  45
ENDBRANCH  42  44
ENDBRANCH  41  42
ENDBRANCH  35  41
ENDBRANCH  20  22
ENDBRANCH   1  20
TORSDOF 9
ENDMDL
MODEL       10
REMARK 921   NORMALIZED FREE ENERGY PREDICTED BY IDOCK:   -6.53 KCAL/MOL
REMARK 922        TOTAL FREE ENERGY PREDICTED BY IDOCK:  -13.28 KCAL/MOL
REMARK 923 INTER-LIGAND FREE ENERGY PREDICTED BY IDOCK:   -9.59 KCAL/MOL
REMARK 924 INTRA-LIGAND FREE ENERGY PREDICTED BY IDOCK:   -3.69 KCAL/MOL
REMARK 927      BINDING AFFINITY PREDICTED BY RF-SCORE:    0.00 PKD
ROOT
HETATM    1  N   UNL     1     -11.969  12.455  67.107  1.00  0.00    -0.277 N  
HETATM    2  C   UNL     1     -11.551  13.549  66.364  1.00  0.00    -0.350 C  
HETATM    3  C   UNL     1      -7.021  11.211  66.884  1.00  0.00    -0.131 A  
HETATM    4  H   UNL     1     -12.589  11.815  66.610  1.00  0.00     0.000 HD 
HETATM    5  C   UNL     1      -9.886  16.735  66.854  1.00  0.00    -0.269 A  
HETATM    6  O   UNL     1     -12.370  13.962  65.501  1.00  0.00    -0.422 OA 
HETATM    7  C   UNL     1     -10.285  17.702  69.030  1.00  0.00    -0.314 A  
HETATM    8  C   UNL     1     -10.139  14.192  66.432  1.00  0.00    -0.293 C  
HETATM    9  O   UNL     1      -9.897  14.675  65.075  1.00  0.00    -0.474 OA 
HETATM   10  C   UNL     1     -10.131  15.431  67.346  1.00  0.00    -0.233 A  
HETATM   11  C   UNL     1      -7.814  13.474  67.232  1.00  0.00    -0.106 A  
HETATM   12  C   UNL     1      -9.031  13.161  66.610  1.00  0.00    -0.135 A  
HETATM   13  C   UNL     1     -10.400  15.302  68.714  1.00  0.00    -0.232 A  
HETATM   14  C   UNL     1      -9.175  11.873  66.055  1.00  0.00    -0.176 A  
HETATM   15  C   UNL     1      -6.819  12.499  67.372  1.00  0.00    -0.145 A  
HETATM   16  H   UNL     1      -9.033  15.069  65.116  1.00  0.00     0.000 HD 
HETATM   17  C   UNL     1      -9.968  17.856  67.688  1.00  0.00    -0.324 A  
HETATM   18  C   UNL     1      -8.199  10.896  66.215  1.00  0.00    -0.165 A  
HETATM   19  C   UNL     1     -10.486  16.423  69.547  1.00  0.00    -0.301 A  
ENDROOT
BRANCH   1  20
HETATM   20  N   UNL     1     -11.677  12.080  68.444  1.00  0.00    -0.320 NA 
HETATM   21  H   UNL     1     -11.616  12.745  69.215  1.00  0.00     0.000 HD 
BRANCH  20  22
HETATM   22  C   UNL     1     -11.495  10.794  68.587  1.00  0.00    -0.295 C  
HETATM   23  C   UNL     1     -10.344   8.617  68.000  1.00  0.00    -0.277 C  
HETATM   24  C   UNL     1      -9.630   8.690  69.367  1.00  0.00    -0.166 C  
HETATM   25  C   UNL     1      -9.894  10.054  69.989  1.00  0.00    -0.247 C  
HETATM   26  C   UNL     1     -11.103   9.670  67.552  1.00  0.00    -0.035 C  
HETATM   27  C   UNL     1     -10.057   7.232  67.381  1.00  0.00    -0.266 C  
HETATM   28  C   UNL     1     -11.407  10.231  69.968  1.00  0.00    -0.370 C  
HETATM   29  C   UNL     1      -8.098   8.576  69.210  1.00  0.00    -0.113 C  
HETATM   30  C   UNL     1     -10.140   5.964  68.374  1.00  0.00    -0.206 C  
HETATM   31  C   UNL     1      -9.820   6.189  69.910  1.00  0.00    -0.205 C  
HETATM   32  C   UNL     1     -10.398   5.113  70.963  1.00  0.00    -0.278 C  
HETATM   33  C   UNL     1      -9.428   3.896  71.106  1.00  0.00    -0.233 C  
HETATM   34  C   UNL     1      -8.750   4.018  72.488  1.00  0.00    -0.112 C  
HETATM   35  C   UNL     1      -8.971   5.485  72.848  1.00  0.00    -0.123 C  
HETATM   36  C   UNL     1     -10.290   7.599  70.254  1.00  0.00    -0.214 C  
HETATM   37  C   UNL     1     -10.471   5.644  72.466  1.00  0.00    -0.255 C  
HETATM   38  C   UNL     1     -10.184   7.978  71.727  1.00  0.00    -0.260 C  
HETATM   39  C   UNL     1     -10.993   7.056  72.564  1.00  0.00    -0.298 C  
HETATM   40  C   UNL     1     -11.458   4.859  73.373  1.00  0.00    -0.306 C  
BRANCH  35  41
HETATM   41  O   UNL     1      -8.516   5.902  74.144  1.00  0.00    -0.113 OA 
BRANCH  41  42
HETATM   42  C   UNL     1      -7.689   6.997  74.051  1.00  0.00    -0.106 C  
HETATM   43  O   UNL     1      -7.967   8.093  74.527  1.00  0.00    -0.231 OA 
BRANCH  42  44
HETATM   44  C   UNL     1      -6.385   6.850  73.298  1.00  0.00    -0.062 C  
BRANCH  44  45
HETATM   45  C   UNL     1      -6.080   7.635  72.031  1.00  0.00    -0.039 C  
BRANCH  45  46
HETATM   46  C   UNL     1      -5.386   6.808  70.956  1.00  0.00    -0.023 C  
BRANCH  46  47
HETATM   47  C   UNL     1      -6.242   5.667  70.392  1.00  0.00    -0.027 C  
BRANCH  47  48
HETATM   48  C   UNL     1      -5.659   5.022  69.134  1.00  0.00    -0.011 C  
HETATM   49  C   UNL     1      -6.501   5.336  67.904  1.00  0.00    -0.048 C  
ENDBRANCH  47  48
ENDBRANCH  46  47
ENDBRANCH  45  46
ENDBRANCH  44  45
ENDBRANCH  42  44
ENDBRANCH  41  42
ENDBRANCH  35  41
ENDBRANCH  20  22
ENDBRANCH   1  20
TORSDOF 9
ENDMDL
MODEL       11
REMARK 921   NORMALIZED FREE ENERGY PREDICTED BY IDOCK:   -6.42 KCAL/MOL
REMARK 922        TOTAL FREE ENERGY PREDICTED BY IDOCK:  -13.12 KCAL/MOL
REMARK 923 INTER-LIGAND FREE ENERGY PREDICTED BY IDOCK:   -9.65 KCAL/MOL
REMARK 924 INTRA-LIGAND FREE ENERGY PREDICTED BY IDOCK:   -3.46 KCAL/MOL
REMARK 927      BINDING AFFINITY PREDICTED BY RF-SCORE:    0.00 PKD
ROOT
HETATM    1  N   UNL     1     -10.402   6.997  69.148  1.00  0.00    -0.194 N  
HETATM    2  C   UNL     1     -10.317   6.310  67.947  1.00  0.00    -0.193 C  
HETATM    3  C   UNL     1      -8.250   2.751  71.001  1.00  0.00    -0.074 A  
HETATM    4  H   UNL     1     -11.353   7.166  69.476  1.00  0.00     0.000 HD 
HETATM    5  C   UNL     1      -7.849   5.477  65.421  1.00  0.00    -0.100 A  
HETATM    6  O   UNL     1     -11.264   6.509  67.142  1.00  0.00    -0.388 OA 
HETATM    7  C   UNL     1      -6.102   7.130  65.204  1.00  0.00    -0.037 A  
HETATM    8  C   UNL     1      -9.238   5.249  67.595  1.00  0.00    -0.115 C  
HETATM    9  O   UNL     1      -9.932   4.305  66.723  1.00  0.00    -0.223 OA 
HETATM   10  C   UNL     1      -8.100   5.864  66.759  1.00  0.00    -0.102 A  
HETATM   11  C   UNL     1      -7.605   3.766  68.897  1.00  0.00    -0.053 A  
HETATM   12  C   UNL     1      -8.864   4.374  68.784  1.00  0.00    -0.133 A  
HETATM   13  C   UNL     1      -7.283   6.861  67.302  1.00  0.00    -0.089 A  
HETATM   14  C   UNL     1      -9.830   4.074  69.768  1.00  0.00    -0.173 A  
HETATM   15  C   UNL     1      -7.302   2.966  70.005  1.00  0.00    -0.044 A  
HETATM   16  H   UNL     1      -9.273   3.656  66.507  1.00  0.00     0.000 HD 
HETATM   17  C   UNL     1      -6.865   6.110  64.653  1.00  0.00    -0.047 A  
HETATM   18  C   UNL     1      -9.523   3.299  70.880  1.00  0.00    -0.234 A  
HETATM   19  C   UNL     1      -6.301   7.497  66.534  1.00  0.00    -0.045 A  
ENDROOT
BRANCH   1  20
HETATM   20  N   UNL     1      -9.384   7.503  69.998  1.00  0.00    -0.154 NA 
HETATM   21  H   UNL     1      -8.929   6.949  70.725  1.00  0.00     0.000 HD 
BRANCH  20  22
HETATM   22  C   UNL     1      -9.087   8.753  69.755  1.00  0.00    -0.151 C  
HETATM   23  C   UNL     1      -7.606  10.550  68.763  1.00  0.00    -0.101 C  
HETATM   24  C   UNL     1      -8.701  10.788  67.700  1.00  0.00    -0.126 C  
HETATM   25  C   UNL     1      -9.744   9.686  67.812  1.00  0.00    -0.173 C  
HETATM   26  C   UNL     1      -7.702   9.497  69.640  1.00  0.00    -0.112 C  
HETATM   27  C   UNL     1      -6.553  11.671  68.628  1.00  0.00    -0.066 C  
HETATM   28  C   UNL     1     -10.168   9.666  69.275  1.00  0.00    -0.215 C  
HETATM   29  C   UNL     1      -8.126  10.696  66.270  1.00  0.00    -0.151 C  
HETATM   30  C   UNL     1      -7.113  13.167  68.405  1.00  0.00    -0.107 C  
HETATM   31  C   UNL     1      -8.509  13.346  67.677  1.00  0.00    -0.187 C  
HETATM   32  C   UNL     1      -9.309  14.727  67.916  1.00  0.00    -0.193 C  
HETATM   33  C   UNL     1      -8.829  15.829  66.917  1.00  0.00    -0.273 C  
HETATM   34  C   UNL     1      -9.961  16.028  65.886  1.00  0.00    -0.380 C  
HETATM   35  C   UNL     1     -10.784  14.750  66.031  1.00  0.00    -0.312 C  
HETATM   36  C   UNL     1      -9.365  12.144  68.064  1.00  0.00    -0.197 C  
HETATM   37  C   UNL     1     -10.867  14.645  67.582  1.00  0.00    -0.284 C  
HETATM   38  C   UNL     1     -10.804  12.181  67.562  1.00  0.00    -0.283 C  
HETATM   39  C   UNL     1     -11.510  13.377  68.087  1.00  0.00    -0.339 C  
HETATM   40  C   UNL     1     -11.724  15.748  68.260  1.00  0.00    -0.229 C  
BRANCH  35  41
HETATM   41  O   UNL     1     -11.982  14.665  65.244  1.00  0.00    -0.354 OA 
BRANCH  41  42
HETATM   42  C   UNL     1     -11.834  13.770  64.211  1.00  0.00    -0.417 C  
HETATM   43  O   UNL     1     -12.644  13.660  63.295  1.00  0.00    -0.816 OA 
BRANCH  42  44
HETATM   44  C   UNL     1     -10.629  12.855  64.219  1.00  0.00    -0.430 C  
BRANCH  44  45
HETATM   45  C   UNL     1     -10.650  11.472  63.585  1.00  0.00    -0.491 C  
BRANCH  45  46
HETATM   46  C   UNL     1      -9.433  11.184  62.715  1.00  0.00    -0.357 C  
BRANCH  46  47
HETATM   47  C   UNL     1      -9.251   9.702  62.363  1.00  0.00    -0.248 C  
BRANCH  47  48
HETATM   48  C   UNL     1      -7.836   9.179  62.611  1.00  0.00    -0.122 C  
HETATM   49  C   UNL     1      -6.846  10.319  62.814  1.00  0.00    -0.136 C  
ENDBRANCH  47  48
ENDBRANCH  46  47
ENDBRANCH  45  46
ENDBRANCH  44  45
ENDBRANCH  42  44
ENDBRANCH  41  42
ENDBRANCH  35  41
ENDBRANCH  20  22
ENDBRANCH   1  20
TORSDOF 9
ENDMDL
MODEL       12
REMARK 921   NORMALIZED FREE ENERGY PREDICTED BY IDOCK:   -6.40 KCAL/MOL
REMARK 922        TOTAL FREE ENERGY PREDICTED BY IDOCK:  -13.08 KCAL/MOL
REMARK 923 INTER-LIGAND FREE ENERGY PREDICTED BY IDOCK:  -10.85 KCAL/MOL
REMARK 924 INTRA-LIGAND FREE ENERGY PREDICTED BY IDOCK:   -2.23 KCAL/MOL
REMARK 927      BINDING AFFINITY PREDICTED BY RF-SCORE:    0.00 PKD
ROOT
HETATM    1  N   UNL     1      -8.733  14.182  68.297  1.00  0.00    -0.176 N  
HETATM    2  C   UNL     1      -9.398  15.380  68.503  1.00  0.00    -0.198 C  
HETATM    3  C   UNL     1     -12.243  13.591  64.635  1.00  0.00    -0.450 A  
HETATM    4  H   UNL     1      -8.809  13.516  69.066  1.00  0.00     0.000 HD 
HETATM    5  C   UNL     1      -9.616  18.693  67.039  1.00  0.00    -0.319 A  
HETATM    6  O   UNL     1      -9.466  15.764  69.700  1.00  0.00    -0.276 OA 
HETATM    7  C   UNL     1      -7.573  19.405  65.966  1.00  0.00    -0.308 A  
HETATM    8  C   UNL     1     -10.152  16.187  67.409  1.00  0.00    -0.257 C  
HETATM    9  O   UNL     1     -11.260  16.816  68.124  1.00  0.00    -0.325 OA 
HETATM   10  C   UNL     1      -9.281  17.330  66.857  1.00  0.00    -0.265 A  
HETATM   11  C   UNL     1     -11.137  15.697  65.097  1.00  0.00    -0.357 A  
HETATM   12  C   UNL     1     -10.877  15.291  66.413  1.00  0.00    -0.317 A  
HETATM   13  C   UNL     1      -8.096  17.048  66.169  1.00  0.00    -0.292 A  
HETATM   14  C   UNL     1     -11.397  14.049  66.834  1.00  0.00    -0.343 A  
HETATM   15  C   UNL     1     -11.811  14.845  64.213  1.00  0.00    -0.312 A  
HETATM   16  H   UNL     1     -11.721  17.309  67.456  1.00  0.00     0.000 HD 
HETATM   17  C   UNL     1      -8.766  19.716  66.603  1.00  0.00    -0.392 A  
HETATM   18  C   UNL     1     -12.044  13.192  65.952  1.00  0.00    -0.501 A  
HETATM   19  C   UNL     1      -7.244  18.070  65.736  1.00  0.00    -0.204 A  
ENDROOT
BRANCH   1  20
HETATM   20  N   UNL     1      -7.965  13.728  67.193  1.00  0.00    -0.357 NA 
HETATM   21  H   UNL     1      -7.629  14.342  66.451  1.00  0.00     0.000 HD 
BRANCH  20  22
HETATM   22  C   UNL     1      -7.732  12.442  67.225  1.00  0.00    -0.158 C  
HETATM   23  C   UNL     1      -6.491  10.413  68.092  1.00  0.00    -0.056 C  
HETATM   24  C   UNL     1      -7.778  10.018  68.849  1.00  0.00    -0.089 C  
HETATM   25  C   UNL     1      -8.770  11.169  68.767  1.00  0.00    -0.130 C  
HETATM   26  C   UNL     1      -6.403  11.624  67.451  1.00  0.00    -0.100 C  
HETATM   27  C   UNL     1      -5.494   9.239  68.194  1.00  0.00    -0.038 C  
HETATM   28  C   UNL     1      -8.892  11.504  67.285  1.00  0.00    -0.160 C  
HETATM   29  C   UNL     1      -7.501   9.791  70.350  1.00  0.00    -0.161 C  
HETATM   30  C   UNL     1      -6.097   7.757  67.989  1.00  0.00    -0.045 C  
HETATM   31  C   UNL     1      -7.611   7.501  68.378  1.00  0.00    -0.114 C  
HETATM   32  C   UNL     1      -8.356   6.237  67.707  1.00  0.00    -0.117 C  
HETATM   33  C   UNL     1      -8.094   4.934  68.529  1.00  0.00    -0.085 C  
HETATM   34  C   UNL     1      -9.411   4.586  69.256  1.00  0.00    -0.215 C  
HETATM   35  C   UNL     1     -10.179   5.905  69.221  1.00  0.00    -0.213 C  
HETATM   36  C   UNL     1      -8.364   8.797  68.089  1.00  0.00    -0.122 C  
HETATM   37  C   UNL     1      -9.949   6.325  67.740  1.00  0.00    -0.143 C  
HETATM   38  C   UNL     1      -9.875   8.728  68.282  1.00  0.00    -0.185 C  
HETATM   39  C   UNL     1     -10.469   7.697  67.394  1.00  0.00    -0.367 C  
HETATM   40  C   UNL     1     -10.660   5.423  66.694  1.00  0.00    -0.359 C  
BRANCH  35  41
HETATM   41  O   UNL     1     -11.510   5.886  69.760  1.00  0.00    -0.307 OA 
BRANCH  41  42
HETATM   42  C   UNL     1     -11.645   6.799  70.779  1.00  0.00    -0.366 C  
HETATM   43  O   UNL     1     -12.719   7.305  71.091  1.00  0.00    -0.350 OA 
BRANCH  42  44
HETATM   44  C   UNL     1     -10.404   7.225  71.533  1.00  0.00    -0.217 C  
BRANCH  44  45
HETATM   45  C   UNL     1     -10.452   7.725  72.969  1.00  0.00    -0.432 C  
BRANCH  45  46
HETATM   46  C   UNL     1      -9.989   6.692  73.988  1.00  0.00    -0.346 C  
BRANCH  46  47
HETATM   47  C   UNL     1      -9.399   5.420  73.367  1.00  0.00    -0.134 C  
BRANCH  47  48
HETATM   48  C   UNL     1      -7.891   5.273  73.577  1.00  0.00    -0.106 C  
HETATM   49  C   UNL     1      -7.125   5.457  72.274  1.00  0.00    -0.086 C  
ENDBRANCH  47  48
ENDBRANCH  46  47
ENDBRANCH  45  46
ENDBRANCH  44  45
ENDBRANCH  42  44
ENDBRANCH  41  42
ENDBRANCH  35  41
ENDBRANCH  20  22
ENDBRANCH   1  20
TORSDOF 9
ENDMDL
MODEL       13
REMARK 921   NORMALIZED FREE ENERGY PREDICTED BY IDOCK:   -6.28 KCAL/MOL
REMARK 922        TOTAL FREE ENERGY PREDICTED BY IDOCK:  -12.90 KCAL/MOL
REMARK 923 INTER-LIGAND FREE ENERGY PREDICTED BY IDOCK:  -10.93 KCAL/MOL
REMARK 924 INTRA-LIGAND FREE ENERGY PREDICTED BY IDOCK:   -1.97 KCAL/MOL
REMARK 927      BINDING AFFINITY PREDICTED BY RF-SCORE:    0.00 PKD
ROOT
HETATM    1  N   UNL     1     -11.475   7.346  69.978  1.00  0.00    -0.477 N  
HETATM    2  C   UNL     1     -11.287   6.439  71.009  1.00  0.00    -0.328 C  
HETATM    3  C   UNL     1      -6.677   8.675  71.116  1.00  0.00    -0.068 A  
HETATM    4  H   UNL     1     -12.170   8.068  70.167  1.00  0.00     0.000 HD 
HETATM    5  C   UNL     1      -9.674   3.244  71.606  1.00  0.00    -0.234 A  
HETATM    6  O   UNL     1     -12.301   6.206  71.717  1.00  0.00    -0.201 OA 
HETATM    7  C   UNL     1      -9.582   1.834  69.647  1.00  0.00    -0.058 A  
HETATM    8  C   UNL     1      -9.924   5.815  71.417  1.00  0.00    -0.185 C  
HETATM    9  O   UNL     1     -10.028   5.632  72.862  1.00  0.00    -0.172 OA 
HETATM   10  C   UNL     1      -9.746   4.411  70.809  1.00  0.00    -0.271 A  
HETATM   11  C   UNL     1      -7.450   6.379  71.066  1.00  0.00    -0.085 A  
HETATM   12  C   UNL     1      -8.767   6.800  71.299  1.00  0.00    -0.128 A  
HETATM   13  C   UNL     1      -9.678   4.245  69.421  1.00  0.00    -0.257 A  
HETATM   14  C   UNL     1      -8.990   8.174  71.523  1.00  0.00    -0.201 A  
HETATM   15  C   UNL     1      -6.414   7.316  70.969  1.00  0.00    -0.043 A  
HETATM   16  H   UNL     1      -9.195   5.250  73.112  1.00  0.00     0.000 HD 
HETATM   17  C   UNL     1      -9.599   1.972  71.028  1.00  0.00    -0.196 A  
HETATM   18  C   UNL     1      -7.967   9.108  71.403  1.00  0.00     0.001 A  
HETATM   19  C   UNL     1      -9.607   2.974  68.842  1.00  0.00    -0.070 A  
ENDROOT
BRANCH   1  20
HETATM   20  N   UNL     1     -10.860   7.435  68.701  1.00  0.00    -0.412 NA 
HETATM   21  H   UNL     1     -11.001   6.748  67.960  1.00  0.00     0.000 HD 
BRANCH  20  22
HETATM   22  C   UNL     1     -10.096   8.487  68.573  1.00  0.00    -0.194 C  
HETATM   23  C   UNL     1      -8.288   9.810  67.394  1.00  0.00    -0.114 C  
HETATM   24  C   UNL     1      -9.390  10.771  66.900  1.00  0.00    -0.179 C  
HETATM   25  C   UNL     1     -10.750  10.171  67.226  1.00  0.00    -0.316 C  
HETATM   26  C   UNL     1      -8.617   8.649  68.050  1.00  0.00    -0.137 C  
HETATM   27  C   UNL     1      -6.917  10.431  67.047  1.00  0.00    -0.090 C  
HETATM   28  C   UNL     1     -10.710   9.841  68.713  1.00  0.00    -0.243 C  
HETATM   29  C   UNL     1      -9.347  10.937  65.366  1.00  0.00    -0.240 C  
HETATM   30  C   UNL     1      -6.751  12.012  67.312  1.00  0.00    -0.144 C  
HETATM   31  C   UNL     1      -8.041  12.929  67.230  1.00  0.00    -0.164 C  
HETATM   32  C   UNL     1      -8.001  14.352  67.989  1.00  0.00    -0.139 C  
HETATM   33  C   UNL     1      -7.360  15.451  67.081  1.00  0.00    -0.203 C  
HETATM   34  C   UNL     1      -8.504  16.382  66.623  1.00  0.00    -0.306 C  
HETATM   35  C   UNL     1      -9.751  15.535  66.864  1.00  0.00    -0.233 C  
HETATM   36  C   UNL     1      -9.213  12.082  67.715  1.00  0.00    -0.190 C  
HETATM   37  C   UNL     1      -9.441  14.975  68.282  1.00  0.00    -0.196 C  
HETATM   38  C   UNL     1     -10.544  12.818  67.830  1.00  0.00    -0.232 C  
HETATM   39  C   UNL     1     -10.433  13.953  68.781  1.00  0.00    -0.229 C  
HETATM   40  C   UNL     1      -9.457  16.038  69.416  1.00  0.00    -0.226 C  
BRANCH  35  41
HETATM   41  O   UNL     1     -11.015  16.166  66.607  1.00  0.00    -0.211 OA 
BRANCH  41  42
HETATM   42  C   UNL     1     -10.910  17.094  65.597  1.00  0.00    -0.049 C  
HETATM   43  O   UNL     1     -10.999  16.807  64.407  1.00  0.00    -0.974 OA 
BRANCH  42  44
HETATM   44  C   UNL     1     -10.640  18.536  65.971  1.00  0.00    -0.368 C  
BRANCH  44  45
HETATM   45  C   UNL     1     -10.889  19.077  67.372  1.00  0.00    -0.496 C  
BRANCH  45  46
HETATM   46  C   UNL     1      -9.929  20.190  67.772  1.00  0.00    -0.549 C  
BRANCH  46  47
HETATM   47  C   UNL     1      -8.668  20.272  66.902  1.00  0.00    -0.385 C  
BRANCH  47  48
HETATM   48  C   UNL     1      -7.364  20.220  67.700  1.00  0.00    -0.340 C  
HETATM   49  C   UNL     1      -7.501  19.343  68.938  1.00  0.00    -0.399 C  
ENDBRANCH  47  48
ENDBRANCH  46  47
ENDBRANCH  45  46
ENDBRANCH  44  45
ENDBRANCH  42  44
ENDBRANCH  41  42
ENDBRANCH  35  41
ENDBRANCH  20  22
ENDBRANCH   1  20
TORSDOF 9
ENDMDL
MODEL       14
REMARK 921   NORMALIZED FREE ENERGY PREDICTED BY IDOCK:   -6.27 KCAL/MOL
REMARK 922        TOTAL FREE ENERGY PREDICTED BY IDOCK:  -12.88 KCAL/MOL
REMARK 923 INTER-LIGAND FREE ENERGY PREDICTED BY IDOCK:   -8.92 KCAL/MOL
REMARK 924 INTRA-LIGAND FREE ENERGY PREDICTED BY IDOCK:   -3.96 KCAL/MOL
REMARK 927      BINDING AFFINITY PREDICTED BY RF-SCORE:    0.00 PKD
ROOT
HETATM    1  N   UNL     1     -10.139  12.147  65.363  1.00  0.00    -0.253 N  
HETATM    2  C   UNL     1     -11.241  12.399  66.165  1.00  0.00    -0.322 C  
HETATM    3  C   UNL     1      -8.347  16.384  67.581  1.00  0.00    -0.176 A  
HETATM    4  H   UNL     1     -10.312  12.235  64.362  1.00  0.00     0.000 HD 
HETATM    5  C   UNL     1     -12.277  12.012  69.621  1.00  0.00    -0.202 A  
HETATM    6  O   UNL     1     -12.357  12.102  65.662  1.00  0.00    -0.560 OA 
HETATM    7  C   UNL     1     -11.244  10.131  70.728  1.00  0.00    -0.414 A  
HETATM    8  C   UNL     1     -11.203  13.120  67.541  1.00  0.00    -0.282 C  
HETATM    9  O   UNL     1     -12.475  13.835  67.609  1.00  0.00    -0.394 OA 
HETATM   10  C   UNL     1     -11.205  12.109  68.703  1.00  0.00    -0.318 A  
HETATM   11  C   UNL     1      -9.582  14.673  68.773  1.00  0.00    -0.210 A  
HETATM   12  C   UNL     1     -10.191  14.258  67.581  1.00  0.00    -0.237 A  
HETATM   13  C   UNL     1     -10.136  11.222  68.870  1.00  0.00    -0.185 A  
HETATM   14  C   UNL     1      -9.916  14.994  66.409  1.00  0.00    -0.295 A  
HETATM   15  C   UNL     1      -8.659  15.726  68.768  1.00  0.00    -0.203 A  
HETATM   16  H   UNL     1     -12.452  14.275  68.451  1.00  0.00     0.000 HD 
HETATM   17  C   UNL     1     -12.297  11.029  70.617  1.00  0.00    -0.480 A  
HETATM   18  C   UNL     1      -8.983  16.024  66.397  1.00  0.00    -0.354 A  
HETATM   19  C   UNL     1     -10.156  10.237  69.863  1.00  0.00    -0.219 A  
ENDROOT
BRANCH   1  20
HETATM   20  N   UNL     1      -8.809  11.786  65.705  1.00  0.00    -0.404 NA 
HETATM   21  H   UNL     1      -8.175  12.397  66.220  1.00  0.00     0.000 HD 
BRANCH  20  22
HETATM   22  C   UNL     1      -8.480  10.591  65.293  1.00  0.00    -0.171 C  
HETATM   23  C   UNL     1      -6.784   8.767  64.841  1.00  0.00    -0.069 C  
HETATM   24  C   UNL     1      -7.376   7.995  66.041  1.00  0.00    -0.073 C  
HETATM   25  C   UNL     1      -8.344   8.906  66.783  1.00  0.00    -0.111 C  
HETATM   26  C   UNL     1      -7.186  10.051  64.571  1.00  0.00    -0.139 C  
HETATM   27  C   UNL     1      -5.799   7.831  64.107  1.00  0.00    -0.052 C  
HETATM   28  C   UNL     1      -9.311   9.428  65.727  1.00  0.00    -0.301 C  
HETATM   29  C   UNL     1      -6.281   7.608  67.057  1.00  0.00    -0.053 C  
HETATM   30  C   UNL     1      -6.271   6.304  63.898  1.00  0.00    -0.029 C  
HETATM   31  C   UNL     1      -7.271   5.674  64.954  1.00  0.00    -0.065 C  
HETATM   32  C   UNL     1      -8.142   4.396  64.494  1.00  0.00    -0.096 C  
HETATM   33  C   UNL     1      -7.342   3.070  64.703  1.00  0.00    -0.070 C  
HETATM   34  C   UNL     1      -7.979   2.342  65.906  1.00  0.00    -0.082 C  
HETATM   35  C   UNL     1      -8.752   3.456  66.609  1.00  0.00    -0.126 C  
HETATM   36  C   UNL     1      -8.172   6.806  65.436  1.00  0.00    -0.134 C  
HETATM   37  C   UNL     1      -9.438   4.134  65.388  1.00  0.00    -0.173 C  
HETATM   38  C   UNL     1      -9.296   6.388  66.377  1.00  0.00    -0.176 C  
HETATM   39  C   UNL     1     -10.189   5.401  65.719  1.00  0.00     0.053 C  
HETATM   40  C   UNL     1     -10.528   3.271  64.695  1.00  0.00     0.148 C  
BRANCH  35  41
HETATM   41  O   UNL     1      -9.538   3.072  67.747  1.00  0.00    -0.196 OA 
BRANCH  41  42
HETATM   42  C   UNL     1      -8.989   3.550  68.913  1.00  0.00    -0.125 C  
HETATM   43  O   UNL     1      -9.391   3.229  70.028  1.00  0.00    -0.144 OA 
BRANCH  42  44
HETATM   44  C   UNL     1      -7.852   4.545  68.818  1.00  0.00    -0.071 C  
BRANCH  44  45
HETATM   45  C   UNL     1      -7.594   5.595  69.889  1.00  0.00    -0.075 C  
BRANCH  45  46
HETATM   46  C   UNL     1      -8.565   6.767  69.836  1.00  0.00    -0.141 C  
BRANCH  46  47
HETATM   47  C   UNL     1      -9.421   6.928  71.099  1.00  0.00    -0.166 C  
BRANCH  47  48
HETATM   48  C   UNL     1     -10.846   6.393  70.949  1.00  0.00    -0.316 C  
HETATM   49  C   UNL     1     -11.307   6.428  69.498  1.00  0.00    -0.460 C  
ENDBRANCH  47  48
ENDBRANCH  46  47
ENDBRANCH  45  46
ENDBRANCH  44  45
ENDBRANCH  42  44
ENDBRANCH  41  42
ENDBRANCH  35  41
ENDBRANCH  20  22
ENDBRANCH   1  20
TORSDOF 9
ENDMDL
MODEL       15
REMARK 921   NORMALIZED FREE ENERGY PREDICTED BY IDOCK:   -6.16 KCAL/MOL
REMARK 922        TOTAL FREE ENERGY PREDICTED BY IDOCK:  -12.72 KCAL/MOL
REMARK 923 INTER-LIGAND FREE ENERGY PREDICTED BY IDOCK:  -10.15 KCAL/MOL
REMARK 924 INTRA-LIGAND FREE ENERGY PREDICTED BY IDOCK:   -2.57 KCAL/MOL
REMARK 927      BINDING AFFINITY PREDICTED BY RF-SCORE:    0.00 PKD
ROOT
HETATM    1  N   UNL     1      -9.990  12.288  69.055  1.00  0.00    -0.417 N  
HETATM    2  C   UNL     1     -10.912  13.322  69.049  1.00  0.00    -0.206 C  
HETATM    3  C   UNL     1     -11.021  12.182  64.054  1.00  0.00    -0.438 A  
HETATM    4  H   UNL     1     -10.286  11.456  69.565  1.00  0.00     0.000 HD 
HETATM    5  C   UNL     1     -11.099  16.840  68.179  1.00  0.00    -0.254 A  
HETATM    6  O   UNL     1     -11.642  13.403  70.072  1.00  0.00    -0.241 OA 
HETATM    7  C   UNL     1      -9.005  18.010  68.455  1.00  0.00    -0.286 A  
HETATM    8  C   UNL     1     -11.187  14.273  67.851  1.00  0.00    -0.285 C  
HETATM    9  O   UNL     1     -12.610  14.587  67.958  1.00  0.00    -0.481 OA 
HETATM   10  C   UNL     1     -10.431  15.605  68.008  1.00  0.00    -0.263 A  
HETATM   11  C   UNL     1     -10.775  14.232  65.323  1.00  0.00    -0.377 A  
HETATM   12  C   UNL     1     -11.114  13.560  66.506  1.00  0.00    -0.310 A  
HETATM   13  C   UNL     1      -9.032  15.627  68.013  1.00  0.00    -0.178 A  
HETATM   14  C   UNL     1     -11.488  12.203  66.409  1.00  0.00    -0.430 A  
HETATM   15  C   UNL     1     -10.723  13.541  64.106  1.00  0.00    -0.220 A  
HETATM   16  H   UNL     1     -12.777  15.168  67.225  1.00  0.00     0.000 HD 
HETATM   17  C   UNL     1     -10.392  18.026  68.406  1.00  0.00    -0.377 A  
HETATM   18  C   UNL     1     -11.414  11.510  65.207  1.00  0.00    -0.091 A  
HETATM   19  C   UNL     1      -8.323  16.812  68.244  1.00  0.00    -0.213 A  
ENDROOT
BRANCH   1  20
HETATM   20  N   UNL     1      -8.700  12.196  68.468  1.00  0.00    -0.323 NA 
HETATM   21  H   UNL     1      -8.222  12.985  68.033  1.00  0.00     0.000 HD 
BRANCH  20  22
HETATM   22  C   UNL     1      -8.188  10.996  68.541  1.00  0.00    -0.146 C  
HETATM   23  C   UNL     1      -6.517   9.327  69.451  1.00  0.00    -0.044 C  
HETATM   24  C   UNL     1      -7.672   8.690  70.253  1.00  0.00    -0.083 C  
HETATM   25  C   UNL     1      -8.896   9.589  70.153  1.00  0.00    -0.266 C  
HETATM   26  C   UNL     1      -6.708  10.500  68.764  1.00  0.00    -0.054 C  
HETATM   27  C   UNL     1      -5.283   8.406  69.571  1.00  0.00    -0.030 C  
HETATM   28  C   UNL     1      -9.112   9.828  68.664  1.00  0.00    -0.130 C  
HETATM   29  C   UNL     1      -7.329   8.591  71.755  1.00  0.00    -0.118 C  
HETATM   30  C   UNL     1      -5.547   6.821  69.436  1.00  0.00    -0.015 C  
HETATM   31  C   UNL     1      -6.962   6.254  69.871  1.00  0.00    -0.066 C  
HETATM   32  C   UNL     1      -7.419   4.831  69.265  1.00  0.00    -0.053 C  
HETATM   33  C   UNL     1      -6.863   3.652  70.127  1.00  0.00    -0.034 C  
HETATM   34  C   UNL     1      -8.059   3.053  70.899  1.00  0.00    -0.063 C  
HETATM   35  C   UNL     1      -9.100   4.168  70.835  1.00  0.00    -0.117 C  
HETATM   36  C   UNL     1      -7.986   7.339  69.553  1.00  0.00    -0.127 C  
HETATM   37  C   UNL     1      -8.992   4.566  69.335  1.00  0.00    -0.142 C  
HETATM   38  C   UNL     1      -9.441   6.947  69.786  1.00  0.00    -0.145 C  
HETATM   39  C   UNL     1      -9.808   5.776  68.950  1.00  0.00    -0.191 C  
HETATM   40  C   UNL     1      -9.503   3.488  68.340  1.00  0.00    -0.209 C  
BRANCH  35  41
HETATM   41  O   UNL     1     -10.385   3.879  71.406  1.00  0.00    -0.031 OA 
BRANCH  41  42
HETATM   42  C   UNL     1     -10.469   4.343  72.698  1.00  0.00    -0.182 C  
HETATM   43  O   UNL     1     -11.172   3.820  73.557  1.00  0.00    -0.243 OA 
BRANCH  42  44
HETATM   44  C   UNL     1      -9.679   5.580  73.070  1.00  0.00    -0.164 C  
BRANCH  44  45
HETATM   45  C   UNL     1     -10.295   6.742  73.835  1.00  0.00    -0.397 C  
BRANCH  45  46
HETATM   46  C   UNL     1     -10.700   7.909  72.943  1.00  0.00    -0.440 C  
BRANCH  46  47
HETATM   47  C   UNL     1     -11.906   7.618  72.041  1.00  0.00    -0.342 C  
BRANCH  47  48
HETATM   48  C   UNL     1     -12.870   8.796  71.902  1.00  0.00    -0.423 C  
HETATM   49  C   UNL     1     -12.187  10.008  71.281  1.00  0.00    -0.498 C  
ENDBRANCH  47  48
ENDBRANCH  46  47
ENDBRANCH  45  46
ENDBRANCH  44  45
ENDBRANCH  42  44
ENDBRANCH  41  42
ENDBRANCH  35  41
ENDBRANCH  20  22
ENDBRANCH   1  20
TORSDOF 9
ENDMDL
MODEL       16
REMARK 921   NORMALIZED FREE ENERGY PREDICTED BY IDOCK:   -6.16 KCAL/MOL
REMARK 922        TOTAL FREE ENERGY PREDICTED BY IDOCK:  -12.71 KCAL/MOL
REMARK 923 INTER-LIGAND FREE ENERGY PREDICTED BY IDOCK:   -9.47 KCAL/MOL
REMARK 924 INTRA-LIGAND FREE ENERGY PREDICTED BY IDOCK:   -3.25 KCAL/MOL
REMARK 927      BINDING AFFINITY PREDICTED BY RF-SCORE:    0.00 PKD
ROOT
HETATM    1  N   UNL     1     -10.951  11.210  68.224  1.00  0.00    -0.207 N  
HETATM    2  C   UNL     1     -10.970  12.137  67.194  1.00  0.00    -0.268 C  
HETATM    3  C   UNL     1      -5.924  11.253  67.320  1.00  0.00    -0.072 A  
HETATM    4  H   UNL     1     -11.411  10.326  68.010  1.00  0.00     0.000 HD 
HETATM    5  C   UNL     1     -10.270  15.654  66.640  1.00  0.00    -0.283 A  
HETATM    6  O   UNL     1     -11.976  12.085  66.438  1.00  0.00    -0.611 OA 
HETATM    7  C   UNL     1     -10.660  17.029  68.587  1.00  0.00    -0.362 A  
HETATM    8  C   UNL     1      -9.813  13.113  66.843  1.00  0.00    -0.249 C  
HETATM    9  O   UNL     1      -9.897  13.265  65.392  1.00  0.00    -0.464 OA 
HETATM   10  C   UNL     1     -10.057  14.509  67.444  1.00  0.00    -0.235 A  
HETATM   11  C   UNL     1      -7.299  13.249  67.311  1.00  0.00    -0.050 A  
HETATM   12  C   UNL     1      -8.438  12.483  67.023  1.00  0.00    -0.161 A  
HETATM   13  C   UNL     1     -10.101  14.684  68.832  1.00  0.00    -0.234 A  
HETATM   14  C   UNL     1      -8.264  11.101  66.802  1.00  0.00    -0.154 A  
HETATM   15  C   UNL     1      -6.051  12.631  67.465  1.00  0.00    -0.157 A  
HETATM   16  H   UNL     1      -9.189  13.861  65.177  1.00  0.00     0.000 HD 
HETATM   17  C   UNL     1     -10.574  16.897  67.208  1.00  0.00    -0.270 A  
HETATM   18  C   UNL     1      -7.031  10.483  66.978  1.00  0.00    -0.089 A  
HETATM   19  C   UNL     1     -10.409  15.924  69.401  1.00  0.00    -0.265 A  
ENDROOT
BRANCH   1  20
HETATM   20  N   UNL     1     -10.395  11.289  69.529  1.00  0.00    -0.445 NA 
HETATM   21  H   UNL     1      -9.962  12.133  69.906  1.00  0.00     0.000 HD 
BRANCH  20  22
HETATM   22  C   UNL     1     -10.495  10.171  70.197  1.00  0.00    -0.255 C  
HETATM   23  C   UNL     1     -11.747   8.084  70.893  1.00  0.00    -0.265 C  
HETATM   24  C   UNL     1     -10.762   7.270  70.026  1.00  0.00    -0.261 C  
HETATM   25  C   UNL     1      -9.922   8.233  69.200  1.00  0.00    -0.196 C  
HETATM   26  C   UNL     1     -11.733   9.457  70.864  1.00  0.00    -0.378 C  
HETATM   27  C   UNL     1     -12.596   7.091  71.716  1.00  0.00    -0.388 C  
HETATM   28  C   UNL     1      -9.337   9.228  70.195  1.00  0.00    -0.258 C  
HETATM   29  C   UNL     1     -11.510   6.373  69.016  1.00  0.00    -0.203 C  
HETATM   30  C   UNL     1     -11.815   5.847  72.380  1.00  0.00    -0.263 C  
HETATM   31  C   UNL     1     -10.505   5.313  71.665  1.00  0.00    -0.280 C  
HETATM   32  C   UNL     1      -9.454   4.471  72.553  1.00  0.00    -0.173 C  
HETATM   33  C   UNL     1      -9.849   2.960  72.601  1.00  0.00    -0.207 C  
HETATM   34  C   UNL     1      -8.830   2.199  71.725  1.00  0.00    -0.115 C  
HETATM   35  C   UNL     1      -8.232   3.304  70.858  1.00  0.00    -0.064 C  
HETATM   36  C   UNL     1      -9.833   6.521  71.020  1.00  0.00    -0.196 C  
HETATM   37  C   UNL     1      -7.985   4.401  71.933  1.00  0.00    -0.097 C  
HETATM   38  C   UNL     1      -8.480   6.245  70.374  1.00  0.00    -0.134 C  
HETATM   39  C   UNL     1      -7.518   5.724  71.379  1.00  0.00    -0.096 C  
HETATM   40  C   UNL     1      -6.874   4.059  72.963  1.00  0.00    -0.048 C  
BRANCH  35  41
HETATM   41  O   UNL     1      -7.170   2.920  69.972  1.00  0.00    -0.040 OA 
BRANCH  41  42
HETATM   42  C   UNL     1      -7.665   2.441  68.782  1.00  0.00    -0.049 C  
HETATM   43  O   UNL     1      -6.977   1.849  67.956  1.00  0.00    -0.038 OA 
BRANCH  42  44
HETATM   44  C   UNL     1      -9.125   2.681  68.461  1.00  0.00    -0.218 C  
BRANCH  44  45
HETATM   45  C   UNL     1      -9.573   3.613  67.345  1.00  0.00    -0.197 C  
BRANCH  45  46
HETATM   46  C   UNL     1      -8.621   4.778  67.108  1.00  0.00    -0.104 C  
BRANCH  46  47
HETATM   47  C   UNL     1      -9.189   5.876  66.199  1.00  0.00    -0.164 C  
BRANCH  47  48
HETATM   48  C   UNL     1      -8.337   7.145  66.160  1.00  0.00    -0.133 C  
HETATM   49  C   UNL     1      -7.047   6.978  66.953  1.00  0.00    -0.075 C  
ENDBRANCH  47  48
ENDBRANCH  46  47
ENDBRANCH  45  46
ENDBRANCH  44  45
ENDBRANCH  42  44
ENDBRANCH  41  42
ENDBRANCH  35  41
ENDBRANCH  20  22
ENDBRANCH   1  20
TORSDOF 9
ENDMDL
MODEL       17
REMARK 921   NORMALIZED FREE ENERGY PREDICTED BY IDOCK:   -6.16 KCAL/MOL
REMARK 922        TOTAL FREE ENERGY PREDICTED BY IDOCK:  -12.71 KCAL/MOL
REMARK 923 INTER-LIGAND FREE ENERGY PREDICTED BY IDOCK:   -9.12 KCAL/MOL
REMARK 924 INTRA-LIGAND FREE ENERGY PREDICTED BY IDOCK:   -3.59 KCAL/MOL
REMARK 927      BINDING AFFINITY PREDICTED BY RF-SCORE:    0.00 PKD
ROOT
HETATM    1  N   UNL     1     -11.156  10.777  66.410  1.00  0.00    -0.040 N  
HETATM    2  C   UNL     1     -10.958  12.114  66.101  1.00  0.00    -0.298 C  
HETATM    3  C   UNL     1      -6.278  11.052  67.899  1.00  0.00    -0.053 A  
HETATM    4  H   UNL     1     -11.318  10.174  65.604  1.00  0.00     0.000 HD 
HETATM    5  C   UNL     1     -10.794  15.331  67.772  1.00  0.00    -0.295 A  
HETATM    6  O   UNL     1     -11.566  12.530  65.080  1.00  0.00    -0.325 OA 
HETATM    7  C   UNL     1     -12.159  15.450  69.761  1.00  0.00    -0.373 A  
HETATM    8  C   UNL     1      -9.968  13.065  66.828  1.00  0.00    -0.245 C  
HETATM    9  O   UNL     1      -9.516  13.982  65.784  1.00  0.00    -0.504 OA 
HETATM   10  C   UNL     1     -10.688  13.924  67.884  1.00  0.00    -0.248 A  
HETATM   11  C   UNL     1      -7.903  12.800  68.320  1.00  0.00    -0.141 A  
HETATM   12  C   UNL     1      -8.672  12.371  67.229  1.00  0.00    -0.191 A  
HETATM   13  C   UNL     1     -11.294  13.321  68.992  1.00  0.00    -0.334 A  
HETATM   14  C   UNL     1      -8.163  11.321  66.436  1.00  0.00    -0.150 A  
HETATM   15  C   UNL     1      -6.716  12.136  68.654  1.00  0.00    -0.081 A  
HETATM   16  H   UNL     1      -8.910  14.564  66.228  1.00  0.00     0.000 HD 
HETATM   17  C   UNL     1     -11.527  16.081  68.699  1.00  0.00    -0.377 A  
HETATM   18  C   UNL     1      -6.998  10.646  66.780  1.00  0.00    -0.110 A  
HETATM   19  C   UNL     1     -12.030  14.070  69.916  1.00  0.00    -0.399 A  
ENDROOT
BRANCH   1  20
HETATM   20  N   UNL     1     -11.170  10.110  67.663  1.00  0.00    -0.464 NA 
HETATM   21  H   UNL     1     -11.539  10.526  68.519  1.00  0.00     0.000 HD 
BRANCH  20  22
HETATM   22  C   UNL     1     -10.661   8.908  67.609  1.00  0.00    -0.224 C  
HETATM   23  C   UNL     1      -8.871   7.265  66.900  1.00  0.00    -0.138 C  
HETATM   24  C   UNL     1      -8.429   7.192  68.378  1.00  0.00    -0.124 C  
HETATM   25  C   UNL     1      -9.158   8.273  69.163  1.00  0.00    -0.148 C  
HETATM   26  C   UNL     1      -9.813   8.179  66.497  1.00  0.00    -0.309 C  
HETATM   27  C   UNL     1      -8.115   6.168  66.118  1.00  0.00    -0.115 C  
HETATM   28  C   UNL     1     -10.637   8.082  68.853  1.00  0.00    -0.160 C  
HETATM   29  C   UNL     1      -6.922   7.488  68.531  1.00  0.00    -0.079 C  
HETATM   30  C   UNL     1      -7.996   4.725  66.828  1.00  0.00    -0.103 C  
HETATM   31  C   UNL     1      -7.997   4.663  68.411  1.00  0.00    -0.080 C  
HETATM   32  C   UNL     1      -8.410   3.268  69.108  1.00  0.00    -0.085 C  
HETATM   33  C   UNL     1      -7.174   2.320  69.233  1.00  0.00    -0.043 C  
HETATM   34  C   UNL     1      -6.783   2.282  70.727  1.00  0.00    -0.032 C  
HETATM   35  C   UNL     1      -7.458   3.530  71.289  1.00  0.00    -0.043 C  
HETATM   36  C   UNL     1      -8.890   5.802  68.895  1.00  0.00    -0.110 C  
HETATM   37  C   UNL     1      -8.864   3.408  70.632  1.00  0.00    -0.143 C  
HETATM   38  C   UNL     1      -9.127   5.848  70.401  1.00  0.00    -0.157 C  
HETATM   39  C   UNL     1      -9.767   4.593  70.868  1.00  0.00    -0.262 C  
HETATM   40  C   UNL     1      -9.722   2.223  71.154  1.00  0.00    -0.181 C  
BRANCH  35  41
HETATM   41  O   UNL     1      -7.348   3.737  72.705  1.00  0.00    -0.058 OA 
BRANCH  41  42
HETATM   42  C   UNL     1      -6.836   4.982  72.986  1.00  0.00    -0.076 C  
HETATM   43  O   UNL     1      -5.928   5.499  72.341  1.00  0.00    -0.028 OA 
BRANCH  42  44
HETATM   44  C   UNL     1      -7.400   5.741  74.168  1.00  0.00    -0.088 C  
BRANCH  44  45
HETATM   45  C   UNL     1      -8.714   6.505  74.097  1.00  0.00    -0.153 C  
BRANCH  45  46
HETATM   46  C   UNL     1      -8.559   7.935  73.596  1.00  0.00    -0.316 C  
BRANCH  46  47
HETATM   47  C   UNL     1      -9.692   8.403  72.675  1.00  0.00    -0.332 C  
BRANCH  47  48
HETATM   48  C   UNL     1     -11.022   7.689  72.923  1.00  0.00    -0.456 C  
HETATM   49  C   UNL     1     -12.175   8.396  72.222  1.00  0.00    -0.449 C  
ENDBRANCH  47  48
ENDBRANCH  46  47
ENDBRANCH  45  46
ENDBRANCH  44  45
ENDBRANCH  42  44
ENDBRANCH  41  42
ENDBRANCH  35  41
ENDBRANCH  20  22
ENDBRANCH   1  20
TORSDOF 9
ENDMDL
MODEL       18
REMARK 921   NORMALIZED FREE ENERGY PREDICTED BY IDOCK:   -6.12 KCAL/MOL
REMARK 922        TOTAL FREE ENERGY PREDICTED BY IDOCK:  -12.66 KCAL/MOL
REMARK 923 INTER-LIGAND FREE ENERGY PREDICTED BY IDOCK:  -10.67 KCAL/MOL
REMARK 924 INTRA-LIGAND FREE ENERGY PREDICTED BY IDOCK:   -1.99 KCAL/MOL
REMARK 927      BINDING AFFINITY PREDICTED BY RF-SCORE:    0.00 PKD
ROOT
HETATM    1  N   UNL     1     -10.145   5.722  65.834  1.00  0.00    -0.395 N  
HETATM    2  C   UNL     1      -9.915   4.359  65.725  1.00  0.00    -0.239 C  
HETATM    3  C   UNL     1      -9.020   4.878  70.744  1.00  0.00    -0.167 A  
HETATM    4  H   UNL     1     -11.109   6.005  65.664  1.00  0.00     0.000 HD 
HETATM    5  C   UNL     1      -7.127   2.044  65.538  1.00  0.00    -0.052 A  
HETATM    6  O   UNL     1     -10.643   3.751  64.897  1.00  0.00    -0.113 OA 
HETATM    7  C   UNL     1      -5.160   2.991  64.504  1.00  0.00    -0.008 A  
HETATM    8  C   UNL     1      -8.944   3.539  66.619  1.00  0.00    -0.149 C  
HETATM    9  O   UNL     1      -9.572   2.223  66.720  1.00  0.00    -0.379 OA 
HETATM   10  C   UNL     1      -7.587   3.325  65.924  1.00  0.00    -0.080 A  
HETATM   11  C   UNL     1      -7.829   3.843  68.905  1.00  0.00    -0.056 A  
HETATM   12  C   UNL     1      -8.943   4.007  68.069  1.00  0.00    -0.153 A  
HETATM   13  C   UNL     1      -6.767   4.418  65.624  1.00  0.00    -0.052 A  
HETATM   14  C   UNL     1     -10.120   4.539  68.636  1.00  0.00    -0.024 A  
HETATM   15  C   UNL     1      -7.870   4.284  70.233  1.00  0.00    -0.052 A  
HETATM   16  H   UNL     1      -8.978   1.722  67.267  1.00  0.00     0.000 HD 
HETATM   17  C   UNL     1      -5.930   1.883  64.831  1.00  0.00    -0.017 A  
HETATM   18  C   UNL     1     -10.154   5.000  69.947  1.00  0.00    -0.344 A  
HETATM   19  C   UNL     1      -5.572   4.259  64.914  1.00  0.00    -0.014 A  
ENDROOT
BRANCH   1  20
HETATM   20  N   UNL     1      -9.259   6.787  66.143  1.00  0.00    -0.304 NA 
HETATM   21  H   UNL     1      -8.252   6.745  65.986  1.00  0.00     0.000 HD 
BRANCH  20  22
HETATM   22  C   UNL     1      -9.866   7.828  66.649  1.00  0.00    -0.225 C  
HETATM   23  C   UNL     1     -10.393   9.400  68.562  1.00  0.00    -0.236 C  
HETATM   24  C   UNL     1      -9.541  10.470  67.844  1.00  0.00    -0.164 C  
HETATM   25  C   UNL     1      -8.809   9.817  66.681  1.00  0.00    -0.153 C  
HETATM   26  C   UNL     1     -10.431   8.110  68.094  1.00  0.00    -0.225 C  
HETATM   27  C   UNL     1     -11.120  10.078  69.743  1.00  0.00    -0.319 C  
HETATM   28  C   UNL     1      -9.880   9.101  65.868  1.00  0.00    -0.305 C  
HETATM   29  C   UNL     1      -8.451  11.040  68.776  1.00  0.00    -0.144 C  
HETATM   30  C   UNL     1     -11.764  11.529  69.460  1.00  0.00    -0.413 C  
HETATM   31  C   UNL     1     -11.095  12.447  68.355  1.00  0.00    -0.288 C  
HETATM   32  C   UNL     1     -11.996  13.614  67.701  1.00  0.00    -0.386 C  
HETATM   33  C   UNL     1     -11.950  14.909  68.573  1.00  0.00    -0.275 C  
HETATM   34  C   UNL     1     -11.094  15.940  67.806  1.00  0.00    -0.288 C  
HETATM   35  C   UNL     1     -10.315  15.072  66.822  1.00  0.00    -0.270 C  
HETATM   36  C   UNL     1     -10.546  11.512  67.281  1.00  0.00    -0.266 C  
HETATM   37  C   UNL     1     -11.454  14.149  66.299  1.00  0.00    -0.358 C  
HETATM   38  C   UNL     1      -9.961  12.203  66.054  1.00  0.00    -0.257 C  
HETATM   39  C   UNL     1     -10.989  13.041  65.387  1.00  0.00    -0.297 C  
HETATM   40  C   UNL     1     -12.524  14.869  65.433  1.00  0.00     0.093 C  
BRANCH  35  41
HETATM   41  O   UNL     1      -9.469  15.761  65.888  1.00  0.00    -0.331 OA 
BRANCH  41  42
HETATM   42  C   UNL     1      -8.235  16.022  66.436  1.00  0.00    -0.274 C  
HETATM   43  O   UNL     1      -7.552  15.168  66.993  1.00  0.00    -0.199 OA 
BRANCH  42  44
HETATM   44  C   UNL     1      -7.706  17.439  66.374  1.00  0.00    -0.343 C  
BRANCH  44  45
HETATM   45  C   UNL     1      -7.367  18.239  67.623  1.00  0.00    -0.211 C  
BRANCH  45  46
HETATM   46  C   UNL     1      -8.590  18.649  68.433  1.00  0.00    -0.366 C  
BRANCH  46  47
HETATM   47  C   UNL     1      -9.333  19.868  67.873  1.00  0.00    -0.448 C  
BRANCH  47  48
HETATM   48  C   UNL     1     -10.700  19.536  67.274  1.00  0.00    -0.604 C  
HETATM   49  C   UNL     1     -10.653  19.510  65.752  1.00  0.00    -0.522 C  
ENDBRANCH  47  48
ENDBRANCH  46  47
ENDBRANCH  45  46
ENDBRANCH  44  45
ENDBRANCH  42  44
ENDBRANCH  41  42
ENDBRANCH  35  41
ENDBRANCH  20  22
ENDBRANCH   1  20
TORSDOF 9
ENDMDL
MODEL       19
REMARK 921   NORMALIZED FREE ENERGY PREDICTED BY IDOCK:   -6.11 KCAL/MOL
REMARK 922        TOTAL FREE ENERGY PREDICTED BY IDOCK:  -12.64 KCAL/MOL
REMARK 923 INTER-LIGAND FREE ENERGY PREDICTED BY IDOCK:  -10.84 KCAL/MOL
REMARK 924 INTRA-LIGAND FREE ENERGY PREDICTED BY IDOCK:   -1.81 KCAL/MOL
REMARK 927      BINDING AFFINITY PREDICTED BY RF-SCORE:    0.00 PKD
ROOT
HETATM    1  N   UNL     1      -9.671   7.647  67.779  1.00  0.00    -0.144 N  
HETATM    2  C   UNL     1     -10.141   6.463  67.233  1.00  0.00    -0.163 C  
HETATM    3  C   UNL     1      -6.161   4.566  69.845  1.00  0.00    -0.018 A  
HETATM    4  H   UNL     1     -10.299   8.084  68.453  1.00  0.00     0.000 HD 
HETATM    5  C   UNL     1      -9.360   4.180  64.522  1.00  0.00    -0.162 A  
HETATM    6  O   UNL     1     -11.392   6.378  67.117  1.00  0.00    -0.308 OA 
HETATM    7  C   UNL     1      -8.336   5.262  62.622  1.00  0.00    -0.114 A  
HETATM    8  C   UNL     1      -9.267   5.225  66.890  1.00  0.00    -0.121 C  
HETATM    9  O   UNL     1     -10.150   4.084  67.125  1.00  0.00    -0.228 OA 
HETATM   10  C   UNL     1      -8.900   5.194  65.395  1.00  0.00    -0.153 A  
HETATM   11  C   UNL     1      -6.961   4.341  67.569  1.00  0.00    -0.063 A  
HETATM   12  C   UNL     1      -8.158   4.988  67.907  1.00  0.00    -0.098 A  
HETATM   13  C   UNL     1      -8.106   6.205  64.842  1.00  0.00    -0.132 A  
HETATM   14  C   UNL     1      -8.358   5.337  69.259  1.00  0.00    -0.091 A  
HETATM   15  C   UNL     1      -5.967   4.140  68.534  1.00  0.00    -0.027 A  
HETATM   16  H   UNL     1      -9.616   3.327  66.915  1.00  0.00     0.000 HD 
HETATM   17  C   UNL     1      -9.085   4.220  63.151  1.00  0.00    -0.130 A  
HETATM   18  C   UNL     1      -7.363   5.160  70.214  1.00  0.00    -0.062 A  
HETATM   19  C   UNL     1      -7.834   6.248  63.470  1.00  0.00    -0.113 A  
ENDROOT
BRANCH   1  20
HETATM   20  N   UNL     1      -8.460   8.353  67.554  1.00  0.00    -0.128 NA 
HETATM   21  H   UNL     1      -7.538   7.970  67.766  1.00  0.00     0.000 HD 
BRANCH  20  22
HETATM   22  C   UNL     1      -8.646   9.543  67.048  1.00  0.00    -0.128 C  
HETATM   23  C   UNL     1      -9.966  11.209  65.672  1.00  0.00    -0.297 C  
HETATM   24  C   UNL     1     -10.361  11.903  66.994  1.00  0.00    -0.239 C  
HETATM   25  C   UNL     1      -9.925  11.028  68.160  1.00  0.00    -0.190 C  
HETATM   26  C   UNL     1      -9.290  10.013  65.688  1.00  0.00    -0.257 C  
HETATM   27  C   UNL     1     -10.424  12.106  64.502  1.00  0.00    -0.339 C  
HETATM   28  C   UNL     1      -8.449  10.735  67.926  1.00  0.00    -0.122 C  
HETATM   29  C   UNL     1     -11.893  12.054  67.115  1.00  0.00    -0.251 C  
HETATM   30  C   UNL     1     -10.165  13.690  64.660  1.00  0.00    -0.338 C  
HETATM   31  C   UNL     1     -10.135  14.305  66.120  1.00  0.00    -0.325 C  
HETATM   32  C   UNL     1      -9.375  15.713  66.326  1.00  0.00    -0.358 C  
HETATM   33  C   UNL     1     -10.328  16.912  66.015  1.00  0.00    -0.335 C  
HETATM   34  C   UNL     1     -10.683  17.569  67.367  1.00  0.00    -0.250 C  
HETATM   35  C   UNL     1     -10.343  16.476  68.377  1.00  0.00    -0.294 C  
HETATM   36  C   UNL     1      -9.557  13.232  67.037  1.00  0.00    -0.243 C  
HETATM   37  C   UNL     1      -8.959  16.015  67.836  1.00  0.00    -0.186 C  
HETATM   38  C   UNL     1      -9.327  13.665  68.481  1.00  0.00    -0.128 C  
HETATM   39  C   UNL     1      -8.384  14.810  68.539  1.00  0.00    -0.160 C  
HETATM   40  C   UNL     1      -7.823  17.064  67.988  1.00  0.00    -0.182 C  
BRANCH  35  41
HETATM   41  O   UNL     1     -10.491  16.816  69.764  1.00  0.00    -0.250 OA 
BRANCH  41  42
HETATM   42  C   UNL     1     -11.521  16.112  70.341  1.00  0.00    -0.328 C  
HETATM   43  O   UNL     1     -12.287  15.395  69.703  1.00  0.00    -0.304 OA 
BRANCH  42  44
HETATM   44  C   UNL     1     -11.741  16.250  71.832  1.00  0.00    -0.518 C  
BRANCH  44  45
HETATM   45  C   UNL     1     -13.005  15.757  72.521  1.00  0.00    -0.556 C  
BRANCH  45  46
HETATM   46  C   UNL     1     -12.897  14.328  73.038  1.00  0.00    -0.461 C  
BRANCH  46  47
HETATM   47  C   UNL     1     -13.753  13.317  72.266  1.00  0.00    -0.686 C  
BRANCH  47  48
HETATM   48  C   UNL     1     -12.958  12.465  71.276  1.00  0.00    -0.297 C  
HETATM   49  C   UNL     1     -13.016  10.986  71.638  1.00  0.00    -0.561 C  
ENDBRANCH  47  48
ENDBRANCH  46  47
ENDBRANCH  45  46
ENDBRANCH  44  45
ENDBRANCH  42  44
ENDBRANCH  41  42
ENDBRANCH  35  41
ENDBRANCH  20  22
ENDBRANCH   1  20
TORSDOF 9
ENDMDL
MODEL       20
REMARK 921   NORMALIZED FREE ENERGY PREDICTED BY IDOCK:   -6.04 KCAL/MOL
REMARK 922        TOTAL FREE ENERGY PREDICTED BY IDOCK:  -12.54 KCAL/MOL
REMARK 923 INTER-LIGAND FREE ENERGY PREDICTED BY IDOCK:   -9.80 KCAL/MOL
REMARK 924 INTRA-LIGAND FREE ENERGY PREDICTED BY IDOCK:   -2.73 KCAL/MOL
REMARK 927      BINDING AFFINITY PREDICTED BY RF-SCORE:    0.00 PKD
ROOT
HETATM    1  N   UNL     1     -11.389  11.395  67.876  1.00  0.00    -0.287 N  
HETATM    2  C   UNL     1     -11.263  12.536  68.653  1.00  0.00    -0.278 C  
HETATM    3  C   UNL     1     -12.286  14.789  64.166  1.00  0.00    -0.259 A  
HETATM    4  H   UNL     1     -12.187  10.806  68.111  1.00  0.00     0.000 HD 
HETATM    5  C   UNL     1      -8.840  15.150  69.335  1.00  0.00    -0.172 A  
HETATM    6  O   UNL     1     -11.678  12.433  69.838  1.00  0.00    -0.309 OA 
HETATM    7  C   UNL     1      -6.550  14.421  69.101  1.00  0.00    -0.112 A  
HETATM    8  C   UNL     1     -10.783  13.922  68.141  1.00  0.00    -0.250 C  
HETATM    9  O   UNL     1     -11.522  14.884  68.957  1.00  0.00    -0.270 OA 
HETATM   10  C   UNL     1      -9.291  14.146  68.445  1.00  0.00    -0.208 A  
HETATM   11  C   UNL     1     -10.591  15.092  65.871  1.00  0.00    -0.347 A  
HETATM   12  C   UNL     1     -11.286  14.237  66.738  1.00  0.00    -0.337 A  
HETATM   13  C   UNL     1      -8.319  13.327  67.858  1.00  0.00    -0.163 A  
HETATM   14  C   UNL     1     -12.535  13.739  66.311  1.00  0.00    -0.441 A  
HETATM   15  C   UNL     1     -11.089  15.359  64.590  1.00  0.00    -0.361 A  
HETATM   16  H   UNL     1     -11.229  15.731  68.644  1.00  0.00     0.000 HD 
HETATM   17  C   UNL     1      -7.486  15.279  69.661  1.00  0.00    -0.181 A  
HETATM   18  C   UNL     1     -13.019  13.983  65.031  1.00  0.00    -0.172 A  
HETATM   19  C   UNL     1      -6.965  13.453  68.187  1.00  0.00    -0.116 A  
ENDROOT
BRANCH   1  20
HETATM   20  N   UNL     1     -10.590  10.913  66.806  1.00  0.00    -0.255 NA 
HETATM   21  H   UNL     1     -10.626  11.294  65.860  1.00  0.00     0.000 HD 
BRANCH  20  22
HETATM   22  C   UNL     1      -9.804   9.930  67.156  1.00  0.00    -0.186 C  
HETATM   23  C   UNL     1      -7.788   9.000  68.373  1.00  0.00    -0.103 C  
HETATM   24  C   UNL     1      -8.764   8.340  69.371  1.00  0.00    -0.142 C  
HETATM   25  C   UNL     1     -10.168   8.866  69.109  1.00  0.00    -0.214 C  
HETATM   26  C   UNL     1      -8.250   9.874  67.420  1.00  0.00    -0.118 C  
HETATM   27  C   UNL     1      -6.370   8.461  68.660  1.00  0.00    -0.053 C  
HETATM   28  C   UNL     1     -10.419   8.651  67.622  1.00  0.00    -0.311 C  
HETATM   29  C   UNL     1      -8.424   8.720  70.828  1.00  0.00    -0.202 C  
HETATM   30  C   UNL     1      -6.241   6.880  68.948  1.00  0.00    -0.027 C  
HETATM   31  C   UNL     1      -7.481   6.128  69.587  1.00  0.00    -0.081 C  
HETATM   32  C   UNL     1      -7.574   4.530  69.390  1.00  0.00    -0.055 C  
HETATM   33  C   UNL     1      -6.758   3.784  70.494  1.00  0.00    -0.033 C  
HETATM   34  C   UNL     1      -7.781   3.141  71.455  1.00  0.00    -0.055 C  
HETATM   35  C   UNL     1      -9.061   3.921  71.164  1.00  0.00    -0.120 C  
HETATM   36  C   UNL     1      -8.734   6.819  69.057  1.00  0.00    -0.130 C  
HETATM   37  C   UNL     1      -9.036   3.929  69.608  1.00  0.00    -0.167 C  
HETATM   38  C   UNL     1     -10.054   6.169  69.458  1.00  0.00    -0.232 C  
HETATM   39  C   UNL     1     -10.116   4.768  68.971  1.00  0.00    -0.171 C  
HETATM   40  C   UNL     1      -9.259   2.540  68.950  1.00  0.00    -0.219 C  
BRANCH  35  41
HETATM   41  O   UNL     1     -10.244   3.496  71.857  1.00  0.00    -0.141 OA 
BRANCH  41  42
HETATM   42  C   UNL     1     -10.409   4.193  73.030  1.00  0.00    -0.171 C  
HETATM   43  O   UNL     1     -10.924   3.709  74.034  1.00  0.00    -0.208 OA 
BRANCH  42  44
HETATM   44  C   UNL     1      -9.960   5.637  73.079  1.00  0.00    -0.191 C  
BRANCH  44  45
HETATM   45  C   UNL     1     -10.905   6.796  72.798  1.00  0.00    -0.294 C  
BRANCH  45  46
HETATM   46  C   UNL     1     -12.198   6.373  72.112  1.00  0.00    -0.278 C  
BRANCH  46  47
HETATM   47  C   UNL     1     -12.982   7.533  71.486  1.00  0.00    -0.400 C  
BRANCH  47  48
HETATM   48  C   UNL     1     -13.051   8.779  72.370  1.00  0.00    -0.444 C  
HETATM   49  C   UNL     1     -12.885  10.054  71.553  1.00  0.00    -0.537 C  
ENDBRANCH  47  48
ENDBRANCH  46  47
ENDBRANCH  45  46
ENDBRANCH  44  45
ENDBRANCH  42  44
ENDBRANCH  41  42
ENDBRANCH  35  41
ENDBRANCH  20  22
ENDBRANCH   1  20
TORSDOF 9
ENDMDL
MODEL       21
REMARK 921   NORMALIZED FREE ENERGY PREDICTED BY IDOCK:   -6.02 KCAL/MOL
REMARK 922        TOTAL FREE ENERGY PREDICTED BY IDOCK:  -12.49 KCAL/MOL
REMARK 923 INTER-LIGAND FREE ENERGY PREDICTED BY IDOCK:   -9.85 KCAL/MOL
REMARK 924 INTRA-LIGAND FREE ENERGY PREDICTED BY IDOCK:   -2.65 KCAL/MOL
REMARK 927      BINDING AFFINITY PREDICTED BY RF-SCORE:    0.00 PKD
ROOT
HETATM    1  N   UNL     1      -7.074   6.283  68.972  1.00  0.00    -0.079 N  
HETATM    2  C   UNL     1      -7.188   5.048  69.591  1.00  0.00    -0.056 C  
HETATM    3  C   UNL     1     -11.946   6.755  70.430  1.00  0.00    -0.343 A  
HETATM    4  H   UNL     1      -6.938   6.242  67.962  1.00  0.00     0.000 HD 
HETATM    5  C   UNL     1      -7.180   3.632  72.932  1.00  0.00    -0.054 A  
HETATM    6  O   UNL     1      -6.542   4.110  69.052  1.00  0.00    -0.039 OA 
HETATM    7  C   UNL     1      -5.837   4.883  74.501  1.00  0.00    -0.035 A  
HETATM    8  C   UNL     1      -8.129   4.726  70.784  1.00  0.00    -0.085 C  
HETATM    9  O   UNL     1      -8.511   3.331  70.577  1.00  0.00    -0.058 OA 
HETATM   10  C   UNL     1      -7.372   4.778  72.124  1.00  0.00    -0.081 A  
HETATM   11  C   UNL     1     -10.225   5.768  71.823  1.00  0.00    -0.245 A  
HETATM   12  C   UNL     1      -9.468   5.445  70.687  1.00  0.00    -0.215 A  
HETATM   13  C   UNL     1      -6.818   5.981  72.577  1.00  0.00    -0.074 A  
HETATM   14  C   UNL     1     -10.029   5.718  69.422  1.00  0.00    -0.244 A  
HETATM   15  C   UNL     1     -11.454   6.426  71.690  1.00  0.00    -0.354 A  
HETATM   16  H   UNL     1      -9.086   3.134  71.307  1.00  0.00     0.000 HD 
HETATM   17  C   UNL     1      -6.416   3.686  74.103  1.00  0.00    -0.037 A  
HETATM   18  C   UNL     1     -11.237   6.393  69.290  1.00  0.00    -0.440 A  
HETATM   19  C   UNL     1      -6.050   6.035  73.745  1.00  0.00    -0.063 A  
ENDROOT
BRANCH   1  20
HETATM   20  N   UNL     1      -7.117   7.595  69.511  1.00  0.00    -0.063 NA 
HETATM   21  H   UNL     1      -6.790   7.829  70.449  1.00  0.00     0.000 HD 
BRANCH  20  22
HETATM   22  C   UNL     1      -7.619   8.473  68.684  1.00  0.00    -0.098 C  
HETATM   23  C   UNL     1      -9.485   9.360  67.222  1.00  0.00    -0.169 C  
HETATM   24  C   UNL     1      -9.689  10.486  68.260  1.00  0.00    -0.163 C  
HETATM   25  C   UNL     1      -8.855  10.174  69.494  1.00  0.00    -0.198 C  
HETATM   26  C   UNL     1      -8.625   8.322  67.479  1.00  0.00    -0.129 C  
HETATM   27  C   UNL     1     -10.345   9.688  65.982  1.00  0.00    -0.160 C  
HETATM   28  C   UNL     1      -7.441   9.925  68.984  1.00  0.00    -0.083 C  
HETATM   29  C   UNL     1     -11.156  10.555  68.735  1.00  0.00    -0.315 C  
HETATM   30  C   UNL     1     -10.340  11.221  65.483  1.00  0.00    -0.321 C  
HETATM   31  C   UNL     1     -10.090  12.361  66.555  1.00  0.00    -0.246 C  
HETATM   32  C   UNL     1      -9.563  13.790  66.024  1.00  0.00    -0.197 C  
HETATM   33  C   UNL     1     -10.757  14.695  65.578  1.00  0.00    -0.360 C  
HETATM   34  C   UNL     1     -10.909  15.800  66.646  1.00  0.00    -0.241 C  
HETATM   35  C   UNL     1     -10.163  15.221  67.846  1.00  0.00    -0.235 C  
HETATM   36  C   UNL     1      -9.142  11.781  67.600  1.00  0.00    -0.177 C  
HETATM   37  C   UNL     1      -8.877  14.691  67.148  1.00  0.00    -0.238 C  
HETATM   38  C   UNL     1      -8.673  12.762  68.668  1.00  0.00     0.057 C  
HETATM   39  C   UNL     1      -7.957  13.907  68.049  1.00  0.00    -0.154 C  
HETATM   40  C   UNL     1      -7.939  15.798  66.594  1.00  0.00    -0.233 C  
BRANCH  35  41
HETATM   41  O   UNL     1     -10.052  16.067  69.001  1.00  0.00    -0.214 OA 
BRANCH  41  42
HETATM   42  C   UNL     1     -10.978  15.723  69.958  1.00  0.00    -0.338 C  
HETATM   43  O   UNL     1     -11.535  16.544  70.681  1.00  0.00    -0.280 OA 
BRANCH  42  44
HETATM   44  C   UNL     1     -11.304  14.258  70.149  1.00  0.00    -0.187 C  
BRANCH  44  45
HETATM   45  C   UNL     1     -12.732  13.750  70.285  1.00  0.00    -0.208 C  
BRANCH  45  46
HETATM   46  C   UNL     1     -13.224  13.699  71.727  1.00  0.00    -0.477 C  
BRANCH  46  47
HETATM   47  C   UNL     1     -14.207  14.817  72.093  1.00  0.00    -0.608 C  
BRANCH  47  48
HETATM   48  C   UNL     1     -13.631  15.850  73.063  1.00  0.00    -0.616 C  
HETATM   49  C   UNL     1     -12.618  15.223  74.012  1.00  0.00    -0.695 C  
ENDBRANCH  47  48
ENDBRANCH  46  47
ENDBRANCH  45  46
ENDBRANCH  44  45
ENDBRANCH  42  44
ENDBRANCH  41  42
ENDBRANCH  35  41
ENDBRANCH  20  22
ENDBRANCH   1  20
TORSDOF 9
ENDMDL
MODEL       22
REMARK 921   NORMALIZED FREE ENERGY PREDICTED BY IDOCK:   -5.97 KCAL/MOL
REMARK 922        TOTAL FREE ENERGY PREDICTED BY IDOCK:  -12.43 KCAL/MOL
REMARK 923 INTER-LIGAND FREE ENERGY PREDICTED BY IDOCK:   -9.50 KCAL/MOL
REMARK 924 INTRA-LIGAND FREE ENERGY PREDICTED BY IDOCK:   -2.93 KCAL/MOL
REMARK 927      BINDING AFFINITY PREDICTED BY RF-SCORE:    0.00 PKD
ROOT
HETATM    1  N   UNL     1      -8.762  13.257  68.708  1.00  0.00    -0.374 N  
HETATM    2  C   UNL     1      -9.041  14.304  67.843  1.00  0.00    -0.190 C  
HETATM    3  C   UNL     1     -12.560  15.324  71.426  1.00  0.00    -0.444 A  
HETATM    4  H   UNL     1      -7.847  13.306  69.155  1.00  0.00     0.000 HD 
HETATM    5  C   UNL     1     -11.469  15.204  65.301  1.00  0.00    -0.266 A  
HETATM    6  O   UNL     1      -8.045  14.797  67.251  1.00  0.00    -0.185 OA 
HETATM    7  C   UNL     1     -12.380  13.300  64.128  1.00  0.00    -0.408 A  
HETATM    8  C   UNL     1     -10.432  14.972  67.663  1.00  0.00    -0.247 C  
HETATM    9  O   UNL     1     -10.125  16.369  67.361  1.00  0.00    -0.251 OA 
HETATM   10  C   UNL     1     -11.169  14.410  66.433  1.00  0.00    -0.345 A  
HETATM   11  C   UNL     1     -12.604  15.119  69.012  1.00  0.00     0.229 A  
HETATM   12  C   UNL     1     -11.203  15.088  68.972  1.00  0.00    -0.279 A  
HETATM   13  C   UNL     1     -11.545  13.063  66.390  1.00  0.00    -0.413 A  
HETATM   14  C   UNL     1     -10.506  15.265  70.185  1.00  0.00    -0.252 A  
HETATM   15  C   UNL     1     -13.276  15.230  70.236  1.00  0.00    -0.054 A  
HETATM   16  H   UNL     1     -10.975  16.777  67.251  1.00  0.00     0.000 HD 
HETATM   17  C   UNL     1     -12.062  14.650  64.161  1.00  0.00    -0.346 A  
HETATM   18  C   UNL     1     -11.170  15.351  71.403  1.00  0.00    -0.402 A  
HETATM   19  C   UNL     1     -12.135  12.508  65.249  1.00  0.00    -0.500 A  
ENDROOT
BRANCH   1  20
HETATM   20  N   UNL     1      -9.541  12.127  69.073  1.00  0.00    -0.392 NA 
HETATM   21  H   UNL     1     -10.492  12.193  69.436  1.00  0.00     0.000 HD 
BRANCH  20  22
HETATM   22  C   UNL     1      -8.914  10.994  68.897  1.00  0.00    -0.115 C  
HETATM   23  C   UNL     1      -6.968   9.427  69.301  1.00  0.00    -0.053 C  
HETATM   24  C   UNL     1      -7.913   8.565  70.166  1.00  0.00    -0.105 C  
HETATM   25  C   UNL     1      -9.215   9.323  70.378  1.00  0.00    -0.291 C  
HETATM   26  C   UNL     1      -7.377  10.648  68.825  1.00  0.00    -0.100 C  
HETATM   27  C   UNL     1      -5.650   8.646  69.104  1.00  0.00    -0.036 C  
HETATM   28  C   UNL     1      -9.692   9.723  68.987  1.00  0.00    -0.177 C  
HETATM   29  C   UNL     1      -7.323   8.317  71.570  1.00  0.00    -0.092 C  
HETATM   30  C   UNL     1      -5.783   7.071  68.784  1.00  0.00    -0.018 C  
HETATM   31  C   UNL     1      -7.049   6.295  69.338  1.00  0.00    -0.073 C  
HETATM   32  C   UNL     1      -7.463   4.917  68.609  1.00  0.00    -0.069 C  
HETATM   33  C   UNL     1      -6.666   3.711  69.202  1.00  0.00    -0.044 C  
HETATM   34  C   UNL     1      -7.659   2.885  70.048  1.00  0.00    -0.043 C  
HETATM   35  C   UNL     1      -8.797   3.872  70.299  1.00  0.00    -0.084 C  
HETATM   36  C   UNL     1      -8.209   7.287  69.334  1.00  0.00    -0.131 C  
HETATM   37  C   UNL     1      -8.972   4.467  68.872  1.00  0.00    -0.151 C  
HETATM   38  C   UNL     1      -9.563   6.704  69.721  1.00  0.00    -0.155 C  
HETATM   39  C   UNL     1      -9.949   5.613  68.790  1.00  0.00    -0.221 C  
HETATM   40  C   UNL     1      -9.534   3.472  67.820  1.00  0.00    -0.230 C  
BRANCH  35  41
HETATM   41  O   UNL     1      -9.939   3.367  71.007  1.00  0.00    -0.128 OA 
BRANCH  41  42
HETATM   42  C   UNL     1      -9.791   3.526  72.365  1.00  0.00    -0.161 C  
HETATM   43  O   UNL     1     -10.320   2.787  73.191  1.00  0.00    -0.130 OA 
BRANCH  42  44
HETATM   44  C   UNL     1      -8.959   4.686  72.867  1.00  0.00    -0.125 C  
BRANCH  44  45
HETATM   45  C   UNL     1      -9.572   5.883  73.579  1.00  0.00    -0.141 C  
BRANCH  45  46
HETATM   46  C   UNL     1     -10.916   6.309  73.003  1.00  0.00    -0.271 C  
BRANCH  46  47
HETATM   47  C   UNL     1     -11.148   7.825  73.010  1.00  0.00    -0.419 C  
BRANCH  47  48
HETATM   48  C   UNL     1     -12.325   8.273  72.142  1.00  0.00    -0.410 C  
HETATM   49  C   UNL     1     -13.010   7.087  71.474  1.00  0.00    -0.411 C  
ENDBRANCH  47  48
ENDBRANCH  46  47
ENDBRANCH  45  46
ENDBRANCH  44  45
ENDBRANCH  42  44
ENDBRANCH  41  42
ENDBRANCH  35  41
ENDBRANCH  20  22
ENDBRANCH   1  20
TORSDOF 9
ENDMDL
MODEL       23
REMARK 921   NORMALIZED FREE ENERGY PREDICTED BY IDOCK:   -5.95 KCAL/MOL
REMARK 922        TOTAL FREE ENERGY PREDICTED BY IDOCK:  -12.39 KCAL/MOL
REMARK 923 INTER-LIGAND FREE ENERGY PREDICTED BY IDOCK:  -10.20 KCAL/MOL
REMARK 924 INTRA-LIGAND FREE ENERGY PREDICTED BY IDOCK:   -2.20 KCAL/MOL
REMARK 927      BINDING AFFINITY PREDICTED BY RF-SCORE:    0.00 PKD
ROOT
HETATM    1  N   UNL     1     -10.892   7.225  70.482  1.00  0.00    -0.237 N  
HETATM    2  C   UNL     1     -10.501   6.114  69.750  1.00  0.00    -0.239 C  
HETATM    3  C   UNL     1     -10.181   4.077  74.441  1.00  0.00    -0.248 A  
HETATM    4  H   UNL     1     -11.860   7.510  70.339  1.00  0.00     0.000 HD 
HETATM    5  C   UNL     1      -7.468   4.340  68.847  1.00  0.00    -0.055 A  
HETATM    6  O   UNL     1     -11.070   5.974  68.635  1.00  0.00    -0.315 OA 
HETATM    7  C   UNL     1      -5.525   5.767  68.709  1.00  0.00    -0.011 A  
HETATM    8  C   UNL     1      -9.541   5.001  70.252  1.00  0.00    -0.187 C  
HETATM    9  O   UNL     1     -10.024   3.786  69.600  1.00  0.00    -0.086 OA 
HETATM   10  C   UNL     1      -8.105   5.230  69.744  1.00  0.00    -0.087 A  
HETATM   11  C   UNL     1      -8.703   4.164  72.523  1.00  0.00    -0.112 A  
HETATM   12  C   UNL     1      -9.738   4.676  71.727  1.00  0.00    -0.230 A  
HETATM   13  C   UNL     1      -7.386   6.361  70.143  1.00  0.00    -0.086 A  
HETATM   14  C   UNL     1     -11.018   4.795  72.308  1.00  0.00    -0.067 A  
HETATM   15  C   UNL     1      -8.926   3.874  73.874  1.00  0.00    -0.091 A  
HETATM   16  H   UNL     1      -9.437   3.106  69.907  1.00  0.00     0.000 HD 
HETATM   17  C   UNL     1      -6.195   4.612  68.332  1.00  0.00    -0.032 A  
HETATM   18  C   UNL     1     -11.236   4.530  73.655  1.00  0.00    -0.346 A  
HETATM   19  C   UNL     1      -6.115   6.636  69.627  1.00  0.00    -0.026 A  
ENDROOT
BRANCH   1  20
HETATM   20  N   UNL     1     -10.166   8.029  71.400  1.00  0.00    -0.192 NA 
HETATM   21  H   UNL     1     -10.013   7.772  72.375  1.00  0.00     0.000 HD 
BRANCH  20  22
HETATM   22  C   UNL     1      -9.715   9.134  70.867  1.00  0.00    -0.284 C  
HETATM   23  C   UNL     1      -8.067  10.420  69.439  1.00  0.00    -0.161 C  
HETATM   24  C   UNL     1      -9.187  10.581  68.389  1.00  0.00    -0.154 C  
HETATM   25  C   UNL     1     -10.365   9.703  68.786  1.00  0.00    -0.233 C  
HETATM   26  C   UNL     1      -8.250   9.614  70.536  1.00  0.00    -0.139 C  
HETATM   27  C   UNL     1      -6.879  11.309  69.015  1.00  0.00    -0.099 C  
HETATM   28  C   UNL     1     -10.686  10.072  70.229  1.00  0.00    -0.367 C  
HETATM   29  C   UNL     1      -8.731  10.089  66.998  1.00  0.00    -0.137 C  
HETATM   30  C   UNL     1      -7.236  12.786  68.475  1.00  0.00    -0.114 C  
HETATM   31  C   UNL     1      -8.640  13.011  67.774  1.00  0.00    -0.189 C  
HETATM   32  C   UNL     1      -9.219  14.516  67.719  1.00  0.00    -0.194 C  
HETATM   33  C   UNL     1      -8.659  15.284  66.479  1.00  0.00    -0.264 C  
HETATM   34  C   UNL     1      -9.820  15.420  65.469  1.00  0.00    -0.359 C  
HETATM   35  C   UNL     1     -10.802  14.347  65.932  1.00  0.00    -0.304 C  
HETATM   36  C   UNL     1      -9.627  12.069  68.456  1.00  0.00    -0.146 C  
HETATM   37  C   UNL     1     -10.792  14.601  67.467  1.00  0.00    -0.286 C  
HETATM   38  C   UNL     1     -11.078  12.213  68.010  1.00  0.00    -0.292 C  
HETATM   39  C   UNL     1     -11.571  13.589  68.271  1.00  0.00    -0.381 C  
HETATM   40  C   UNL     1     -11.438  15.944  67.905  1.00  0.00    -0.187 C  
BRANCH  35  41
HETATM   41  O   UNL     1     -12.051  14.274  65.228  1.00  0.00    -0.374 OA 
BRANCH  41  42
HETATM   42  C   UNL     1     -12.181  13.073  64.571  1.00  0.00    -0.416 C  
HETATM   43  O   UNL     1     -13.173  12.356  64.667  1.00  0.00    -0.822 OA 
BRANCH  42  44
HETATM   44  C   UNL     1     -11.031  12.597  63.709  1.00  0.00    -0.481 C  
BRANCH  44  45
HETATM   45  C   UNL     1     -10.195  11.376  64.064  1.00  0.00    -0.398 C  
BRANCH  45  46
HETATM   46  C   UNL     1      -9.415  10.810  62.884  1.00  0.00    -0.373 C  
BRANCH  46  47
HETATM   47  C   UNL     1      -7.999  10.337  63.239  1.00  0.00    -0.148 C  
BRANCH  47  48
HETATM   48  C   UNL     1      -7.759   8.852  62.965  1.00  0.00    -0.114 C  
HETATM   49  C   UNL     1      -7.804   8.033  64.248  1.00  0.00    -0.137 C  
ENDBRANCH  47  48
ENDBRANCH  46  47
ENDBRANCH  45  46
ENDBRANCH  44  45
ENDBRANCH  42  44
ENDBRANCH  41  42
ENDBRANCH  35  41
ENDBRANCH  20  22
ENDBRANCH   1  20
TORSDOF 9
ENDMDL
MODEL       24
REMARK 921   NORMALIZED FREE ENERGY PREDICTED BY IDOCK:   -5.95 KCAL/MOL
REMARK 922        TOTAL FREE ENERGY PREDICTED BY IDOCK:  -12.39 KCAL/MOL
REMARK 923 INTER-LIGAND FREE ENERGY PREDICTED BY IDOCK:   -8.83 KCAL/MOL
REMARK 924 INTRA-LIGAND FREE ENERGY PREDICTED BY IDOCK:   -3.56 KCAL/MOL
REMARK 927      BINDING AFFINITY PREDICTED BY RF-SCORE:    0.00 PKD
ROOT
HETATM    1  N   UNL     1      -6.825   6.206  66.293  1.00  0.00    -0.060 N  
HETATM    2  C   UNL     1      -6.968   4.878  66.663  1.00  0.00    -0.067 C  
HETATM    3  C   UNL     1     -11.470   6.628  68.374  1.00  0.00     0.059 A  
HETATM    4  H   UNL     1      -6.798   6.367  65.286  1.00  0.00     0.000 HD 
HETATM    5  C   UNL     1      -6.724   2.806  69.632  1.00  0.00    -0.033 A  
HETATM    6  O   UNL     1      -6.455   4.038  65.877  1.00  0.00    -0.032 OA 
HETATM    7  C   UNL     1      -5.135   3.632  71.251  1.00  0.00     0.000 A  
HETATM    8  C   UNL     1      -7.803   4.368  67.870  1.00  0.00    -0.080 C  
HETATM    9  O   UNL     1      -8.310   3.068  67.435  1.00  0.00    -0.081 OA 
HETATM   10  C   UNL     1      -6.910   4.102  69.096  1.00  0.00    -0.046 A  
HETATM   11  C   UNL     1      -9.695   5.285  69.332  1.00  0.00    -0.241 A  
HETATM   12  C   UNL     1      -9.087   5.162  68.075  1.00  0.00    -0.123 A  
HETATM   13  C   UNL     1      -6.222   5.154  69.711  1.00  0.00    -0.026 A  
HETATM   14  C   UNL     1      -9.752   5.720  66.964  1.00  0.00    -0.155 A  
HETATM   15  C   UNL     1     -10.878   6.021  69.478  1.00  0.00    -0.439 A  
HETATM   16  H   UNL     1      -8.820   2.756  68.174  1.00  0.00     0.000 HD 
HETATM   17  C   UNL     1      -5.841   2.576  70.693  1.00  0.00    -0.018 A  
HETATM   18  C   UNL     1     -10.913   6.472  67.110  1.00  0.00    -0.480 A  
HETATM   19  C   UNL     1      -5.336   4.925  70.770  1.00  0.00    -0.004 A  
ENDROOT
BRANCH   1  20
HETATM   20  N   UNL     1      -6.712   7.379  67.084  1.00  0.00    -0.067 NA 
HETATM   21  H   UNL     1      -6.247   7.403  67.992  1.00  0.00     0.000 HD 
BRANCH  20  22
HETATM   22  C   UNL     1      -7.264   8.426  66.530  1.00  0.00    -0.076 C  
HETATM   23  C   UNL     1      -9.159   9.570  65.303  1.00  0.00    -0.276 C  
HETATM   24  C   UNL     1      -9.488  10.314  66.617  1.00  0.00    -0.203 C  
HETATM   25  C   UNL     1      -8.664   9.708  67.744  1.00  0.00    -0.122 C  
HETATM   26  C   UNL     1      -8.220   8.570  65.284  1.00  0.00    -0.149 C  
HETATM   27  C   UNL     1     -10.010  10.192  64.174  1.00  0.00    -0.113 C  
HETATM   28  C   UNL     1      -7.221   9.730  67.258  1.00  0.00    -0.086 C  
HETATM   29  C   UNL     1     -10.968  10.128  67.014  1.00  0.00    -0.162 C  
HETATM   30  C   UNL     1     -10.124  11.800  64.154  1.00  0.00    -0.344 C  
HETATM   31  C   UNL     1     -10.003  12.580  65.529  1.00  0.00    -0.248 C  
HETATM   32  C   UNL     1      -9.586  14.137  65.475  1.00  0.00    -0.053 C  
HETATM   33  C   UNL     1     -10.841  15.043  65.257  1.00  0.00    -0.399 C  
HETATM   34  C   UNL     1     -11.117  15.762  66.595  1.00  0.00    -0.099 C  
HETATM   35  C   UNL     1     -10.358  14.906  67.606  1.00  0.00    -0.242 C  
HETATM   36  C   UNL     1      -9.037  11.784  66.402  1.00  0.00    -0.215 C  
HETATM   37  C   UNL     1      -9.012  14.707  66.850  1.00  0.00    -0.275 C  
HETATM   38  C   UNL     1      -8.684  12.431  67.736  1.00  0.00    -0.176 C  
HETATM   39  C   UNL     1      -8.052  13.758  67.524  1.00  0.00    -0.192 C  
HETATM   40  C   UNL     1      -8.157  15.996  66.700  1.00  0.00    -0.311 C  
BRANCH  35  41
HETATM   41  O   UNL     1     -10.352  15.370  68.964  1.00  0.00    -0.222 OA 
BRANCH  41  42
HETATM   42  C   UNL     1     -11.364  14.790  69.692  1.00  0.00    -0.283 C  
HETATM   43  O   UNL     1     -11.926  15.349  70.629  1.00  0.00    -0.297 OA 
BRANCH  42  44
HETATM   44  C   UNL     1     -11.786  13.380  69.338  1.00  0.00    -0.390 C  
BRANCH  44  45
HETATM   45  C   UNL     1     -12.292  12.393  70.380  1.00  0.00    -0.307 C  
BRANCH  45  46
HETATM   46  C   UNL     1     -12.278  10.946  69.903  1.00  0.00    -0.408 C  
BRANCH  46  47
HETATM   47  C   UNL     1     -11.258  10.058  70.627  1.00  0.00    -0.425 C  
BRANCH  47  48
HETATM   48  C   UNL     1     -11.875   9.161  71.700  1.00  0.00    -0.443 C  
HETATM   49  C   UNL     1     -10.812   8.344  72.424  1.00  0.00    -0.416 C  
ENDBRANCH  47  48
ENDBRANCH  46  47
ENDBRANCH  45  46
ENDBRANCH  44  45
ENDBRANCH  42  44
ENDBRANCH  41  42
ENDBRANCH  35  41
ENDBRANCH  20  22
ENDBRANCH   1  20
TORSDOF 9
ENDMDL
MODEL       25
REMARK 921   NORMALIZED FREE ENERGY PREDICTED BY IDOCK:   -5.89 KCAL/MOL
REMARK 922        TOTAL FREE ENERGY PREDICTED BY IDOCK:  -12.30 KCAL/MOL
REMARK 923 INTER-LIGAND FREE ENERGY PREDICTED BY IDOCK:   -9.72 KCAL/MOL
REMARK 924 INTRA-LIGAND FREE ENERGY PREDICTED BY IDOCK:   -2.58 KCAL/MOL
REMARK 927      BINDING AFFINITY PREDICTED BY RF-SCORE:    0.00 PKD
ROOT
HETATM    1  N   UNL     1      -8.307  13.800  68.284  1.00  0.00    -0.156 N  
HETATM    2  C   UNL     1      -8.896  14.698  67.408  1.00  0.00    -0.195 C  
HETATM    3  C   UNL     1     -12.148  15.227  71.333  1.00  0.00    -0.415 A  
HETATM    4  H   UNL     1      -7.382  14.073  68.615  1.00  0.00     0.000 HD 
HETATM    5  C   UNL     1     -11.719  14.877  65.135  1.00  0.00    -0.295 A  
HETATM    6  O   UNL     1      -8.100  15.342  66.675  1.00  0.00    -0.200 OA 
HETATM    7  C   UNL     1     -12.318  12.742  64.178  1.00  0.00    -0.485 A  
HETATM    8  C   UNL     1     -10.410  15.045  67.363  1.00  0.00    -0.238 C  
HETATM    9  O   UNL     1     -10.446  16.448  66.956  1.00  0.00    -0.299 OA 
HETATM   10  C   UNL     1     -11.135  14.251  66.261  1.00  0.00    -0.323 A  
HETATM   11  C   UNL     1     -12.406  14.836  68.955  1.00  0.00    -0.049 A  
HETATM   12  C   UNL     1     -11.043  15.095  68.748  1.00  0.00    -0.272 A  
HETATM   13  C   UNL     1     -11.214  12.855  66.332  1.00  0.00    -0.337 A  
HETATM   14  C   UNL     1     -10.275  15.505  69.857  1.00  0.00    -0.305 A  
HETATM   15  C   UNL     1     -12.950  14.896  70.244  1.00  0.00    -0.192 A  
HETATM   16  H   UNL     1     -11.372  16.661  66.929  1.00  0.00     0.000 HD 
HETATM   17  C   UNL     1     -12.298  14.128  64.104  1.00  0.00    -0.372 A  
HETATM   18  C   UNL     1     -10.807  15.541  71.141  1.00  0.00    -0.147 A  
HETATM   19  C   UNL     1     -11.789  12.105  65.300  1.00  0.00    -0.356 A  
ENDROOT
BRANCH   1  20
HETATM   20  N   UNL     1      -8.779  12.563  68.797  1.00  0.00    -0.380 NA 
HETATM   21  H   UNL     1      -9.248  12.470  69.699  1.00  0.00     0.000 HD 
BRANCH  20  22
HETATM   22  C   UNL     1      -8.551  11.556  67.997  1.00  0.00    -0.150 C  
HETATM   23  C   UNL     1      -6.996   9.990  66.757  1.00  0.00    -0.089 C  
HETATM   24  C   UNL     1      -7.416   8.879  67.746  1.00  0.00    -0.093 C  
HETATM   25  C   UNL     1      -8.231   9.503  68.869  1.00  0.00    -0.116 C  
HETATM   26  C   UNL     1      -7.400  11.287  66.953  1.00  0.00    -0.145 C  
HETATM   27  C   UNL     1      -6.163   9.341  65.631  1.00  0.00    -0.063 C  
HETATM   28  C   UNL     1      -9.336  10.299  68.185  1.00  0.00    -0.144 C  
HETATM   29  C   UNL     1      -6.187   8.226  68.414  1.00  0.00    -0.050 C  
HETATM   30  C   UNL     1      -6.704   7.938  65.047  1.00  0.00    -0.051 C  
HETATM   31  C   UNL     1      -7.544   6.998  66.006  1.00  0.00    -0.096 C  
HETATM   32  C   UNL     1      -8.511   5.900  65.325  1.00  0.00    -0.144 C  
HETATM   33  C   UNL     1      -7.724   4.591  64.996  1.00  0.00    -0.081 C  
HETATM   34  C   UNL     1      -8.187   3.520  66.008  1.00  0.00    -0.097 C  
HETATM   35  C   UNL     1      -8.811   4.352  67.125  1.00  0.00    -0.114 C  
HETATM   36  C   UNL     1      -8.328   7.912  66.942  1.00  0.00    -0.116 C  
HETATM   37  C   UNL     1      -9.659   5.354  66.289  1.00  0.00    -0.175 C  
HETATM   38  C   UNL     1      -9.303   7.205  67.877  1.00  0.00    -0.128 C  
HETATM   39  C   UNL     1     -10.314   6.445  67.099  1.00  0.00    -0.293 C  
HETATM   40  C   UNL     1     -10.866   4.717  65.547  1.00  0.00    -0.086 C  
BRANCH  35  41
HETATM   41  O   UNL     1      -9.421   3.626  68.203  1.00  0.00    -0.176 OA 
BRANCH  41  42
HETATM   42  C   UNL     1      -8.923   4.031  69.419  1.00  0.00    -0.108 C  
HETATM   43  O   UNL     1      -7.723   4.140  69.653  1.00  0.00    -0.053 OA 
BRANCH  42  44
HETATM   44  C   UNL     1      -9.903   4.330  70.533  1.00  0.00    -0.269 C  
BRANCH  44  45
HETATM   45  C   UNL     1     -10.167   5.743  71.032  1.00  0.00    -0.275 C  
BRANCH  45  46
HETATM   46  C   UNL     1     -11.535   6.282  70.633  1.00  0.00    -0.397 C  
BRANCH  46  47
HETATM   47  C   UNL     1     -12.042   7.424  71.523  1.00  0.00    -0.357 C  
BRANCH  47  48
HETATM   48  C   UNL     1     -11.023   8.546  71.725  1.00  0.00    -0.376 C  
HETATM   49  C   UNL     1     -11.493   9.849  71.091  1.00  0.00    -0.459 C  
ENDBRANCH  47  48
ENDBRANCH  46  47
ENDBRANCH  45  46
ENDBRANCH  44  45
ENDBRANCH  42  44
ENDBRANCH  41  42
ENDBRANCH  35  41
ENDBRANCH  20  22
ENDBRANCH   1  20
TORSDOF 9
ENDMDL
MODEL       26
REMARK 921   NORMALIZED FREE ENERGY PREDICTED BY IDOCK:   -5.83 KCAL/MOL
REMARK 922        TOTAL FREE ENERGY PREDICTED BY IDOCK:  -12.20 KCAL/MOL
REMARK 923 INTER-LIGAND FREE ENERGY PREDICTED BY IDOCK:  -10.65 KCAL/MOL
REMARK 924 INTRA-LIGAND FREE ENERGY PREDICTED BY IDOCK:   -1.55 KCAL/MOL
REMARK 927      BINDING AFFINITY PREDICTED BY RF-SCORE:    0.00 PKD
ROOT
HETATM    1  N   UNL     1      -7.838   7.348  66.127  1.00  0.00    -0.103 N  
HETATM    2  C   UNL     1      -7.393   6.574  67.187  1.00  0.00    -0.086 C  
HETATM    3  C   UNL     1      -8.756   2.793  64.007  1.00  0.00    -0.086 A  
HETATM    4  H   UNL     1      -7.112   7.892  65.662  1.00  0.00     0.000 HD 
HETATM    5  C   UNL     1      -8.746   4.646  69.947  1.00  0.00    -0.116 A  
HETATM    6  O   UNL     1      -6.412   7.040  67.823  1.00  0.00    -0.046 OA 
HETATM    7  C   UNL     1     -10.853   5.493  70.768  1.00  0.00    -0.249 A  
HETATM    8  C   UNL     1      -7.920   5.157  67.546  1.00  0.00    -0.100 C  
HETATM    9  O   UNL     1      -6.756   4.468  68.098  1.00  0.00    -0.045 OA 
HETATM   10  C   UNL     1      -8.968   5.219  68.673  1.00  0.00    -0.120 A  
HETATM   11  C   UNL     1      -9.196   3.294  66.337  1.00  0.00    -0.161 A  
HETATM   12  C   UNL     1      -8.238   4.318  66.315  1.00  0.00    -0.102 A  
HETATM   13  C   UNL     1     -10.185   5.881  68.471  1.00  0.00    -0.240 A  
HETATM   14  C   UNL     1      -7.490   4.495  65.132  1.00  0.00    -0.076 A  
HETATM   15  C   UNL     1      -9.455   2.543  65.184  1.00  0.00    -0.021 A  
HETATM   16  H   UNL     1      -7.079   3.602  68.318  1.00  0.00     0.000 HD 
HETATM   17  C   UNL     1      -9.677   4.789  70.983  1.00  0.00    -0.257 A  
HETATM   18  C   UNL     1      -7.763   3.767  63.980  1.00  0.00    -0.083 A  
HETATM   19  C   UNL     1     -11.114   6.027  69.506  1.00  0.00    -0.468 A  
ENDROOT
BRANCH   1  20
HETATM   20  N   UNL     1      -9.140   7.510  65.582  1.00  0.00    -0.384 NA 
HETATM   21  H   UNL     1      -9.545   6.874  64.895  1.00  0.00     0.000 HD 
BRANCH  20  22
HETATM   22  C   UNL     1      -9.765   8.557  66.051  1.00  0.00    -0.125 C  
HETATM   23  C   UNL     1     -10.496  10.064  67.949  1.00  0.00    -0.276 C  
HETATM   24  C   UNL     1      -9.497  11.117  67.424  1.00  0.00    -0.176 C  
HETATM   25  C   UNL     1      -8.631  10.481  66.346  1.00  0.00    -0.147 C  
HETATM   26  C   UNL     1     -10.525   8.801  67.411  1.00  0.00    -0.349 C  
HETATM   27  C   UNL     1     -11.358  10.724  69.046  1.00  0.00    -0.349 C  
HETATM   28  C   UNL     1      -9.602   9.864  65.348  1.00  0.00    -0.350 C  
HETATM   29  C   UNL     1      -8.532  11.582  68.536  1.00  0.00    -0.143 C  
HETATM   30  C   UNL     1     -11.883  12.220  68.752  1.00  0.00    -0.356 C  
HETATM   31  C   UNL     1     -11.014  13.151  67.809  1.00  0.00    -0.272 C  
HETATM   32  C   UNL     1     -11.751  14.396  67.095  1.00  0.00    -0.424 C  
HETATM   33  C   UNL     1     -11.774  15.644  68.035  1.00  0.00    -0.162 C  
HETATM   34  C   UNL     1     -10.764  16.661  67.460  1.00  0.00    -0.278 C  
HETATM   35  C   UNL     1      -9.889  15.799  66.554  1.00  0.00    -0.269 C  
HETATM   36  C   UNL     1     -10.356  12.239  66.778  1.00  0.00    -0.238 C  
HETATM   37  C   UNL     1     -10.980  14.966  65.820  1.00  0.00    -0.345 C  
HETATM   38  C   UNL     1      -9.562  12.954  65.690  1.00  0.00    -0.036 C  
HETATM   39  C   UNL     1     -10.438  13.878  64.926  1.00  0.00    -0.446 C  
HETATM   40  C   UNL     1     -11.873  15.784  64.847  1.00  0.00     0.115 C  
BRANCH  35  41
HETATM   41  O   UNL     1      -8.882  16.484  65.794  1.00  0.00    -0.474 OA 
BRANCH  41  42
HETATM   42  C   UNL     1      -7.665  16.444  66.434  1.00  0.00    -0.214 C  
HETATM   43  O   UNL     1      -7.318  15.519  67.163  1.00  0.00    -0.208 OA 
BRANCH  42  44
HETATM   44  C   UNL     1      -6.719  17.611  66.253  1.00  0.00    -0.317 C  
BRANCH  44  45
HETATM   45  C   UNL     1      -6.872  18.913  67.025  1.00  0.00    -0.209 C  
BRANCH  45  46
HETATM   46  C   UNL     1      -7.624  18.755  68.341  1.00  0.00    -0.329 C  
BRANCH  46  47
HETATM   47  C   UNL     1      -8.968  19.493  68.387  1.00  0.00    -0.397 C  
BRANCH  47  48
HETATM   48  C   UNL     1      -9.264  20.312  67.131  1.00  0.00    -0.519 C  
HETATM   49  C   UNL     1     -10.534  19.833  66.438  1.00  0.00    -0.618 C  
ENDBRANCH  47  48
ENDBRANCH  46  47
ENDBRANCH  45  46
ENDBRANCH  44  45
ENDBRANCH  42  44
ENDBRANCH  41  42
ENDBRANCH  35  41
ENDBRANCH  20  22
ENDBRANCH   1  20
TORSDOF 9
ENDMDL
MODEL       27
REMARK 921   NORMALIZED FREE ENERGY PREDICTED BY IDOCK:   -5.82 KCAL/MOL
REMARK 922        TOTAL FREE ENERGY PREDICTED BY IDOCK:  -12.20 KCAL/MOL
REMARK 923 INTER-LIGAND FREE ENERGY PREDICTED BY IDOCK:   -9.74 KCAL/MOL
REMARK 924 INTRA-LIGAND FREE ENERGY PREDICTED BY IDOCK:   -2.46 KCAL/MOL
REMARK 927      BINDING AFFINITY PREDICTED BY RF-SCORE:    0.00 PKD
ROOT
HETATM    1  N   UNL     1     -11.300  12.414  66.962  1.00  0.00    -0.306 N  
HETATM    2  C   UNL     1     -11.809  13.665  67.274  1.00  0.00    -0.391 C  
HETATM    3  C   UNL     1      -6.891  14.544  68.414  1.00  0.00    -0.104 A  
HETATM    4  H   UNL     1     -11.346  12.171  65.973  1.00  0.00     0.000 HD 
HETATM    5  C   UNL     1     -12.759  15.602  70.192  1.00  0.00    -0.165 A  
HETATM    6  O   UNL     1     -12.752  14.064  66.542  1.00  0.00    -0.310 OA 
HETATM    7  C   UNL     1     -13.541  14.247  72.031  1.00  0.00    -0.520 A  
HETATM    8  C   UNL     1     -11.227  14.629  68.345  1.00  0.00    -0.274 C  
HETATM    9  O   UNL     1     -11.491  15.963  67.811  1.00  0.00    -0.260 OA 
HETATM   10  C   UNL     1     -12.001  14.527  69.671  1.00  0.00    -0.375 A  
HETATM   11  C   UNL     1      -8.992  14.909  69.564  1.00  0.00     0.020 A  
HETATM   12  C   UNL     1      -9.704  14.599  68.397  1.00  0.00    -0.217 A  
HETATM   13  C   UNL     1     -11.998  13.333  70.401  1.00  0.00    -0.350 A  
HETATM   14  C   UNL     1      -8.966  14.347  67.222  1.00  0.00    -0.221 A  
HETATM   15  C   UNL     1      -7.592  14.873  69.570  1.00  0.00    -0.137 A  
HETATM   16  H   UNL     1     -11.135  16.553  68.465  1.00  0.00     0.000 HD 
HETATM   17  C   UNL     1     -13.524  15.459  71.355  1.00  0.00    -0.607 A  
HETATM   18  C   UNL     1      -7.577  14.288  67.232  1.00  0.00    -0.118 A  
HETATM   19  C   UNL     1     -12.765  13.187  71.562  1.00  0.00    -0.366 A  
ENDROOT
BRANCH   1  20
HETATM   20  N   UNL     1     -10.726  11.416  67.793  1.00  0.00    -0.199 NA 
HETATM   21  H   UNL     1     -10.800  11.420  68.811  1.00  0.00     0.000 HD 
BRANCH  20  22
HETATM   22  C   UNL     1     -10.091  10.493  67.121  1.00  0.00    -0.209 C  
HETATM   23  C   UNL     1      -7.982   9.269  66.442  1.00  0.00    -0.107 C  
HETATM   24  C   UNL     1      -8.475   8.069  67.280  1.00  0.00    -0.125 C  
HETATM   25  C   UNL     1      -9.689   8.500  68.091  1.00  0.00    -0.175 C  
HETATM   26  C   UNL     1      -8.650  10.467  66.480  1.00  0.00    -0.140 C  
HETATM   27  C   UNL     1      -6.746   8.816  65.635  1.00  0.00    -0.068 C  
HETATM   28  C   UNL     1     -10.659   9.112  67.088  1.00  0.00    -0.286 C  
HETATM   29  C   UNL     1      -7.409   7.620  68.302  1.00  0.00    -0.099 C  
HETATM   30  C   UNL     1      -6.827   7.361  64.944  1.00  0.00    -0.050 C  
HETATM   31  C   UNL     1      -7.735   6.255  65.623  1.00  0.00    -0.093 C  
HETATM   32  C   UNL     1      -8.240   5.029  64.704  1.00  0.00    -0.128 C  
HETATM   33  C   UNL     1      -7.171   3.890  64.656  1.00  0.00    -0.066 C  
HETATM   34  C   UNL     1      -7.719   2.720  65.502  1.00  0.00    -0.077 C  
HETATM   35  C   UNL     1      -8.788   3.391  66.361  1.00  0.00    -0.135 C  
HETATM   36  C   UNL     1      -8.915   6.984  66.259  1.00  0.00    -0.175 C  
HETATM   37  C   UNL     1      -9.509   4.256  65.286  1.00  0.00    -0.173 C  
HETATM   38  C   UNL     1      -9.984   6.085  66.869  1.00  0.00    -0.207 C  
HETATM   39  C   UNL     1     -10.561   5.185  65.838  1.00  0.00    -0.164 C  
HETATM   40  C   UNL     1     -10.302   3.442  64.227  1.00  0.00    -0.153 C  
BRANCH  35  41
HETATM   41  O   UNL     1      -9.555   2.532  67.218  1.00  0.00    -0.066 OA 
BRANCH  41  42
HETATM   42  C   UNL     1      -9.199   2.699  68.535  1.00  0.00    -0.185 C  
HETATM   43  O   UNL     1      -8.987   1.763  69.300  1.00  0.00    -0.073 OA 
BRANCH  42  44
HETATM   44  C   UNL     1      -9.091   4.108  69.078  1.00  0.00    -0.187 C  
BRANCH  44  45
HETATM   45  C   UNL     1      -9.641   4.503  70.440  1.00  0.00    -0.270 C  
BRANCH  45  46
HETATM   46  C   UNL     1      -9.926   5.994  70.572  1.00  0.00    -0.233 C  
BRANCH  46  47
HETATM   47  C   UNL     1     -11.361   6.392  70.204  1.00  0.00    -0.485 C  
BRANCH  47  48
HETATM   48  C   UNL     1     -12.032   7.301  71.235  1.00  0.00    -0.359 C  
HETATM   49  C   UNL     1     -11.201   8.549  71.504  1.00  0.00    -0.345 C  
ENDBRANCH  47  48
ENDBRANCH  46  47
ENDBRANCH  45  46
ENDBRANCH  44  45
ENDBRANCH  42  44
ENDBRANCH  41  42
ENDBRANCH  35  41
ENDBRANCH  20  22
ENDBRANCH   1  20
TORSDOF 9
ENDMDL
MODEL       28
REMARK 921   NORMALIZED FREE ENERGY PREDICTED BY IDOCK:   -5.78 KCAL/MOL
REMARK 922        TOTAL FREE ENERGY PREDICTED BY IDOCK:  -12.13 KCAL/MOL
REMARK 923 INTER-LIGAND FREE ENERGY PREDICTED BY IDOCK:   -9.26 KCAL/MOL
REMARK 924 INTRA-LIGAND FREE ENERGY PREDICTED BY IDOCK:   -2.87 KCAL/MOL
REMARK 927      BINDING AFFINITY PREDICTED BY RF-SCORE:    0.00 PKD
ROOT
HETATM    1  N   UNL     1     -10.198  12.165  69.158  1.00  0.00    -0.420 N  
HETATM    2  C   UNL     1     -11.105  13.192  68.945  1.00  0.00    -0.266 C  
HETATM    3  C   UNL     1     -10.350  11.825  64.064  1.00  0.00    -0.401 A  
HETATM    4  H   UNL     1     -10.579  11.355  69.647  1.00  0.00     0.000 HD 
HETATM    5  C   UNL     1     -11.135  16.665  67.895  1.00  0.00    -0.212 A  
HETATM    6  O   UNL     1     -12.000  13.314  69.822  1.00  0.00    -0.313 OA 
HETATM    7  C   UNL     1      -9.119  17.861  68.474  1.00  0.00    -0.289 A  
HETATM    8  C   UNL     1     -11.167  14.085  67.675  1.00  0.00    -0.297 C  
HETATM    9  O   UNL     1     -12.587  14.393  67.520  1.00  0.00    -0.529 OA 
HETATM   10  C   UNL     1     -10.448  15.428  67.899  1.00  0.00    -0.256 A  
HETATM   11  C   UNL     1     -10.325  13.932  65.261  1.00  0.00    -0.396 A  
HETATM   12  C   UNL     1     -10.864  13.312  66.397  1.00  0.00    -0.296 A  
HETATM   13  C   UNL     1      -9.071  15.460  68.144  1.00  0.00    -0.184 A  
HETATM   14  C   UNL     1     -11.217  11.950  66.300  1.00  0.00    -0.392 A  
HETATM   15  C   UNL     1     -10.064  13.186  64.104  1.00  0.00    -0.059 A  
HETATM   16  H   UNL     1     -12.625  14.939  66.744  1.00  0.00     0.000 HD 
HETATM   17  C   UNL     1     -10.476  17.865  68.186  1.00  0.00    -0.380 A  
HETATM   18  C   UNL     1     -10.937  11.203  65.161  1.00  0.00    -0.156 A  
HETATM   19  C   UNL     1      -8.412  16.659  68.439  1.00  0.00    -0.216 A  
ENDROOT
BRANCH   1  20
HETATM   20  N   UNL     1      -8.826  12.056  68.807  1.00  0.00    -0.381 NA 
HETATM   21  H   UNL     1      -8.104  12.687  69.154  1.00  0.00     0.000 HD 
BRANCH  20  22
HETATM   22  C   UNL     1      -8.583  11.062  67.993  1.00  0.00    -0.134 C  
HETATM   23  C   UNL     1      -7.008   9.489  66.790  1.00  0.00    -0.081 C  
HETATM   24  C   UNL     1      -7.500   8.366  67.729  1.00  0.00    -0.098 C  
HETATM   25  C   UNL     1      -8.355   8.982  68.827  1.00  0.00    -0.122 C  
HETATM   26  C   UNL     1      -7.390  10.791  67.000  1.00  0.00    -0.110 C  
HETATM   27  C   UNL     1      -6.136   8.847  65.689  1.00  0.00    -0.052 C  
HETATM   28  C   UNL     1      -9.405   9.821  68.111  1.00  0.00    -0.136 C  
HETATM   29  C   UNL     1      -6.321   7.667  68.438  1.00  0.00    -0.041 C  
HETATM   30  C   UNL     1      -6.681   7.472  65.044  1.00  0.00    -0.047 C  
HETATM   31  C   UNL     1      -7.588   6.530  65.938  1.00  0.00    -0.087 C  
HETATM   32  C   UNL     1      -8.547   5.474  65.184  1.00  0.00    -0.141 C  
HETATM   33  C   UNL     1      -7.776   4.154  64.860  1.00  0.00    -0.078 C  
HETATM   34  C   UNL     1      -8.312   3.070  65.821  1.00  0.00    -0.101 C  
HETATM   35  C   UNL     1      -8.969   3.891  66.928  1.00  0.00    -0.137 C  
HETATM   36  C   UNL     1      -8.395   7.441  66.858  1.00  0.00    -0.122 C  
HETATM   37  C   UNL     1      -9.753   4.933  66.077  1.00  0.00    -0.200 C  
HETATM   38  C   UNL     1      -9.431   6.736  67.727  1.00  0.00    -0.121 C  
HETATM   39  C   UNL     1     -10.421   6.019  66.883  1.00  0.00    -0.344 C  
HETATM   40  C   UNL     1     -10.937   4.344  65.263  1.00  0.00     0.010 C  
BRANCH  35  41
HETATM   41  O   UNL     1      -9.648   3.154  67.956  1.00  0.00    -0.185 OA 
BRANCH  41  42
HETATM   42  C   UNL     1      -8.801   2.864  69.000  1.00  0.00    -0.098 C  
HETATM   43  O   UNL     1      -8.840   1.809  69.626  1.00  0.00    -0.057 OA 
BRANCH  42  44
HETATM   44  C   UNL     1      -7.790   3.910  69.417  1.00  0.00    -0.052 C  
BRANCH  44  45
HETATM   45  C   UNL     1      -8.138   5.052  70.362  1.00  0.00    -0.085 C  
BRANCH  45  46
HETATM   46  C   UNL     1      -9.389   4.793  71.192  1.00  0.00    -0.206 C  
BRANCH  46  47
HETATM   47  C   UNL     1     -10.242   6.043  71.444  1.00  0.00    -0.253 C  
BRANCH  47  48
HETATM   48  C   UNL     1     -11.458   6.155  70.524  1.00  0.00    -0.330 C  
HETATM   49  C   UNL     1     -12.523   7.070  71.116  1.00  0.00    -0.407 C  
ENDBRANCH  47  48
ENDBRANCH  46  47
ENDBRANCH  45  46
ENDBRANCH  44  45
ENDBRANCH  42  44
ENDBRANCH  41  42
ENDBRANCH  35  41
ENDBRANCH  20  22
ENDBRANCH   1  20
TORSDOF 9
ENDMDL
MODEL       29
REMARK 921   NORMALIZED FREE ENERGY PREDICTED BY IDOCK:   -5.75 KCAL/MOL
REMARK 922        TOTAL FREE ENERGY PREDICTED BY IDOCK:  -12.08 KCAL/MOL
REMARK 923 INTER-LIGAND FREE ENERGY PREDICTED BY IDOCK:   -9.45 KCAL/MOL
REMARK 924 INTRA-LIGAND FREE ENERGY PREDICTED BY IDOCK:   -2.63 KCAL/MOL
REMARK 927      BINDING AFFINITY PREDICTED BY RF-SCORE:    0.00 PKD
ROOT
HETATM    1  N   UNL     1     -10.293   7.678  69.973  1.00  0.00    -0.217 N  
HETATM    2  C   UNL     1     -10.789   6.534  70.578  1.00  0.00    -0.271 C  
HETATM    3  C   UNL     1      -7.187   7.710  74.028  1.00  0.00    -0.136 A  
HETATM    4  H   UNL     1     -10.949   8.459  69.938  1.00  0.00     0.000 HD 
HETATM    5  C   UNL     1      -9.922   3.032  70.970  1.00  0.00     0.060 A  
HETATM    6  O   UNL     1     -12.027   6.346  70.449  1.00  0.00    -0.349 OA 
HETATM    7  C   UNL     1      -8.665   2.140  69.111  1.00  0.00    -0.124 A  
HETATM    8  C   UNL     1      -9.971   5.570  71.481  1.00  0.00    -0.177 C  
HETATM    9  O   UNL     1     -10.943   5.073  72.452  1.00  0.00    -0.201 OA 
HETATM   10  C   UNL     1      -9.476   4.345  70.691  1.00  0.00    -0.242 A  
HETATM   11  C   UNL     1      -7.796   5.695  72.829  1.00  0.00    -0.102 A  
HETATM   12  C   UNL     1      -8.973   6.303  72.370  1.00  0.00    -0.138 A  
HETATM   13  C   UNL     1      -8.572   4.504  69.634  1.00  0.00    -0.102 A  
HETATM   14  C   UNL     1      -9.269   7.600  72.837  1.00  0.00    -0.242 A  
HETATM   15  C   UNL     1      -6.907   6.401  73.648  1.00  0.00    -0.078 A  
HETATM   16  H   UNL     1     -10.443   4.484  73.005  1.00  0.00     0.000 HD 
HETATM   17  C   UNL     1      -9.525   1.945  70.183  1.00  0.00    -0.138 A  
HETATM   18  C   UNL     1      -8.377   8.312  73.630  1.00  0.00    -0.259 A  
HETATM   19  C   UNL     1      -8.177   3.419  68.845  1.00  0.00    -0.075 A  
ENDROOT
BRANCH   1  20
HETATM   20  N   UNL     1      -9.023   7.944  69.397  1.00  0.00    -0.145 NA 
HETATM   21  H   UNL     1      -8.438   7.226  68.970  1.00  0.00     0.000 HD 
BRANCH  20  22
HETATM   22  C   UNL     1      -8.680   9.203  69.469  1.00  0.00    -0.140 C  
HETATM   23  C   UNL     1      -7.118  11.130  68.967  1.00  0.00    -0.113 C  
HETATM   24  C   UNL     1      -8.178  11.660  67.978  1.00  0.00    -0.146 C  
HETATM   25  C   UNL     1      -9.260  10.603  67.802  1.00  0.00    -0.151 C  
HETATM   26  C   UNL     1      -7.269   9.900  69.560  1.00  0.00    -0.095 C  
HETATM   27  C   UNL     1      -6.026  12.210  69.125  1.00  0.00    -0.075 C  
HETATM   28  C   UNL     1      -9.718  10.245  69.210  1.00  0.00    -0.240 C  
HETATM   29  C   UNL     1      -7.574  11.897  66.577  1.00  0.00     0.133 C  
HETATM   30  C   UNL     1      -6.530  13.735  69.264  1.00  0.00    -0.112 C  
HETATM   31  C   UNL     1      -7.902  14.138  68.581  1.00  0.00    -0.137 C  
HETATM   32  C   UNL     1      -8.661  15.449  69.137  1.00  0.00    -0.242 C  
HETATM   33  C   UNL     1      -8.122  16.742  68.444  1.00  0.00    -0.219 C  
HETATM   34  C   UNL     1      -9.222  17.227  67.475  1.00  0.00    -0.227 C  
HETATM   35  C   UNL     1     -10.090  15.984  67.293  1.00  0.00    -0.266 C  
HETATM   36  C   UNL     1      -8.806  12.911  68.651  1.00  0.00     0.065 C  
HETATM   37  C   UNL     1     -10.213  15.509  68.769  1.00  0.00    -0.212 C  
HETATM   38  C   UNL     1     -10.231  13.123  68.152  1.00  0.00    -0.239 C  
HETATM   39  C   UNL     1     -10.909  14.182  68.941  1.00  0.00    -0.276 C  
HETATM   40  C   UNL     1     -11.050  16.446  69.683  1.00  0.00    -0.306 C  
BRANCH  35  41
HETATM   41  O   UNL     1     -11.271  16.138  66.491  1.00  0.00    -0.022 OA 
BRANCH  41  42
HETATM   42  C   UNL     1     -11.034  15.779  65.185  1.00  0.00    -0.382 C  
HETATM   43  O   UNL     1     -11.170  16.549  64.239  1.00  0.00    -0.992 OA 
BRANCH  42  44
HETATM   44  C   UNL     1     -10.614  14.354  64.896  1.00  0.00    -0.456 C  
BRANCH  44  45
HETATM   45  C   UNL     1     -11.611  13.207  64.821  1.00  0.00    -0.368 C  
BRANCH  45  46
HETATM   46  C   UNL     1     -10.961  11.852  64.568  1.00  0.00    -0.376 C  
BRANCH  46  47
HETATM   47  C   UNL     1     -10.756  11.523  63.085  1.00  0.00    -0.281 C  
BRANCH  47  48
HETATM   48  C   UNL     1      -9.368  10.967  62.763  1.00  0.00    -0.372 C  
HETATM   49  C   UNL     1      -9.014   9.792  63.665  1.00  0.00    -0.270 C  
ENDBRANCH  47  48
ENDBRANCH  46  47
ENDBRANCH  45  46
ENDBRANCH  44  45
ENDBRANCH  42  44
ENDBRANCH  41  42
ENDBRANCH  35  41
ENDBRANCH  20  22
ENDBRANCH   1  20
TORSDOF 9
ENDMDL
MODEL       30
REMARK 921   NORMALIZED FREE ENERGY PREDICTED BY IDOCK:   -5.71 KCAL/MOL
REMARK 922        TOTAL FREE ENERGY PREDICTED BY IDOCK:  -12.03 KCAL/MOL
REMARK 923 INTER-LIGAND FREE ENERGY PREDICTED BY IDOCK:   -9.18 KCAL/MOL
REMARK 924 INTRA-LIGAND FREE ENERGY PREDICTED BY IDOCK:   -2.85 KCAL/MOL
REMARK 927      BINDING AFFINITY PREDICTED BY RF-SCORE:    0.00 PKD
ROOT
HETATM    1  N   UNL     1      -9.035   9.292  66.642  1.00  0.00    -0.136 N  
HETATM    2  C   UNL     1      -8.815  10.660  66.675  1.00  0.00    -0.141 C  
HETATM    3  C   UNL     1     -11.773  10.269  70.841  1.00  0.00    -0.472 A  
HETATM    4  H   UNL     1      -8.204   8.723  66.803  1.00  0.00     0.000 HD 
HETATM    5  C   UNL     1     -10.530  13.745  65.832  1.00  0.00    -0.300 A  
HETATM    6  O   UNL     1      -7.677  11.035  66.288  1.00  0.00    -0.158 OA 
HETATM    7  C   UNL     1     -12.086  13.509  64.000  1.00  0.00    -0.494 A  
HETATM    8  C   UNL     1      -9.797  11.713  67.260  1.00  0.00    -0.187 C  
HETATM    9  O   UNL     1      -8.928  12.757  67.798  1.00  0.00    -0.172 OA 
HETATM   10  C   UNL     1     -10.639  12.371  66.151  1.00  0.00    -0.283 A  
HETATM   11  C   UNL     1     -11.779  11.695  68.881  1.00  0.00    -0.397 A  
HETATM   12  C   UNL     1     -10.515  11.216  68.508  1.00  0.00    -0.212 A  
HETATM   13  C   UNL     1     -11.534  11.606  65.395  1.00  0.00    -0.170 A  
HETATM   14  C   UNL     1      -9.867  10.319  69.382  1.00  0.00    -0.247 A  
HETATM   15  C   UNL     1     -12.404  11.216  70.039  1.00  0.00    -0.351 A  
HETATM   16  H   UNL     1      -9.528  13.401  68.156  1.00  0.00     0.000 HD 
HETATM   17  C   UNL     1     -11.242  14.303  64.764  1.00  0.00    -0.387 A  
HETATM   18  C   UNL     1     -10.496   9.823  70.518  1.00  0.00    -0.366 A  
HETATM   19  C   UNL     1     -12.243  12.162  64.325  1.00  0.00    -0.469 A  
ENDROOT
BRANCH   1  20
HETATM   20  N   UNL     1     -10.226   8.552  66.422  1.00  0.00    -0.406 NA 
HETATM   21  H   UNL     1     -11.019   8.907  65.886  1.00  0.00     0.000 HD 
BRANCH  20  22
HETATM   22  C   UNL     1     -10.205   7.369  66.977  1.00  0.00    -0.287 C  
HETATM   23  C   UNL     1      -9.290   5.020  67.203  1.00  0.00    -0.132 C  
HETATM   24  C   UNL     1      -8.642   5.460  68.534  1.00  0.00    -0.098 C  
HETATM   25  C   UNL     1      -8.774   6.970  68.671  1.00  0.00    -0.123 C  
HETATM   26  C   UNL     1      -9.896   5.940  66.385  1.00  0.00    -0.161 C  
HETATM   27  C   UNL     1      -9.138   3.488  67.078  1.00  0.00    -0.188 C  
HETATM   28  C   UNL     1     -10.253   7.274  68.466  1.00  0.00    -0.197 C  
HETATM   29  C   UNL     1      -7.129   5.155  68.552  1.00  0.00    -0.062 C  
HETATM   30  C   UNL     1      -9.420   2.621  68.409  1.00  0.00    -0.212 C  
HETATM   31  C   UNL     1      -9.153   3.297  69.817  1.00  0.00    -0.200 C  
HETATM   32  C   UNL     1      -9.905   2.677  71.102  1.00  0.00    -0.092 C  
HETATM   33  C   UNL     1      -9.094   1.484  71.702  1.00  0.00    -0.128 C  
HETATM   34  C   UNL     1      -8.477   1.979  73.028  1.00  0.00    -0.062 C  
HETATM   35  C   UNL     1      -8.541   3.498  72.889  1.00  0.00    -0.086 C  
HETATM   36  C   UNL     1      -9.470   4.781  69.660  1.00  0.00    -0.223 C  
HETATM   37  C   UNL     1      -9.991   3.669  72.350  1.00  0.00    -0.235 C  
HETATM   38  C   UNL     1      -9.393   5.602  70.942  1.00  0.00    -0.190 C  
HETATM   39  C   UNL     1     -10.346   5.080  71.955  1.00  0.00    -0.270 C  
HETATM   40  C   UNL     1     -11.107   3.316  73.371  1.00  0.00    -0.282 C  
BRANCH  35  41
HETATM   41  O   UNL     1      -8.105   4.265  74.022  1.00  0.00    -0.091 OA 
BRANCH  41  42
HETATM   42  C   UNL     1      -6.827   4.735  73.840  1.00  0.00    -0.074 C  
HETATM   43  O   UNL     1      -5.823   4.072  74.087  1.00  0.00    -0.007 OA 
BRANCH  42  44
HETATM   44  C   UNL     1      -6.646   6.152  73.339  1.00  0.00    -0.074 C  
BRANCH  44  45
HETATM   45  C   UNL     1      -7.603   7.277  73.707  1.00  0.00    -0.124 C  
BRANCH  45  46
HETATM   46  C   UNL     1      -7.479   8.499  72.806  1.00  0.00    -0.056 C  
BRANCH  46  47
HETATM   47  C   UNL     1      -6.839   8.210  71.443  1.00  0.00    -0.057 C  
BRANCH  47  48
HETATM   48  C   UNL     1      -6.540   9.466  70.623  1.00  0.00    -0.087 C  
HETATM   49  C   UNL     1      -5.642   9.155  69.432  1.00  0.00    -0.035 C  
ENDBRANCH  47  48
ENDBRANCH  46  47
ENDBRANCH  45  46
ENDBRANCH  44  45
ENDBRANCH  42  44
ENDBRANCH  41  42
ENDBRANCH  35  41
ENDBRANCH  20  22
ENDBRANCH   1  20
TORSDOF 9
ENDMDL
MODEL       31
REMARK 921   NORMALIZED FREE ENERGY PREDICTED BY IDOCK:   -5.63 KCAL/MOL
REMARK 922        TOTAL FREE ENERGY PREDICTED BY IDOCK:  -11.91 KCAL/MOL
REMARK 923 INTER-LIGAND FREE ENERGY PREDICTED BY IDOCK:  -10.14 KCAL/MOL
REMARK 924 INTRA-LIGAND FREE ENERGY PREDICTED BY IDOCK:   -1.77 KCAL/MOL
REMARK 927      BINDING AFFINITY PREDICTED BY RF-SCORE:    0.00 PKD
ROOT
HETATM    1  N   UNL     1      -9.971   4.890  68.810  1.00  0.00    -0.159 N  
HETATM    2  C   UNL     1      -9.044   3.909  69.124  1.00  0.00    -0.136 C  
HETATM    3  C   UNL     1      -6.061   8.017  69.819  1.00  0.00    -0.029 A  
HETATM    4  H   UNL     1     -10.750   4.964  69.463  1.00  0.00     0.000 HD 
HETATM    5  C   UNL     1      -6.222   2.201  67.612  1.00  0.00    -0.024 A  
HETATM    6  O   UNL     1      -9.505   2.897  69.715  1.00  0.00    -0.149 OA 
HETATM    7  C   UNL     1      -6.388   2.014  65.210  1.00  0.00    -0.023 A  
HETATM    8  C   UNL     1      -7.508   4.028  68.922  1.00  0.00    -0.055 C  
HETATM    9  O   UNL     1      -6.938   3.249  70.019  1.00  0.00    -0.034 OA 
HETATM   10  C   UNL     1      -7.059   3.342  67.619  1.00  0.00    -0.050 A  
HETATM   11  C   UNL     1      -5.824   5.932  68.607  1.00  0.00    -0.016 A  
HETATM   12  C   UNL     1      -6.983   5.428  69.214  1.00  0.00    -0.056 A  
HETATM   13  C   UNL     1      -7.499   3.821  66.380  1.00  0.00    -0.083 A  
HETATM   14  C   UNL     1      -7.613   6.224  70.194  1.00  0.00    -0.096 A  
HETATM   15  C   UNL     1      -5.373   7.223  68.906  1.00  0.00    -0.018 A  
HETATM   16  H   UNL     1      -5.999   3.322  69.896  1.00  0.00     0.000 HD 
HETATM   17  C   UNL     1      -5.897   1.544  66.420  1.00  0.00    -0.018 A  
HETATM   18  C   UNL     1      -7.181   7.515  70.474  1.00  0.00    -0.064 A  
HETATM   19  C   UNL     1      -7.179   3.162  65.188  1.00  0.00    -0.066 A  
ENDROOT
BRANCH   1  20
HETATM   20  N   UNL     1     -10.014   5.809  67.729  1.00  0.00    -0.130 NA 
HETATM   21  H   UNL     1      -9.693   5.585  66.786  1.00  0.00     0.000 HD 
BRANCH  20  22
HETATM   22  C   UNL     1     -10.506   6.972  68.064  1.00  0.00    -0.208 C  
HETATM   23  C   UNL     1     -10.770   8.913  69.668  1.00  0.00    -0.222 C  
HETATM   24  C   UNL     1      -9.907   9.756  68.703  1.00  0.00    -0.168 C  
HETATM   25  C   UNL     1      -9.317   8.839  67.642  1.00  0.00    -0.157 C  
HETATM   26  C   UNL     1     -10.932   7.565  69.462  1.00  0.00    -0.127 C  
HETATM   27  C   UNL     1     -11.352   9.857  70.742  1.00  0.00    -0.430 C  
HETATM   28  C   UNL     1     -10.496   8.073  67.055  1.00  0.00    -0.410 C  
HETATM   29  C   UNL     1      -8.710  10.399  69.434  1.00  0.00    -0.138 C  
HETATM   30  C   UNL     1     -11.917  11.277  70.228  1.00  0.00    -0.466 C  
HETATM   31  C   UNL     1     -11.277  11.914  68.925  1.00  0.00    -0.310 C  
HETATM   32  C   UNL     1     -12.147  13.008  68.119  1.00  0.00    -0.201 C  
HETATM   33  C   UNL     1     -11.943  14.436  68.720  1.00  0.00    -0.331 C  
HETATM   34  C   UNL     1     -11.083  15.231  67.714  1.00  0.00    -0.318 C  
HETATM   35  C   UNL     1     -10.446  14.133  66.866  1.00  0.00    -0.272 C  
HETATM   36  C   UNL     1     -10.881  10.753  68.018  1.00  0.00    -0.302 C  
HETATM   37  C   UNL     1     -11.683  13.225  66.607  1.00  0.00    -0.425 C  
HETATM   38  C   UNL     1     -10.351  11.152  66.645  1.00  0.00    -0.286 C  
HETATM   39  C   UNL     1     -11.370  11.931  65.897  1.00  0.00    -0.365 C  
HETATM   40  C   UNL     1     -12.768  13.856  65.691  1.00  0.00    -0.534 C  
BRANCH  35  41
HETATM   41  O   UNL     1      -9.633  14.563  65.764  1.00  0.00    -0.289 OA 
BRANCH  41  42
HETATM   42  C   UNL     1      -9.667  15.931  65.627  1.00  0.00    -0.271 C  
HETATM   43  O   UNL     1     -10.564  16.527  65.037  1.00  0.00    -0.670 OA 
BRANCH  42  44
HETATM   44  C   UNL     1      -8.527  16.741  66.205  1.00  0.00    -0.342 C  
BRANCH  44  45
HETATM   45  C   UNL     1      -7.897  16.418  67.552  1.00  0.00    -0.167 C  
BRANCH  45  46
HETATM   46  C   UNL     1      -7.637  17.649  68.412  1.00  0.00    -0.260 C  
BRANCH  46  47
HETATM   47  C   UNL     1      -7.887  18.980  67.691  1.00  0.00    -0.269 C  
BRANCH  47  48
HETATM   48  C   UNL     1      -9.161  19.695  68.144  1.00  0.00    -0.392 C  
HETATM   49  C   UNL     1      -9.933  20.264  66.960  1.00  0.00    -0.601 C  
ENDBRANCH  47  48
ENDBRANCH  46  47
ENDBRANCH  45  46
ENDBRANCH  44  45
ENDBRANCH  42  44
ENDBRANCH  41  42
ENDBRANCH  35  41
ENDBRANCH  20  22
ENDBRANCH   1  20
TORSDOF 9
ENDMDL
MODEL       32
REMARK 921   NORMALIZED FREE ENERGY PREDICTED BY IDOCK:   -5.60 KCAL/MOL
REMARK 922        TOTAL FREE ENERGY PREDICTED BY IDOCK:  -11.87 KCAL/MOL
REMARK 923 INTER-LIGAND FREE ENERGY PREDICTED BY IDOCK:   -9.85 KCAL/MOL
REMARK 924 INTRA-LIGAND FREE ENERGY PREDICTED BY IDOCK:   -2.02 KCAL/MOL
REMARK 927      BINDING AFFINITY PREDICTED BY RF-SCORE:    0.00 PKD
ROOT
HETATM    1  N   UNL     1      -9.620  14.180  65.648  1.00  0.00    -0.533 N  
HETATM    2  C   UNL     1     -10.529  15.118  66.109  1.00  0.00    -0.312 C  
HETATM    3  C   UNL     1      -6.211  17.501  67.501  1.00  0.00    -0.167 A  
HETATM    4  H   UNL     1      -9.596  14.072  64.634  1.00  0.00     0.000 HD 
HETATM    5  C   UNL     1     -12.042  16.184  69.230  1.00  0.00     0.030 A  
HETATM    6  O   UNL     1     -11.566  15.257  65.409  1.00  0.00    -0.243 OA 
HETATM    7  C   UNL     1     -12.261  14.405  70.848  1.00  0.00    -0.413 A  
HETATM    8  C   UNL     1     -10.301  16.070  67.316  1.00  0.00    -0.295 C  
HETATM    9  O   UNL     1     -11.028  17.286  66.958  1.00  0.00    -0.108 OA 
HETATM   10  C   UNL     1     -10.964  15.524  68.593  1.00  0.00    -0.279 A  
HETATM   11  C   UNL     1      -8.284  16.947  68.628  1.00  0.00    -0.254 A  
HETATM   12  C   UNL     1      -8.865  16.569  67.409  1.00  0.00    -0.201 A  
HETATM   13  C   UNL     1     -10.528  14.319  69.156  1.00  0.00    -0.170 A  
HETATM   14  C   UNL     1      -8.108  16.754  66.233  1.00  0.00    -0.365 A  
HETATM   15  C   UNL     1      -6.961  17.404  68.670  1.00  0.00    -0.226 A  
HETATM   16  H   UNL     1     -10.889  17.869  67.696  1.00  0.00     0.000 HD 
HETATM   17  C   UNL     1     -12.684  15.625  70.341  1.00  0.00    -0.325 A  
HETATM   18  C   UNL     1      -6.787  17.184  66.276  1.00  0.00    -0.237 A  
HETATM   19  C   UNL     1     -11.173  13.758  70.264  1.00  0.00     0.181 A  
ENDROOT
BRANCH   1  20
HETATM   20  N   UNL     1      -8.715  13.344  66.354  1.00  0.00    -0.425 NA 
HETATM   21  H   UNL     1      -7.760  13.617  66.587  1.00  0.00     0.000 HD 
BRANCH  20  22
HETATM   22  C   UNL     1      -9.231  12.187  66.676  1.00  0.00    -0.206 C  
HETATM   23  C   UNL     1      -9.248   9.656  66.639  1.00  0.00    -0.187 C  
HETATM   24  C   UNL     1      -8.839   9.686  68.128  1.00  0.00    -0.119 C  
HETATM   25  C   UNL     1      -8.483  11.115  68.511  1.00  0.00    -0.156 C  
HETATM   26  C   UNL     1      -9.287  10.814  65.902  1.00  0.00    -0.220 C  
HETATM   27  C   UNL     1      -9.596   8.198  66.266  1.00  0.00    -0.248 C  
HETATM   28  C   UNL     1      -9.673  11.965  68.085  1.00  0.00    -0.194 C  
HETATM   29  C   UNL     1      -7.571   8.842  68.381  1.00  0.00    -0.091 C  
HETATM   30  C   UNL     1     -10.472   7.367  67.334  1.00  0.00    -0.366 C  
HETATM   31  C   UNL     1     -10.348   7.748  68.867  1.00  0.00    -0.224 C  
HETATM   32  C   UNL     1     -11.558   7.324  69.847  1.00  0.00    -0.021 C  
HETATM   33  C   UNL     1     -11.371   5.860  70.362  1.00  0.00    -0.219 C  
HETATM   34  C   UNL     1     -10.970   5.953  71.850  1.00  0.00    -0.321 C  
HETATM   35  C   UNL     1     -10.482   7.393  71.983  1.00  0.00    -0.199 C  
HETATM   36  C   UNL     1     -10.097   9.252  68.928  1.00  0.00    -0.207 C  
HETATM   37  C   UNL     1     -11.608   8.143  71.215  1.00  0.00    -0.305 C  
HETATM   38  C   UNL     1     -10.067   9.850  70.329  1.00  0.00    -0.295 C  
HETATM   39  C   UNL     1     -11.358   9.619  71.025  1.00  0.00    -0.444 C  
HETATM   40  C   UNL     1     -12.993   8.127  71.919  1.00  0.00    -0.356 C  
BRANCH  35  41
HETATM   41  O   UNL     1     -10.106   7.825  73.300  1.00  0.00    -0.305 OA 
BRANCH  41  42
HETATM   42  C   UNL     1      -8.932   7.233  73.700  1.00  0.00    -0.194 C  
HETATM   43  O   UNL     1      -8.886   6.157  74.290  1.00  0.00    -0.125 OA 
BRANCH  42  44
HETATM   44  C   UNL     1      -7.632   7.958  73.427  1.00  0.00    -0.184 C  
BRANCH  44  45
HETATM   45  C   UNL     1      -7.091   8.162  72.019  1.00  0.00    -0.091 C  
BRANCH  45  46
HETATM   46  C   UNL     1      -5.934   7.234  71.672  1.00  0.00    -0.037 C  
BRANCH  46  47
HETATM   47  C   UNL     1      -6.369   5.850  71.175  1.00  0.00    -0.040 C  
BRANCH  47  48
HETATM   48  C   UNL     1      -7.669   5.865  70.370  1.00  0.00    -0.096 C  
HETATM   49  C   UNL     1      -7.722   4.717  69.370  1.00  0.00    -0.059 C  
ENDBRANCH  47  48
ENDBRANCH  46  47
ENDBRANCH  45  46
ENDBRANCH  44  45
ENDBRANCH  42  44
ENDBRANCH  41  42
ENDBRANCH  35  41
ENDBRANCH  20  22
ENDBRANCH   1  20
TORSDOF 9
ENDMDL
MODEL       33
REMARK 921   NORMALIZED FREE ENERGY PREDICTED BY IDOCK:   -5.55 KCAL/MOL
REMARK 922        TOTAL FREE ENERGY PREDICTED BY IDOCK:  -11.79 KCAL/MOL
REMARK 923 INTER-LIGAND FREE ENERGY PREDICTED BY IDOCK:   -9.14 KCAL/MOL
REMARK 924 INTRA-LIGAND FREE ENERGY PREDICTED BY IDOCK:   -2.65 KCAL/MOL
REMARK 927      BINDING AFFINITY PREDICTED BY RF-SCORE:    0.00 PKD
ROOT
HETATM    1  N   UNL     1     -10.632  11.565  68.315  1.00  0.00    -0.191 N  
HETATM    2  C   UNL     1     -11.558  12.571  68.091  1.00  0.00    -0.340 C  
HETATM    3  C   UNL     1      -7.324  15.455  68.222  1.00  0.00    -0.113 A  
HETATM    4  H   UNL     1     -10.527  10.903  67.546  1.00  0.00     0.000 HD 
HETATM    5  C   UNL     1     -13.301  15.168  69.930  1.00  0.00     0.560 A  
HETATM    6  O   UNL     1     -12.532  12.258  67.356  1.00  0.00    -0.134 OA 
HETATM    7  C   UNL     1     -13.686  14.609  72.248  1.00  0.00    -0.565 A  
HETATM    8  C   UNL     1     -11.412  14.045  68.560  1.00  0.00    -0.302 C  
HETATM    9  O   UNL     1     -12.084  14.823  67.521  1.00  0.00    -0.528 OA 
HETATM   10  C   UNL     1     -12.188  14.297  69.866  1.00  0.00    -0.407 A  
HETATM   11  C   UNL     1      -9.493  15.572  69.298  1.00  0.00    -0.263 A  
HETATM   12  C   UNL     1      -9.979  14.553  68.467  1.00  0.00    -0.238 A  
HETATM   13  C   UNL     1     -11.822  13.636  71.044  1.00  0.00     0.029 A  
HETATM   14  C   UNL     1      -9.125  14.064  67.456  1.00  0.00    -0.196 A  
HETATM   15  C   UNL     1      -8.169  16.013  69.177  1.00  0.00    -0.241 A  
HETATM   16  H   UNL     1     -11.995  15.724  67.808  1.00  0.00     0.000 HD 
HETATM   17  C   UNL     1     -14.043  15.316  71.108  1.00  0.00    -0.438 A  
HETATM   18  C   UNL     1      -7.804  14.483  67.351  1.00  0.00    -0.221 A  
HETATM   19  C   UNL     1     -12.566  13.779  72.220  1.00  0.00    -0.175 A  
ENDROOT
BRANCH   1  20
HETATM   20  N   UNL     1      -9.804  11.303  69.438  1.00  0.00    -0.412 NA 
HETATM   21  H   UNL     1      -8.965  11.840  69.656  1.00  0.00     0.000 HD 
BRANCH  20  22
HETATM   22  C   UNL     1     -10.228  10.303  70.165  1.00  0.00    -0.093 C  
HETATM   23  C   UNL     1     -11.888   8.467  70.695  1.00  0.00    -0.100 C  
HETATM   24  C   UNL     1     -10.824   7.447  70.233  1.00  0.00    -0.260 C  
HETATM   25  C   UNL     1      -9.672   8.199  69.582  1.00  0.00    -0.170 C  
HETATM   26  C   UNL     1     -11.683   9.814  70.526  1.00  0.00    -0.343 C  
HETATM   27  C   UNL     1     -13.051   7.686  71.344  1.00  0.00    -0.339 C  
HETATM   28  C   UNL     1      -9.248   9.259  70.590  1.00  0.00    -0.321 C  
HETATM   29  C   UNL     1     -11.386   6.497  69.153  1.00  0.00    -0.330 C  
HETATM   30  C   UNL     1     -12.650   6.475  72.330  1.00  0.00    -0.063 C  
HETATM   31  C   UNL     1     -11.280   5.720  72.075  1.00  0.00    -0.307 C  
HETATM   32  C   UNL     1     -10.627   4.910  73.307  1.00  0.00    -0.289 C  
HETATM   33  C   UNL     1     -11.219   3.466  73.401  1.00  0.00    -0.255 C  
HETATM   34  C   UNL     1     -10.113   2.494  72.934  1.00  0.00    -0.213 C  
HETATM   35  C   UNL     1      -9.163   3.404  72.160  1.00  0.00    -0.111 C  
HETATM   36  C   UNL     1     -10.304   6.755  71.522  1.00  0.00    -0.228 C  
HETATM   37  C   UNL     1      -9.069   4.610  73.140  1.00  0.00    -0.122 C  
HETATM   38  C   UNL     1      -8.876   6.260  71.319  1.00  0.00    -0.139 C  
HETATM   39  C   UNL     1      -8.298   5.790  72.604  1.00  0.00    -0.116 C  
HETATM   40  C   UNL     1      -8.331   4.305  74.472  1.00  0.00    -0.090 C  
BRANCH  35  41
HETATM   41  O   UNL     1      -7.963   2.798  71.657  1.00  0.00    -0.054 OA 
BRANCH  41  42
HETATM   42  C   UNL     1      -8.015   2.655  70.290  1.00  0.00    -0.042 C  
HETATM   43  O   UNL     1      -7.111   2.149  69.631  1.00  0.00    -0.033 OA 
BRANCH  42  44
HETATM   44  C   UNL     1      -9.234   3.174  69.559  1.00  0.00    -0.222 C  
BRANCH  44  45
HETATM   45  C   UNL     1      -9.207   3.540  68.082  1.00  0.00    -0.228 C  
BRANCH  45  46
HETATM   46  C   UNL     1      -8.489   4.853  67.795  1.00  0.00    -0.104 C  
BRANCH  46  47
HETATM   47  C   UNL     1      -8.847   5.479  66.441  1.00  0.00    -0.126 C  
BRANCH  47  48
HETATM   48  C   UNL     1      -9.269   4.459  65.383  1.00  0.00    -0.153 C  
HETATM   49  C   UNL     1     -10.776   4.479  65.157  1.00  0.00    -0.116 C  
ENDBRANCH  47  48
ENDBRANCH  46  47
ENDBRANCH  45  46
ENDBRANCH  44  45
ENDBRANCH  42  44
ENDBRANCH  41  42
ENDBRANCH  35  41
ENDBRANCH  20  22
ENDBRANCH   1  20
TORSDOF 9
ENDMDL
MODEL       34
REMARK 921   NORMALIZED FREE ENERGY PREDICTED BY IDOCK:   -5.54 KCAL/MOL
REMARK 922        TOTAL FREE ENERGY PREDICTED BY IDOCK:  -11.77 KCAL/MOL
REMARK 923 INTER-LIGAND FREE ENERGY PREDICTED BY IDOCK:   -9.48 KCAL/MOL
REMARK 924 INTRA-LIGAND FREE ENERGY PREDICTED BY IDOCK:   -2.29 KCAL/MOL
REMARK 927      BINDING AFFINITY PREDICTED BY RF-SCORE:    0.00 PKD
ROOT
HETATM    1  N   UNL     1     -10.311  10.986  69.081  1.00  0.00    -0.300 N  
HETATM    2  C   UNL     1     -11.115  11.639  68.158  1.00  0.00    -0.242 C  
HETATM    3  C   UNL     1      -8.568   8.590  64.920  1.00  0.00    -0.135 A  
HETATM    4  H   UNL     1     -10.814  10.386  69.734  1.00  0.00     0.000 HD 
HETATM    5  C   UNL     1     -10.888  14.310  65.713  1.00  0.00    -0.303 A  
HETATM    6  O   UNL     1     -12.273  11.927  68.558  1.00  0.00    -0.391 OA 
HETATM    7  C   UNL     1      -9.272  16.008  66.292  1.00  0.00    -0.368 A  
HETATM    8  C   UNL     1     -10.739  11.910  66.675  1.00  0.00    -0.256 C  
HETATM    9  O   UNL     1     -12.013  11.844  65.963  1.00  0.00    -0.511 OA 
HETATM   10  C   UNL     1     -10.205  13.341  66.486  1.00  0.00    -0.283 A  
HETATM   11  C   UNL     1      -9.064  10.962  64.986  1.00  0.00    -0.209 A  
HETATM   12  C   UNL     1      -9.959  10.762  66.047  1.00  0.00    -0.295 A  
HETATM   13  C   UNL     1      -9.016  13.740  67.107  1.00  0.00    -0.241 A  
HETATM   14  C   UNL     1     -10.200   9.437  66.465  1.00  0.00    -0.308 A  
HETATM   15  C   UNL     1      -8.369   9.879  64.433  1.00  0.00    -0.169 A  
HETATM   16  H   UNL     1     -11.784  12.010  65.056  1.00  0.00     0.000 HD 
HETATM   17  C   UNL     1     -10.428  15.628  65.624  1.00  0.00    -0.402 A  
HETATM   18  C   UNL     1      -9.493   8.364  65.934  1.00  0.00    -0.169 A  
HETATM   19  C   UNL     1      -8.557  15.059  67.023  1.00  0.00    -0.266 A  
ENDROOT
BRANCH   1  20
HETATM   20  N   UNL     1      -8.904  11.016  69.265  1.00  0.00    -0.383 NA 
HETATM   21  H   UNL     1      -8.374  11.874  69.422  1.00  0.00     0.000 HD 
BRANCH  20  22
HETATM   22  C   UNL     1      -8.355   9.831  69.213  1.00  0.00    -0.142 C  
HETATM   23  C   UNL     1      -6.586   8.152  69.889  1.00  0.00    -0.039 C  
HETATM   24  C   UNL     1      -7.672   7.417  70.705  1.00  0.00    -0.091 C  
HETATM   25  C   UNL     1      -8.924   8.282  70.748  1.00  0.00    -0.166 C  
HETATM   26  C   UNL     1      -6.851   9.368  69.310  1.00  0.00    -0.049 C  
HETATM   27  C   UNL     1      -5.322   7.265  69.864  1.00  0.00    -0.023 C  
HETATM   28  C   UNL     1      -9.237   8.628  69.298  1.00  0.00    -0.150 C  
HETATM   29  C   UNL     1      -7.235   7.215  72.171  1.00  0.00    -0.072 C  
HETATM   30  C   UNL     1      -5.550   5.687  69.620  1.00  0.00    -0.008 C  
HETATM   31  C   UNL     1      -6.919   5.043  70.090  1.00  0.00    -0.052 C  
HETATM   32  C   UNL     1      -7.373   3.656  69.402  1.00  0.00    -0.049 C  
HETATM   33  C   UNL     1      -6.732   2.434  70.135  1.00  0.00    -0.033 C  
HETATM   34  C   UNL     1      -7.861   1.738  70.925  1.00  0.00    -0.036 C  
HETATM   35  C   UNL     1      -8.935   2.820  71.010  1.00  0.00    -0.095 C  
HETATM   36  C   UNL     1      -7.991   6.115  69.920  1.00  0.00    -0.114 C  
HETATM   37  C   UNL     1      -8.930   3.337  69.542  1.00  0.00    -0.176 C  
HETATM   38  C   UNL     1      -9.417   5.660  70.206  1.00  0.00    -0.202 C  
HETATM   39  C   UNL     1      -9.801   4.545  69.303  1.00  0.00    -0.241 C  
HETATM   40  C   UNL     1      -9.470   2.322  68.497  1.00  0.00    -0.213 C  
BRANCH  35  41
HETATM   41  O   UNL     1     -10.174   2.446  71.631  1.00  0.00    -0.092 OA 
BRANCH  41  42
HETATM   42  C   UNL     1     -10.252   2.931  72.916  1.00  0.00    -0.152 C  
HETATM   43  O   UNL     1     -10.266   2.209  73.908  1.00  0.00    -0.097 OA 
BRANCH  42  44
HETATM   44  C   UNL     1     -10.354   4.428  73.114  1.00  0.00    -0.232 C  
BRANCH  44  45
HETATM   45  C   UNL     1     -11.682   5.169  73.068  1.00  0.00    -0.231 C  
BRANCH  45  46
HETATM   46  C   UNL     1     -11.560   6.603  72.566  1.00  0.00    -0.243 C  
BRANCH  46  47
HETATM   47  C   UNL     1     -12.553   6.963  71.454  1.00  0.00    -0.400 C  
BRANCH  47  48
HETATM   48  C   UNL     1     -13.345   8.243  71.727  1.00  0.00    -0.375 C  
HETATM   49  C   UNL     1     -12.462   9.480  71.623  1.00  0.00    -0.476 C  
ENDBRANCH  47  48
ENDBRANCH  46  47
ENDBRANCH  45  46
ENDBRANCH  44  45
ENDBRANCH  42  44
ENDBRANCH  41  42
ENDBRANCH  35  41
ENDBRANCH  20  22
ENDBRANCH   1  20
TORSDOF 9
ENDMDL
MODEL       35
REMARK 921   NORMALIZED FREE ENERGY PREDICTED BY IDOCK:   -5.53 KCAL/MOL
REMARK 922        TOTAL FREE ENERGY PREDICTED BY IDOCK:  -11.75 KCAL/MOL
REMARK 923 INTER-LIGAND FREE ENERGY PREDICTED BY IDOCK:   -8.27 KCAL/MOL
REMARK 924 INTRA-LIGAND FREE ENERGY PREDICTED BY IDOCK:   -3.48 KCAL/MOL
REMARK 927      BINDING AFFINITY PREDICTED BY RF-SCORE:    0.00 PKD
ROOT
HETATM    1  N   UNL     1      -7.580  11.648  66.404  1.00  0.00    -0.373 N  
HETATM    2  C   UNL     1      -7.714  12.831  67.113  1.00  0.00    -0.067 C  
HETATM    3  C   UNL     1     -11.226  10.052  69.604  1.00  0.00    -0.285 A  
HETATM    4  H   UNL     1      -6.681  11.181  66.521  1.00  0.00     0.000 HD 
HETATM    5  C   UNL     1      -9.941  15.690  67.305  1.00  0.00    -0.236 A  
HETATM    6  O   UNL     1      -6.651  13.484  67.284  1.00  0.00    -0.247 OA 
HETATM    7  C   UNL     1     -11.010  16.216  65.204  1.00  0.00    -0.327 A  
HETATM    8  C   UNL     1      -9.018  13.321  67.801  1.00  0.00    -0.196 C  
HETATM    9  O   UNL     1      -8.553  14.052  68.978  1.00  0.00    -0.358 OA 
HETATM   10  C   UNL     1      -9.767  14.338  66.921  1.00  0.00    -0.268 A  
HETATM   11  C   UNL     1     -11.208  12.254  68.593  1.00  0.00    -0.305 A  
HETATM   12  C   UNL     1      -9.818  12.184  68.424  1.00  0.00    -0.200 A  
HETATM   13  C   UNL     1     -10.285  13.953  65.680  1.00  0.00    -0.344 A  
HETATM   14  C   UNL     1      -9.148  11.056  68.942  1.00  0.00    -0.132 A  
HETATM   15  C   UNL     1     -11.905  11.188  69.174  1.00  0.00    -0.419 A  
HETATM   16  H   UNL     1      -9.350  14.352  69.398  1.00  0.00     0.000 HD 
HETATM   17  C   UNL     1     -10.550  16.616  66.451  1.00  0.00    -0.200 A  
HETATM   18  C   UNL     1      -9.841   9.986  69.497  1.00  0.00    -0.249 A  
HETATM   19  C   UNL     1     -10.891  14.879  64.824  1.00  0.00    -0.382 A  
ENDROOT
BRANCH   1  20
HETATM   20  N   UNL     1      -8.488  10.979  65.541  1.00  0.00    -0.336 NA 
HETATM   21  H   UNL     1      -9.366  11.388  65.222  1.00  0.00     0.000 HD 
BRANCH  20  22
HETATM   22  C   UNL     1      -8.082   9.786  65.196  1.00  0.00    -0.132 C  
HETATM   23  C   UNL     1      -6.325   7.968  65.072  1.00  0.00    -0.048 C  
HETATM   24  C   UNL     1      -7.132   7.192  66.136  1.00  0.00    -0.073 C  
HETATM   25  C   UNL     1      -8.226   8.098  66.682  1.00  0.00    -0.103 C  
HETATM   26  C   UNL     1      -6.673   9.252  64.733  1.00  0.00    -0.080 C  
HETATM   27  C   UNL     1      -5.216   7.037  64.538  1.00  0.00    -0.028 C  
HETATM   28  C   UNL     1      -8.976   8.620  65.463  1.00  0.00    -0.209 C  
HETATM   29  C   UNL     1      -6.249   6.806  67.342  1.00  0.00    -0.040 C  
HETATM   30  C   UNL     1      -5.634   5.508  64.239  1.00  0.00    -0.017 C  
HETATM   31  C   UNL     1      -6.814   4.873  65.085  1.00  0.00    -0.053 C  
HETATM   32  C   UNL     1      -7.578   3.594  64.466  1.00  0.00    -0.076 C  
HETATM   33  C   UNL     1      -6.828   2.270  64.821  1.00  0.00    -0.046 C  
HETATM   34  C   UNL     1      -7.681   1.538  65.879  1.00  0.00    -0.066 C  
HETATM   35  C   UNL     1      -8.576   2.647  66.424  1.00  0.00    -0.112 C  
HETATM   36  C   UNL     1      -7.794   6.002  65.389  1.00  0.00    -0.104 C  
HETATM   37  C   UNL     1      -9.020   3.327  65.096  1.00  0.00    -0.140 C  
HETATM   38  C   UNL     1      -9.076   5.578  66.098  1.00  0.00    -0.155 C  
HETATM   39  C   UNL     1      -9.824   4.590  65.280  1.00  0.00    -0.182 C  
HETATM   40  C   UNL     1      -9.955   2.462  64.207  1.00  0.00    -0.021 C  
BRANCH  35  41
HETATM   41  O   UNL     1      -9.563   2.258  67.391  1.00  0.00    -0.062 OA 
BRANCH  41  42
HETATM   42  C   UNL     1      -9.097   2.431  68.673  1.00  0.00    -0.146 C  
HETATM   43  O   UNL     1      -9.400   1.692  69.605  1.00  0.00    -0.098 OA 
BRANCH  42  44
HETATM   44  C   UNL     1      -8.188   3.608  68.956  1.00  0.00    -0.074 C  
BRANCH  44  45
HETATM   45  C   UNL     1      -8.365   4.502  70.174  1.00  0.00    -0.080 C  
BRANCH  45  46
HETATM   46  C   UNL     1      -8.832   5.912  69.830  1.00  0.00    -0.129 C  
BRANCH  46  47
HETATM   47  C   UNL     1      -9.957   6.436  70.730  1.00  0.00    -0.212 C  
BRANCH  47  48
HETATM   48  C   UNL     1     -11.310   6.543  70.026  1.00  0.00    -0.472 C  
HETATM   49  C   UNL     1     -11.161   6.460  68.512  1.00  0.00    -0.385 C  
ENDBRANCH  47  48
ENDBRANCH  46  47
ENDBRANCH  45  46
ENDBRANCH  44  45
ENDBRANCH  42  44
ENDBRANCH  41  42
ENDBRANCH  35  41
ENDBRANCH  20  22
ENDBRANCH   1  20
TORSDOF 9
ENDMDL
MODEL       36
REMARK 921   NORMALIZED FREE ENERGY PREDICTED BY IDOCK:   -5.48 KCAL/MOL
REMARK 922        TOTAL FREE ENERGY PREDICTED BY IDOCK:  -11.68 KCAL/MOL
REMARK 923 INTER-LIGAND FREE ENERGY PREDICTED BY IDOCK:   -8.40 KCAL/MOL
REMARK 924 INTRA-LIGAND FREE ENERGY PREDICTED BY IDOCK:   -3.28 KCAL/MOL
REMARK 927      BINDING AFFINITY PREDICTED BY RF-SCORE:    0.00 PKD
ROOT
HETATM    1  N   UNL     1     -11.727  11.762  66.621  1.00  0.00    -0.208 N  
HETATM    2  C   UNL     1     -11.703  13.141  66.757  1.00  0.00    -0.385 C  
HETATM    3  C   UNL     1      -6.764  12.196  67.745  1.00  0.00    -0.103 A  
HETATM    4  H   UNL     1     -11.919  11.430  65.676  1.00  0.00     0.000 HD 
HETATM    5  C   UNL     1     -11.676  15.649  69.379  1.00  0.00    -0.395 A  
HETATM    6  O   UNL     1     -12.463  13.775  65.979  1.00  0.00    -0.454 OA 
HETATM    7  C   UNL     1     -12.808  14.946  71.392  1.00  0.00    -0.416 A  
HETATM    8  C   UNL     1     -10.737  13.934  67.680  1.00  0.00    -0.249 C  
HETATM    9  O   UNL     1     -10.504  15.188  66.966  1.00  0.00    -0.271 OA 
HETATM   10  C   UNL     1     -11.416  14.308  69.011  1.00  0.00    -0.318 A  
HETATM   11  C   UNL     1      -8.499  13.486  68.841  1.00  0.00     0.194 A  
HETATM   12  C   UNL     1      -9.341  13.328  67.731  1.00  0.00    -0.209 A  
HETATM   13  C   UNL     1     -11.826  13.309  69.900  1.00  0.00    -0.380 A  
HETATM   14  C   UNL     1      -8.822  12.663  66.600  1.00  0.00    -0.129 A  
HETATM   15  C   UNL     1      -7.220  12.915  68.846  1.00  0.00    -0.042 A  
HETATM   16  H   UNL     1      -9.914  15.673  67.530  1.00  0.00     0.000 HD 
HETATM   17  C   UNL     1     -12.370  15.961  70.553  1.00  0.00    -0.280 A  
HETATM   18  C   UNL     1      -7.563  12.075  66.613  1.00  0.00     0.095 A  
HETATM   19  C   UNL     1     -12.523  13.619  71.073  1.00  0.00    -0.456 A  
ENDROOT
BRANCH   1  20
HETATM   20  N   UNL     1     -11.529  10.734  67.581  1.00  0.00    -0.532 NA 
HETATM   21  H   UNL     1     -11.848  10.799  68.549  1.00  0.00     0.000 HD 
BRANCH  20  22
HETATM   22  C   UNL     1     -10.897   9.697  67.099  1.00  0.00    -0.114 C  
HETATM   23  C   UNL     1      -8.955   8.629  65.877  1.00  0.00    -0.245 C  
HETATM   24  C   UNL     1      -8.485   8.061  67.234  1.00  0.00    -0.125 C  
HETATM   25  C   UNL     1      -9.312   8.692  68.345  1.00  0.00    -0.141 C  
HETATM   26  C   UNL     1      -9.995   9.524  65.818  1.00  0.00    -0.316 C  
HETATM   27  C   UNL     1      -8.100   7.985  64.764  1.00  0.00    -0.143 C  
HETATM   28  C   UNL     1     -10.767   8.477  67.950  1.00  0.00    -0.148 C  
HETATM   29  C   UNL     1      -7.016   8.433  67.522  1.00  0.00    -0.075 C  
HETATM   30  C   UNL     1      -7.819   6.402  64.893  1.00  0.00    -0.113 C  
HETATM   31  C   UNL     1      -7.789   5.759  66.340  1.00  0.00    -0.101 C  
HETATM   32  C   UNL     1      -8.040   4.170  66.462  1.00  0.00    -0.101 C  
HETATM   33  C   UNL     1      -6.709   3.377  66.258  1.00  0.00    -0.048 C  
HETATM   34  C   UNL     1      -6.293   2.829  67.640  1.00  0.00    -0.032 C  
HETATM   35  C   UNL     1      -7.088   3.703  68.607  1.00  0.00    -0.050 C  
HETATM   36  C   UNL     1      -8.789   6.538  67.189  1.00  0.00    -0.110 C  
HETATM   37  C   UNL     1      -8.483   3.688  67.917  1.00  0.00    -0.107 C  
HETATM   38  C   UNL     1      -9.005   5.999  68.598  1.00  0.00    -0.118 C  
HETATM   39  C   UNL     1      -9.503   4.600  68.553  1.00  0.00    -0.206 C  
HETATM   40  C   UNL     1      -9.203   2.312  67.943  1.00  0.00    -0.240 C  
BRANCH  35  41
HETATM   41  O   UNL     1      -6.978   3.382  70.002  1.00  0.00    -0.034 OA 
BRANCH  41  42
HETATM   42  C   UNL     1      -6.482   4.445  70.719  1.00  0.00    -0.030 C  
HETATM   43  O   UNL     1      -5.767   5.314  70.228  1.00  0.00    -0.015 OA 
BRANCH  42  44
HETATM   44  C   UNL     1      -6.811   4.534  72.194  1.00  0.00    -0.050 C  
BRANCH  44  45
HETATM   45  C   UNL     1      -8.012   5.306  72.718  1.00  0.00    -0.102 C  
BRANCH  45  46
HETATM   46  C   UNL     1      -8.307   6.578  71.932  1.00  0.00    -0.115 C  
BRANCH  46  47
HETATM   47  C   UNL     1      -9.768   7.039  72.013  1.00  0.00    -0.166 C  
BRANCH  47  48
HETATM   48  C   UNL     1      -9.931   8.558  72.090  1.00  0.00    -0.387 C  
HETATM   49  C   UNL     1     -11.339   8.989  71.702  1.00  0.00    -0.430 C  
ENDBRANCH  47  48
ENDBRANCH  46  47
ENDBRANCH  45  46
ENDBRANCH  44  45
ENDBRANCH  42  44
ENDBRANCH  41  42
ENDBRANCH  35  41
ENDBRANCH  20  22
ENDBRANCH   1  20
TORSDOF 9
ENDMDL
MODEL       37
REMARK 921   NORMALIZED FREE ENERGY PREDICTED BY IDOCK:   -5.42 KCAL/MOL
REMARK 922        TOTAL FREE ENERGY PREDICTED BY IDOCK:  -11.59 KCAL/MOL
REMARK 923 INTER-LIGAND FREE ENERGY PREDICTED BY IDOCK:   -8.87 KCAL/MOL
REMARK 924 INTRA-LIGAND FREE ENERGY PREDICTED BY IDOCK:   -2.72 KCAL/MOL
REMARK 927      BINDING AFFINITY PREDICTED BY RF-SCORE:    0.00 PKD
ROOT
HETATM    1  N   UNL     1     -11.101  11.483  67.974  1.00  0.00    -0.234 N  
HETATM    2  C   UNL     1     -11.102  12.545  67.083  1.00  0.00    -0.276 C  
HETATM    3  C   UNL     1      -6.111  11.398  66.887  1.00  0.00    -0.135 A  
HETATM    4  H   UNL     1     -11.616  10.662  67.657  1.00  0.00     0.000 HD 
HETATM    5  C   UNL     1     -10.225  16.065  66.995  1.00  0.00    -0.282 A  
HETATM    6  O   UNL     1     -12.132  12.651  66.367  1.00  0.00    -0.530 OA 
HETATM    7  C   UNL     1     -10.476  17.171  69.127  1.00  0.00    -0.296 A  
HETATM    8  C   UNL     1      -9.904  13.501  66.826  1.00  0.00    -0.267 C  
HETATM    9  O   UNL     1     -10.025  13.859  65.414  1.00  0.00    -0.452 OA 
HETATM   10  C   UNL     1     -10.050  14.809  67.624  1.00  0.00    -0.227 A  
HETATM   11  C   UNL     1      -7.373  13.442  67.209  1.00  0.00    -0.039 A  
HETATM   12  C   UNL     1      -8.561  12.783  66.862  1.00  0.00    -0.140 A  
HETATM   13  C   UNL     1     -10.041  14.789  69.023  1.00  0.00    -0.232 A  
HETATM   14  C   UNL     1      -8.471  11.439  66.446  1.00  0.00    -0.160 A  
HETATM   15  C   UNL     1      -6.157  12.747  67.227  1.00  0.00    -0.042 A  
HETATM   16  H   UNL     1      -9.293  14.443  65.257  1.00  0.00     0.000 HD 
HETATM   17  C   UNL     1     -10.442  17.229  67.741  1.00  0.00    -0.371 A  
HETATM   18  C   UNL     1      -7.270  10.741  66.486  1.00  0.00    -0.139 A  
HETATM   19  C   UNL     1     -10.261  15.952  69.770  1.00  0.00    -0.268 A  
ENDROOT
BRANCH   1  20
HETATM   20  N   UNL     1     -10.501  11.350  69.254  1.00  0.00    -0.406 NA 
HETATM   21  H   UNL     1     -10.713  11.963  70.041  1.00  0.00     0.000 HD 
BRANCH  20  22
HETATM   22  C   UNL     1      -9.649  10.361  69.320  1.00  0.00    -0.209 C  
HETATM   23  C   UNL     1      -7.692   9.161  70.385  1.00  0.00    -0.132 C  
HETATM   24  C   UNL     1      -8.691   8.100  70.895  1.00  0.00    -0.152 C  
HETATM   25  C   UNL     1     -10.107   8.595  70.641  1.00  0.00    -0.237 C  
HETATM   26  C   UNL     1      -8.141  10.308  69.778  1.00  0.00    -0.125 C  
HETATM   27  C   UNL     1      -6.262   8.646  70.659  1.00  0.00    -0.037 C  
HETATM   28  C   UNL     1     -10.157   8.966  69.164  1.00  0.00    -0.202 C  
HETATM   29  C   UNL     1      -8.569   7.898  72.420  1.00  0.00    -0.198 C  
HETATM   30  C   UNL     1      -5.979   7.091  70.340  1.00  0.00    -0.024 C  
HETATM   31  C   UNL     1      -7.186   6.070  70.447  1.00  0.00    -0.083 C  
HETATM   32  C   UNL     1      -7.064   4.675  69.646  1.00  0.00    -0.050 C  
HETATM   33  C   UNL     1      -6.298   3.609  70.494  1.00  0.00    -0.027 C  
HETATM   34  C   UNL     1      -7.342   2.576  70.969  1.00  0.00    -0.033 C  
HETATM   35  C   UNL     1      -8.663   3.323  70.804  1.00  0.00    -0.075 C  
HETATM   36  C   UNL     1      -8.443   6.830  70.035  1.00  0.00    -0.140 C  
HETATM   37  C   UNL     1      -8.459   3.944  69.392  1.00  0.00    -0.093 C  
HETATM   38  C   UNL     1      -9.713   5.991  69.951  1.00  0.00    -0.200 C  
HETATM   39  C   UNL     1      -9.551   4.893  68.964  1.00  0.00    -0.224 C  
HETATM   40  C   UNL     1      -8.438   2.914  68.229  1.00  0.00    -0.103 C  
BRANCH  35  41
HETATM   41  O   UNL     1      -9.859   2.584  71.093  1.00  0.00    -0.142 OA 
BRANCH  41  42
HETATM   42  C   UNL     1     -10.244   2.754  72.402  1.00  0.00    -0.139 C  
HETATM   43  O   UNL     1     -10.937   1.945  73.011  1.00  0.00    -0.155 OA 
BRANCH  42  44
HETATM   44  C   UNL     1      -9.816   4.017  73.119  1.00  0.00    -0.176 C  
BRANCH  44  45
HETATM   45  C   UNL     1     -10.787   4.868  73.925  1.00  0.00    -0.355 C  
BRANCH  45  46
HETATM   46  C   UNL     1     -11.253   6.118  73.190  1.00  0.00    -0.146 C  
BRANCH  46  47
HETATM   47  C   UNL     1     -12.344   5.859  72.143  1.00  0.00     0.076 C  
BRANCH  47  48
HETATM   48  C   UNL     1     -12.910   7.133  71.514  1.00  0.00    -0.434 C  
HETATM   49  C   UNL     1     -14.392   7.300  71.824  1.00  0.00    -0.560 C  
ENDBRANCH  47  48
ENDBRANCH  46  47
ENDBRANCH  45  46
ENDBRANCH  44  45
ENDBRANCH  42  44
ENDBRANCH  41  42
ENDBRANCH  35  41
ENDBRANCH  20  22
ENDBRANCH   1  20
TORSDOF 9
ENDMDL
MODEL       38
REMARK 921   NORMALIZED FREE ENERGY PREDICTED BY IDOCK:   -5.39 KCAL/MOL
REMARK 922        TOTAL FREE ENERGY PREDICTED BY IDOCK:  -11.54 KCAL/MOL
REMARK 923 INTER-LIGAND FREE ENERGY PREDICTED BY IDOCK:  -10.35 KCAL/MOL
REMARK 924 INTRA-LIGAND FREE ENERGY PREDICTED BY IDOCK:   -1.20 KCAL/MOL
REMARK 927      BINDING AFFINITY PREDICTED BY RF-SCORE:    0.00 PKD
ROOT
HETATM    1  N   UNL     1      -8.597   8.808  68.871  1.00  0.00    -0.135 N  
HETATM    2  C   UNL     1      -8.049   7.792  69.637  1.00  0.00    -0.122 C  
HETATM    3  C   UNL     1      -9.367   5.016  65.537  1.00  0.00    -0.149 A  
HETATM    4  H   UNL     1      -7.931   9.515  68.560  1.00  0.00     0.000 HD 
HETATM    5  C   UNL     1      -9.129   5.051  71.755  1.00  0.00    -0.160 A  
HETATM    6  O   UNL     1      -7.062   8.122  70.346  1.00  0.00    -0.040 OA 
HETATM    7  C   UNL     1     -11.232   5.467  72.866  1.00  0.00    -0.372 A  
HETATM    8  C   UNL     1      -8.472   6.299  69.583  1.00  0.00    -0.129 C  
HETATM    9  O   UNL     1      -7.240   5.564  69.864  1.00  0.00    -0.064 OA 
HETATM   10  C   UNL     1      -9.456   5.953  70.715  1.00  0.00    -0.192 A  
HETATM   11  C   UNL     1      -9.703   4.783  67.925  1.00  0.00    -0.200 A  
HETATM   12  C   UNL     1      -8.809   5.834  68.171  1.00  0.00    -0.105 A  
HETATM   13  C   UNL     1     -10.718   6.555  70.763  1.00  0.00    -0.290 A  
HETATM   14  C   UNL     1      -8.140   6.402  67.066  1.00  0.00    -0.112 A  
HETATM   15  C   UNL     1      -9.983   4.384  66.613  1.00  0.00    -0.234 A  
HETATM   16  H   UNL     1      -7.499   4.651  69.830  1.00  0.00     0.000 HD 
HETATM   17  C   UNL     1     -10.007   4.818  72.820  1.00  0.00    -0.207 A  
HETATM   18  C   UNL     1      -8.435   6.024  65.762  1.00  0.00    -0.146 A  
HETATM   19  C   UNL     1     -11.595   6.326  71.829  1.00  0.00    -0.358 A  
ENDROOT
BRANCH   1  20
HETATM   20  N   UNL     1      -9.934   9.027  68.446  1.00  0.00    -0.173 NA 
HETATM   21  H   UNL     1     -10.704   8.394  68.662  1.00  0.00     0.000 HD 
BRANCH  20  22
HETATM   22  C   UNL     1     -10.078  10.124  67.749  1.00  0.00    -0.180 C  
HETATM   23  C   UNL     1     -11.498  11.880  66.607  1.00  0.00    -0.382 C  
HETATM   24  C   UNL     1     -11.095  12.858  67.731  1.00  0.00    -0.291 C  
HETATM   25  C   UNL     1     -10.370  12.083  68.822  1.00  0.00    -0.181 C  
HETATM   26  C   UNL     1     -11.156  10.552  66.681  1.00  0.00    -0.006 C  
HETATM   27  C   UNL     1     -12.240  12.681  65.515  1.00  0.00    -0.501 C  
HETATM   28  C   UNL     1      -9.259  11.318  68.115  1.00  0.00    -0.170 C  
HETATM   29  C   UNL     1     -12.335  13.489  68.400  1.00  0.00     0.057 C  
HETATM   30  C   UNL     1     -11.614  14.113  65.117  1.00  0.00    -0.344 C  
HETATM   31  C   UNL     1     -10.796  14.908  66.217  1.00  0.00    -0.331 C  
HETATM   32  C   UNL     1      -9.750  16.028  65.712  1.00  0.00    -0.340 C  
HETATM   33  C   UNL     1     -10.467  17.399  65.487  1.00  0.00    -0.112 C  
HETATM   34  C   UNL     1     -10.023  18.334  66.633  1.00  0.00    -0.370 C  
HETATM   35  C   UNL     1      -9.497  17.360  67.684  1.00  0.00    -0.251 C  
HETATM   36  C   UNL     1     -10.102  13.865  67.088  1.00  0.00    -0.252 C  
HETATM   37  C   UNL     1      -8.640  16.418  66.790  1.00  0.00    -0.270 C  
HETATM   38  C   UNL     1      -9.157  14.425  68.145  1.00  0.00    -0.194 C  
HETATM   39  C   UNL     1      -8.075  15.219  67.510  1.00  0.00    -0.192 C  
HETATM   40  C   UNL     1      -7.369  17.077  66.188  1.00  0.00    -0.225 C  
BRANCH  35  41
HETATM   41  O   UNL     1      -8.924  17.940  68.866  1.00  0.00    -0.233 OA 
BRANCH  41  42
HETATM   42  C   UNL     1      -8.959  19.314  68.812  1.00  0.00    -0.355 C  
HETATM   43  O   UNL     1      -9.938  19.976  69.144  1.00  0.00    -0.330 OA 
BRANCH  42  44
HETATM   44  C   UNL     1      -7.741  20.045  68.289  1.00  0.00    -0.247 C  
BRANCH  44  45
HETATM   45  C   UNL     1      -6.322  19.601  68.610  1.00  0.00    -0.304 C  
BRANCH  45  46
HETATM   46  C   UNL     1      -5.259  20.601  68.173  1.00  0.00    -0.274 C  
BRANCH  46  47
HETATM   47  C   UNL     1      -5.572  21.308  66.849  1.00  0.00    -0.348 C  
BRANCH  47  48
HETATM   48  C   UNL     1      -5.353  20.432  65.614  1.00  0.00    -0.202 C  
HETATM   49  C   UNL     1      -6.524  20.531  64.644  1.00  0.00    -0.332 C  
ENDBRANCH  47  48
ENDBRANCH  46  47
ENDBRANCH  45  46
ENDBRANCH  44  45
ENDBRANCH  42  44
ENDBRANCH  41  42
ENDBRANCH  35  41
ENDBRANCH  20  22
ENDBRANCH   1  20
TORSDOF 9
ENDMDL
MODEL       39
REMARK 921   NORMALIZED FREE ENERGY PREDICTED BY IDOCK:   -5.39 KCAL/MOL
REMARK 922        TOTAL FREE ENERGY PREDICTED BY IDOCK:  -11.53 KCAL/MOL
REMARK 923 INTER-LIGAND FREE ENERGY PREDICTED BY IDOCK:   -7.39 KCAL/MOL
REMARK 924 INTRA-LIGAND FREE ENERGY PREDICTED BY IDOCK:   -4.14 KCAL/MOL
REMARK 927      BINDING AFFINITY PREDICTED BY RF-SCORE:    0.00 PKD
ROOT
HETATM    1  N   UNL     1      -9.898   4.453  67.696  1.00  0.00    -0.149 N  
HETATM    2  C   UNL     1      -8.997   3.410  67.844  1.00  0.00    -0.144 C  
HETATM    3  C   UNL     1      -6.218   7.123  70.024  1.00  0.00    -0.027 A  
HETATM    4  H   UNL     1     -10.756   4.355  68.238  1.00  0.00     0.000 HD 
HETATM    5  C   UNL     1      -5.968   2.146  66.297  1.00  0.00    -0.023 A  
HETATM    6  O   UNL     1      -9.508   2.281  68.068  1.00  0.00    -0.207 OA 
HETATM    7  C   UNL     1      -5.822   2.632  63.936  1.00  0.00    -0.010 A  
HETATM    8  C   UNL     1      -7.451   3.558  67.883  1.00  0.00    -0.061 C  
HETATM    9  O   UNL     1      -7.009   2.498  68.786  1.00  0.00    -0.043 OA 
HETATM   10  C   UNL     1      -6.825   3.252  66.510  1.00  0.00    -0.053 A  
HETATM   11  C   UNL     1      -5.783   5.451  68.325  1.00  0.00    -0.016 A  
HETATM   12  C   UNL     1      -6.999   4.815  68.615  1.00  0.00    -0.052 A  
HETATM   13  C   UNL     1      -7.113   4.062  65.405  1.00  0.00    -0.063 A  
HETATM   14  C   UNL     1      -7.766   5.319  69.686  1.00  0.00    -0.073 A  
HETATM   15  C   UNL     1      -5.402   6.603  69.024  1.00  0.00    -0.013 A  
HETATM   16  H   UNL     1      -6.064   2.589  68.810  1.00  0.00     0.000 HD 
HETATM   17  C   UNL     1      -5.479   1.839  65.022  1.00  0.00    -0.005 A  
HETATM   18  C   UNL     1      -7.402   6.476  70.364  1.00  0.00    -0.085 A  
HETATM   19  C   UNL     1      -6.628   3.753  64.130  1.00  0.00    -0.042 A  
ENDROOT
BRANCH   1  20
HETATM   20  N   UNL     1      -9.822   5.636  66.914  1.00  0.00    -0.146 NA 
HETATM   21  H   UNL     1      -9.387   5.674  65.992  1.00  0.00     0.000 HD 
BRANCH  20  22
HETATM   22  C   UNL     1     -10.367   6.671  67.496  1.00  0.00    -0.208 C  
HETATM   23  C   UNL     1     -10.851   8.096  69.531  1.00  0.00    -0.128 C  
HETATM   24  C   UNL     1      -9.888   9.155  68.950  1.00  0.00    -0.179 C  
HETATM   25  C   UNL     1      -9.160   8.555  67.756  1.00  0.00    -0.143 C  
HETATM   26  C   UNL     1     -10.970   6.862  68.941  1.00  0.00    -0.217 C  
HETATM   27  C   UNL     1     -11.573   8.719  70.745  1.00  0.00    -0.288 C  
HETATM   28  C   UNL     1     -10.248   8.008  66.841  1.00  0.00    -0.385 C  
HETATM   29  C   UNL     1      -8.798   9.544  69.971  1.00  0.00    -0.246 C  
HETATM   30  C   UNL     1     -12.089  10.238  70.580  1.00  0.00    -0.433 C  
HETATM   31  C   UNL     1     -11.303  11.196  69.593  1.00  0.00    -0.366 C  
HETATM   32  C   UNL     1     -12.081  12.489  69.022  1.00  0.00    -0.181 C  
HETATM   33  C   UNL     1     -11.971  13.690  70.016  1.00  0.00    -0.413 C  
HETATM   34  C   UNL     1     -11.004  14.714  69.383  1.00  0.00    -0.279 C  
HETATM   35  C   UNL     1     -10.253  13.880  68.348  1.00  0.00    -0.243 C  
HETATM   36  C   UNL     1     -10.783  10.324  68.455  1.00  0.00    -0.263 C  
HETATM   37  C   UNL     1     -11.438  13.107  67.699  1.00  0.00    -0.366 C  
HETATM   38  C   UNL     1     -10.093  11.075  67.322  1.00  0.00    -0.222 C  
HETATM   39  C   UNL     1     -11.023  12.054  66.701  1.00  0.00    -0.330 C  
HETATM   40  C   UNL     1     -12.409  13.989  66.869  1.00  0.00    -0.321 C  
BRANCH  35  41
HETATM   41  O   UNL     1      -9.317  14.581  67.516  1.00  0.00    -0.186 OA 
BRANCH  41  42
HETATM   42  C   UNL     1      -8.054  14.556  68.060  1.00  0.00    -0.139 C  
HETATM   43  O   UNL     1      -7.629  15.424  68.816  1.00  0.00    -0.125 OA 
BRANCH  42  44
HETATM   44  C   UNL     1      -7.132  13.416  67.683  1.00  0.00    -0.168 C  
BRANCH  44  45
HETATM   45  C   UNL     1      -6.727  12.332  68.672  1.00  0.00    -0.083 C  
BRANCH  45  46
HETATM   46  C   UNL     1      -5.523  11.517  68.219  1.00  0.00    -0.042 C  
BRANCH  46  47
HETATM   47  C   UNL     1      -5.865  10.091  67.770  1.00  0.00    -0.042 C  
BRANCH  47  48
HETATM   48  C   UNL     1      -5.646   9.845  66.277  1.00  0.00    -0.052 C  
HETATM   49  C   UNL     1      -6.856  10.272  65.457  1.00  0.00    -0.134 C  
ENDBRANCH  47  48
ENDBRANCH  46  47
ENDBRANCH  45  46
ENDBRANCH  44  45
ENDBRANCH  42  44
ENDBRANCH  41  42
ENDBRANCH  35  41
ENDBRANCH  20  22
ENDBRANCH   1  20
TORSDOF 9
ENDMDL
MODEL       40
REMARK 921   NORMALIZED FREE ENERGY PREDICTED BY IDOCK:   -5.38 KCAL/MOL
REMARK 922        TOTAL FREE ENERGY PREDICTED BY IDOCK:  -11.52 KCAL/MOL
REMARK 923 INTER-LIGAND FREE ENERGY PREDICTED BY IDOCK:  -10.37 KCAL/MOL
REMARK 924 INTRA-LIGAND FREE ENERGY PREDICTED BY IDOCK:   -1.15 KCAL/MOL
REMARK 927      BINDING AFFINITY PREDICTED BY RF-SCORE:    0.00 PKD
ROOT
HETATM    1  N   UNL     1     -10.576   8.009  68.336  1.00  0.00    -0.374 N  
HETATM    2  C   UNL     1     -10.410   6.635  68.404  1.00  0.00    -0.193 C  
HETATM    3  C   UNL     1     -10.305   7.660  73.424  1.00  0.00    -0.374 A  
HETATM    4  H   UNL     1     -11.483   8.311  67.981  1.00  0.00     0.000 HD 
HETATM    5  C   UNL     1      -7.766   4.203  68.916  1.00  0.00    -0.054 A  
HETATM    6  O   UNL     1     -11.029   5.971  67.532  1.00  0.00    -0.304 OA 
HETATM    7  C   UNL     1      -5.608   4.952  68.132  1.00  0.00    -0.016 A  
HETATM    8  C   UNL     1      -9.645   5.878  69.525  1.00  0.00    -0.140 C  
HETATM    9  O   UNL     1     -10.354   4.608  69.652  1.00  0.00    -0.169 OA 
HETATM   10  C   UNL     1      -8.208   5.536  69.089  1.00  0.00    -0.095 A  
HETATM   11  C   UNL     1      -8.896   6.384  71.921  1.00  0.00    -0.138 A  
HETATM   12  C   UNL     1      -9.849   6.501  70.900  1.00  0.00    -0.201 A  
HETATM   13  C   UNL     1      -7.288   6.556  68.821  1.00  0.00    -0.087 A  
HETATM   14  C   UNL     1     -11.069   7.138  71.208  1.00  0.00    -0.275 A  
HETATM   15  C   UNL     1      -9.124   6.968  73.173  1.00  0.00    -0.161 A  
HETATM   16  H   UNL     1      -9.887   4.145  70.337  1.00  0.00     0.000 HD 
HETATM   17  C   UNL     1      -6.482   3.918  68.437  1.00  0.00    -0.037 A  
HETATM   18  C   UNL     1     -11.287   7.739  72.442  1.00  0.00    -0.400 A  
HETATM   19  C   UNL     1      -6.006   6.273  68.339  1.00  0.00    -0.016 A  
ENDROOT
BRANCH   1  20
HETATM   20  N   UNL     1      -9.692   9.066  68.679  1.00  0.00    -0.157 NA 
HETATM   21  H   UNL     1      -9.006   9.004  69.432  1.00  0.00     0.000 HD 
BRANCH  20  22
HETATM   22  C   UNL     1      -9.846  10.126  67.931  1.00  0.00    -0.151 C  
HETATM   23  C   UNL     1     -11.282  11.781  66.663  1.00  0.00    -0.383 C  
HETATM   24  C   UNL     1     -10.956  12.820  67.759  1.00  0.00    -0.266 C  
HETATM   25  C   UNL     1     -10.246  12.117  68.907  1.00  0.00    -0.057 C  
HETATM   26  C   UNL     1     -10.897  10.471  66.807  1.00  0.00    -0.209 C  
HETATM   27  C   UNL     1     -12.008  12.509  65.512  1.00  0.00    -0.500 C  
HETATM   28  C   UNL     1      -9.083  11.364  68.275  1.00  0.00    -0.179 C  
HETATM   29  C   UNL     1     -12.241  13.432  68.354  1.00  0.00    -0.127 C  
HETATM   30  C   UNL     1     -11.418  13.945  65.076  1.00  0.00    -0.343 C  
HETATM   31  C   UNL     1     -10.670  14.814  66.170  1.00  0.00    -0.314 C  
HETATM   32  C   UNL     1      -9.646  15.949  65.656  1.00  0.00    -0.266 C  
HETATM   33  C   UNL     1     -10.400  17.282  65.346  1.00  0.00     0.006 C  
HETATM   34  C   UNL     1     -10.033  18.280  66.466  1.00  0.00    -0.380 C  
HETATM   35  C   UNL     1      -9.514  17.371  67.577  1.00  0.00    -0.250 C  
HETATM   36  C   UNL     1      -9.975  13.834  67.110  1.00  0.00    -0.243 C  
HETATM   37  C   UNL     1      -8.591  16.424  66.756  1.00  0.00    -0.270 C  
HETATM   38  C   UNL     1      -9.090  14.471  68.176  1.00  0.00    -0.191 C  
HETATM   39  C   UNL     1      -8.012  15.277  67.547  1.00  0.00    -0.197 C  
HETATM   40  C   UNL     1      -7.322  17.102  66.173  1.00  0.00    -0.281 C  
BRANCH  35  41
HETATM   41  O   UNL     1      -9.006  18.019  68.753  1.00  0.00    -0.289 OA 
BRANCH  41  42
HETATM   42  C   UNL     1      -9.190  19.380  68.687  1.00  0.00    -0.378 C  
HETATM   43  O   UNL     1     -10.156  19.954  69.183  1.00  0.00    -0.418 OA 
BRANCH  42  44
HETATM   44  C   UNL     1      -8.167  20.210  67.942  1.00  0.00    -0.255 C  
BRANCH  44  45
HETATM   45  C   UNL     1      -6.669  19.989  68.094  1.00  0.00    -0.326 C  
BRANCH  45  46
HETATM   46  C   UNL     1      -6.143  20.329  69.483  1.00  0.00    -0.373 C  
BRANCH  46  47
HETATM   47  C   UNL     1      -5.402  19.176  70.171  1.00  0.00    -0.229 C  
BRANCH  47  48
HETATM   48  C   UNL     1      -6.125  17.832  70.072  1.00  0.00    -0.117 C  
HETATM   49  C   UNL     1      -5.161  16.665  70.247  1.00  0.00    -0.200 C  
ENDBRANCH  47  48
ENDBRANCH  46  47
ENDBRANCH  45  46
ENDBRANCH  44  45
ENDBRANCH  42  44
ENDBRANCH  41  42
ENDBRANCH  35  41
ENDBRANCH  20  22
ENDBRANCH   1  20
TORSDOF 9
ENDMDL
MODEL       41
REMARK 921   NORMALIZED FREE ENERGY PREDICTED BY IDOCK:   -5.32 KCAL/MOL
REMARK 922        TOTAL FREE ENERGY PREDICTED BY IDOCK:  -11.43 KCAL/MOL
REMARK 923 INTER-LIGAND FREE ENERGY PREDICTED BY IDOCK:   -8.66 KCAL/MOL
REMARK 924 INTRA-LIGAND FREE ENERGY PREDICTED BY IDOCK:   -2.78 KCAL/MOL
REMARK 927      BINDING AFFINITY PREDICTED BY RF-SCORE:    0.00 PKD
ROOT
HETATM    1  N   UNL     1      -8.081  10.027  66.705  1.00  0.00    -0.117 N  
HETATM    2  C   UNL     1      -8.315  11.394  66.717  1.00  0.00    -0.163 C  
HETATM    3  C   UNL     1     -11.574  10.036  70.431  1.00  0.00    -0.379 A  
HETATM    4  H   UNL     1      -7.146   9.753  67.004  1.00  0.00     0.000 HD 
HETATM    5  C   UNL     1     -10.778  13.776  65.522  1.00  0.00    -0.304 A  
HETATM    6  O   UNL     1      -7.311  12.117  66.482  1.00  0.00     0.108 OA 
HETATM    7  C   UNL     1     -11.891  13.072  63.497  1.00  0.00    -0.582 A  
HETATM    8  C   UNL     1      -9.655  12.071  67.116  1.00  0.00    -0.192 C  
HETATM    9  O   UNL     1      -9.252  13.333  67.732  1.00  0.00    -0.191 OA 
HETATM   10  C   UNL     1     -10.490  12.436  65.874  1.00  0.00    -0.284 A  
HETATM   11  C   UNL     1     -11.745  11.404  68.438  1.00  0.00    -0.373 A  
HETATM   12  C   UNL     1     -10.354  11.359  68.267  1.00  0.00    -0.209 A  
HETATM   13  C   UNL     1     -10.974  11.432  65.028  1.00  0.00    -0.271 A  
HETATM   14  C   UNL     1      -9.590  10.707  69.257  1.00  0.00    -0.164 A  
HETATM   15  C   UNL     1     -12.348  10.739  69.512  1.00  0.00    -0.208 A  
HETATM   16  H   UNL     1     -10.072  13.747  67.976  1.00  0.00     0.000 HD 
HETATM   17  C   UNL     1     -11.465  14.087  64.343  1.00  0.00    -0.357 A  
HETATM   18  C   UNL     1     -10.188  10.026  70.311  1.00  0.00    -0.266 A  
HETATM   19  C   UNL     1     -11.658  11.742  63.847  1.00  0.00    -0.469 A  
ENDROOT
BRANCH   1  20
HETATM   20  N   UNL     1      -8.930   8.947  66.346  1.00  0.00    -0.149 NA 
HETATM   21  H   UNL     1      -9.799   9.063  65.824  1.00  0.00     0.000 HD 
BRANCH  20  22
HETATM   22  C   UNL     1      -8.484   7.788  66.752  1.00  0.00    -0.126 C  
HETATM   23  C   UNL     1      -6.624   6.244  67.502  1.00  0.00    -0.052 C  
HETATM   24  C   UNL     1      -7.212   6.317  68.928  1.00  0.00    -0.084 C  
HETATM   25  C   UNL     1      -8.288   7.393  68.962  1.00  0.00    -0.126 C  
HETATM   26  C   UNL     1      -7.114   7.047  66.503  1.00  0.00    -0.077 C  
HETATM   27  C   UNL     1      -5.529   5.155  67.490  1.00  0.00    -0.012 C  
HETATM   28  C   UNL     1      -9.238   7.063  67.818  1.00  0.00    -0.124 C  
HETATM   29  C   UNL     1      -6.143   6.742  69.958  1.00  0.00    -0.027 C  
HETATM   30  C   UNL     1      -5.864   3.783  68.269  1.00  0.00    -0.026 C  
HETATM   31  C   UNL     1      -6.862   3.840  69.498  1.00  0.00    -0.041 C  
HETATM   32  C   UNL     1      -7.602   2.473  69.930  1.00  0.00    -0.043 C  
HETATM   33  C   UNL     1      -6.708   1.638  70.902  1.00  0.00    -0.024 C  
HETATM   34  C   UNL     1      -7.346   1.743  72.305  1.00  0.00    -0.038 C  
HETATM   35  C   UNL     1      -8.242   2.973  72.181  1.00  0.00    -0.062 C  
HETATM   36  C   UNL     1      -7.876   4.938  69.190  1.00  0.00    -0.072 C  
HETATM   37  C   UNL     1      -8.917   2.691  70.807  1.00  0.00    -0.161 C  
HETATM   38  C   UNL     1      -9.010   5.078  70.200  1.00  0.00    -0.147 C  
HETATM   39  C   UNL     1      -9.784   3.815  70.296  1.00  0.00    -0.222 C  
HETATM   40  C   UNL     1      -9.895   1.485  70.802  1.00  0.00    -0.073 C  
BRANCH  35  41
HETATM   41  O   UNL     1      -9.052   3.294  73.322  1.00  0.00    -0.089 OA 
BRANCH  41  42
HETATM   42  C   UNL     1      -8.983   4.635  73.618  1.00  0.00    -0.103 C  
HETATM   43  O   UNL     1      -7.924   5.246  73.731  1.00  0.00    -0.104 OA 
BRANCH  42  44
HETATM   44  C   UNL     1     -10.276   5.389  73.845  1.00  0.00    -0.260 C  
BRANCH  44  45
HETATM   45  C   UNL     1     -10.343   6.909  73.860  1.00  0.00    -0.398 C  
BRANCH  45  46
HETATM   46  C   UNL     1     -11.267   7.487  72.795  1.00  0.00    -0.403 C  
BRANCH  46  47
HETATM   47  C   UNL     1     -12.052   6.431  72.008  1.00  0.00    -0.353 C  
BRANCH  47  48
HETATM   48  C   UNL     1     -13.007   7.021  70.968  1.00  0.00    -0.213 C  
HETATM   49  C   UNL     1     -14.308   7.488  71.607  1.00  0.00    -0.621 C  
ENDBRANCH  47  48
ENDBRANCH  46  47
ENDBRANCH  45  46
ENDBRANCH  44  45
ENDBRANCH  42  44
ENDBRANCH  41  42
ENDBRANCH  35  41
ENDBRANCH  20  22
ENDBRANCH   1  20
TORSDOF 9
ENDMDL
MODEL       42
REMARK 921   NORMALIZED FREE ENERGY PREDICTED BY IDOCK:   -5.24 KCAL/MOL
REMARK 922        TOTAL FREE ENERGY PREDICTED BY IDOCK:  -11.31 KCAL/MOL
REMARK 923 INTER-LIGAND FREE ENERGY PREDICTED BY IDOCK:   -8.04 KCAL/MOL
REMARK 924 INTRA-LIGAND FREE ENERGY PREDICTED BY IDOCK:   -3.27 KCAL/MOL
REMARK 927      BINDING AFFINITY PREDICTED BY RF-SCORE:    0.00 PKD
ROOT
HETATM    1  N   UNL     1     -11.285  11.113  66.245  1.00  0.00    -0.115 N  
HETATM    2  C   UNL     1     -10.963  12.442  66.019  1.00  0.00    -0.289 C  
HETATM    3  C   UNL     1      -6.493  10.907  67.999  1.00  0.00    -0.058 A  
HETATM    4  H   UNL     1     -11.450  10.565  65.401  1.00  0.00     0.000 HD 
HETATM    5  C   UNL     1     -10.636  15.548  67.866  1.00  0.00    -0.274 A  
HETATM    6  O   UNL     1     -11.477  12.956  64.992  1.00  0.00    -0.300 OA 
HETATM    7  C   UNL     1     -12.096  15.683  69.785  1.00  0.00    -0.346 A  
HETATM    8  C   UNL     1      -9.942  13.271  66.847  1.00  0.00    -0.250 C  
HETATM    9  O   UNL     1      -9.360  14.197  65.878  1.00  0.00    -0.507 OA 
HETATM   10  C   UNL     1     -10.649  14.133  67.908  1.00  0.00    -0.244 A  
HETATM   11  C   UNL     1      -7.993  12.761  68.428  1.00  0.00    -0.137 A  
HETATM   12  C   UNL     1      -8.732  12.452  67.277  1.00  0.00    -0.191 A  
HETATM   13  C   UNL     1     -11.363  13.530  68.949  1.00  0.00    -0.332 A  
HETATM   14  C   UNL     1      -8.265  11.404  66.457  1.00  0.00    -0.152 A  
HETATM   15  C   UNL     1      -6.884  11.986  68.787  1.00  0.00    -0.094 A  
HETATM   16  H   UNL     1      -8.736  14.704  66.384  1.00  0.00     0.000 HD 
HETATM   17  C   UNL     1     -11.357  16.310  68.792  1.00  0.00    -0.329 A  
HETATM   18  C   UNL     1      -7.179  10.618  66.824  1.00  0.00    -0.119 A  
HETATM   19  C   UNL     1     -12.088  14.291  69.872  1.00  0.00    -0.404 A  
ENDROOT
BRANCH   1  20
HETATM   20  N   UNL     1     -11.423  10.388  67.459  1.00  0.00    -0.538 NA 
HETATM   21  H   UNL     1     -12.235  10.467  68.072  1.00  0.00     0.000 HD 
BRANCH  20  22
HETATM   22  C   UNL     1     -10.404   9.610  67.710  1.00  0.00    -0.236 C  
HETATM   23  C   UNL     1      -9.112   8.025  69.201  1.00  0.00    -0.145 C  
HETATM   24  C   UNL     1      -9.523   6.881  68.248  1.00  0.00    -0.126 C  
HETATM   25  C   UNL     1     -10.561   7.406  67.267  1.00  0.00    -0.393 C  
HETATM   26  C   UNL     1      -9.642   9.282  69.051  1.00  0.00    -0.159 C  
HETATM   27  C   UNL     1      -8.067   7.471  70.194  1.00  0.00    -0.119 C  
HETATM   28  C   UNL     1      -9.950   8.659  66.652  1.00  0.00    -0.357 C  
HETATM   29  C   UNL     1     -10.199   5.724  69.015  1.00  0.00    -0.282 C  
HETATM   30  C   UNL     1      -6.922   6.516  69.581  1.00  0.00    -0.067 C  
HETATM   31  C   UNL     1      -7.263   5.666  68.288  1.00  0.00    -0.075 C  
HETATM   32  C   UNL     1      -6.033   5.148  67.382  1.00  0.00    -0.026 C  
HETATM   33  C   UNL     1      -5.471   3.795  67.926  1.00  0.00    -0.016 C  
HETATM   34  C   UNL     1      -5.906   2.694  66.934  1.00  0.00    -0.023 C  
HETATM   35  C   UNL     1      -7.057   3.352  66.177  1.00  0.00    -0.063 C  
HETATM   36  C   UNL     1      -8.240   6.497  67.461  1.00  0.00    -0.121 C  
HETATM   37  C   UNL     1      -6.441   4.752  65.891  1.00  0.00    -0.040 C  
HETATM   38  C   UNL     1      -8.608   5.909  66.104  1.00  0.00    -0.137 C  
HETATM   39  C   UNL     1      -7.396   5.737  65.263  1.00  0.00    -0.075 C  
HETATM   40  C   UNL     1      -5.257   4.745  64.886  1.00  0.00    -0.013 C  
BRANCH  35  41
HETATM   41  O   UNL     1      -7.636   2.594  65.104  1.00  0.00    -0.073 OA 
BRANCH  41  42
HETATM   42  C   UNL     1      -8.919   2.205  65.407  1.00  0.00    -0.121 C  
HETATM   43  O   UNL     1      -9.629   1.565  64.636  1.00  0.00    -0.120 OA 
BRANCH  42  44
HETATM   44  C   UNL     1      -9.496   2.610  66.746  1.00  0.00     0.052 C  
BRANCH  44  45
HETATM   45  C   UNL     1      -9.398   1.725  67.979  1.00  0.00    -0.222 C  
BRANCH  45  46
HETATM   46  C   UNL     1      -9.260   2.508  69.279  1.00  0.00    -0.196 C  
BRANCH  46  47
HETATM   47  C   UNL     1      -8.039   2.117  70.120  1.00  0.00    -0.056 C  
BRANCH  47  48
HETATM   48  C   UNL     1      -7.506   3.250  70.998  1.00  0.00    -0.037 C  
HETATM   49  C   UNL     1      -8.622   3.911  71.795  1.00  0.00    -0.114 C  
ENDBRANCH  47  48
ENDBRANCH  46  47
ENDBRANCH  45  46
ENDBRANCH  44  45
ENDBRANCH  42  44
ENDBRANCH  41  42
ENDBRANCH  35  41
ENDBRANCH  20  22
ENDBRANCH   1  20
TORSDOF 9
ENDMDL
MODEL       43
REMARK 921   NORMALIZED FREE ENERGY PREDICTED BY IDOCK:   -5.23 KCAL/MOL
REMARK 922        TOTAL FREE ENERGY PREDICTED BY IDOCK:  -11.30 KCAL/MOL
REMARK 923 INTER-LIGAND FREE ENERGY PREDICTED BY IDOCK:   -9.50 KCAL/MOL
REMARK 924 INTRA-LIGAND FREE ENERGY PREDICTED BY IDOCK:   -1.80 KCAL/MOL
REMARK 927      BINDING AFFINITY PREDICTED BY RF-SCORE:    0.00 PKD
ROOT
HETATM    1  N   UNL     1     -10.083   7.622  69.407  1.00  0.00    -0.191 N  
HETATM    2  C   UNL     1     -10.382   6.343  69.853  1.00  0.00    -0.196 C  
HETATM    3  C   UNL     1      -7.585   7.905  73.853  1.00  0.00    -0.202 A  
HETATM    4  H   UNL     1     -10.887   8.245  69.334  1.00  0.00     0.000 HD 
HETATM    5  C   UNL     1      -8.811   3.083  70.116  1.00  0.00    -0.148 A  
HETATM    6  O   UNL     1     -11.522   5.912  69.538  1.00  0.00    -0.283 OA 
HETATM    7  C   UNL     1      -7.168   2.667  68.395  1.00  0.00    -0.048 A  
HETATM    8  C   UNL     1      -9.487   5.490  70.793  1.00  0.00    -0.166 C  
HETATM    9  O   UNL     1     -10.435   4.704  71.579  1.00  0.00    -0.145 OA 
HETATM   10  C   UNL     1      -8.638   4.482  69.996  1.00  0.00    -0.103 A  
HETATM   11  C   UNL     1      -7.577   5.936  72.440  1.00  0.00    -0.101 A  
HETATM   12  C   UNL     1      -8.794   6.324  71.863  1.00  0.00    -0.139 A  
HETATM   13  C   UNL     1      -7.669   4.933  69.092  1.00  0.00    -0.072 A  
HETATM   14  C   UNL     1      -9.427   7.476  72.374  1.00  0.00    -0.202 A  
HETATM   15  C   UNL     1      -6.975   6.729  73.424  1.00  0.00    -0.075 A  
HETATM   16  H   UNL     1      -9.888   4.182  72.154  1.00  0.00     0.000 HD 
HETATM   17  C   UNL     1      -8.087   2.189  69.318  1.00  0.00    -0.061 A  
HETATM   18  C   UNL     1      -8.820   8.278  73.334  1.00  0.00    -0.270 A  
HETATM   19  C   UNL     1      -6.948   4.041  68.292  1.00  0.00    -0.048 A  
ENDROOT
BRANCH   1  20
HETATM   20  N   UNL     1      -8.844   8.206  69.036  1.00  0.00    -0.144 NA 
HETATM   21  H   UNL     1      -7.937   7.820  69.303  1.00  0.00     0.000 HD 
BRANCH  20  22
HETATM   22  C   UNL     1      -8.982   9.289  68.319  1.00  0.00    -0.129 C  
HETATM   23  C   UNL     1     -10.215  10.709  66.625  1.00  0.00    -0.284 C  
HETATM   24  C   UNL     1     -10.625  11.641  67.787  1.00  0.00    -0.227 C  
HETATM   25  C   UNL     1     -10.246  10.981  69.104  1.00  0.00    -0.187 C  
HETATM   26  C   UNL     1      -9.576   9.521  66.876  1.00  0.00    -0.217 C  
HETATM   27  C   UNL     1     -10.616  11.391  65.299  1.00  0.00    -0.336 C  
HETATM   28  C   UNL     1      -8.773  10.615  68.973  1.00  0.00    -0.152 C  
HETATM   29  C   UNL     1     -12.154  11.848  67.830  1.00  0.00     0.019 C  
HETATM   30  C   UNL     1     -10.316  12.970  65.176  1.00  0.00    -0.321 C  
HETATM   31  C   UNL     1     -10.306  13.839  66.501  1.00  0.00    -0.286 C  
HETATM   32  C   UNL     1      -9.511  15.242  66.474  1.00  0.00    -0.308 C  
HETATM   33  C   UNL     1     -10.420  16.388  65.923  1.00  0.00    -0.350 C  
HETATM   34  C   UNL     1     -10.791  17.286  67.122  1.00  0.00    -0.085 C  
HETATM   35  C   UNL     1     -10.510  16.387  68.323  1.00  0.00    -0.302 C  
HETATM   36  C   UNL     1      -9.784  12.936  67.615  1.00  0.00    -0.212 C  
HETATM   37  C   UNL     1      -9.126  15.803  67.918  1.00  0.00    -0.186 C  
HETATM   38  C   UNL     1      -9.580  13.617  68.963  1.00  0.00     0.217 C  
HETATM   39  C   UNL     1      -8.606  14.732  68.844  1.00  0.00    -0.160 C  
HETATM   40  C   UNL     1      -7.964  16.834  67.913  1.00  0.00    -0.182 C  
BRANCH  35  41
HETATM   41  O   UNL     1     -10.684  16.976  69.621  1.00  0.00    -0.283 OA 
BRANCH  41  42
HETATM   42  C   UNL     1     -11.228  16.075  70.506  1.00  0.00    -0.378 C  
HETATM   43  O   UNL     1     -10.603  15.593  71.446  1.00  0.00     0.072 OA 
BRANCH  42  44
HETATM   44  C   UNL     1     -12.659  15.632  70.293  1.00  0.00    -0.319 C  
BRANCH  44  45
HETATM   45  C   UNL     1     -13.665  15.543  71.431  1.00  0.00    -0.532 C  
BRANCH  45  46
HETATM   46  C   UNL     1     -14.409  14.214  71.482  1.00  0.00    -0.271 C  
BRANCH  46  47
HETATM   47  C   UNL     1     -13.708  13.136  72.317  1.00  0.00    -0.647 C  
BRANCH  47  48
HETATM   48  C   UNL     1     -12.714  12.289  71.521  1.00  0.00    -0.339 C  
HETATM   49  C   UNL     1     -12.872  10.805  71.828  1.00  0.00    -0.528 C  
ENDBRANCH  47  48
ENDBRANCH  46  47
ENDBRANCH  45  46
ENDBRANCH  44  45
ENDBRANCH  42  44
ENDBRANCH  41  42
ENDBRANCH  35  41
ENDBRANCH  20  22
ENDBRANCH   1  20
TORSDOF 9
ENDMDL
MODEL       44
REMARK 921   NORMALIZED FREE ENERGY PREDICTED BY IDOCK:   -5.16 KCAL/MOL
REMARK 922        TOTAL FREE ENERGY PREDICTED BY IDOCK:  -11.18 KCAL/MOL
REMARK 923 INTER-LIGAND FREE ENERGY PREDICTED BY IDOCK:   -9.36 KCAL/MOL
REMARK 924 INTRA-LIGAND FREE ENERGY PREDICTED BY IDOCK:   -1.82 KCAL/MOL
REMARK 927      BINDING AFFINITY PREDICTED BY RF-SCORE:    0.00 PKD
ROOT
HETATM    1  N   UNL     1      -8.617   4.529  70.020  1.00  0.00    -0.075 N  
HETATM    2  C   UNL     1      -7.543   4.150  70.810  1.00  0.00    -0.048 C  
HETATM    3  C   UNL     1     -11.306   2.075  73.602  1.00  0.00    -0.319 A  
HETATM    4  H   UNL     1      -8.643   4.093  69.099  1.00  0.00     0.000 HD 
HETATM    5  C   UNL     1      -5.902   5.146  73.889  1.00  0.00    -0.031 A  
HETATM    6  O   UNL     1      -6.487   3.865  70.187  1.00  0.00    -0.030 OA 
HETATM    7  C   UNL     1      -6.081   7.509  74.352  1.00  0.00    -0.081 A  
HETATM    8  C   UNL     1      -7.593   3.933  72.348  1.00  0.00    -0.071 C  
HETATM    9  O   UNL     1      -6.626   2.865  72.593  1.00  0.00    -0.017 OA 
HETATM   10  C   UNL     1      -7.080   5.171  73.105  1.00  0.00    -0.085 A  
HETATM   11  C   UNL     1      -9.412   3.502  74.099  1.00  0.00    -0.115 A  
HETATM   12  C   UNL     1      -8.899   3.298  72.810  1.00  0.00    -0.096 A  
HETATM   13  C   UNL     1      -7.764   6.389  73.015  1.00  0.00    -0.098 A  
HETATM   14  C   UNL     1      -9.580   2.397  71.965  1.00  0.00    -0.200 A  
HETATM   15  C   UNL     1     -10.614   2.897  74.486  1.00  0.00    -0.166 A  
HETATM   16  H   UNL     1      -6.657   2.732  73.534  1.00  0.00     0.000 HD 
HETATM   17  C   UNL     1      -5.408   6.305  74.499  1.00  0.00    -0.048 A  
HETATM   18  C   UNL     1     -10.785   1.815  72.339  1.00  0.00    -0.111 A  
HETATM   19  C   UNL     1      -7.269   7.549  73.621  1.00  0.00    -0.108 A  
ENDROOT
BRANCH   1  20
HETATM   20  N   UNL     1      -9.686   5.426  70.282  1.00  0.00    -0.179 NA 
HETATM   21  H   UNL     1     -10.600   5.127  70.624  1.00  0.00     0.000 HD 
BRANCH  20  22
HETATM   22  C   UNL     1      -9.381   6.673  70.041  1.00  0.00    -0.158 C  
HETATM   23  C   UNL     1      -7.927   8.457  68.988  1.00  0.00    -0.111 C  
HETATM   24  C   UNL     1      -9.079   8.734  67.997  1.00  0.00    -0.144 C  
HETATM   25  C   UNL     1     -10.136   7.651  68.156  1.00  0.00    -0.220 C  
HETATM   26  C   UNL     1      -7.990   7.393  69.852  1.00  0.00    -0.121 C  
HETATM   27  C   UNL     1      -6.862   9.560  68.805  1.00  0.00    -0.052 C  
HETATM   28  C   UNL     1     -10.470   7.614  69.642  1.00  0.00    -0.235 C  
HETATM   29  C   UNL     1      -8.595   8.655  66.534  1.00  0.00    -0.124 C  
HETATM   30  C   UNL     1      -7.404  11.070  68.640  1.00  0.00    -0.104 C  
HETATM   31  C   UNL     1      -8.838  11.289  68.002  1.00  0.00    -0.148 C  
HETATM   32  C   UNL     1      -9.593  12.680  68.311  1.00  0.00    -0.208 C  
HETATM   33  C   UNL     1      -9.153  13.790  67.302  1.00  0.00    -0.232 C  
HETATM   34  C   UNL     1     -10.342  14.027  66.345  1.00  0.00    -0.289 C  
HETATM   35  C   UNL     1     -11.180  12.763  66.521  1.00  0.00    -0.307 C  
HETATM   36  C   UNL     1      -9.692  10.097  68.423  1.00  0.00    -0.157 C  
HETATM   37  C   UNL     1     -11.170  12.634  68.072  1.00  0.00    -0.308 C  
HETATM   38  C   UNL     1     -11.158  10.170  68.011  1.00  0.00    -0.302 C  
HETATM   39  C   UNL     1     -11.807  11.370  68.596  1.00  0.00    -0.377 C  
HETATM   40  C   UNL     1     -11.962  13.742  68.819  1.00  0.00    -0.400 C  
BRANCH  35  41
HETATM   41  O   UNL     1     -12.425  12.714  65.808  1.00  0.00    -0.607 OA 
BRANCH  41  42
HETATM   42  C   UNL     1     -12.257  13.073  64.492  1.00  0.00    -0.416 C  
HETATM   43  O   UNL     1     -12.569  14.175  64.049  1.00  0.00    -0.691 OA 
BRANCH  42  44
HETATM   44  C   UNL     1     -11.688  12.049  63.534  1.00  0.00    -0.566 C  
BRANCH  44  45
HETATM   45  C   UNL     1     -10.195  11.919  63.270  1.00  0.00    -0.428 C  
BRANCH  45  46
HETATM   46  C   UNL     1      -9.586  10.646  63.844  1.00  0.00    -0.356 C  
BRANCH  46  47
HETATM   47  C   UNL     1      -9.220   9.595  62.789  1.00  0.00    -0.179 C  
BRANCH  47  48
HETATM   48  C   UNL     1      -7.754   9.160  62.835  1.00  0.00    -0.116 C  
HETATM   49  C   UNL     1      -6.925  10.081  63.721  1.00  0.00    -0.124 C  
ENDBRANCH  47  48
ENDBRANCH  46  47
ENDBRANCH  45  46
ENDBRANCH  44  45
ENDBRANCH  42  44
ENDBRANCH  41  42
ENDBRANCH  35  41
ENDBRANCH  20  22
ENDBRANCH   1  20
TORSDOF 9
ENDMDL
MODEL       45
REMARK 921   NORMALIZED FREE ENERGY PREDICTED BY IDOCK:   -5.14 KCAL/MOL
REMARK 922        TOTAL FREE ENERGY PREDICTED BY IDOCK:  -11.16 KCAL/MOL
REMARK 923 INTER-LIGAND FREE ENERGY PREDICTED BY IDOCK:   -9.73 KCAL/MOL
REMARK 924 INTRA-LIGAND FREE ENERGY PREDICTED BY IDOCK:   -1.43 KCAL/MOL
REMARK 927      BINDING AFFINITY PREDICTED BY RF-SCORE:    0.00 PKD
ROOT
HETATM    1  N   UNL     1      -9.634  18.220  67.695  1.00  0.00    -0.278 N  
HETATM    2  C   UNL     1      -8.779  18.857  68.581  1.00  0.00    -0.339 C  
HETATM    3  C   UNL     1      -6.031  19.474  64.300  1.00  0.00    -0.284 A  
HETATM    4  H   UNL     1     -10.528  18.690  67.555  1.00  0.00     0.000 HD 
HETATM    5  C   UNL     1      -5.698  18.205  70.383  1.00  0.00    -0.167 A  
HETATM    6  O   UNL     1      -9.339  19.496  69.510  1.00  0.00    -0.134 OA 
HETATM    7  C   UNL     1      -5.383  15.875  70.935  1.00  0.00    -0.091 A  
HETATM    8  C   UNL     1      -7.235  18.941  68.433  1.00  0.00    -0.280 C  
HETATM    9  O   UNL     1      -6.887  20.236  69.015  1.00  0.00    -0.250 OA 
HETATM   10  C   UNL     1      -6.531  17.872  69.288  1.00  0.00    -0.248 A  
HETATM   11  C   UNL     1      -5.539  18.669  66.533  1.00  0.00    -0.170 A  
HETATM   12  C   UNL     1      -6.791  19.110  66.985  1.00  0.00    -0.206 A  
HETATM   13  C   UNL     1      -6.721  16.513  69.018  1.00  0.00    -0.200 A  
HETATM   14  C   UNL     1      -7.610  19.813  66.077  1.00  0.00    -0.340 A  
HETATM   15  C   UNL     1      -5.168  18.847  65.194  1.00  0.00    -0.207 A  
HETATM   16  H   UNL     1      -5.943  20.287  68.925  1.00  0.00     0.000 HD 
HETATM   17  C   UNL     1      -5.137  17.216  71.199  1.00  0.00    -0.121 A  
HETATM   18  C   UNL     1      -7.253  19.968  64.742  1.00  0.00     0.349 A  
HETATM   19  C   UNL     1      -6.164  15.523  69.835  1.00  0.00    -0.157 A  
ENDROOT
BRANCH   1  20
HETATM   20  N   UNL     1      -9.470  17.022  66.951  1.00  0.00    -0.248 NA 
HETATM   21  H   UNL     1      -9.155  17.001  65.981  1.00  0.00     0.000 HD 
BRANCH  20  22
HETATM   22  C   UNL     1      -9.765  15.949  67.636  1.00  0.00    -0.223 C  
HETATM   23  C   UNL     1     -11.415  14.264  68.556  1.00  0.00    -0.329 C  
HETATM   24  C   UNL     1     -10.856  13.245  67.538  1.00  0.00    -0.276 C  
HETATM   25  C   UNL     1      -9.931  13.970  66.572  1.00  0.00    -0.289 C  
HETATM   26  C   UNL     1     -11.023  15.579  68.512  1.00  0.00    -0.288 C  
HETATM   27  C   UNL     1     -12.357  13.512  69.521  1.00  0.00    -0.198 C  
HETATM   28  C   UNL     1      -8.934  14.724  67.442  1.00  0.00    -0.200 C  
HETATM   29  C   UNL     1     -11.983  12.630  66.680  1.00  0.00    -0.382 C  
HETATM   30  C   UNL     1     -11.853  12.074  70.051  1.00  0.00    -0.392 C  
HETATM   31  C   UNL     1     -10.885  11.229  69.125  1.00  0.00    -0.269 C  
HETATM   32  C   UNL     1      -9.977  10.094  69.826  1.00  0.00    -0.258 C  
HETATM   33  C   UNL     1     -10.764   8.750  69.954  1.00  0.00    -0.228 C  
HETATM   34  C   UNL     1     -10.161   7.773  68.922  1.00  0.00    -0.220 C  
HETATM   35  C   UNL     1      -9.433   8.703  67.955  1.00  0.00    -0.140 C  
HETATM   36  C   UNL     1     -10.020  12.229  68.363  1.00  0.00    -0.210 C  
HETATM   37  C   UNL     1      -8.712   9.645  68.963  1.00  0.00    -0.142 C  
HETATM   38  C   UNL     1      -8.926  11.615  67.497  1.00  0.00    -0.165 C  
HETATM   39  C   UNL     1      -7.994  10.808  68.325  1.00  0.00    -0.118 C  
HETATM   40  C   UNL     1      -7.584   8.968  69.788  1.00  0.00    -0.075 C  
BRANCH  35  41
HETATM   41  O   UNL     1      -8.685   8.077  66.903  1.00  0.00    -0.124 OA 
BRANCH  41  42
HETATM   42  C   UNL     1      -9.064   8.556  65.671  1.00  0.00    -0.132 C  
HETATM   43  O   UNL     1      -9.954   9.388  65.517  1.00  0.00    -0.281 OA 
BRANCH  42  44
HETATM   44  C   UNL     1      -8.370   8.010  64.442  1.00  0.00    -0.026 C  
BRANCH  44  45
HETATM   45  C   UNL     1      -8.025   8.882  63.243  1.00  0.00    -0.157 C  
BRANCH  45  46
HETATM   46  C   UNL     1      -9.243   9.512  62.580  1.00  0.00    -0.152 C  
BRANCH  46  47
HETATM   47  C   UNL     1      -9.159  11.036  62.434  1.00  0.00    -0.328 C  
BRANCH  47  48
HETATM   48  C   UNL     1      -9.819  11.802  63.581  1.00  0.00    -0.357 C  
HETATM   49  C   UNL     1     -11.227  12.252  63.216  1.00  0.00    -0.399 C  
ENDBRANCH  47  48
ENDBRANCH  46  47
ENDBRANCH  45  46
ENDBRANCH  44  45
ENDBRANCH  42  44
ENDBRANCH  41  42
ENDBRANCH  35  41
ENDBRANCH  20  22
ENDBRANCH   1  20
TORSDOF 9
ENDMDL
MODEL       46
REMARK 921   NORMALIZED FREE ENERGY PREDICTED BY IDOCK:   -5.07 KCAL/MOL
REMARK 922        TOTAL FREE ENERGY PREDICTED BY IDOCK:  -11.05 KCAL/MOL
REMARK 923 INTER-LIGAND FREE ENERGY PREDICTED BY IDOCK:   -8.49 KCAL/MOL
REMARK 924 INTRA-LIGAND FREE ENERGY PREDICTED BY IDOCK:   -2.56 KCAL/MOL
REMARK 927      BINDING AFFINITY PREDICTED BY RF-SCORE:    0.00 PKD
ROOT
HETATM    1  N   UNL     1     -11.212  11.142  67.424  1.00  0.00    -0.303 N  
HETATM    2  C   UNL     1     -10.954  12.150  68.341  1.00  0.00    -0.235 C  
HETATM    3  C   UNL     1     -12.258  15.079  64.343  1.00  0.00    -0.353 A  
HETATM    4  H   UNL     1     -12.017  10.558  67.650  1.00  0.00     0.000 HD 
HETATM    5  C   UNL     1      -8.341  14.534  69.147  1.00  0.00    -0.001 A  
HETATM    6  O   UNL     1     -11.264  11.890  69.533  1.00  0.00    -0.231 OA 
HETATM    7  C   UNL     1      -6.124  13.755  68.589  1.00  0.00    -0.088 A  
HETATM    8  C   UNL     1     -10.449  13.576  67.987  1.00  0.00    -0.242 C  
HETATM    9  O   UNL     1     -11.057  14.436  69.000  1.00  0.00    -0.241 OA 
HETATM   10  C   UNL     1      -8.924  13.691  68.172  1.00  0.00    -0.191 A  
HETATM   11  C   UNL     1     -10.400  15.059  65.899  1.00  0.00    -0.329 A  
HETATM   12  C   UNL     1     -11.059  14.114  66.699  1.00  0.00    -0.314 A  
HETATM   13  C   UNL     1      -8.057  12.929  67.382  1.00  0.00    -0.181 A  
HETATM   14  C   UNL     1     -12.367  13.735  66.330  1.00  0.00    -0.479 A  
HETATM   15  C   UNL     1     -10.998  15.531  64.724  1.00  0.00    -0.416 A  
HETATM   16  H   UNL     1     -10.748  15.308  68.784  1.00  0.00     0.000 HD 
HETATM   17  C   UNL     1      -6.957  14.559  69.355  1.00  0.00    -0.151 A  
HETATM   18  C   UNL     1     -12.951  14.184  65.151  1.00  0.00    -0.207 A  
HETATM   19  C   UNL     1      -6.673  12.950  67.591  1.00  0.00    -0.153 A  
ENDROOT
BRANCH   1  20
HETATM   20  N   UNL     1     -10.542  10.791  66.223  1.00  0.00    -0.226 NA 
HETATM   21  H   UNL     1     -10.465  11.413  65.418  1.00  0.00     0.000 HD 
BRANCH  20  22
HETATM   22  C   UNL     1     -10.032   9.588  66.254  1.00  0.00    -0.274 C  
HETATM   23  C   UNL     1      -8.167   7.935  65.812  1.00  0.00    -0.130 C  
HETATM   24  C   UNL     1      -7.926   7.883  67.337  1.00  0.00    -0.122 C  
HETATM   25  C   UNL     1      -8.751   8.975  68.003  1.00  0.00    -0.129 C  
HETATM   26  C   UNL     1      -9.046   8.843  65.275  1.00  0.00    -0.196 C  
HETATM   27  C   UNL     1      -7.316   6.827  65.154  1.00  0.00    -0.085 C  
HETATM   28  C   UNL     1     -10.176   8.780  67.502  1.00  0.00    -0.309 C  
HETATM   29  C   UNL     1      -6.452   8.180  67.685  1.00  0.00    -0.057 C  
HETATM   30  C   UNL     1      -7.296   5.394  65.893  1.00  0.00    -0.077 C  
HETATM   31  C   UNL     1      -7.508   5.355  67.463  1.00  0.00    -0.084 C  
HETATM   32  C   UNL     1      -8.012   3.969  68.119  1.00  0.00    -0.077 C  
HETATM   33  C   UNL     1      -6.805   3.023  68.420  1.00  0.00    -0.048 C  
HETATM   34  C   UNL     1      -6.616   3.006  69.953  1.00  0.00    -0.033 C  
HETATM   35  C   UNL     1      -7.358   4.263  70.402  1.00  0.00    -0.045 C  
HETATM   36  C   UNL     1      -8.454   6.500  67.808  1.00  0.00    -0.118 C  
HETATM   37  C   UNL     1      -8.664   4.132  69.566  1.00  0.00    -0.124 C  
HETATM   38  C   UNL     1      -8.889   6.568  69.268  1.00  0.00    -0.132 C  
HETATM   39  C   UNL     1      -9.589   5.320  69.664  1.00  0.00    -0.225 C  
HETATM   40  C   UNL     1      -9.586   2.954  69.986  1.00  0.00    -0.121 C  
BRANCH  35  41
HETATM   41  O   UNL     1      -7.436   4.490  71.818  1.00  0.00    -0.069 OA 
BRANCH  41  42
HETATM   42  C   UNL     1      -6.833   5.676  72.164  1.00  0.00    -0.076 C  
HETATM   43  O   UNL     1      -5.766   6.053  71.687  1.00  0.00    -0.025 OA 
BRANCH  42  44
HETATM   44  C   UNL     1      -7.502   6.545  73.207  1.00  0.00    -0.085 C  
BRANCH  44  45
HETATM   45  C   UNL     1      -8.357   7.750  72.840  1.00  0.00    -0.188 C  
BRANCH  45  46
HETATM   46  C   UNL     1      -9.705   7.775  73.548  1.00  0.00    -0.319 C  
BRANCH  46  47
HETATM   47  C   UNL     1     -10.804   6.980  72.831  1.00  0.00    -0.334 C  
BRANCH  47  48
HETATM   48  C   UNL     1     -11.531   7.774  71.745  1.00  0.00    -0.307 C  
HETATM   49  C   UNL     1     -12.680   6.975  71.143  1.00  0.00    -0.361 C  
ENDBRANCH  47  48
ENDBRANCH  46  47
ENDBRANCH  45  46
ENDBRANCH  44  45
ENDBRANCH  42  44
ENDBRANCH  41  42
ENDBRANCH  35  41
ENDBRANCH  20  22
ENDBRANCH   1  20
TORSDOF 9
ENDMDL
MODEL       47
REMARK 921   NORMALIZED FREE ENERGY PREDICTED BY IDOCK:   -5.06 KCAL/MOL
REMARK 922        TOTAL FREE ENERGY PREDICTED BY IDOCK:  -11.04 KCAL/MOL
REMARK 923 INTER-LIGAND FREE ENERGY PREDICTED BY IDOCK:   -9.79 KCAL/MOL
REMARK 924 INTRA-LIGAND FREE ENERGY PREDICTED BY IDOCK:   -1.24 KCAL/MOL
REMARK 927      BINDING AFFINITY PREDICTED BY RF-SCORE:    0.00 PKD
ROOT
HETATM    1  N   UNL     1     -10.770   9.907  66.809  1.00  0.00    -0.137 N  
HETATM    2  C   UNL     1     -10.185   8.655  66.919  1.00  0.00    -0.296 C  
HETATM    3  C   UNL     1      -6.247  11.477  68.589  1.00  0.00    -0.052 A  
HETATM    4  H   UNL     1     -11.552  10.068  67.443  1.00  0.00     0.000 HD 
HETATM    5  C   UNL     1      -7.830   6.551  65.132  1.00  0.00    -0.111 A  
HETATM    6  O   UNL     1     -10.961   7.723  67.256  1.00  0.00    -0.221 OA 
HETATM    7  C   UNL     1      -7.830   6.922  62.746  1.00  0.00    -0.114 A  
HETATM    8  C   UNL     1      -8.665   8.360  66.786  1.00  0.00    -0.128 C  
HETATM    9  O   UNL     1      -8.435   7.239  67.695  1.00  0.00    -0.116 OA 
HETATM   10  C   UNL     1      -8.313   7.859  65.373  1.00  0.00    -0.146 A  
HETATM   11  C   UNL     1      -6.496   9.712  66.947  1.00  0.00    -0.067 A  
HETATM   12  C   UNL     1      -7.799   9.454  67.397  1.00  0.00    -0.102 A  
HETATM   13  C   UNL     1      -8.491   8.692  64.263  1.00  0.00    -0.101 A  
HETATM   14  C   UNL     1      -8.265  10.178  68.514  1.00  0.00    -0.111 A  
HETATM   15  C   UNL     1      -5.730  10.724  67.538  1.00  0.00    -0.044 A  
HETATM   16  H   UNL     1      -7.506   7.058  67.614  1.00  0.00     0.000 HD 
HETATM   17  C   UNL     1      -7.598   6.089  63.831  1.00  0.00    -0.088 A  
HETATM   18  C   UNL     1      -7.516  11.199  69.087  1.00  0.00    -0.109 A  
HETATM   19  C   UNL     1      -8.263   8.230  62.962  1.00  0.00    -0.118 A  
ENDROOT
BRANCH   1  20
HETATM   20  N   UNL     1     -10.459  11.002  65.961  1.00  0.00    -0.256 NA 
HETATM   21  H   UNL     1     -10.083  10.894  65.018  1.00  0.00     0.000 HD 
BRANCH  20  22
HETATM   22  C   UNL     1     -10.702  12.162  66.511  1.00  0.00    -0.255 C  
HETATM   23  C   UNL     1     -10.720  13.742  68.489  1.00  0.00    -0.274 C  
HETATM   24  C   UNL     1      -9.555  14.503  67.820  1.00  0.00    -0.215 C  
HETATM   25  C   UNL     1      -9.056  13.695  66.631  1.00  0.00    -0.189 C  
HETATM   26  C   UNL     1     -11.168  12.554  67.965  1.00  0.00    -0.316 C  
HETATM   27  C   UNL     1     -11.207  14.571  69.697  1.00  0.00    -0.292 C  
HETATM   28  C   UNL     1     -10.289  13.401  65.786  1.00  0.00    -0.296 C  
HETATM   29  C   UNL     1      -8.354  14.649  68.779  1.00  0.00    -0.163 C  
HETATM   30  C   UNL     1     -11.339  16.163  69.476  1.00  0.00    -0.321 C  
HETATM   31  C   UNL     1     -10.389  16.856  68.413  1.00  0.00    -0.338 C  
HETATM   32  C   UNL     1     -10.850  18.279  67.808  1.00  0.00    -0.257 C  
HETATM   33  C   UNL     1     -10.400  19.452  68.737  1.00  0.00    -0.288 C  
HETATM   34  C   UNL     1      -9.242  20.178  68.017  1.00  0.00    -0.327 C  
HETATM   35  C   UNL     1      -8.771  19.144  66.998  1.00  0.00    -0.294 C  
HETATM   36  C   UNL     1     -10.156  15.838  67.301  1.00  0.00    -0.247 C  
HETATM   37  C   UNL     1     -10.140  18.665  66.433  1.00  0.00    -0.435 C  
HETATM   38  C   UNL     1      -9.358  16.350  66.107  1.00  0.00    -0.360 C  
HETATM   39  C   UNL     1     -10.046  17.503  65.474  1.00  0.00     0.149 C  
HETATM   40  C   UNL     1     -10.903  19.728  65.596  1.00  0.00    -0.337 C  
BRANCH  35  41
HETATM   41  O   UNL     1      -7.732  19.557  66.098  1.00  0.00    -0.288 OA 
BRANCH  41  42
HETATM   42  C   UNL     1      -6.838  20.394  66.723  1.00  0.00    -0.252 C  
HETATM   43  O   UNL     1      -6.063  21.127  66.114  1.00  0.00    -0.255 OA 
BRANCH  42  44
HETATM   44  C   UNL     1      -6.785  20.389  68.235  1.00  0.00    -0.313 C  
BRANCH  44  45
HETATM   45  C   UNL     1      -5.474  20.346  69.006  1.00  0.00    -0.311 C  
BRANCH  45  46
HETATM   46  C   UNL     1      -5.658  20.158  70.507  1.00  0.00    -0.333 C  
BRANCH  46  47
HETATM   47  C   UNL     1      -5.126  18.822  71.041  1.00  0.00    -0.279 C  
BRANCH  47  48
HETATM   48  C   UNL     1      -5.546  17.613  70.203  1.00  0.00    -0.248 C  
HETATM   49  C   UNL     1      -5.184  16.303  70.892  1.00  0.00    -0.142 C  
ENDBRANCH  47  48
ENDBRANCH  46  47
ENDBRANCH  45  46
ENDBRANCH  44  45
ENDBRANCH  42  44
ENDBRANCH  41  42
ENDBRANCH  35  41
ENDBRANCH  20  22
ENDBRANCH   1  20
TORSDOF 9
ENDMDL
MODEL       48
REMARK 921   NORMALIZED FREE ENERGY PREDICTED BY IDOCK:   -5.01 KCAL/MOL
REMARK 922        TOTAL FREE ENERGY PREDICTED BY IDOCK:  -10.96 KCAL/MOL
REMARK 923 INTER-LIGAND FREE ENERGY PREDICTED BY IDOCK:  -10.04 KCAL/MOL
REMARK 924 INTRA-LIGAND FREE ENERGY PREDICTED BY IDOCK:   -0.93 KCAL/MOL
REMARK 927      BINDING AFFINITY PREDICTED BY RF-SCORE:    0.00 PKD
ROOT
HETATM    1  N   UNL     1      -8.042   6.469  67.604  1.00  0.00    -0.117 N  
HETATM    2  C   UNL     1      -7.292   5.834  68.582  1.00  0.00    -0.084 C  
HETATM    3  C   UNL     1      -8.938   1.680  66.072  1.00  0.00    -0.095 A  
HETATM    4  H   UNL     1      -7.498   7.028  66.947  1.00  0.00     0.000 HD 
HETATM    5  C   UNL     1      -7.783   4.055  71.706  1.00  0.00    -0.070 A  
HETATM    6  O   UNL     1      -6.246   6.436  68.939  1.00  0.00    -0.030 OA 
HETATM    7  C   UNL     1      -9.728   4.791  72.934  1.00  0.00    -0.167 A  
HETATM    8  C   UNL     1      -7.576   4.416  69.150  1.00  0.00    -0.055 C  
HETATM    9  O   UNL     1      -6.253   3.880  69.462  1.00  0.00    -0.026 OA 
HETATM   10  C   UNL     1      -8.345   4.490  70.482  1.00  0.00    -0.087 A  
HETATM   11  C   UNL     1      -8.892   2.350  68.400  1.00  0.00    -0.154 A  
HETATM   12  C   UNL     1      -8.074   3.445  68.086  1.00  0.00    -0.079 A  
HETATM   13  C   UNL     1      -9.637   5.025  70.524  1.00  0.00    -0.252 A  
HETATM   14  C   UNL     1      -7.634   3.577  66.753  1.00  0.00    -0.080 A  
HETATM   15  C   UNL     1      -9.325   1.479  67.393  1.00  0.00    -0.067 A  
HETATM   16  H   UNL     1      -6.427   3.013  69.810  1.00  0.00     0.000 HD 
HETATM   17  C   UNL     1      -8.467   4.211  72.917  1.00  0.00    -0.100 A  
HETATM   18  C   UNL     1      -8.082   2.728  65.748  1.00  0.00    -0.087 A  
HETATM   19  C   UNL     1     -10.320   5.185  71.735  1.00  0.00    -0.274 A  
ENDROOT
BRANCH   1  20
HETATM   20  N   UNL     1      -9.442   6.470  67.367  1.00  0.00    -0.123 NA 
HETATM   21  H   UNL     1      -9.942   5.685  66.948  1.00  0.00     0.000 HD 
BRANCH  20  22
HETATM   22  C   UNL     1     -10.024   7.579  67.739  1.00  0.00    -0.171 C  
HETATM   23  C   UNL     1     -10.464   9.421  69.418  1.00  0.00    -0.231 C  
HETATM   24  C   UNL     1      -9.642  10.366  68.515  1.00  0.00    -0.161 C  
HETATM   25  C   UNL     1      -8.962   9.542  67.431  1.00  0.00    -0.141 C  
HETATM   26  C   UNL     1     -10.525   8.076  69.149  1.00  0.00    -0.217 C  
HETATM   27  C   UNL     1     -11.138  10.273  70.516  1.00  0.00    -0.381 C  
HETATM   28  C   UNL     1     -10.069   8.722  66.780  1.00  0.00    -0.359 C  
HETATM   29  C   UNL     1      -8.511  11.058  69.305  1.00  0.00     0.051 C  
HETATM   30  C   UNL     1     -11.791  11.672  70.049  1.00  0.00    -0.435 C  
HETATM   31  C   UNL     1     -11.168  12.410  68.793  1.00  0.00    -0.318 C  
HETATM   32  C   UNL     1     -12.094  13.475  68.012  1.00  0.00    -0.298 C  
HETATM   33  C   UNL     1     -12.007  14.885  68.680  1.00  0.00    -0.276 C  
HETATM   34  C   UNL     1     -11.182  15.784  67.733  1.00  0.00    -0.286 C  
HETATM   35  C   UNL     1     -10.448  14.773  66.856  1.00  0.00    -0.277 C  
HETATM   36  C   UNL     1     -10.668  11.322  67.847  1.00  0.00    -0.250 C  
HETATM   37  C   UNL     1     -11.611  13.793  66.524  1.00  0.00    -0.386 C  
HETATM   38  C   UNL     1     -10.135  11.819  66.508  1.00  0.00    -0.232 C  
HETATM   39  C   UNL     1     -11.189  12.558  65.767  1.00  0.00    -0.356 C  
HETATM   40  C   UNL     1     -12.716  14.386  65.607  1.00  0.00    -0.302 C  
BRANCH  35  41
HETATM   41  O   UNL     1      -9.642  15.309  65.796  1.00  0.00    -0.334 OA 
BRANCH  41  42
HETATM   42  C   UNL     1      -9.847  16.661  65.652  1.00  0.00    -0.114 C  
HETATM   43  O   UNL     1     -10.750  17.137  64.969  1.00  0.00    -0.712 OA 
BRANCH  42  44
HETATM   44  C   UNL     1      -8.894  17.611  66.346  1.00  0.00    -0.263 C  
BRANCH  44  45
HETATM   45  C   UNL     1      -9.134  19.112  66.402  1.00  0.00    -0.362 C  
BRANCH  45  46
HETATM   46  C   UNL     1      -8.553  19.774  67.645  1.00  0.00    -0.376 C  
BRANCH  46  47
HETATM   47  C   UNL     1      -8.225  18.796  68.780  1.00  0.00    -0.329 C  
BRANCH  47  48
HETATM   48  C   UNL     1      -6.761  18.833  69.222  1.00  0.00    -0.288 C  
HETATM   49  C   UNL     1      -6.514  19.932  70.248  1.00  0.00    -0.287 C  
ENDBRANCH  47  48
ENDBRANCH  46  47
ENDBRANCH  45  46
ENDBRANCH  44  45
ENDBRANCH  42  44
ENDBRANCH  41  42
ENDBRANCH  35  41
ENDBRANCH  20  22
ENDBRANCH   1  20
TORSDOF 9
ENDMDL
MODEL       49
REMARK 921   NORMALIZED FREE ENERGY PREDICTED BY IDOCK:   -4.99 KCAL/MOL
REMARK 922        TOTAL FREE ENERGY PREDICTED BY IDOCK:  -10.93 KCAL/MOL
REMARK 923 INTER-LIGAND FREE ENERGY PREDICTED BY IDOCK:   -9.63 KCAL/MOL
REMARK 924 INTRA-LIGAND FREE ENERGY PREDICTED BY IDOCK:   -1.30 KCAL/MOL
REMARK 927      BINDING AFFINITY PREDICTED BY RF-SCORE:    0.00 PKD
ROOT
HETATM    1  N   UNL     1     -10.436   8.216  68.453  1.00  0.00    -0.316 N  
HETATM    2  C   UNL     1     -10.418   7.064  67.684  1.00  0.00    -0.237 C  
HETATM    3  C   UNL     1      -6.642   5.860  70.932  1.00  0.00    -0.045 A  
HETATM    4  H   UNL     1     -11.283   8.347  69.005  1.00  0.00     0.000 HD 
HETATM    5  C   UNL     1      -8.486   5.577  64.996  1.00  0.00    -0.147 A  
HETATM    6  O   UNL     1     -11.540   6.674  67.267  1.00  0.00    -0.021 OA 
HETATM    7  C   UNL     1      -7.479   7.205  63.523  1.00  0.00    -0.100 A  
HETATM    8  C   UNL     1      -9.168   6.179  67.421  1.00  0.00    -0.112 C  
HETATM    9  O   UNL     1      -9.702   4.824  67.311  1.00  0.00    -0.158 OA 
HETATM   10  C   UNL     1      -8.525   6.508  66.061  1.00  0.00    -0.145 A  
HETATM   11  C   UNL     1      -6.881   5.832  68.520  1.00  0.00    -0.063 A  
HETATM   12  C   UNL     1      -8.258   6.071  68.637  1.00  0.00    -0.107 A  
HETATM   13  C   UNL     1      -7.975   7.773  65.826  1.00  0.00    -0.114 A  
HETATM   14  C   UNL     1      -8.811   6.113  69.934  1.00  0.00    -0.140 A  
HETATM   15  C   UNL     1      -6.080   5.735  69.665  1.00  0.00    -0.025 A  
HETATM   16  H   UNL     1      -8.937   4.283  67.150  1.00  0.00     0.000 HD 
HETATM   17  C   UNL     1      -7.974   5.927  63.741  1.00  0.00    -0.118 A  
HETATM   18  C   UNL     1      -8.014   6.042  71.071  1.00  0.00    -0.116 A  
HETATM   19  C   UNL     1      -7.466   8.125  64.571  1.00  0.00    -0.102 A  
ENDROOT
BRANCH   1  20
HETATM   20  N   UNL     1      -9.468   9.244  68.601  1.00  0.00    -0.145 NA 
HETATM   21  H   UNL     1      -8.655   9.168  69.212  1.00  0.00     0.000 HD 
BRANCH  20  22
HETATM   22  C   UNL     1      -9.725  10.299  67.873  1.00  0.00    -0.145 C  
HETATM   23  C   UNL     1     -11.325  11.910  66.755  1.00  0.00    -0.393 C  
HETATM   24  C   UNL     1     -10.921  12.960  67.814  1.00  0.00    -0.269 C  
HETATM   25  C   UNL     1     -10.082  12.280  68.886  1.00  0.00     0.002 C  
HETATM   26  C   UNL     1     -10.892  10.612  66.859  1.00  0.00    -0.267 C  
HETATM   27  C   UNL     1     -12.183  12.616  65.682  1.00  0.00    -0.474 C  
HETATM   28  C   UNL     1      -8.967  11.557  68.140  1.00  0.00    -0.172 C  
HETATM   29  C   UNL     1     -12.158  13.538  68.534  1.00  0.00    -0.303 C  
HETATM   30  C   UNL     1     -11.679  14.066  65.191  1.00  0.00    -0.353 C  
HETATM   31  C   UNL     1     -10.850  14.958  66.206  1.00  0.00    -0.331 C  
HETATM   32  C   UNL     1      -9.914  16.120  65.594  1.00  0.00    -0.330 C  
HETATM   33  C   UNL     1     -10.732  17.431  65.361  1.00  0.00    -0.040 C  
HETATM   34  C   UNL     1     -10.284  18.441  66.440  1.00  0.00    -0.431 C  
HETATM   35  C   UNL     1      -9.632  17.549  67.493  1.00  0.00    -0.265 C  
HETATM   36  C   UNL     1     -10.038  14.000  67.071  1.00  0.00    -0.255 C  
HETATM   37  C   UNL     1      -8.769  16.626  66.583  1.00  0.00    -0.280 C  
HETATM   38  C   UNL     1      -9.070  14.663  68.044  1.00  0.00    -0.189 C  
HETATM   39  C   UNL     1      -8.083  15.497  67.312  1.00  0.00    -0.226 C  
HETATM   40  C   UNL     1      -7.583  17.338  65.877  1.00  0.00    -0.063 C  
BRANCH  35  41
HETATM   41  O   UNL     1      -9.028  18.214  68.613  1.00  0.00    -0.311 OA 
BRANCH  41  42
HETATM   42  C   UNL     1      -9.250  19.570  68.563  1.00  0.00    -0.356 C  
HETATM   43  O   UNL     1     -10.287  20.097  68.953  1.00  0.00    -0.382 OA 
BRANCH  42  44
HETATM   44  C   UNL     1      -8.173  20.454  67.971  1.00  0.00    -0.063 C  
BRANCH  44  45
HETATM   45  C   UNL     1      -6.708  20.043  67.933  1.00  0.00    -0.295 C  
BRANCH  45  46
HETATM   46  C   UNL     1      -5.891  20.602  69.091  1.00  0.00    -0.395 C  
BRANCH  46  47
HETATM   47  C   UNL     1      -6.167  19.922  70.438  1.00  0.00    -0.330 C  
BRANCH  47  48
HETATM   48  C   UNL     1      -5.254  18.729  70.725  1.00  0.00    -0.255 C  
HETATM   49  C   UNL     1      -5.718  17.480  69.986  1.00  0.00    -0.245 C  
ENDBRANCH  47  48
ENDBRANCH  46  47
ENDBRANCH  45  46
ENDBRANCH  44  45
ENDBRANCH  42  44
ENDBRANCH  41  42
ENDBRANCH  35  41
ENDBRANCH  20  22
ENDBRANCH   1  20
TORSDOF 9
ENDMDL
MODEL       50
REMARK 921   NORMALIZED FREE ENERGY PREDICTED BY IDOCK:   -4.99 KCAL/MOL
REMARK 922        TOTAL FREE ENERGY PREDICTED BY IDOCK:  -10.92 KCAL/MOL
REMARK 923 INTER-LIGAND FREE ENERGY PREDICTED BY IDOCK:   -7.60 KCAL/MOL
REMARK 924 INTRA-LIGAND FREE ENERGY PREDICTED BY IDOCK:   -3.32 KCAL/MOL
REMARK 927      BINDING AFFINITY PREDICTED BY RF-SCORE:    0.00 PKD
ROOT
HETATM    1  N   UNL     1      -7.383   5.171  71.316  1.00  0.00    -0.075 N  
HETATM    2  C   UNL     1      -7.894   6.029  72.277  1.00  0.00    -0.102 C  
HETATM    3  C   UNL     1      -9.368   1.589  74.369  1.00  0.00    -0.077 A  
HETATM    4  H   UNL     1      -6.365   5.157  71.256  1.00  0.00     0.000 HD 
HETATM    5  C   UNL     1     -11.073   7.472  73.269  1.00  0.00    -0.294 A  
HETATM    6  O   UNL     1      -7.209   7.061  72.501  1.00  0.00    -0.078 OA 
HETATM    7  C   UNL     1     -12.606   7.775  71.428  1.00  0.00    -0.339 A  
HETATM    8  C   UNL     1      -9.143   5.748  73.158  1.00  0.00    -0.127 C  
HETATM    9  O   UNL     1      -8.848   6.413  74.425  1.00  0.00    -0.136 OA 
HETATM   10  C   UNL     1     -10.398   6.432  72.586  1.00  0.00    -0.216 A  
HETATM   11  C   UNL     1     -10.481   3.683  73.868  1.00  0.00    -0.262 A  
HETATM   12  C   UNL     1      -9.250   4.288  73.578  1.00  0.00    -0.106 A  
HETATM   13  C   UNL     1     -10.900   6.056  71.335  1.00  0.00    -0.328 A  
HETATM   14  C   UNL     1      -8.079   3.527  73.780  1.00  0.00    -0.078 A  
HETATM   15  C   UNL     1     -10.536   2.338  74.254  1.00  0.00    -0.197 A  
HETATM   16  H   UNL     1      -9.611   6.241  74.964  1.00  0.00     0.000 HD 
HETATM   17  C   UNL     1     -12.160   8.137  72.691  1.00  0.00    -0.311 A  
HETATM   18  C   UNL     1      -8.132   2.186  74.140  1.00  0.00    -0.054 A  
HETATM   19  C   UNL     1     -11.984   6.723  70.755  1.00  0.00    -0.433 A  
ENDROOT
BRANCH   1  20
HETATM   20  N   UNL     1      -8.043   4.307  70.403  1.00  0.00    -0.058 NA 
HETATM   21  H   UNL     1      -8.588   3.494  70.690  1.00  0.00     0.000 HD 
BRANCH  20  22
HETATM   22  C   UNL     1      -7.880   4.660  69.155  1.00  0.00    -0.070 C  
HETATM   23  C   UNL     1      -8.460   4.519  66.695  1.00  0.00    -0.105 C  
HETATM   24  C   UNL     1      -9.098   5.920  66.822  1.00  0.00    -0.130 C  
HETATM   25  C   UNL     1      -9.163   6.300  68.294  1.00  0.00    -0.111 C  
HETATM   26  C   UNL     1      -8.022   3.849  67.811  1.00  0.00    -0.089 C  
HETATM   27  C   UNL     1      -8.411   4.147  65.198  1.00  0.00    -0.114 C  
HETATM   28  C   UNL     1      -7.750   6.112  68.832  1.00  0.00    -0.093 C  
HETATM   29  C   UNL     1     -10.554   5.924  66.310  1.00  0.00    -0.071 C  
HETATM   30  C   UNL     1      -7.954   5.309  64.177  1.00  0.00    -0.112 C  
HETATM   31  C   UNL     1      -8.242   6.816  64.575  1.00  0.00    -0.008 C  
HETATM   32  C   UNL     1      -7.354   7.963  63.869  1.00  0.00    -0.099 C  
HETATM   33  C   UNL     1      -7.969   8.377  62.494  1.00  0.00    -0.153 C  
HETATM   34  C   UNL     1      -8.584   9.782  62.679  1.00  0.00    -0.199 C  
HETATM   35  C   UNL     1      -8.731   9.893  64.195  1.00  0.00    -0.206 C  
HETATM   36  C   UNL     1      -8.135   6.897  66.095  1.00  0.00    -0.115 C  
HETATM   37  C   UNL     1      -7.344   9.354  64.651  1.00  0.00    -0.104 C  
HETATM   38  C   UNL     1      -8.260   8.299  66.681  1.00  0.00    -0.106 C  
HETATM   39  C   UNL     1      -7.200   9.188  66.143  1.00  0.00    -0.090 C  
HETATM   40  C   UNL     1      -6.144  10.275  64.299  1.00  0.00    -0.121 C  
BRANCH  35  41
HETATM   41  O   UNL     1      -9.212  11.147  64.703  1.00  0.00    -0.191 OA 
BRANCH  41  42
HETATM   42  C   UNL     1     -10.585  11.204  64.664  1.00  0.00    -0.318 C  
HETATM   43  O   UNL     1     -11.226  11.301  63.621  1.00  0.00    -0.358 OA 
BRANCH  42  44
HETATM   44  C   UNL     1     -11.343  11.176  65.973  1.00  0.00     0.094 C  
BRANCH  44  45
HETATM   45  C   UNL     1     -10.814  10.461  67.208  1.00  0.00    -0.324 C  
BRANCH  45  46
HETATM   46  C   UNL     1     -11.550  10.836  68.489  1.00  0.00    -0.325 C  
BRANCH  46  47
HETATM   47  C   UNL     1     -10.870  10.339  69.770  1.00  0.00    -0.332 C  
BRANCH  47  48
HETATM   48  C   UNL     1      -9.486   9.731  69.537  1.00  0.00    -0.226 C  
HETATM   49  C   UNL     1      -8.836   9.304  70.847  1.00  0.00    -0.252 C  
ENDBRANCH  47  48
ENDBRANCH  46  47
ENDBRANCH  45  46
ENDBRANCH  44  45
ENDBRANCH  42  44
ENDBRANCH  41  42
ENDBRANCH  35  41
ENDBRANCH  20  22
ENDBRANCH   1  20
TORSDOF 9
ENDMDL
MODEL       51
REMARK 921   NORMALIZED FREE ENERGY PREDICTED BY IDOCK:   -4.95 KCAL/MOL
REMARK 922        TOTAL FREE ENERGY PREDICTED BY IDOCK:  -10.86 KCAL/MOL
REMARK 923 INTER-LIGAND FREE ENERGY PREDICTED BY IDOCK:   -8.09 KCAL/MOL
REMARK 924 INTRA-LIGAND FREE ENERGY PREDICTED BY IDOCK:   -2.77 KCAL/MOL
REMARK 927      BINDING AFFINITY PREDICTED BY RF-SCORE:    0.00 PKD
ROOT
HETATM    1  N   UNL     1     -10.106  12.795  68.919  1.00  0.00    -0.424 N  
HETATM    2  C   UNL     1     -11.034  13.721  68.470  1.00  0.00    -0.262 C  
HETATM    3  C   UNL     1     -10.294  11.195  64.073  1.00  0.00    -0.437 A  
HETATM    4  H   UNL     1     -10.467  12.126  69.599  1.00  0.00     0.000 HD 
HETATM    5  C   UNL     1     -11.141  16.822  66.590  1.00  0.00     0.287 A  
HETATM    6  O   UNL     1     -11.924  14.043  69.300  1.00  0.00    -0.317 OA 
HETATM    7  C   UNL     1      -9.143  18.158  66.827  1.00  0.00    -0.287 A  
HETATM    8  C   UNL     1     -11.124  14.268  67.019  1.00  0.00    -0.312 C  
HETATM    9  O   UNL     1     -12.551  14.505  66.810  1.00  0.00    -0.494 OA 
HETATM   10  C   UNL     1     -10.430  15.637  66.892  1.00  0.00    -0.307 A  
HETATM   11  C   UNL     1     -10.300  13.534  64.708  1.00  0.00    -0.405 A  
HETATM   12  C   UNL     1     -10.817  13.207  65.969  1.00  0.00    -0.287 A  
HETATM   13  C   UNL     1      -9.051  15.752  67.104  1.00  0.00    -0.228 A  
HETATM   14  C   UNL     1     -11.144  11.858  66.218  1.00  0.00    -0.364 A  
HETATM   15  C   UNL     1     -10.035  12.528  63.770  1.00  0.00    -0.154 A  
HETATM   16  H   UNL     1     -12.606  14.840  65.923  1.00  0.00     0.000 HD 
HETATM   17  C   UNL     1     -10.503  18.068  66.564  1.00  0.00    -0.341 A  
HETATM   18  C   UNL     1     -10.859  10.856  65.298  1.00  0.00    -0.123 A  
HETATM   19  C   UNL     1      -8.413  16.997  67.083  1.00  0.00    -0.222 A  
ENDROOT
BRANCH   1  20
HETATM   20  N   UNL     1      -8.735  12.624  68.589  1.00  0.00    -0.380 NA 
HETATM   21  H   UNL     1      -8.038  13.363  68.684  1.00  0.00     0.000 HD 
BRANCH  20  22
HETATM   22  C   UNL     1      -8.459  11.424  68.152  1.00  0.00    -0.152 C  
HETATM   23  C   UNL     1      -6.846   9.666  67.307  1.00  0.00    -0.083 C  
HETATM   24  C   UNL     1      -7.015   8.940  68.660  1.00  0.00    -0.064 C  
HETATM   25  C   UNL     1      -7.787   9.844  69.610  1.00  0.00    -0.156 C  
HETATM   26  C   UNL     1      -7.395  10.909  67.109  1.00  0.00    -0.105 C  
HETATM   27  C   UNL     1      -6.054   8.739  66.360  1.00  0.00    -0.060 C  
HETATM   28  C   UNL     1      -9.050  10.249  68.860  1.00  0.00    -0.168 C  
HETATM   29  C   UNL     1      -5.650   8.674  69.330  1.00  0.00    -0.035 C  
HETATM   30  C   UNL     1      -6.462   7.179  66.364  1.00  0.00    -0.051 C  
HETATM   31  C   UNL     1      -7.071   6.565  67.692  1.00  0.00    -0.084 C  
HETATM   32  C   UNL     1      -7.950   5.218  67.563  1.00  0.00    -0.100 C  
HETATM   33  C   UNL     1      -7.036   3.951  67.588  1.00  0.00    -0.055 C  
HETATM   34  C   UNL     1      -7.250   3.266  68.955  1.00  0.00    -0.049 C  
HETATM   35  C   UNL     1      -7.861   4.379  69.803  1.00  0.00    -0.057 C  
HETATM   36  C   UNL     1      -7.869   7.677  68.366  1.00  0.00    -0.121 C  
HETATM   37  C   UNL     1      -8.913   4.945  68.806  1.00  0.00    -0.132 C  
HETATM   38  C   UNL     1      -8.644   7.260  69.611  1.00  0.00    -0.137 C  
HETATM   39  C   UNL     1      -9.620   6.189  69.285  1.00  0.00    -0.153 C  
HETATM   40  C   UNL     1     -10.095   3.986  68.499  1.00  0.00     0.248 C  
BRANCH  35  41
HETATM   41  O   UNL     1      -8.258   4.026  71.136  1.00  0.00    -0.069 OA 
BRANCH  41  42
HETATM   42  C   UNL     1      -7.250   4.275  72.037  1.00  0.00    -0.060 C  
HETATM   43  O   UNL     1      -6.557   3.392  72.534  1.00  0.00    -0.017 OA 
BRANCH  42  44
HETATM   44  C   UNL     1      -7.001   5.707  72.461  1.00  0.00    -0.083 C  
BRANCH  44  45
HETATM   45  C   UNL     1      -8.049   6.538  73.185  1.00  0.00    -0.106 C  
BRANCH  45  46
HETATM   46  C   UNL     1      -9.064   5.700  73.954  1.00  0.00    -0.126 C  
BRANCH  46  47
HETATM   47  C   UNL     1     -10.506   6.213  73.850  1.00  0.00    -0.287 C  
BRANCH  47  48
HETATM   48  C   UNL     1     -10.635   7.543  73.105  1.00  0.00    -0.442 C  
HETATM   49  C   UNL     1     -11.888   7.578  72.239  1.00  0.00    -0.331 C  
ENDBRANCH  47  48
ENDBRANCH  46  47
ENDBRANCH  45  46
ENDBRANCH  44  45
ENDBRANCH  42  44
ENDBRANCH  41  42
ENDBRANCH  35  41
ENDBRANCH  20  22
ENDBRANCH   1  20
TORSDOF 9
ENDMDL
MODEL       52
REMARK 921   NORMALIZED FREE ENERGY PREDICTED BY IDOCK:   -4.94 KCAL/MOL
REMARK 922        TOTAL FREE ENERGY PREDICTED BY IDOCK:  -10.86 KCAL/MOL
REMARK 923 INTER-LIGAND FREE ENERGY PREDICTED BY IDOCK:   -7.61 KCAL/MOL
REMARK 924 INTRA-LIGAND FREE ENERGY PREDICTED BY IDOCK:   -3.24 KCAL/MOL
REMARK 927      BINDING AFFINITY PREDICTED BY RF-SCORE:    0.00 PKD
ROOT
HETATM    1  N   UNL     1     -11.026  16.090  67.869  1.00  0.00    -0.335 N  
HETATM    2  C   UNL     1     -10.200  16.606  68.856  1.00  0.00    -0.284 C  
HETATM    3  C   UNL     1      -9.811  20.430  65.466  1.00  0.00     0.140 A  
HETATM    4  H   UNL     1     -12.008  16.015  68.133  1.00  0.00     0.000 HD 
HETATM    5  C   UNL     1      -6.661  16.971  69.570  1.00  0.00    -0.194 A  
HETATM    6  O   UNL     1     -10.545  16.351  70.039  1.00  0.00    -0.287 OA 
HETATM    7  C   UNL     1      -5.303  15.218  68.614  1.00  0.00    -0.092 A  
HETATM    8  C   UNL     1      -8.994  17.555  68.610  1.00  0.00    -0.260 C  
HETATM    9  O   UNL     1      -8.961  18.410  69.795  1.00  0.00     0.725 OA 
HETATM   10  C   UNL     1      -7.665  16.779  68.591  1.00  0.00    -0.232 A  
HETATM   11  C   UNL     1      -8.217  19.113  66.732  1.00  0.00    -0.292 A  
HETATM   12  C   UNL     1      -9.255  18.561  67.495  1.00  0.00    -0.288 A  
HETATM   13  C   UNL     1      -7.419  15.822  67.600  1.00  0.00    -0.180 A  
HETATM   14  C   UNL     1     -10.564  19.037  67.271  1.00  0.00    -0.554 A  
HETATM   15  C   UNL     1      -8.499  20.038  65.718  1.00  0.00    -0.021 A  
HETATM   16  H   UNL     1      -8.224  18.990  69.645  1.00  0.00     0.000 HD 
HETATM   17  C   UNL     1      -5.497  16.194  69.582  1.00  0.00    -0.133 A  
HETATM   18  C   UNL     1     -10.848  19.936  66.250  1.00  0.00    -0.317 A  
HETATM   19  C   UNL     1      -6.258  15.042  67.613  1.00  0.00    -0.134 A  
ENDROOT
BRANCH   1  20
HETATM   20  N   UNL     1     -10.730  15.650  66.552  1.00  0.00    -0.307 NA 
HETATM   21  H   UNL     1     -10.546  16.285  65.775  1.00  0.00     0.000 HD 
BRANCH  20  22
HETATM   22  C   UNL     1     -10.719  14.348  66.437  1.00  0.00    -0.306 C  
HETATM   23  C   UNL     1      -9.889  12.202  65.385  1.00  0.00    -0.231 C  
HETATM   24  C   UNL     1      -9.133  11.913  66.700  1.00  0.00    -0.203 C  
HETATM   25  C   UNL     1      -9.193  13.151  67.584  1.00  0.00    -0.207 C  
HETATM   26  C   UNL     1     -10.511  13.409  65.188  1.00  0.00    -0.358 C  
HETATM   27  C   UNL     1      -9.809  10.939  64.499  1.00  0.00    -0.356 C  
HETATM   28  C   UNL     1     -10.669  13.519  67.678  1.00  0.00    -0.257 C  
HETATM   29  C   UNL     1      -7.636  11.639  66.441  1.00  0.00     0.085 C  
HETATM   30  C   UNL     1     -10.035   9.522  65.235  1.00  0.00    -0.048 C  
HETATM   31  C   UNL     1      -9.644   9.400  66.765  1.00  0.00    -0.234 C  
HETATM   32  C   UNL     1     -10.331   8.219  67.624  1.00  0.00    -0.313 C  
HETATM   33  C   UNL     1      -9.531   6.885  67.479  1.00  0.00    -0.143 C  
HETATM   34  C   UNL     1      -8.803   6.647  68.821  1.00  0.00    -0.126 C  
HETATM   35  C   UNL     1      -8.814   8.031  69.466  1.00  0.00    -0.144 C  
HETATM   36  C   UNL     1      -9.909  10.763  67.398  1.00  0.00    -0.204 C  
HETATM   37  C   UNL     1     -10.289   8.451  69.202  1.00  0.00    -0.229 C  
HETATM   38  C   UNL     1      -9.711  10.829  68.908  1.00  0.00    -0.207 C  
HETATM   39  C   UNL     1     -10.613   9.871  69.596  1.00  0.00    -0.273 C  
HETATM   40  C   UNL     1     -11.346   7.635  69.996  1.00  0.00    -0.081 C  
BRANCH  35  41
HETATM   41  O   UNL     1      -8.271   8.125  70.791  1.00  0.00    -0.103 OA 
BRANCH  41  42
HETATM   42  C   UNL     1      -7.122   8.881  70.803  1.00  0.00    -0.078 C  
HETATM   43  O   UNL     1      -6.901   9.757  71.635  1.00  0.00    -0.284 OA 
BRANCH  42  44
HETATM   44  C   UNL     1      -6.092   8.642  69.720  1.00  0.00    -0.035 C  
BRANCH  44  45
HETATM   45  C   UNL     1      -5.700   9.715  68.716  1.00  0.00    -0.039 C  
BRANCH  45  46
HETATM   46  C   UNL     1      -5.299   9.157  67.356  1.00  0.00    -0.037 C  
BRANCH  46  47
HETATM   47  C   UNL     1      -6.098   7.920  66.927  1.00  0.00    -0.053 C  
BRANCH  47  48
HETATM   48  C   UNL     1      -6.575   7.968  65.474  1.00  0.00    -0.045 C  
HETATM   49  C   UNL     1      -5.614   8.760  64.596  1.00  0.00    -0.062 C  
ENDBRANCH  47  48
ENDBRANCH  46  47
ENDBRANCH  45  46
ENDBRANCH  44  45
ENDBRANCH  42  44
ENDBRANCH  41  42
ENDBRANCH  35  41
ENDBRANCH  20  22
ENDBRANCH   1  20
TORSDOF 9
ENDMDL
MODEL       53
REMARK 921   NORMALIZED FREE ENERGY PREDICTED BY IDOCK:   -4.87 KCAL/MOL
REMARK 922        TOTAL FREE ENERGY PREDICTED BY IDOCK:  -10.75 KCAL/MOL
REMARK 923 INTER-LIGAND FREE ENERGY PREDICTED BY IDOCK:   -8.96 KCAL/MOL
REMARK 924 INTRA-LIGAND FREE ENERGY PREDICTED BY IDOCK:   -1.79 KCAL/MOL
REMARK 927      BINDING AFFINITY PREDICTED BY RF-SCORE:    0.00 PKD
ROOT
HETATM    1  N   UNL     1     -11.113   6.913  67.875  1.00  0.00    -0.531 N  
HETATM    2  C   UNL     1     -10.232   6.042  67.252  1.00  0.00    -0.195 C  
HETATM    3  C   UNL     1      -9.293   4.720  72.113  1.00  0.00    -0.171 A  
HETATM    4  H   UNL     1     -12.099   6.724  67.692  1.00  0.00     0.000 HD 
HETATM    5  C   UNL     1      -6.683   5.746  66.558  1.00  0.00    -0.057 A  
HETATM    6  O   UNL     1     -10.619   5.579  66.147  1.00  0.00    -0.182 OA 
HETATM    7  C   UNL     1      -5.571   7.876  66.318  1.00  0.00    -0.029 A  
HETATM    8  C   UNL     1      -8.906   5.516  67.867  1.00  0.00    -0.105 C  
HETATM    9  O   UNL     1      -8.765   4.168  67.321  1.00  0.00    -0.103 OA 
HETATM   10  C   UNL     1      -7.696   6.323  67.361  1.00  0.00    -0.097 A  
HETATM   11  C   UNL     1      -7.907   5.314  70.216  1.00  0.00    -0.083 A  
HETATM   12  C   UNL     1      -9.017   5.249  69.363  1.00  0.00    -0.124 A  
HETATM   13  C   UNL     1      -7.575   7.683  67.666  1.00  0.00    -0.109 A  
HETATM   14  C   UNL     1     -10.246   4.827  69.911  1.00  0.00    -0.238 A  
HETATM   15  C   UNL     1      -8.050   5.057  71.585  1.00  0.00    -0.114 A  
HETATM   16  H   UNL     1      -7.954   3.846  67.697  1.00  0.00     0.000 HD 
HETATM   17  C   UNL     1      -5.638   6.519  66.039  1.00  0.00    -0.017 A  
HETATM   18  C   UNL     1     -10.395   4.595  71.274  1.00  0.00    -0.148 A  
HETATM   19  C   UNL     1      -6.533   8.457  67.145  1.00  0.00    -0.058 A  
ENDROOT
BRANCH   1  20
HETATM   20  N   UNL     1     -10.870   8.023  68.725  1.00  0.00    -0.420 NA 
HETATM   21  H   UNL     1     -10.981   7.990  69.739  1.00  0.00     0.000 HD 
BRANCH  20  22
HETATM   22  C   UNL     1     -10.491   9.092  68.077  1.00  0.00    -0.216 C  
HETATM   23  C   UNL     1     -10.757  10.801  66.229  1.00  0.00    -0.205 C  
HETATM   24  C   UNL     1     -11.176  11.822  67.309  1.00  0.00    -0.364 C  
HETATM   25  C   UNL     1     -11.373  11.090  68.628  1.00  0.00    -0.346 C  
HETATM   26  C   UNL     1     -10.581   9.478  66.551  1.00  0.00    -0.133 C  
HETATM   27  C   UNL     1     -10.571  11.560  64.897  1.00  0.00    -0.360 C  
HETATM   28  C   UNL     1     -10.091  10.301  68.858  1.00  0.00    -0.216 C  
HETATM   29  C   UNL     1     -12.533  12.475  66.969  1.00  0.00     0.727 C  
HETATM   30  C   UNL     1      -9.805  12.977  64.972  1.00  0.00    -0.059 C  
HETATM   31  C   UNL     1      -9.901  13.814  66.313  1.00  0.00    -0.314 C  
HETATM   32  C   UNL     1      -8.758  14.916  66.595  1.00  0.00    -0.262 C  
HETATM   33  C   UNL     1      -9.113  16.276  65.911  1.00  0.00    -0.246 C  
HETATM   34  C   UNL     1      -9.517  17.255  67.035  1.00  0.00    -0.264 C  
HETATM   35  C   UNL     1      -9.842  16.322  68.200  1.00  0.00    -0.229 C  
HETATM   36  C   UNL     1      -9.983  12.806  67.456  1.00  0.00    -0.210 C  
HETATM   37  C   UNL     1      -8.631  15.349  68.126  1.00  0.00    -0.152 C  
HETATM   38  C   UNL     1      -9.961  13.407  68.857  1.00  0.00     0.032 C  
HETATM   39  C   UNL     1      -8.712  14.179  69.075  1.00  0.00     0.116 C  
HETATM   40  C   UNL     1      -7.264  15.987  68.498  1.00  0.00    -0.138 C  
BRANCH  35  41
HETATM   41  O   UNL     1     -10.181  16.947  69.447  1.00  0.00    -0.272 OA 
BRANCH  41  42
HETATM   42  C   UNL     1     -11.262  16.331  70.033  1.00  0.00    -0.319 C  
HETATM   43  O   UNL     1     -12.342  16.187  69.469  1.00  0.00    -0.078 OA 
BRANCH  42  44
HETATM   44  C   UNL     1     -11.121  15.833  71.455  1.00  0.00    -0.184 C  
BRANCH  44  45
HETATM   45  C   UNL     1     -12.114  16.196  72.550  1.00  0.00    -0.644 C  
BRANCH  45  46
HETATM   46  C   UNL     1     -13.025  15.042  72.951  1.00  0.00    -0.561 C  
BRANCH  46  47
HETATM   47  C   UNL     1     -13.673  14.316  71.766  1.00  0.00    -0.496 C  
BRANCH  47  48
HETATM   48  C   UNL     1     -12.892  13.089  71.293  1.00  0.00    -0.370 C  
HETATM   49  C   UNL     1     -13.376  11.819  71.981  1.00  0.00    -0.417 C  
ENDBRANCH  47  48
ENDBRANCH  46  47
ENDBRANCH  45  46
ENDBRANCH  44  45
ENDBRANCH  42  44
ENDBRANCH  41  42
ENDBRANCH  35  41
ENDBRANCH  20  22
ENDBRANCH   1  20
TORSDOF 9
ENDMDL
MODEL       54
REMARK 921   NORMALIZED FREE ENERGY PREDICTED BY IDOCK:   -4.85 KCAL/MOL
REMARK 922        TOTAL FREE ENERGY PREDICTED BY IDOCK:  -10.71 KCAL/MOL
REMARK 923 INTER-LIGAND FREE ENERGY PREDICTED BY IDOCK:   -9.48 KCAL/MOL
REMARK 924 INTRA-LIGAND FREE ENERGY PREDICTED BY IDOCK:   -1.23 KCAL/MOL
REMARK 927      BINDING AFFINITY PREDICTED BY RF-SCORE:    0.00 PKD
ROOT
HETATM    1  N   UNL     1      -8.658   6.071  65.831  1.00  0.00    -0.146 N  
HETATM    2  C   UNL     1      -8.825   4.706  66.007  1.00  0.00    -0.121 C  
HETATM    3  C   UNL     1     -11.369   6.320  70.152  1.00  0.00    -0.476 A  
HETATM    4  H   UNL     1      -9.130   6.457  65.014  1.00  0.00     0.000 HD 
HETATM    5  C   UNL     1      -7.452   1.996  67.990  1.00  0.00    -0.054 A  
HETATM    6  O   UNL     1      -8.960   4.037  64.949  1.00  0.00    -0.123 OA 
HETATM    7  C   UNL     1      -5.132   2.317  68.579  1.00  0.00    -0.012 A  
HETATM    8  C   UNL     1      -8.985   3.991  67.377  1.00  0.00    -0.129 C  
HETATM    9  O   UNL     1      -9.871   2.864  67.094  1.00  0.00    -0.349 OA 
HETATM   10  C   UNL     1      -7.650   3.391  67.854  1.00  0.00    -0.064 A  
HETATM   11  C   UNL     1      -9.634   4.675  69.758  1.00  0.00    -0.258 A  
HETATM   12  C   UNL     1      -9.804   4.803  68.372  1.00  0.00    -0.187 A  
HETATM   13  C   UNL     1      -6.564   4.224  68.146  1.00  0.00    -0.042 A  
HETATM   14  C   UNL     1     -10.837   5.645  67.910  1.00  0.00    -0.171 A  
HETATM   15  C   UNL     1     -10.410   5.437  70.640  1.00  0.00    -0.333 A  
HETATM   16  H   UNL     1      -9.968   2.426  67.931  1.00  0.00     0.000 HD 
HETATM   17  C   UNL     1      -6.204   1.469  68.342  1.00  0.00    -0.025 A  
HETATM   18  C   UNL     1     -11.592   6.420  68.783  1.00  0.00     0.137 A  
HETATM   19  C   UNL     1      -5.316   3.698  68.495  1.00  0.00    -0.012 A  
ENDROOT
BRANCH   1  20
HETATM   20  N   UNL     1      -7.937   7.021  66.602  1.00  0.00    -0.106 NA 
HETATM   21  H   UNL     1      -6.934   6.959  66.777  1.00  0.00     0.000 HD 
BRANCH  20  22
HETATM   22  C   UNL     1      -8.691   7.982  67.066  1.00  0.00    -0.128 C  
HETATM   23  C   UNL     1      -9.326   9.669  68.843  1.00  0.00    -0.151 C  
HETATM   24  C   UNL     1      -8.802  10.776  67.901  1.00  0.00    -0.132 C  
HETATM   25  C   UNL     1      -8.080  10.125  66.730  1.00  0.00    -0.119 C  
HETATM   26  C   UNL     1      -9.141   8.345  68.533  1.00  0.00    -0.136 C  
HETATM   27  C   UNL     1     -10.046  10.348  70.028  1.00  0.00    -0.078 C  
HETATM   28  C   UNL     1      -9.058   9.108  66.156  1.00  0.00    -0.234 C  
HETATM   29  C   UNL     1      -7.762  11.671  68.608  1.00  0.00    -0.134 C  
HETATM   30  C   UNL     1     -11.009  11.593  69.673  1.00  0.00    -0.097 C  
HETATM   31  C   UNL     1     -10.673  12.462  68.392  1.00  0.00    -0.254 C  
HETATM   32  C   UNL     1     -11.866  13.329  67.738  1.00  0.00    -0.394 C  
HETATM   33  C   UNL     1     -11.999  14.716  68.445  1.00  0.00    -0.289 C  
HETATM   34  C   UNL     1     -11.469  15.779  67.459  1.00  0.00    -0.063 C  
HETATM   35  C   UNL     1     -10.636  14.953  66.482  1.00  0.00    -0.306 C  
HETATM   36  C   UNL     1     -10.059  11.514  67.366  1.00  0.00    -0.213 C  
HETATM   37  C   UNL     1     -11.605  13.762  66.225  1.00  0.00    -0.369 C  
HETATM   38  C   UNL     1      -9.771  12.130  66.001  1.00  0.00    -0.258 C  
HETATM   39  C   UNL     1     -11.019  12.651  65.389  1.00  0.00    -0.320 C  
HETATM   40  C   UNL     1     -12.890  14.133  65.436  1.00  0.00    -0.393 C  
BRANCH  35  41
HETATM   41  O   UNL     1     -10.062  15.659  65.371  1.00  0.00    -0.355 OA 
BRANCH  41  42
HETATM   42  C   UNL     1     -10.537  16.947  65.303  1.00  0.00    -0.120 C  
HETATM   43  O   UNL     1     -11.367  17.316  64.478  1.00  0.00    -1.007 OA 
BRANCH  42  44
HETATM   44  C   UNL     1      -9.987  17.969  66.275  1.00  0.00    -0.338 C  
BRANCH  44  45
HETATM   45  C   UNL     1      -8.548  17.935  66.769  1.00  0.00    -0.271 C  
BRANCH  45  46
HETATM   46  C   UNL     1      -8.422  18.059  68.282  1.00  0.00    -0.293 C  
BRANCH  46  47
HETATM   47  C   UNL     1      -7.555  16.972  68.930  1.00  0.00    -0.233 C  
BRANCH  47  48
HETATM   48  C   UNL     1      -7.886  15.556  68.456  1.00  0.00    -0.135 C  
HETATM   49  C   UNL     1      -6.678  14.883  67.817  1.00  0.00    -0.191 C  
ENDBRANCH  47  48
ENDBRANCH  46  47
ENDBRANCH  45  46
ENDBRANCH  44  45
ENDBRANCH  42  44
ENDBRANCH  41  42
ENDBRANCH  35  41
ENDBRANCH  20  22
ENDBRANCH   1  20
TORSDOF 9
ENDMDL
MODEL       55
REMARK 921   NORMALIZED FREE ENERGY PREDICTED BY IDOCK:   -4.84 KCAL/MOL
REMARK 922        TOTAL FREE ENERGY PREDICTED BY IDOCK:  -10.69 KCAL/MOL
REMARK 923 INTER-LIGAND FREE ENERGY PREDICTED BY IDOCK:   -7.18 KCAL/MOL
REMARK 924 INTRA-LIGAND FREE ENERGY PREDICTED BY IDOCK:   -3.51 KCAL/MOL
REMARK 927      BINDING AFFINITY PREDICTED BY RF-SCORE:    0.00 PKD
ROOT
HETATM    1  N   UNL     1      -8.630  15.369  68.852  1.00  0.00    -0.190 N  
HETATM    2  C   UNL     1      -8.554  15.345  67.468  1.00  0.00    -0.174 C  
HETATM    3  C   UNL     1      -9.964  20.236  68.064  1.00  0.00    -0.459 A  
HETATM    4  H   UNL     1      -7.738  15.248  69.329  1.00  0.00     0.000 HD 
HETATM    5  C   UNL     1     -10.758  15.133  64.593  1.00  0.00    -0.234 A  
HETATM    6  O   UNL     1      -7.645  14.618  66.988  1.00  0.00    -0.116 OA 
HETATM    7  C   UNL     1     -12.785  13.895  65.026  1.00  0.00    -0.372 A  
HETATM    8  C   UNL     1      -9.400  16.227  66.508  1.00  0.00    -0.271 C  
HETATM    9  O   UNL     1      -8.517  16.469  65.369  1.00  0.00     0.151 OA 
HETATM   10  C   UNL     1     -10.616  15.455  65.964  1.00  0.00    -0.330 A  
HETATM   11  C   UNL     1     -10.745  18.399  66.690  1.00  0.00    -0.249 A  
HETATM   12  C   UNL     1      -9.625  17.634  67.046  1.00  0.00    -0.276 A  
HETATM   13  C   UNL     1     -11.622  15.017  66.832  1.00  0.00    -0.229 A  
HETATM   14  C   UNL     1      -8.642  18.243  67.854  1.00  0.00    -0.267 A  
HETATM   15  C   UNL     1     -10.913  19.690  67.204  1.00  0.00    -0.420 A  
HETATM   16  H   UNL     1      -9.034  17.008  64.782  1.00  0.00     0.000 HD 
HETATM   17  C   UNL     1     -11.828  14.357  64.134  1.00  0.00    -0.316 A  
HETATM   18  C   UNL     1      -8.818  19.515  68.385  1.00  0.00    -0.389 A  
HETATM   19  C   UNL     1     -12.690  14.238  66.375  1.00  0.00     0.011 A  
ENDROOT
BRANCH   1  20
HETATM   20  N   UNL     1      -9.746  15.535  69.714  1.00  0.00    -0.354 NA 
HETATM   21  H   UNL     1     -10.143  16.444  69.952  1.00  0.00     0.000 HD 
BRANCH  20  22
HETATM   22  C   UNL     1     -10.213  14.403  70.172  1.00  0.00     0.686 C  
HETATM   23  C   UNL     1     -12.082  12.736  70.534  1.00  0.00    -0.369 C  
HETATM   24  C   UNL     1     -11.400  11.827  69.489  1.00  0.00    -0.317 C  
HETATM   25  C   UNL     1     -10.280  12.606  68.814  1.00  0.00    -0.094 C  
HETATM   26  C   UNL     1     -11.625  14.011  70.754  1.00  0.00    -0.064 C  
HETATM   27  C   UNL     1     -13.220  11.932  71.200  1.00  0.00     0.038 C  
HETATM   28  C   UNL     1      -9.421  13.157  69.945  1.00  0.00     2.570 C  
HETATM   29  C   UNL     1     -12.381  11.421  68.368  1.00  0.00     0.394 C  
HETATM   30  C   UNL     1     -12.892  10.402  71.591  1.00  0.00    -0.579 C  
HETATM   31  C   UNL     1     -11.814   9.620  70.731  1.00  0.00    -0.378 C  
HETATM   32  C   UNL     1     -11.105   8.336  71.403  1.00  0.00    -0.302 C  
HETATM   33  C   UNL     1     -11.968   7.050  71.194  1.00  0.00    -0.398 C  
HETATM   34  C   UNL     1     -11.236   6.180  70.148  1.00  0.00    -0.452 C  
HETATM   35  C   UNL     1     -10.300   7.177  69.470  1.00  0.00    -0.215 C  
HETATM   36  C   UNL     1     -10.778  10.648  70.287  1.00  0.00    -0.063 C  
HETATM   37  C   UNL     1      -9.728   7.916  70.714  1.00  0.00    -0.179 C  
HETATM   38  C   UNL     1      -9.576  10.078  69.541  1.00  0.00    -0.249 C  
HETATM   39  C   UNL     1      -8.850   9.099  70.388  1.00  0.00    -0.253 C  
HETATM   40  C   UNL     1      -8.803   7.050  71.613  1.00  0.00    -0.130 C  
BRANCH  35  41
HETATM   41  O   UNL     1      -9.405   6.646  68.481  1.00  0.00    -0.127 OA 
BRANCH  41  42
HETATM   42  C   UNL     1      -9.817   6.974  67.211  1.00  0.00    -0.166 C  
HETATM   43  O   UNL     1     -10.711   6.377  66.618  1.00  0.00    -0.260 OA 
BRANCH  42  44
HETATM   44  C   UNL     1      -9.115   8.109  66.497  1.00  0.00    -0.216 C  
BRANCH  44  45
HETATM   45  C   UNL     1      -9.869   9.275  65.876  1.00  0.00    -0.335 C  
BRANCH  45  46
HETATM   46  C   UNL     1      -9.139  10.606  66.000  1.00  0.00    -0.201 C  
BRANCH  46  47
HETATM   47  C   UNL     1      -9.746  11.735  65.157  1.00  0.00    -0.228 C  
BRANCH  47  48
HETATM   48  C   UNL     1     -10.378  11.255  63.850  1.00  0.00    -0.439 C  
HETATM   49  C   UNL     1      -9.331  11.058  62.762  1.00  0.00    -0.372 C  
ENDBRANCH  47  48
ENDBRANCH  46  47
ENDBRANCH  45  46
ENDBRANCH  44  45
ENDBRANCH  42  44
ENDBRANCH  41  42
ENDBRANCH  35  41
ENDBRANCH  20  22
ENDBRANCH   1  20
TORSDOF 9
ENDMDL
MODEL       56
REMARK 921   NORMALIZED FREE ENERGY PREDICTED BY IDOCK:   -4.80 KCAL/MOL
REMARK 922        TOTAL FREE ENERGY PREDICTED BY IDOCK:  -10.64 KCAL/MOL
REMARK 923 INTER-LIGAND FREE ENERGY PREDICTED BY IDOCK:   -8.91 KCAL/MOL
REMARK 924 INTRA-LIGAND FREE ENERGY PREDICTED BY IDOCK:   -1.72 KCAL/MOL
REMARK 927      BINDING AFFINITY PREDICTED BY RF-SCORE:    0.00 PKD
ROOT
HETATM    1  N   UNL     1      -7.412   4.942  71.543  1.00  0.00    -0.080 N  
HETATM    2  C   UNL     1      -7.966   5.825  72.457  1.00  0.00    -0.103 C  
HETATM    3  C   UNL     1      -9.863   1.467  74.372  1.00  0.00    -0.104 A  
HETATM    4  H   UNL     1      -6.395   4.875  71.578  1.00  0.00     0.000 HD 
HETATM    5  C   UNL     1     -11.142   7.434  73.155  1.00  0.00    -0.357 A  
HETATM    6  O   UNL     1      -7.250   6.819  72.751  1.00  0.00    -0.079 OA 
HETATM    7  C   UNL     1     -12.477   7.822  71.180  1.00  0.00    -0.245 A  
HETATM    8  C   UNL     1      -9.305   5.610  73.215  1.00  0.00    -0.135 C  
HETATM    9  O   UNL     1      -9.095   6.256  74.508  1.00  0.00    -0.145 OA 
HETATM   10  C   UNL     1     -10.462   6.361  72.532  1.00  0.00    -0.225 A  
HETATM   11  C   UNL     1     -10.811   3.618  73.782  1.00  0.00    -0.318 A  
HETATM   12  C   UNL     1      -9.528   4.157  73.613  1.00  0.00    -0.122 A  
HETATM   13  C   UNL     1     -10.864   6.014  71.237  1.00  0.00    -0.331 A  
HETATM   14  C   UNL     1      -8.423   3.335  73.919  1.00  0.00    -0.074 A  
HETATM   15  C   UNL     1     -10.973   2.278  74.153  1.00  0.00    -0.206 A  
HETATM   16  H   UNL     1      -9.914   6.125  74.972  1.00  0.00     0.000 HD 
HETATM   17  C   UNL     1     -12.133   8.158  72.482  1.00  0.00    -0.377 A  
HETATM   18  C   UNL     1      -8.582   1.997  74.264  1.00  0.00    -0.058 A  
HETATM   19  C   UNL     1     -11.852   6.739  70.562  1.00  0.00    -0.418 A  
ENDROOT
BRANCH   1  20
HETATM   20  N   UNL     1      -8.028   4.117  70.566  1.00  0.00    -0.055 NA 
HETATM   21  H   UNL     1      -8.515   3.248  70.789  1.00  0.00     0.000 HD 
BRANCH  20  22
HETATM   22  C   UNL     1      -7.907   4.583  69.351  1.00  0.00    -0.062 C  
HETATM   23  C   UNL     1      -8.594   4.692  66.917  1.00  0.00    -0.104 C  
HETATM   24  C   UNL     1      -9.184   6.090  67.204  1.00  0.00    -0.117 C  
HETATM   25  C   UNL     1      -9.176   6.330  68.706  1.00  0.00    -0.125 C  
HETATM   26  C   UNL     1      -8.129   3.907  67.943  1.00  0.00    -0.088 C  
HETATM   27  C   UNL     1      -8.619   4.464  65.390  1.00  0.00    -0.122 C  
HETATM   28  C   UNL     1      -7.748   6.055  69.160  1.00  0.00    -0.095 C  
HETATM   29  C   UNL     1     -10.660   6.180  66.759  1.00  0.00    -0.351 C  
HETATM   30  C   UNL     1      -8.170   5.706  64.465  1.00  0.00    -0.125 C  
HETATM   31  C   UNL     1      -8.397   7.175  65.015  1.00  0.00    -0.051 C  
HETATM   32  C   UNL     1      -7.506   8.361  64.382  1.00  0.00    -0.104 C  
HETATM   33  C   UNL     1      -8.165   8.920  63.081  1.00  0.00    -0.183 C  
HETATM   34  C   UNL     1      -8.730  10.316  63.425  1.00  0.00    -0.209 C  
HETATM   35  C   UNL     1      -8.810  10.286  64.949  1.00  0.00    -0.192 C  
HETATM   36  C   UNL     1      -8.224   7.108  66.530  1.00  0.00    -0.117 C  
HETATM   37  C   UNL     1      -7.421   9.670  65.290  1.00  0.00    -0.113 C  
HETATM   38  C   UNL     1      -8.283   8.450  67.251  1.00  0.00    -0.112 C  
HETATM   39  C   UNL     1      -7.220   9.359  66.752  1.00  0.00    -0.083 C  
HETATM   40  C   UNL     1      -6.210  10.590  64.974  1.00  0.00    -0.064 C  
BRANCH  35  41
HETATM   41  O   UNL     1      -9.231  11.497  65.594  1.00  0.00    -0.218 OA 
BRANCH  41  42
HETATM   42  C   UNL     1     -10.212  11.248  66.524  1.00  0.00    -0.228 C  
HETATM   43  O   UNL     1     -10.996  10.307  66.441  1.00  0.00    -0.029 OA 
BRANCH  42  44
HETATM   44  C   UNL     1     -10.352  12.199  67.694  1.00  0.00    -0.215 C  
BRANCH  44  45
HETATM   45  C   UNL     1     -11.375  13.326  67.713  1.00  0.00    -0.327 C  
BRANCH  45  46
HETATM   46  C   UNL     1     -11.392  14.153  66.433  1.00  0.00    -0.342 C  
BRANCH  46  47
HETATM   47  C   UNL     1     -12.523  13.785  65.465  1.00  0.00    -0.548 C  
BRANCH  47  48
HETATM   48  C   UNL     1     -12.055  13.560  64.027  1.00  0.00    -0.494 C  
HETATM   49  C   UNL     1     -12.221  12.105  63.607  1.00  0.00    -0.663 C  
ENDBRANCH  47  48
ENDBRANCH  46  47
ENDBRANCH  45  46
ENDBRANCH  44  45
ENDBRANCH  42  44
ENDBRANCH  41  42
ENDBRANCH  35  41
ENDBRANCH  20  22
ENDBRANCH   1  20
TORSDOF 9
ENDMDL
MODEL       57
REMARK 921   NORMALIZED FREE ENERGY PREDICTED BY IDOCK:   -4.80 KCAL/MOL
REMARK 922        TOTAL FREE ENERGY PREDICTED BY IDOCK:  -10.63 KCAL/MOL
REMARK 923 INTER-LIGAND FREE ENERGY PREDICTED BY IDOCK:   -9.73 KCAL/MOL
REMARK 924 INTRA-LIGAND FREE ENERGY PREDICTED BY IDOCK:   -0.90 KCAL/MOL
REMARK 927      BINDING AFFINITY PREDICTED BY RF-SCORE:    0.00 PKD
ROOT
HETATM    1  N   UNL     1      -9.555  18.888  67.432  1.00  0.00    -0.302 N  
HETATM    2  C   UNL     1      -8.573  19.289  68.324  1.00  0.00    -0.338 C  
HETATM    3  C   UNL     1      -5.894  19.771  63.982  1.00  0.00    -0.317 A  
HETATM    4  H   UNL     1     -10.355  19.516  67.368  1.00  0.00     0.000 HD 
HETATM    5  C   UNL     1      -5.601  17.962  69.929  1.00  0.00    -0.239 A  
HETATM    6  O   UNL     1      -8.981  19.937  69.323  1.00  0.00    -0.062 OA 
HETATM    7  C   UNL     1      -5.689  15.576  70.287  1.00  0.00    -0.143 A  
HETATM    8  C   UNL     1      -7.044  19.115  68.112  1.00  0.00    -0.258 C  
HETATM    9  O   UNL     1      -6.453  20.275  68.775  1.00  0.00    -0.306 OA 
HETATM   10  C   UNL     1      -6.514  17.872  68.851  1.00  0.00    -0.228 A  
HETATM   11  C   UNL     1      -5.484  18.710  66.122  1.00  0.00    -0.182 A  
HETATM   12  C   UNL     1      -6.623  19.323  66.663  1.00  0.00    -0.197 A  
HETATM   13  C   UNL     1      -6.951  16.594  68.487  1.00  0.00    -0.161 A  
HETATM   14  C   UNL     1      -7.331  20.231  65.849  1.00  0.00    -0.245 A  
HETATM   15  C   UNL     1      -5.129  18.930  64.785  1.00  0.00    -0.212 A  
HETATM   16  H   UNL     1      -5.518  20.169  68.646  1.00  0.00     0.000 HD 
HETATM   17  C   UNL     1      -5.200  16.826  70.640  1.00  0.00    -0.214 A  
HETATM   18  C   UNL     1      -6.995  20.432  64.516  1.00  0.00     0.093 A  
HETATM   19  C   UNL     1      -6.554  15.457  69.200  1.00  0.00    -0.133 A  
ENDROOT
BRANCH   1  20
HETATM   20  N   UNL     1      -9.630  17.745  66.592  1.00  0.00    -0.296 NA 
HETATM   21  H   UNL     1      -9.513  17.783  65.579  1.00  0.00     0.000 HD 
BRANCH  20  22
HETATM   22  C   UNL     1      -9.865  16.640  67.249  1.00  0.00    -0.255 C  
HETATM   23  C   UNL     1     -11.430  14.935  68.273  1.00  0.00    -0.343 C  
HETATM   24  C   UNL     1     -11.026  13.966  67.141  1.00  0.00    -0.298 C  
HETATM   25  C   UNL     1     -10.208  14.728  66.108  1.00  0.00    -0.310 C  
HETATM   26  C   UNL     1     -11.014  16.243  68.253  1.00  0.00    -0.348 C  
HETATM   27  C   UNL     1     -12.265  14.147  69.305  1.00  0.00    -0.308 C  
HETATM   28  C   UNL     1      -9.094  15.413  66.888  1.00  0.00    -0.265 C  
HETATM   29  C   UNL     1     -12.263  13.421  66.397  1.00  0.00    -0.435 C  
HETATM   30  C   UNL     1     -11.736  12.673  69.691  1.00  0.00    -0.373 C  
HETATM   31  C   UNL     1     -10.909  11.864  68.608  1.00  0.00    -0.273 C  
HETATM   32  C   UNL     1      -9.950  10.675  69.129  1.00  0.00    -0.228 C  
HETATM   33  C   UNL     1     -10.748   9.341  69.281  1.00  0.00    -0.211 C  
HETATM   34  C   UNL     1     -10.300   8.413  68.131  1.00  0.00    -0.255 C  
HETATM   35  C   UNL     1      -9.673   9.384  67.133  1.00  0.00    -0.173 C  
HETATM   36  C   UNL     1     -10.120  12.890  67.801  1.00  0.00    -0.229 C  
HETATM   37  C   UNL     1      -8.811  10.254  68.093  1.00  0.00    -0.123 C  
HETATM   38  C   UNL     1      -9.155  12.307  66.774  1.00  0.00    -0.211 C  
HETATM   39  C   UNL     1      -8.149  11.439  67.435  1.00  0.00    -0.142 C  
HETATM   40  C   UNL     1      -7.608   9.511  68.736  1.00  0.00    -0.076 C  
BRANCH  35  41
HETATM   41  O   UNL     1      -9.075   8.804  65.964  1.00  0.00    -0.185 OA 
BRANCH  41  42
HETATM   42  C   UNL     1      -8.868   7.455  66.129  1.00  0.00    -0.160 C  
HETATM   43  O   UNL     1      -9.768   6.623  66.057  1.00  0.00     0.010 OA 
BRANCH  42  44
HETATM   44  C   UNL     1      -7.468   6.975  66.443  1.00  0.00    -0.084 C  
BRANCH  44  45
HETATM   45  C   UNL     1      -7.199   5.723  67.265  1.00  0.00    -0.076 C  
BRANCH  45  46
HETATM   46  C   UNL     1      -7.631   5.847  68.721  1.00  0.00    -0.090 C  
BRANCH  46  47
HETATM   47  C   UNL     1      -8.380   4.622  69.259  1.00  0.00    -0.084 C  
BRANCH  47  48
HETATM   48  C   UNL     1      -9.897   4.699  69.080  1.00  0.00    -0.242 C  
HETATM   49  C   UNL     1     -10.592   5.100  70.374  1.00  0.00    -0.225 C  
ENDBRANCH  47  48
ENDBRANCH  46  47
ENDBRANCH  45  46
ENDBRANCH  44  45
ENDBRANCH  42  44
ENDBRANCH  41  42
ENDBRANCH  35  41
ENDBRANCH  20  22
ENDBRANCH   1  20
TORSDOF 9
ENDMDL
MODEL       58
REMARK 921   NORMALIZED FREE ENERGY PREDICTED BY IDOCK:   -4.76 KCAL/MOL
REMARK 922        TOTAL FREE ENERGY PREDICTED BY IDOCK:  -10.58 KCAL/MOL
REMARK 923 INTER-LIGAND FREE ENERGY PREDICTED BY IDOCK:   -7.73 KCAL/MOL
REMARK 924 INTRA-LIGAND FREE ENERGY PREDICTED BY IDOCK:   -2.85 KCAL/MOL
REMARK 927      BINDING AFFINITY PREDICTED BY RF-SCORE:    0.00 PKD
ROOT
HETATM    1  N   UNL     1     -11.499  10.878  66.781  1.00  0.00     0.102 N  
HETATM    2  C   UNL     1     -11.175  12.098  66.210  1.00  0.00    -0.334 C  
HETATM    3  C   UNL     1      -6.572  10.915  68.125  1.00  0.00    -0.062 A  
HETATM    4  H   UNL     1     -11.750  10.148  66.114  1.00  0.00     0.000 HD 
HETATM    5  C   UNL     1     -10.626  15.545  67.204  1.00  0.00    -0.300 A  
HETATM    6  O   UNL     1     -11.772  12.368  65.134  1.00  0.00    -0.355 OA 
HETATM    7  C   UNL     1     -11.904  16.199  69.146  1.00  0.00    -0.182 A  
HETATM    8  C   UNL     1     -10.069  13.062  66.720  1.00  0.00    -0.247 C  
HETATM    9  O   UNL     1      -9.561  13.702  65.509  1.00  0.00    -0.506 OA 
HETATM   10  C   UNL     1     -10.662  14.184  67.592  1.00  0.00    -0.260 A  
HETATM   11  C   UNL     1      -7.993  12.876  68.209  1.00  0.00    -0.151 A  
HETATM   12  C   UNL     1      -8.839  12.325  67.236  1.00  0.00    -0.190 A  
HETATM   13  C   UNL     1     -11.289  13.880  68.806  1.00  0.00    -0.310 A  
HETATM   14  C   UNL     1      -8.467  11.092  66.661  1.00  0.00    -0.153 A  
HETATM   15  C   UNL     1      -6.870  12.167  68.654  1.00  0.00    -0.089 A  
HETATM   16  H   UNL     1      -8.884  14.291  65.820  1.00  0.00     0.000 HD 
HETATM   17  C   UNL     1     -11.247  16.537  67.972  1.00  0.00    -0.202 A  
HETATM   18  C   UNL     1      -7.367  10.376  67.118  1.00  0.00    -0.092 A  
HETATM   19  C   UNL     1     -11.913  14.870  69.572  1.00  0.00    -0.347 A  
ENDROOT
BRANCH   1  20
HETATM   20  N   UNL     1     -11.540  10.475  68.142  1.00  0.00    -0.695 NA 
HETATM   21  H   UNL     1     -12.333  10.653  68.758  1.00  0.00     0.000 HD 
BRANCH  20  22
HETATM   22  C   UNL     1     -10.456   9.854  68.525  1.00  0.00    -0.205 C  
HETATM   23  C   UNL     1      -8.925   8.918  70.310  1.00  0.00    -0.201 C  
HETATM   24  C   UNL     1      -9.364   7.505  69.868  1.00  0.00    -0.150 C  
HETATM   25  C   UNL     1     -10.527   7.633  68.895  1.00  0.00    -0.211 C  
HETATM   26  C   UNL     1      -9.541  10.032  69.797  1.00  0.00    -0.249 C  
HETATM   27  C   UNL     1      -7.752   8.767  71.303  1.00  0.00    -0.149 C  
HETATM   28  C   UNL     1     -10.059   8.601  67.816  1.00  0.00    -0.266 C  
HETATM   29  C   UNL     1      -9.887   6.678  71.062  1.00  0.00    -0.196 C  
HETATM   30  C   UNL     1      -6.622   7.680  70.929  1.00  0.00    -0.038 C  
HETATM   31  C   UNL     1      -7.045   6.424  70.060  1.00  0.00    -0.071 C  
HETATM   32  C   UNL     1      -5.887   5.644  69.251  1.00  0.00    -0.019 C  
HETATM   33  C   UNL     1      -5.193   4.579  70.159  1.00  0.00     0.000 C  
HETATM   34  C   UNL     1      -5.663   3.192  69.669  1.00  0.00    -0.018 C  
HETATM   35  C   UNL     1      -6.923   3.521  68.872  1.00  0.00    -0.046 C  
HETATM   36  C   UNL     1      -8.150   6.893  69.118  1.00  0.00    -0.121 C  
HETATM   37  C   UNL     1      -6.424   4.743  68.049  1.00  0.00    -0.041 C  
HETATM   38  C   UNL     1      -8.621   5.859  68.101  1.00  0.00    -0.113 C  
HETATM   39  C   UNL     1      -7.495   5.427  67.235  1.00  0.00    -0.084 C  
HETATM   40  C   UNL     1      -5.352   4.406  66.976  1.00  0.00    -0.013 C  
BRANCH  35  41
HETATM   41  O   UNL     1      -7.564   2.424  68.204  1.00  0.00    -0.054 OA 
BRANCH  41  42
HETATM   42  C   UNL     1      -8.826   2.207  68.704  1.00  0.00    -0.104 C  
HETATM   43  O   UNL     1      -9.646   1.468  68.167  1.00  0.00    -0.189 OA 
BRANCH  42  44
HETATM   44  C   UNL     1      -9.236   2.940  69.963  1.00  0.00    -0.211 C  
BRANCH  44  45
HETATM   45  C   UNL     1      -9.652   2.212  71.233  1.00  0.00    -0.216 C  
BRANCH  45  46
HETATM   46  C   UNL     1      -9.408   3.018  72.503  1.00  0.00    -0.152 C  
BRANCH  46  47
HETATM   47  C   UNL     1      -8.006   3.633  72.594  1.00  0.00    -0.073 C  
BRANCH  47  48
HETATM   48  C   UNL     1      -7.949   4.916  73.425  1.00  0.00    -0.100 C  
HETATM   49  C   UNL     1      -6.531   5.467  73.505  1.00  0.00    -0.071 C  
ENDBRANCH  47  48
ENDBRANCH  46  47
ENDBRANCH  45  46
ENDBRANCH  44  45
ENDBRANCH  42  44
ENDBRANCH  41  42
ENDBRANCH  35  41
ENDBRANCH  20  22
ENDBRANCH   1  20
TORSDOF 9
ENDMDL
MODEL       59
REMARK 921   NORMALIZED FREE ENERGY PREDICTED BY IDOCK:   -4.75 KCAL/MOL
REMARK 922        TOTAL FREE ENERGY PREDICTED BY IDOCK:  -10.56 KCAL/MOL
REMARK 923 INTER-LIGAND FREE ENERGY PREDICTED BY IDOCK:   -8.43 KCAL/MOL
REMARK 924 INTRA-LIGAND FREE ENERGY PREDICTED BY IDOCK:   -2.13 KCAL/MOL
REMARK 927      BINDING AFFINITY PREDICTED BY RF-SCORE:    0.00 PKD
ROOT
HETATM    1  N   UNL     1      -7.250   5.818  68.335  1.00  0.00    -0.077 N  
HETATM    2  C   UNL     1      -7.481   4.588  68.930  1.00  0.00    -0.056 C  
HETATM    3  C   UNL     1     -11.874   6.887  70.221  1.00  0.00    -0.311 A  
HETATM    4  H   UNL     1      -7.204   5.797  67.317  1.00  0.00     0.000 HD 
HETATM    5  C   UNL     1      -7.393   3.060  72.220  1.00  0.00    -0.051 A  
HETATM    6  O   UNL     1      -7.016   3.593  68.313  1.00  0.00    -0.049 OA 
HETATM    7  C   UNL     1      -5.767   4.059  73.699  1.00  0.00    -0.004 A  
HETATM    8  C   UNL     1      -8.356   4.351  70.191  1.00  0.00    -0.066 C  
HETATM    9  O   UNL     1      -8.941   3.029  69.982  1.00  0.00    -0.081 OA 
HETATM   10  C   UNL     1      -7.491   4.251  71.462  1.00  0.00    -0.060 A  
HETATM   11  C   UNL     1     -10.197   5.627  71.434  1.00  0.00    -0.270 A  
HETATM   12  C   UNL     1      -9.587   5.247  70.229  1.00  0.00    -0.241 A  
HETATM   13  C   UNL     1      -6.742   5.350  71.895  1.00  0.00    -0.061 A  
HETATM   14  C   UNL     1     -10.207   5.640  69.025  1.00  0.00    -0.291 A  
HETATM   15  C   UNL     1     -11.330   6.449  71.425  1.00  0.00    -0.354 A  
HETATM   16  H   UNL     1      -9.476   2.884  70.753  1.00  0.00     0.000 HD 
HETATM   17  C   UNL     1      -6.535   2.967  73.321  1.00  0.00    -0.021 A  
HETATM   18  C   UNL     1     -11.318   6.476  69.015  1.00  0.00    -0.296 A  
HETATM   19  C   UNL     1      -5.881   5.257  72.994  1.00  0.00    -0.023 A  
ENDROOT
BRANCH   1  20
HETATM   20  N   UNL     1      -7.067   7.104  68.910  1.00  0.00    -0.082 NA 
HETATM   21  H   UNL     1      -6.659   7.254  69.833  1.00  0.00     0.000 HD 
BRANCH  20  22
HETATM   22  C   UNL     1      -7.477   8.074  68.137  1.00  0.00    -0.101 C  
HETATM   23  C   UNL     1      -9.174   9.139  66.590  1.00  0.00    -0.207 C  
HETATM   24  C   UNL     1      -9.489  10.145  67.719  1.00  0.00    -0.160 C  
HETATM   25  C   UNL     1      -8.794   9.689  68.993  1.00  0.00    -0.147 C  
HETATM   26  C   UNL     1      -8.346   8.068  66.821  1.00  0.00    -0.116 C  
HETATM   27  C   UNL     1      -9.895   9.613  65.309  1.00  0.00    -0.269 C  
HETATM   28  C   UNL     1      -7.333   9.482  68.614  1.00  0.00    -0.075 C  
HETATM   29  C   UNL     1     -10.999  10.178  68.038  1.00  0.00    -0.326 C  
HETATM   30  C   UNL     1      -9.836  11.192  64.987  1.00  0.00    -0.315 C  
HETATM   31  C   UNL     1      -9.705  12.202  66.201  1.00  0.00    -0.254 C  
HETATM   32  C   UNL     1      -9.123  13.675  65.892  1.00  0.00     0.324 C  
HETATM   33  C   UNL     1     -10.262  14.638  65.424  1.00  0.00    -0.415 C  
HETATM   34  C   UNL     1     -10.529  15.620  66.586  1.00  0.00    -0.301 C  
HETATM   35  C   UNL     1      -9.918  14.903  67.787  1.00  0.00    -0.222 C  
HETATM   36  C   UNL     1      -8.875  11.499  67.270  1.00  0.00    -0.160 C  
HETATM   37  C   UNL     1      -8.564  14.438  67.177  1.00  0.00    -0.237 C  
HETATM   38  C   UNL     1      -8.524  12.350  68.486  1.00  0.00    -0.069 C  
HETATM   39  C   UNL     1      -7.746  13.548  68.079  1.00  0.00    -0.143 C  
HETATM   40  C   UNL     1      -7.571  15.589  66.854  1.00  0.00    -0.162 C  
BRANCH  35  41
HETATM   41  O   UNL     1      -9.933  15.613  69.034  1.00  0.00    -0.207 OA 
BRANCH  41  42
HETATM   42  C   UNL     1     -10.673  16.768  68.938  1.00  0.00    -0.333 C  
HETATM   43  O   UNL     1     -11.896  16.794  69.038  1.00  0.00     0.200 OA 
BRANCH  42  44
HETATM   44  C   UNL     1      -9.946  18.067  68.667  1.00  0.00    -0.396 C  
BRANCH  44  45
HETATM   45  C   UNL     1     -10.517  19.150  67.763  1.00  0.00    -0.512 C  
BRANCH  45  46
HETATM   46  C   UNL     1      -9.871  19.193  66.384  1.00  0.00    -0.437 C  
BRANCH  46  47
HETATM   47  C   UNL     1      -8.341  19.303  66.413  1.00  0.00    -0.330 C  
BRANCH  47  48
HETATM   48  C   UNL     1      -7.828  20.583  67.075  1.00  0.00    -0.345 C  
HETATM   49  C   UNL     1      -6.833  20.276  68.187  1.00  0.00    -0.324 C  
ENDBRANCH  47  48
ENDBRANCH  46  47
ENDBRANCH  45  46
ENDBRANCH  44  45
ENDBRANCH  42  44
ENDBRANCH  41  42
ENDBRANCH  35  41
ENDBRANCH  20  22
ENDBRANCH   1  20
TORSDOF 9
ENDMDL
MODEL       60
REMARK 921   NORMALIZED FREE ENERGY PREDICTED BY IDOCK:   -4.67 KCAL/MOL
REMARK 922        TOTAL FREE ENERGY PREDICTED BY IDOCK:  -10.45 KCAL/MOL
REMARK 923 INTER-LIGAND FREE ENERGY PREDICTED BY IDOCK:  -10.08 KCAL/MOL
REMARK 924 INTRA-LIGAND FREE ENERGY PREDICTED BY IDOCK:   -0.37 KCAL/MOL
REMARK 927      BINDING AFFINITY PREDICTED BY RF-SCORE:    0.00 PKD
ROOT
HETATM    1  N   UNL     1     -11.011   8.108  67.992  1.00  0.00    -0.461 N  
HETATM    2  C   UNL     1     -10.565   6.888  67.509  1.00  0.00    -0.281 C  
HETATM    3  C   UNL     1      -9.672   6.101  72.494  1.00  0.00    -0.166 A  
HETATM    4  H   UNL     1     -12.012   8.269  67.883  1.00  0.00     0.000 HD 
HETATM    5  C   UNL     1      -7.442   5.201  66.754  1.00  0.00    -0.087 A  
HETATM    6  O   UNL     1     -11.201   6.431  66.523  1.00  0.00    -0.132 OA 
HETATM    7  C   UNL     1      -5.676   6.706  66.085  1.00  0.00    -0.025 A  
HETATM    8  C   UNL     1      -9.458   6.016  68.162  1.00  0.00    -0.114 C  
HETATM    9  O   UNL     1      -9.861   4.642  67.870  1.00  0.00    -0.158 OA 
HETATM   10  C   UNL     1      -8.097   6.229  67.473  1.00  0.00    -0.113 A  
HETATM   11  C   UNL     1      -8.363   5.835  70.471  1.00  0.00    -0.119 A  
HETATM   12  C   UNL     1      -9.505   6.048  69.685  1.00  0.00    -0.167 A  
HETATM   13  C   UNL     1      -7.471   7.480  67.518  1.00  0.00    -0.104 A  
HETATM   14  C   UNL     1     -10.741   6.200  70.346  1.00  0.00    -0.347 A  
HETATM   15  C   UNL     1      -8.450   5.870  71.868  1.00  0.00    -0.126 A  
HETATM   16  H   UNL     1      -9.184   4.108  68.269  1.00  0.00     0.000 HD 
HETATM   17  C   UNL     1      -6.249   5.442  66.064  1.00  0.00    -0.034 A  
HETATM   18  C   UNL     1     -10.825   6.259  71.732  1.00  0.00    -0.294 A  
HETATM   19  C   UNL     1      -6.280   7.723  66.825  1.00  0.00    -0.049 A  
ENDROOT
BRANCH   1  20
HETATM   20  N   UNL     1     -10.305   9.171  68.614  1.00  0.00    -0.205 NA 
HETATM   21  H   UNL     1      -9.815   9.076  69.505  1.00  0.00     0.000 HD 
BRANCH  20  22
HETATM   22  C   UNL     1     -10.346  10.283  67.930  1.00  0.00    -0.196 C  
HETATM   23  C   UNL     1     -11.594  12.206  66.858  1.00  0.00    -0.408 C  
HETATM   24  C   UNL     1     -11.031  13.119  67.969  1.00  0.00    -0.270 C  
HETATM   25  C   UNL     1     -10.358  12.253  69.024  1.00  0.00     0.008 C  
HETATM   26  C   UNL     1     -11.409  10.847  66.911  1.00  0.00    -0.044 C  
HETATM   27  C   UNL     1     -12.280  13.101  65.803  1.00  0.00    -0.514 C  
HETATM   28  C   UNL     1      -9.376  11.368  68.266  1.00  0.00    -0.187 C  
HETATM   29  C   UNL     1     -12.158  13.886  68.693  1.00  0.00    -0.337 C  
HETATM   30  C   UNL     1     -11.506  14.453  65.386  1.00  0.00    -0.344 C  
HETATM   31  C   UNL     1     -10.554  15.134  66.454  1.00  0.00    -0.305 C  
HETATM   32  C   UNL     1      -9.405  16.128  65.910  1.00  0.00    -0.316 C  
HETATM   33  C   UNL     1      -9.963  17.575  65.722  1.00  0.00    -0.060 C  
HETATM   34  C   UNL     1      -9.364  18.440  66.853  1.00  0.00    -0.290 C  
HETATM   35  C   UNL     1      -8.913  17.401  67.876  1.00  0.00    -0.251 C  
HETATM   36  C   UNL     1      -9.954  14.008  67.289  1.00  0.00    -0.242 C  
HETATM   37  C   UNL     1      -8.213  16.373  66.942  1.00  0.00    -0.253 C  
HETATM   38  C   UNL     1      -8.905  14.441  68.307  1.00  0.00    -0.182 C  
HETATM   39  C   UNL     1      -7.764  15.108  67.631  1.00  0.00    -0.186 C  
HETATM   40  C   UNL     1      -6.898  16.882  66.289  1.00  0.00    -0.086 C  
BRANCH  35  41
HETATM   41  O   UNL     1      -8.226  17.897  69.035  1.00  0.00    -0.177 OA 
BRANCH  41  42
HETATM   42  C   UNL     1      -7.912  19.228  68.894  1.00  0.00    -0.318 C  
HETATM   43  O   UNL     1      -8.656  20.042  68.353  1.00  0.00    -0.217 OA 
BRANCH  42  44
HETATM   44  C   UNL     1      -6.571  19.709  69.404  1.00  0.00    -0.383 C  
BRANCH  44  45
HETATM   45  C   UNL     1      -5.714  20.704  68.636  1.00  0.00    -0.367 C  
BRANCH  45  46
HETATM   46  C   UNL     1      -5.360  20.242  67.227  1.00  0.00    -0.180 C  
BRANCH  46  47
HETATM   47  C   UNL     1      -6.084  21.012  66.116  1.00  0.00    -0.310 C  
BRANCH  47  48
HETATM   48  C   UNL     1      -6.310  20.191  64.845  1.00  0.00    -0.329 C  
HETATM   49  C   UNL     1      -6.146  21.044  63.593  1.00  0.00    -0.351 C  
ENDBRANCH  47  48
ENDBRANCH  46  47
ENDBRANCH  45  46
ENDBRANCH  44  45
ENDBRANCH  42  44
ENDBRANCH  41  42
ENDBRANCH  35  41
ENDBRANCH  20  22
ENDBRANCH   1  20
TORSDOF 9
ENDMDL
MODEL       61
REMARK 921   NORMALIZED FREE ENERGY PREDICTED BY IDOCK:   -4.66 KCAL/MOL
REMARK 922        TOTAL FREE ENERGY PREDICTED BY IDOCK:  -10.42 KCAL/MOL
REMARK 923 INTER-LIGAND FREE ENERGY PREDICTED BY IDOCK:   -8.12 KCAL/MOL
REMARK 924 INTRA-LIGAND FREE ENERGY PREDICTED BY IDOCK:   -2.31 KCAL/MOL
REMARK 927      BINDING AFFINITY PREDICTED BY RF-SCORE:    0.00 PKD
ROOT
HETATM    1  N   UNL     1      -7.681   7.129  70.765  1.00  0.00    -0.092 N  
HETATM    2  C   UNL     1      -7.189   5.928  71.252  1.00  0.00    -0.078 C  
HETATM    3  C   UNL     1      -9.141   4.209  66.837  1.00  0.00    -0.152 A  
HETATM    4  H   UNL     1      -6.967   7.819  70.534  1.00  0.00     0.000 HD 
HETATM    5  C   UNL     1      -8.395   2.917  72.878  1.00  0.00    -0.075 A  
HETATM    6  O   UNL     1      -6.117   6.008  71.907  1.00  0.00    -0.038 OA 
HETATM    7  C   UNL     1     -10.341   3.285  74.260  1.00  0.00    -0.234 A  
HETATM    8  C   UNL     1      -7.781   4.525  70.943  1.00  0.00    -0.064 C  
HETATM    9  O   UNL     1      -6.621   3.637  70.944  1.00  0.00    -0.029 OA 
HETATM   10  C   UNL     1      -8.702   4.044  72.079  1.00  0.00    -0.124 A  
HETATM   11  C   UNL     1      -9.306   3.512  69.152  1.00  0.00    -0.242 A  
HETATM   12  C   UNL     1      -8.282   4.401  69.510  1.00  0.00    -0.065 A  
HETATM   13  C   UNL     1      -9.881   4.738  72.376  1.00  0.00    -0.211 A  
HETATM   14  C   UNL     1      -7.646   5.123  68.479  1.00  0.00    -0.079 A  
HETATM   15  C   UNL     1      -9.735   3.425  67.822  1.00  0.00    -0.048 A  
HETATM   16  H   UNL     1      -6.983   2.779  70.755  1.00  0.00     0.000 HD 
HETATM   17  C   UNL     1      -9.204   2.549  73.959  1.00  0.00    -0.088 A  
HETATM   18  C   UNL     1      -8.087   5.055  67.162  1.00  0.00    -0.107 A  
HETATM   19  C   UNL     1     -10.688   4.373  73.459  1.00  0.00    -0.327 A  
ENDROOT
BRANCH   1  20
HETATM   20  N   UNL     1      -9.015   7.556  70.532  1.00  0.00    -0.151 NA 
HETATM   21  H   UNL     1      -9.813   7.230  71.077  1.00  0.00     0.000 HD 
BRANCH  20  22
HETATM   22  C   UNL     1      -9.115   8.409  69.547  1.00  0.00    -0.153 C  
HETATM   23  C   UNL     1     -10.394   9.506  67.658  1.00  0.00    -0.299 C  
HETATM   24  C   UNL     1     -10.489  10.775  68.532  1.00  0.00    -0.208 C  
HETATM   25  C   UNL     1     -10.002  10.444  69.935  1.00  0.00    -0.096 C  
HETATM   26  C   UNL     1      -9.889   8.339  68.175  1.00  0.00    -0.198 C  
HETATM   27  C   UNL     1     -10.900   9.859  66.242  1.00  0.00     0.142 C  
HETATM   28  C   UNL     1      -8.630   9.806  69.757  1.00  0.00    -0.215 C  
HETATM   29  C   UNL     1     -11.950  11.248  68.681  1.00  0.00    -0.314 C  
HETATM   30  C   UNL     1     -10.411  11.268  65.629  1.00  0.00    -0.317 C  
HETATM   31  C   UNL     1     -10.079  12.449  66.631  1.00  0.00    -0.234 C  
HETATM   32  C   UNL     1      -9.116  13.632  66.106  1.00  0.00     0.097 C  
HETATM   33  C   UNL     1      -9.936  14.723  65.346  1.00  0.00    -0.369 C  
HETATM   34  C   UNL     1      -9.993  15.965  66.261  1.00  0.00    -0.318 C  
HETATM   35  C   UNL     1      -9.652  15.393  67.635  1.00  0.00    -0.210 C  
HETATM   36  C   UNL     1      -9.518  11.808  67.896  1.00  0.00    -0.191 C  
HETATM   37  C   UNL     1      -8.439  14.489  67.269  1.00  0.00    -0.234 C  
HETATM   38  C   UNL     1      -9.017  12.785  68.954  1.00  0.00     0.328 C  
HETATM   39  C   UNL     1      -7.931  13.637  68.406  1.00  0.00    -0.147 C  
HETATM   40  C   UNL     1      -7.164  15.262  66.834  1.00  0.00     0.186 C  
BRANCH  35  41
HETATM   41  O   UNL     1      -9.542  16.334  68.713  1.00  0.00    -0.222 OA 
BRANCH  41  42
HETATM   42  C   UNL     1     -10.704  16.387  69.447  1.00  0.00    -0.324 C  
HETATM   43  O   UNL     1     -11.001  17.332  70.171  1.00  0.00     0.229 OA 
BRANCH  42  44
HETATM   44  C   UNL     1     -11.649  15.207  69.382  1.00  0.00    -0.343 C  
BRANCH  44  45
HETATM   45  C   UNL     1     -12.934  15.144  70.195  1.00  0.00    -0.126 C  
BRANCH  45  46
HETATM   46  C   UNL     1     -13.033  13.908  71.081  1.00  0.00    -0.388 C  
BRANCH  46  47
HETATM   47  C   UNL     1     -13.541  14.194  72.499  1.00  0.00    -0.644 C  
BRANCH  47  48
HETATM   48  C   UNL     1     -13.751  15.680  72.791  1.00  0.00    -0.662 C  
HETATM   49  C   UNL     1     -12.701  16.214  73.757  1.00  0.00    -0.684 C  
ENDBRANCH  47  48
ENDBRANCH  46  47
ENDBRANCH  45  46
ENDBRANCH  44  45
ENDBRANCH  42  44
ENDBRANCH  41  42
ENDBRANCH  35  41
ENDBRANCH  20  22
ENDBRANCH   1  20
TORSDOF 9
ENDMDL
MODEL       62
REMARK 921   NORMALIZED FREE ENERGY PREDICTED BY IDOCK:   -4.61 KCAL/MOL
REMARK 922        TOTAL FREE ENERGY PREDICTED BY IDOCK:  -10.34 KCAL/MOL
REMARK 923 INTER-LIGAND FREE ENERGY PREDICTED BY IDOCK:   -8.05 KCAL/MOL
REMARK 924 INTRA-LIGAND FREE ENERGY PREDICTED BY IDOCK:   -2.29 KCAL/MOL
REMARK 927      BINDING AFFINITY PREDICTED BY RF-SCORE:    0.00 PKD
ROOT
HETATM    1  N   UNL     1      -9.464  13.971  65.825  1.00  0.00    -0.521 N  
HETATM    2  C   UNL     1     -10.422  14.896  66.206  1.00  0.00    -0.302 C  
HETATM    3  C   UNL     1      -6.259  17.411  67.820  1.00  0.00    -0.159 A  
HETATM    4  H   UNL     1      -9.372  13.843  64.817  1.00  0.00     0.000 HD 
HETATM    5  C   UNL     1     -12.158  15.988  69.200  1.00  0.00    -0.065 A  
HETATM    6  O   UNL     1     -11.415  14.995  65.438  1.00  0.00    -0.343 OA 
HETATM    7  C   UNL     1     -12.441  14.237  70.838  1.00  0.00    -0.424 A  
HETATM    8  C   UNL     1     -10.295  15.878  67.404  1.00  0.00    -0.288 C  
HETATM    9  O   UNL     1     -11.025  17.068  66.973  1.00  0.00    -0.113 OA 
HETATM   10  C   UNL     1     -11.027  15.341  68.648  1.00  0.00    -0.257 A  
HETATM   11  C   UNL     1      -8.388  16.830  68.823  1.00  0.00    -0.248 A  
HETATM   12  C   UNL     1      -8.880  16.413  67.578  1.00  0.00    -0.187 A  
HETATM   13  C   UNL     1     -10.601  14.159  69.264  1.00  0.00    -0.127 A  
HETATM   14  C   UNL     1      -8.053  16.592  66.449  1.00  0.00    -0.359 A  
HETATM   15  C   UNL     1      -7.081  17.320  68.940  1.00  0.00    -0.242 A  
HETATM   16  H   UNL     1     -10.947  17.669  67.706  1.00  0.00     0.000 HD 
HETATM   17  C   UNL     1     -12.858  15.437  70.279  1.00  0.00    -0.277 A  
HETATM   18  C   UNL     1      -6.747  17.055  66.567  1.00  0.00    -0.267 A  
HETATM   19  C   UNL     1     -11.302  13.605  70.340  1.00  0.00     0.183 A  
ENDROOT
BRANCH   1  20
HETATM   20  N   UNL     1      -8.588  13.171  66.606  1.00  0.00    -0.430 NA 
HETATM   21  H   UNL     1      -7.873  13.558  67.223  1.00  0.00     0.000 HD 
BRANCH  20  22
HETATM   22  C   UNL     1      -8.790  11.889  66.452  1.00  0.00    -0.152 C  
HETATM   23  C   UNL     1      -8.279   9.656  65.376  1.00  0.00    -0.129 C  
HETATM   24  C   UNL     1      -7.652   9.216  66.717  1.00  0.00    -0.087 C  
HETATM   25  C   UNL     1      -7.550  10.426  67.634  1.00  0.00    -0.089 C  
HETATM   26  C   UNL     1      -8.678  10.956  65.186  1.00  0.00    -0.130 C  
HETATM   27  C   UNL     1      -8.366   8.418  64.457  1.00  0.00    -0.125 C  
HETATM   28  C   UNL     1      -8.945  11.037  67.668  1.00  0.00    -0.142 C  
HETATM   29  C   UNL     1      -6.212   8.697  66.523  1.00  0.00    -0.058 C  
HETATM   30  C   UNL     1      -8.865   7.045  65.138  1.00  0.00     0.233 C  
HETATM   31  C   UNL     1      -8.582   6.824  66.682  1.00  0.00    -0.123 C  
HETATM   32  C   UNL     1      -9.502   5.759  67.470  1.00  0.00    -0.112 C  
HETATM   33  C   UNL     1      -8.931   4.312  67.324  1.00  0.00    -0.135 C  
HETATM   34  C   UNL     1      -8.326   3.925  68.691  1.00  0.00    -0.091 C  
HETATM   35  C   UNL     1      -8.138   5.276  69.376  1.00  0.00    -0.092 C  
HETATM   36  C   UNL     1      -8.647   8.198  67.341  1.00  0.00    -0.125 C  
HETATM   37  C   UNL     1      -9.505   5.946  69.055  1.00  0.00    -0.149 C  
HETATM   38  C   UNL     1      -8.520   8.197  68.861  1.00  0.00    -0.130 C  
HETATM   39  C   UNL     1      -9.605   7.391  69.475  1.00  0.00    -0.155 C  
HETATM   40  C   UNL     1     -10.725   5.304  69.771  1.00  0.00    -0.179 C  
BRANCH  35  41
HETATM   41  O   UNL     1      -7.656   5.248  70.728  1.00  0.00    -0.079 OA 
BRANCH  41  42
HETATM   42  C   UNL     1      -6.606   6.119  70.899  1.00  0.00    -0.053 C  
HETATM   43  O   UNL     1      -5.698   6.246  70.083  1.00  0.00    -0.013 OA 
BRANCH  42  44
HETATM   44  C   UNL     1      -6.551   6.939  72.170  1.00  0.00    -0.057 C  
BRANCH  44  45
HETATM   45  C   UNL     1      -7.132   8.342  72.263  1.00  0.00    -0.111 C  
BRANCH  45  46
HETATM   46  C   UNL     1      -8.634   8.361  72.516  1.00  0.00    -0.253 C  
BRANCH  46  47
HETATM   47  C   UNL     1      -9.117   7.290  73.501  1.00  0.00    -0.226 C  
BRANCH  47  48
HETATM   48  C   UNL     1     -10.617   7.003  73.412  1.00  0.00    -0.399 C  
HETATM   49  C   UNL     1     -11.335   8.037  72.555  1.00  0.00    -0.469 C  
ENDBRANCH  47  48
ENDBRANCH  46  47
ENDBRANCH  45  46
ENDBRANCH  44  45
ENDBRANCH  42  44
ENDBRANCH  41  42
ENDBRANCH  35  41
ENDBRANCH  20  22
ENDBRANCH   1  20
TORSDOF 9
ENDMDL
MODEL       63
REMARK 921   NORMALIZED FREE ENERGY PREDICTED BY IDOCK:   -4.60 KCAL/MOL
REMARK 922        TOTAL FREE ENERGY PREDICTED BY IDOCK:  -10.33 KCAL/MOL
REMARK 923 INTER-LIGAND FREE ENERGY PREDICTED BY IDOCK:   -9.76 KCAL/MOL
REMARK 924 INTRA-LIGAND FREE ENERGY PREDICTED BY IDOCK:   -0.58 KCAL/MOL
REMARK 927      BINDING AFFINITY PREDICTED BY RF-SCORE:    0.00 PKD
ROOT
HETATM    1  N   UNL     1     -10.328   7.847  69.071  1.00  0.00    -0.213 N  
HETATM    2  C   UNL     1     -10.595   6.609  69.635  1.00  0.00    -0.234 C  
HETATM    3  C   UNL     1      -6.795   8.061  72.753  1.00  0.00    -0.095 A  
HETATM    4  H   UNL     1     -11.080   8.529  69.167  1.00  0.00     0.000 HD 
HETATM    5  C   UNL     1      -9.236   3.245  69.659  1.00  0.00    -0.221 A  
HETATM    6  O   UNL     1     -11.804   6.260  69.628  1.00  0.00    -0.290 OA 
HETATM    7  C   UNL     1      -8.102   2.653  67.610  1.00  0.00    -0.072 A  
HETATM    8  C   UNL     1      -9.556   5.715  70.367  1.00  0.00    -0.170 C  
HETATM    9  O   UNL     1     -10.333   5.029  71.397  1.00  0.00    -0.209 OA 
HETATM   10  C   UNL     1      -9.002   4.622  69.435  1.00  0.00    -0.140 A  
HETATM   11  C   UNL     1      -7.272   6.058  71.475  1.00  0.00    -0.083 A  
HETATM   12  C   UNL     1      -8.565   6.523  71.196  1.00  0.00    -0.130 A  
HETATM   13  C   UNL     1      -8.258   4.970  68.301  1.00  0.00    -0.089 A  
HETATM   14  C   UNL     1      -8.971   7.736  71.791  1.00  0.00    -0.155 A  
HETATM   15  C   UNL     1      -6.393   6.829  72.244  1.00  0.00    -0.049 A  
HETATM   16  H   UNL     1      -9.698   4.482  71.844  1.00  0.00     0.000 HD 
HETATM   17  C   UNL     1      -8.795   2.274  68.752  1.00  0.00    -0.147 A  
HETATM   18  C   UNL     1      -8.092   8.514  72.534  1.00  0.00    -0.122 A  
HETATM   19  C   UNL     1      -7.821   4.001  67.392  1.00  0.00    -0.091 A  
ENDROOT
BRANCH   1  20
HETATM   20  N   UNL     1      -9.181   8.322  68.381  1.00  0.00    -0.136 NA 
HETATM   21  H   UNL     1      -8.275   7.854  68.408  1.00  0.00     0.000 HD 
BRANCH  20  22
HETATM   22  C   UNL     1      -9.406   9.419  67.708  1.00  0.00    -0.128 C  
HETATM   23  C   UNL     1     -10.952  11.081  66.587  1.00  0.00    -0.253 C  
HETATM   24  C   UNL     1     -10.642  12.062  67.739  1.00  0.00    -0.234 C  
HETATM   25  C   UNL     1      -9.868  11.323  68.821  1.00  0.00    -0.194 C  
HETATM   26  C   UNL     1     -10.503   9.784  66.636  1.00  0.00    -0.233 C  
HETATM   27  C   UNL     1     -11.744  11.845  65.505  1.00  0.00    -0.224 C  
HETATM   28  C   UNL     1      -8.691  10.667  68.111  1.00  0.00    -0.130 C  
HETATM   29  C   UNL     1     -11.936  12.575  68.406  1.00  0.00    -0.271 C  
HETATM   30  C   UNL     1     -11.232  13.332  65.148  1.00  0.00    -0.322 C  
HETATM   31  C   UNL     1     -10.493  14.165  66.276  1.00  0.00    -0.286 C  
HETATM   32  C   UNL     1      -9.537  15.377  65.810  1.00  0.00    -0.368 C  
HETATM   33  C   UNL     1     -10.360  16.690  65.606  1.00  0.00    -0.310 C  
HETATM   34  C   UNL     1     -10.006  17.631  66.779  1.00  0.00    -0.320 C  
HETATM   35  C   UNL     1      -9.415  16.679  67.814  1.00  0.00    -0.227 C  
HETATM   36  C   UNL     1      -9.727  13.161  67.132  1.00  0.00    -0.235 C  
HETATM   37  C   UNL     1      -8.474  15.830  66.910  1.00  0.00    -0.281 C  
HETATM   38  C   UNL     1      -8.842  13.770  68.213  1.00  0.00    -0.185 C  
HETATM   39  C   UNL     1      -7.821  14.664  67.610  1.00  0.00    -0.196 C  
HETATM   40  C   UNL     1      -7.254  16.604  66.339  1.00  0.00    -0.168 C  
BRANCH  35  41
HETATM   41  O   UNL     1      -8.903  17.275  69.016  1.00  0.00    -0.207 OA 
BRANCH  41  42
HETATM   42  C   UNL     1      -8.563  18.592  68.811  1.00  0.00    -0.238 C  
HETATM   43  O   UNL     1      -9.384  19.464  68.541  1.00  0.00    -0.356 OA 
BRANCH  42  44
HETATM   44  C   UNL     1      -7.103  18.979  68.892  1.00  0.00    -0.363 C  
BRANCH  44  45
HETATM   45  C   UNL     1      -6.647  20.422  69.051  1.00  0.00    -0.226 C  
BRANCH  45  46
HETATM   46  C   UNL     1      -5.352  20.735  68.313  1.00  0.00    -0.325 C  
BRANCH  46  47
HETATM   47  C   UNL     1      -5.554  21.246  66.882  1.00  0.00    -0.348 C  
BRANCH  47  48
HETATM   48  C   UNL     1      -5.431  20.157  65.815  1.00  0.00    -0.187 C  
HETATM   49  C   UNL     1      -6.582  20.218  64.819  1.00  0.00    -0.299 C  
ENDBRANCH  47  48
ENDBRANCH  46  47
ENDBRANCH  45  46
ENDBRANCH  44  45
ENDBRANCH  42  44
ENDBRANCH  41  42
ENDBRANCH  35  41
ENDBRANCH  20  22
ENDBRANCH   1  20
TORSDOF 9
ENDMDL
MODEL       64
REMARK 921   NORMALIZED FREE ENERGY PREDICTED BY IDOCK:   -4.54 KCAL/MOL
REMARK 922        TOTAL FREE ENERGY PREDICTED BY IDOCK:  -10.24 KCAL/MOL
REMARK 923 INTER-LIGAND FREE ENERGY PREDICTED BY IDOCK:   -8.11 KCAL/MOL
REMARK 924 INTRA-LIGAND FREE ENERGY PREDICTED BY IDOCK:   -2.12 KCAL/MOL
REMARK 927      BINDING AFFINITY PREDICTED BY RF-SCORE:    0.00 PKD
ROOT
HETATM    1  N   UNL     1      -8.656  14.448  67.161  1.00  0.00    -0.213 N  
HETATM    2  C   UNL     1      -8.363  15.688  67.706  1.00  0.00    -0.148 C  
HETATM    3  C   UNL     1     -12.366  14.487  70.670  1.00  0.00    -0.407 A  
HETATM    4  H   UNL     1      -7.940  13.737  67.311  1.00  0.00     0.000 HD 
HETATM    5  C   UNL     1      -9.571  19.107  67.578  1.00  0.00    -0.373 A  
HETATM    6  O   UNL     1      -7.140  15.985  67.750  1.00  0.00    -0.123 OA 
HETATM    7  C   UNL     1     -10.579  19.691  65.463  1.00  0.00    -0.331 A  
HETATM    8  C   UNL     1      -9.394  16.646  68.364  1.00  0.00    -0.224 C  
HETATM    9  O   UNL     1      -8.638  17.326  69.412  1.00  0.00     0.096 OA 
HETATM   10  C   UNL     1      -9.855  17.735  67.378  1.00  0.00    -0.311 A  
HETATM   11  C   UNL     1     -11.741  16.432  69.367  1.00  0.00     0.035 A  
HETATM   12  C   UNL     1     -10.458  15.904  69.163  1.00  0.00    -0.235 A  
HETATM   13  C   UNL     1     -10.558  17.389  66.219  1.00  0.00    -0.194 A  
HETATM   14  C   UNL     1     -10.135  14.692  69.808  1.00  0.00     0.148 A  
HETATM   15  C   UNL     1     -12.690  15.720  70.112  1.00  0.00    -0.045 A  
HETATM   16  H   UNL     1      -9.269  17.912  69.814  1.00  0.00     0.000 HD 
HETATM   17  C   UNL     1      -9.925  20.070  66.626  1.00  0.00    -0.598 A  
HETATM   18  C   UNL     1     -11.082  13.972  70.527  1.00  0.00     0.397 A  
HETATM   19  C   UNL     1     -10.909  18.350  65.265  1.00  0.00     0.528 A  
ENDROOT
BRANCH   1  20
HETATM   20  N   UNL     1      -9.788  14.004  66.429  1.00  0.00    -0.287 NA 
HETATM   21  H   UNL     1     -10.297  14.592  65.768  1.00  0.00     0.000 HD 
BRANCH  20  22
HETATM   22  C   UNL     1     -10.113  12.765  66.688  1.00  0.00    -0.243 C  
HETATM   23  C   UNL     1      -9.778  10.267  66.452  1.00  0.00    -0.252 C  
HETATM   24  C   UNL     1      -9.272  10.253  67.911  1.00  0.00    -0.143 C  
HETATM   25  C   UNL     1      -9.094  11.688  68.384  1.00  0.00    -0.180 C  
HETATM   26  C   UNL     1     -10.030  11.456  65.813  1.00  0.00    -0.271 C  
HETATM   27  C   UNL     1      -9.943   8.804  65.986  1.00  0.00    -0.153 C  
HETATM   28  C   UNL     1     -10.419  12.384  68.099  1.00  0.00    -0.228 C  
HETATM   29  C   UNL     1      -7.884   9.586  68.019  1.00  0.00    -0.087 C  
HETATM   30  C   UNL     1     -10.616   7.782  67.036  1.00  0.00    -0.396 C  
HETATM   31  C   UNL     1     -10.439   8.069  68.584  1.00  0.00    -0.196 C  
HETATM   32  C   UNL     1     -11.504   7.406  69.598  1.00  0.00     0.103 C  
HETATM   33  C   UNL     1     -11.077   5.953  69.984  1.00  0.00    -0.411 C  
HETATM   34  C   UNL     1     -10.588   5.999  71.448  1.00  0.00    -0.300 C  
HETATM   35  C   UNL     1     -10.299   7.482  71.665  1.00  0.00    -0.192 C  
HETATM   36  C   UNL     1     -10.397   9.585  68.748  1.00  0.00    -0.228 C  
HETATM   37  C   UNL     1     -11.571   8.112  71.028  1.00  0.00    -0.301 C  
HETATM   38  C   UNL     1     -10.351  10.083  70.189  1.00  0.00    -0.321 C  
HETATM   39  C   UNL     1     -11.544   9.618  70.941  1.00  0.00    -0.420 C  
HETATM   40  C   UNL     1     -12.886   7.846  71.810  1.00  0.00    -0.351 C  
BRANCH  35  41
HETATM   41  O   UNL     1      -9.895   7.870  72.987  1.00  0.00    -0.249 OA 
BRANCH  41  42
HETATM   42  C   UNL     1      -8.572   8.246  73.011  1.00  0.00    -0.206 C  
HETATM   43  O   UNL     1      -7.926   8.368  74.047  1.00  0.00    -0.300 OA 
BRANCH  42  44
HETATM   44  C   UNL     1      -7.888   8.554  71.697  1.00  0.00    -0.160 C  
BRANCH  44  45
HETATM   45  C   UNL     1      -6.532   7.972  71.326  1.00  0.00    -0.038 C  
BRANCH  45  46
HETATM   46  C   UNL     1      -6.609   6.553  70.776  1.00  0.00    -0.053 C  
BRANCH  46  47
HETATM   47  C   UNL     1      -7.380   6.434  69.456  1.00  0.00    -0.088 C  
BRANCH  47  48
HETATM   48  C   UNL     1      -7.230   5.074  68.775  1.00  0.00    -0.058 C  
HETATM   49  C   UNL     1      -8.249   4.892  67.657  1.00  0.00    -0.105 C  
ENDBRANCH  47  48
ENDBRANCH  46  47
ENDBRANCH  45  46
ENDBRANCH  44  45
ENDBRANCH  42  44
ENDBRANCH  41  42
ENDBRANCH  35  41
ENDBRANCH  20  22
ENDBRANCH   1  20
TORSDOF 9
ENDMDL
MODEL       65
REMARK 921   NORMALIZED FREE ENERGY PREDICTED BY IDOCK:   -4.52 KCAL/MOL
REMARK 922        TOTAL FREE ENERGY PREDICTED BY IDOCK:  -10.21 KCAL/MOL
REMARK 923 INTER-LIGAND FREE ENERGY PREDICTED BY IDOCK:   -9.67 KCAL/MOL
REMARK 924 INTRA-LIGAND FREE ENERGY PREDICTED BY IDOCK:   -0.55 KCAL/MOL
REMARK 927      BINDING AFFINITY PREDICTED BY RF-SCORE:    0.00 PKD
ROOT
HETATM    1  N   UNL     1      -8.307   6.379  66.846  1.00  0.00    -0.109 N  
HETATM    2  C   UNL     1      -7.307   5.438  67.032  1.00  0.00    -0.083 C  
HETATM    3  C   UNL     1      -9.694   3.232  63.070  1.00  0.00    -0.098 A  
HETATM    4  H   UNL     1      -7.979   7.293  66.534  1.00  0.00     0.000 HD 
HETATM    5  C   UNL     1      -6.858   2.151  68.503  1.00  0.00    -0.039 A  
HETATM    6  O   UNL     1      -6.193   5.897  67.399  1.00  0.00    -0.031 OA 
HETATM    7  C   UNL     1      -8.331   1.725  70.369  1.00  0.00    -0.066 A  
HETATM    8  C   UNL     1      -7.427   3.924  66.703  1.00  0.00    -0.080 C  
HETATM    9  O   UNL     1      -6.080   3.536  66.293  1.00  0.00    -0.023 OA 
HETATM   10  C   UNL     1      -7.757   3.102  67.962  1.00  0.00    -0.059 A  
HETATM   11  C   UNL     1      -8.938   2.462  65.240  1.00  0.00    -0.127 A  
HETATM   12  C   UNL     1      -8.237   3.660  65.440  1.00  0.00    -0.097 A  
HETATM   13  C   UNL     1      -8.968   3.295  68.636  1.00  0.00    -0.185 A  
HETATM   14  C   UNL     1      -8.217   4.595  64.384  1.00  0.00    -0.112 A  
HETATM   15  C   UNL     1      -9.667   2.256  64.063  1.00  0.00    -0.139 A  
HETATM   16  H   UNL     1      -6.153   2.611  66.092  1.00  0.00     0.000 HD 
HETATM   17  C   UNL     1      -7.142   1.478  69.696  1.00  0.00    -0.033 A  
HETATM   18  C   UNL     1      -8.960   4.403  63.225  1.00  0.00    -0.132 A  
HETATM   19  C   UNL     1      -9.251   2.624  69.830  1.00  0.00    -0.205 A  
ENDROOT
BRANCH   1  20
HETATM   20  N   UNL     1      -9.713   6.281  67.017  1.00  0.00    -0.137 NA 
HETATM   21  H   UNL     1     -10.246   5.432  66.824  1.00  0.00     0.000 HD 
BRANCH  20  22
HETATM   22  C   UNL     1     -10.256   7.389  67.446  1.00  0.00    -0.246 C  
HETATM   23  C   UNL     1     -10.606   9.175  69.206  1.00  0.00    -0.229 C  
HETATM   24  C   UNL     1      -9.780  10.132  68.318  1.00  0.00    -0.154 C  
HETATM   25  C   UNL     1      -9.150   9.334  67.187  1.00  0.00    -0.149 C  
HETATM   26  C   UNL     1     -10.709   7.843  68.887  1.00  0.00    -0.098 C  
HETATM   27  C   UNL     1     -11.230  10.000  70.352  1.00  0.00    -0.393 C  
HETATM   28  C   UNL     1     -10.294   8.570  66.533  1.00  0.00    -0.215 C  
HETATM   29  C   UNL     1      -8.613  10.764  69.106  1.00  0.00    -0.097 C  
HETATM   30  C   UNL     1     -11.856  11.432  69.956  1.00  0.00    -0.440 C  
HETATM   31  C   UNL     1     -11.244  12.203  68.714  1.00  0.00    -0.314 C  
HETATM   32  C   UNL     1     -12.160  13.322  67.998  1.00  0.00    -0.260 C  
HETATM   33  C   UNL     1     -12.019  14.701  68.718  1.00  0.00    -0.301 C  
HETATM   34  C   UNL     1     -11.194  15.615  67.785  1.00  0.00    -0.297 C  
HETATM   35  C   UNL     1     -10.509  14.620  66.852  1.00  0.00    -0.270 C  
HETATM   36  C   UNL     1     -10.796  11.140  67.714  1.00  0.00    -0.288 C  
HETATM   37  C   UNL     1     -11.705  13.685  66.512  1.00  0.00    -0.414 C  
HETATM   38  C   UNL     1     -10.283  11.675  66.382  1.00  0.00    -0.256 C  
HETATM   39  C   UNL     1     -11.335  12.470  65.698  1.00  0.00    -0.372 C  
HETATM   40  C   UNL     1     -12.815  14.342  65.647  1.00  0.00    -0.321 C  
BRANCH  35  41
HETATM   41  O   UNL     1      -9.715  15.177  65.793  1.00  0.00    -0.324 OA 
BRANCH  41  42
HETATM   42  C   UNL     1      -9.673  16.549  65.872  1.00  0.00    -0.270 C  
HETATM   43  O   UNL     1     -10.504  17.280  65.341  1.00  0.00    -0.635 OA 
BRANCH  42  44
HETATM   44  C   UNL     1      -8.529  17.191  66.627  1.00  0.00    -0.284 C  
BRANCH  44  45
HETATM   45  C   UNL     1      -7.077  17.021  66.208  1.00  0.00    -0.236 C  
BRANCH  45  46
HETATM   46  C   UNL     1      -6.100  17.814  67.067  1.00  0.00    -0.177 C  
BRANCH  46  47
HETATM   47  C   UNL     1      -6.604  18.100  68.487  1.00  0.00    -0.218 C  
BRANCH  47  48
HETATM   48  C   UNL     1      -6.617  19.585  68.850  1.00  0.00    -0.339 C  
HETATM   49  C   UNL     1      -6.619  20.464  67.605  1.00  0.00    -0.312 C  
ENDBRANCH  47  48
ENDBRANCH  46  47
ENDBRANCH  45  46
ENDBRANCH  44  45
ENDBRANCH  42  44
ENDBRANCH  41  42
ENDBRANCH  35  41
ENDBRANCH  20  22
ENDBRANCH   1  20
TORSDOF 9
ENDMDL
MODEL       66
REMARK 921   NORMALIZED FREE ENERGY PREDICTED BY IDOCK:   -4.49 KCAL/MOL
REMARK 922        TOTAL FREE ENERGY PREDICTED BY IDOCK:  -10.17 KCAL/MOL
REMARK 923 INTER-LIGAND FREE ENERGY PREDICTED BY IDOCK:   -9.07 KCAL/MOL
REMARK 924 INTRA-LIGAND FREE ENERGY PREDICTED BY IDOCK:   -1.10 KCAL/MOL
REMARK 927      BINDING AFFINITY PREDICTED BY RF-SCORE:    0.00 PKD
ROOT
HETATM    1  N   UNL     1     -11.098   6.416  68.641  1.00  0.00    -0.466 N  
HETATM    2  C   UNL     1     -10.433   6.001  69.784  1.00  0.00    -0.255 C  
HETATM    3  C   UNL     1     -14.369   8.400  72.025  1.00  0.00    -0.555 A  
HETATM    4  H   UNL     1     -11.483   5.661  68.074  1.00  0.00     0.000 HD 
HETATM    5  C   UNL     1      -8.243   7.355  72.341  1.00  0.00    -0.117 A  
HETATM    6  O   UNL     1      -9.860   4.883  69.702  1.00  0.00    -0.180 OA 
HETATM    7  C   UNL     1      -6.846   9.160  71.551  1.00  0.00    -0.005 A  
HETATM    8  C   UNL     1     -10.459   6.736  71.153  1.00  0.00    -0.214 C  
HETATM    9  O   UNL     1     -10.364   5.662  72.140  1.00  0.00    -0.196 OA 
HETATM   10  C   UNL     1      -9.210   7.615  71.341  1.00  0.00    -0.152 A  
HETATM   11  C   UNL     1     -11.962   8.465  72.298  1.00  0.00    -0.455 A  
HETATM   12  C   UNL     1     -11.820   7.344  71.469  1.00  0.00    -0.327 A  
HETATM   13  C   UNL     1      -8.978   8.704  70.492  1.00  0.00    -0.185 A  
HETATM   14  C   UNL     1     -12.995   6.719  70.999  1.00  0.00    -0.069 A  
HETATM   15  C   UNL     1     -13.231   8.992  72.567  1.00  0.00    -0.467 A  
HETATM   16  H   UNL     1     -10.380   6.111  72.977  1.00  0.00     0.000 HD 
HETATM   17  C   UNL     1      -7.072   8.117  72.438  1.00  0.00    -0.106 A  
HETATM   18  C   UNL     1     -14.254   7.254  71.245  1.00  0.00    -0.368 A  
HETATM   19  C   UNL     1      -7.806   9.463  70.586  1.00  0.00    -0.178 A  
ENDROOT
BRANCH   1  20
HETATM   20  N   UNL     1     -11.331   7.720  68.129  1.00  0.00    -0.009 NA 
HETATM   21  H   UNL     1     -12.251   8.056  67.843  1.00  0.00     0.000 HD 
BRANCH  20  22
HETATM   22  C   UNL     1     -10.246   8.445  68.060  1.00  0.00    -0.212 C  
HETATM   23  C   UNL     1      -8.203   9.308  66.839  1.00  0.00    -0.119 C  
HETATM   24  C   UNL     1      -8.911  10.677  66.736  1.00  0.00    -0.146 C  
HETATM   25  C   UNL     1     -10.356  10.519  67.186  1.00  0.00    -0.285 C  
HETATM   26  C   UNL     1      -8.874   8.210  67.319  1.00  0.00    -0.136 C  
HETATM   27  C   UNL     1      -6.743   9.486  66.371  1.00  0.00    -0.075 C  
HETATM   28  C   UNL     1     -10.292   9.854  68.555  1.00  0.00    -0.221 C  
HETATM   29  C   UNL     1      -8.964  11.175  65.276  1.00  0.00    -0.134 C  
HETATM   30  C   UNL     1      -5.972  10.804  66.888  1.00  0.00    -0.069 C  
HETATM   31  C   UNL     1      -6.828  12.099  67.209  1.00  0.00    -0.149 C  
HETATM   32  C   UNL     1      -6.184  13.200  68.196  1.00  0.00    -0.106 C  
HETATM   33  C   UNL     1      -5.274  14.194  67.405  1.00  0.00     0.390 C  
HETATM   34  C   UNL     1      -6.027  15.541  67.340  1.00  0.00    -0.010 C  
HETATM   35  C   UNL     1      -7.469  15.141  67.641  1.00  0.00    -0.181 C  
HETATM   36  C   UNL     1      -8.177  11.615  67.733  1.00  0.00    -0.141 C  
HETATM   37  C   UNL     1      -7.249  14.190  68.853  1.00  0.00    -0.118 C  
HETATM   38  C   UNL     1      -9.117  12.712  68.218  1.00  0.00    -0.181 C  
HETATM   39  C   UNL     1      -8.495  13.482  69.325  1.00  0.00     0.676 C  
HETATM   40  C   UNL     1      -6.754  14.894  70.146  1.00  0.00    -0.117 C  
BRANCH  35  41
HETATM   41  O   UNL     1      -8.425  16.208  67.735  1.00  0.00    -0.157 OA 
BRANCH  41  42
HETATM   42  C   UNL     1      -8.969  16.497  66.506  1.00  0.00    -0.278 C  
HETATM   43  O   UNL     1      -8.327  16.998  65.587  1.00  0.00    -0.417 OA 
BRANCH  42  44
HETATM   44  C   UNL     1     -10.438  16.212  66.284  1.00  0.00    -0.321 C  
BRANCH  44  45
HETATM   45  C   UNL     1     -11.335  15.649  67.377  1.00  0.00    -0.163 C  
BRANCH  45  46
HETATM   46  C   UNL     1     -11.871  14.257  67.066  1.00  0.00    -0.455 C  
BRANCH  46  47
HETATM   47  C   UNL     1     -12.545  14.137  65.694  1.00  0.00    -0.495 C  
BRANCH  47  48
HETATM   48  C   UNL     1     -12.235  12.828  64.967  1.00  0.00    -0.527 C  
HETATM   49  C   UNL     1     -12.009  13.055  63.478  1.00  0.00    -0.615 C  
ENDBRANCH  47  48
ENDBRANCH  46  47
ENDBRANCH  45  46
ENDBRANCH  44  45
ENDBRANCH  42  44
ENDBRANCH  41  42
ENDBRANCH  35  41
ENDBRANCH  20  22
ENDBRANCH   1  20
TORSDOF 9
ENDMDL
MODEL       67
REMARK 921   NORMALIZED FREE ENERGY PREDICTED BY IDOCK:   -4.44 KCAL/MOL
REMARK 922        TOTAL FREE ENERGY PREDICTED BY IDOCK:  -10.09 KCAL/MOL
REMARK 923 INTER-LIGAND FREE ENERGY PREDICTED BY IDOCK:   -8.71 KCAL/MOL
REMARK 924 INTRA-LIGAND FREE ENERGY PREDICTED BY IDOCK:   -1.37 KCAL/MOL
REMARK 927      BINDING AFFINITY PREDICTED BY RF-SCORE:    0.00 PKD
ROOT
HETATM    1  N   UNL     1      -9.959   7.520  69.219  1.00  0.00    -0.175 N  
HETATM    2  C   UNL     1     -10.154   6.864  68.013  1.00  0.00    -0.166 C  
HETATM    3  C   UNL     1      -8.482   2.886  70.776  1.00  0.00    -0.095 A  
HETATM    4  H   UNL     1     -10.813   7.862  69.661  1.00  0.00     0.000 HD 
HETATM    5  C   UNL     1      -8.215   5.638  65.202  1.00  0.00    -0.136 A  
HETATM    6  O   UNL     1     -11.132   7.267  67.330  1.00  0.00    -0.214 OA 
HETATM    7  C   UNL     1      -6.215   6.925  64.781  1.00  0.00    -0.036 A  
HETATM    8  C   UNL     1      -9.354   5.624  67.528  1.00  0.00    -0.109 C  
HETATM    9  O   UNL     1     -10.319   4.858  66.742  1.00  0.00    -0.237 OA 
HETATM   10  C   UNL     1      -8.225   6.028  66.563  1.00  0.00    -0.107 A  
HETATM   11  C   UNL     1      -7.903   3.815  68.614  1.00  0.00    -0.063 A  
HETATM   12  C   UNL     1      -9.022   4.659  68.659  1.00  0.00    -0.142 A  
HETATM   13  C   UNL     1      -7.169   6.832  67.007  1.00  0.00    -0.081 A  
HETATM   14  C   UNL     1      -9.904   4.526  69.751  1.00  0.00    -0.295 A  
HETATM   15  C   UNL     1      -7.634   2.939  69.674  1.00  0.00    -0.044 A  
HETATM   16  H   UNL     1      -9.830   4.100  66.445  1.00  0.00     0.000 HD 
HETATM   17  C   UNL     1      -7.223   6.088  64.323  1.00  0.00    -0.057 A  
HETATM   18  C   UNL     1      -9.627   3.674  70.814  1.00  0.00    -0.249 A  
HETATM   19  C   UNL     1      -6.179   7.285  66.128  1.00  0.00    -0.041 A  
ENDROOT
BRANCH   1  20
HETATM   20  N   UNL     1      -8.768   7.794  69.941  1.00  0.00    -0.141 NA 
HETATM   21  H   UNL     1      -8.353   7.145  70.610  1.00  0.00     0.000 HD 
BRANCH  20  22
HETATM   22  C   UNL     1      -8.257   8.964  69.662  1.00  0.00    -0.114 C  
HETATM   23  C   UNL     1      -6.691  10.470  68.363  1.00  0.00    -0.060 C  
HETATM   24  C   UNL     1      -7.928  11.034  67.632  1.00  0.00    -0.115 C  
HETATM   25  C   UNL     1      -9.139  10.183  67.985  1.00  0.00    -0.131 C  
HETATM   26  C   UNL     1      -6.809   9.393  69.206  1.00  0.00    -0.049 C  
HETATM   27  C   UNL     1      -5.472  11.339  67.986  1.00  0.00    -0.042 C  
HETATM   28  C   UNL     1      -9.177  10.130  69.507  1.00  0.00    -0.223 C  
HETATM   29  C   UNL     1      -7.767  10.943  66.099  1.00  0.00    -0.133 C  
HETATM   30  C   UNL     1      -5.702  12.935  67.957  1.00  0.00    -0.102 C  
HETATM   31  C   UNL     1      -7.153  13.480  67.627  1.00  0.00    -0.176 C  
HETATM   32  C   UNL     1      -7.520  14.977  68.103  1.00  0.00    -0.116 C  
HETATM   33  C   UNL     1      -7.060  16.029  67.044  1.00  0.00    -0.233 C  
HETATM   34  C   UNL     1      -8.334  16.560  66.352  1.00  0.00    -0.358 C  
HETATM   35  C   UNL     1      -9.371  15.487  66.674  1.00  0.00    -0.266 C  
HETATM   36  C   UNL     1      -8.142  12.466  68.193  1.00  0.00    -0.163 C  
HETATM   37  C   UNL     1      -9.087  15.269  68.189  1.00  0.00    -0.174 C  
HETATM   38  C   UNL     1      -9.611  12.862  68.088  1.00  0.00    -0.223 C  
HETATM   39  C   UNL     1      -9.862  14.135  68.812  1.00  0.00    -0.168 C  
HETATM   40  C   UNL     1      -9.463  16.471  69.097  1.00  0.00    -0.212 C  
BRANCH  35  41
HETATM   41  O   UNL     1     -10.712  15.736  66.228  1.00  0.00    -0.312 OA 
BRANCH  41  42
HETATM   42  C   UNL     1     -10.851  17.025  65.769  1.00  0.00    -0.046 C  
HETATM   43  O   UNL     1     -10.911  17.312  64.577  1.00  0.00    -0.937 OA 
BRANCH  42  44
HETATM   44  C   UNL     1     -10.902  18.148  66.782  1.00  0.00    -0.078 C  
BRANCH  44  45
HETATM   45  C   UNL     1     -10.573  19.589  66.422  1.00  0.00    -0.571 C  
BRANCH  45  46
HETATM   46  C   UNL     1      -9.089  19.828  66.172  1.00  0.00    -0.403 C  
BRANCH  46  47
HETATM   47  C   UNL     1      -8.423  20.756  67.195  1.00  0.00    -0.212 C  
BRANCH  47  48
HETATM   48  C   UNL     1      -7.090  20.231  67.728  1.00  0.00    -0.339 C  
HETATM   49  C   UNL     1      -7.296  19.196  68.826  1.00  0.00    -0.372 C  
ENDBRANCH  47  48
ENDBRANCH  46  47
ENDBRANCH  45  46
ENDBRANCH  44  45
ENDBRANCH  42  44
ENDBRANCH  41  42
ENDBRANCH  35  41
ENDBRANCH  20  22
ENDBRANCH   1  20
TORSDOF 9
ENDMDL
MODEL       68
REMARK 921   NORMALIZED FREE ENERGY PREDICTED BY IDOCK:   -4.42 KCAL/MOL
REMARK 922        TOTAL FREE ENERGY PREDICTED BY IDOCK:  -10.05 KCAL/MOL
REMARK 923 INTER-LIGAND FREE ENERGY PREDICTED BY IDOCK:   -7.01 KCAL/MOL
REMARK 924 INTRA-LIGAND FREE ENERGY PREDICTED BY IDOCK:   -3.04 KCAL/MOL
REMARK 927      BINDING AFFINITY PREDICTED BY RF-SCORE:    0.00 PKD
ROOT
HETATM    1  N   UNL     1     -10.555  12.987  67.048  1.00  0.00    -0.256 N  
HETATM    2  C   UNL     1     -10.085  13.370  68.295  1.00  0.00    -0.247 C  
HETATM    3  C   UNL     1      -9.398  17.810  65.832  1.00  0.00     0.084 A  
HETATM    4  H   UNL     1     -11.551  12.771  67.017  1.00  0.00     0.000 HD 
HETATM    5  C   UNL     1      -6.928  13.907  70.001  1.00  0.00     0.271 A  
HETATM    6  O   UNL     1     -10.677  12.853  69.279  1.00  0.00    -0.086 OA 
HETATM    7  C   UNL     1      -5.140  12.510  69.174  1.00  0.00    -0.067 A  
HETATM    8  C   UNL     1      -9.003  14.454  68.551  1.00  0.00    -0.187 C  
HETATM    9  O   UNL     1      -9.389  15.055  69.826  1.00  0.00    -0.448 OA 
HETATM   10  C   UNL     1      -7.616  13.822  68.767  1.00  0.00    -0.099 A  
HETATM   11  C   UNL     1      -8.005  16.419  67.246  1.00  0.00    -0.196 A  
HETATM   12  C   UNL     1      -9.114  15.633  67.592  1.00  0.00    -0.193 A  
HETATM   13  C   UNL     1      -6.996  13.108  67.735  1.00  0.00    -0.145 A  
HETATM   14  C   UNL     1     -10.377  16.023  67.101  1.00  0.00    -0.295 A  
HETATM   15  C   UNL     1      -8.150  17.497  66.364  1.00  0.00    -0.309 A  
HETATM   16  H   UNL     1      -8.727  15.719  69.983  1.00  0.00     0.000 HD 
HETATM   17  C   UNL     1      -5.707  13.252  70.200  1.00  0.00    -0.137 A  
HETATM   18  C   UNL     1     -10.519  17.078  66.207  1.00  0.00    -0.258 A  
HETATM   19  C   UNL     1      -5.778  12.450  67.935  1.00  0.00    -0.086 A  
ENDROOT
BRANCH   1  20
HETATM   20  N   UNL     1      -9.879  12.846  65.808  1.00  0.00    -0.382 NA 
HETATM   21  H   UNL     1      -9.780  13.604  65.132  1.00  0.00     0.000 HD 
BRANCH  20  22
HETATM   22  C   UNL     1      -9.395  11.647  65.621  1.00  0.00    -0.180 C  
HETATM   23  C   UNL     1      -7.502   9.967  65.650  1.00  0.00    -0.116 C  
HETATM   24  C   UNL     1      -8.177   9.310  66.875  1.00  0.00    -0.119 C  
HETATM   25  C   UNL     1      -9.310  10.208  67.352  1.00  0.00    -0.167 C  
HETATM   26  C   UNL     1      -7.976  11.152  65.145  1.00  0.00     0.380 C  
HETATM   27  C   UNL     1      -6.352   9.048  65.186  1.00  0.00    -0.061 C  
HETATM   28  C   UNL     1     -10.171  10.474  66.124  1.00  0.00    -0.299 C  
HETATM   29  C   UNL     1      -7.196   9.184  68.059  1.00  0.00    -0.079 C  
HETATM   30  C   UNL     1      -6.657   7.465  65.154  1.00  0.00    -0.044 C  
HETATM   31  C   UNL     1      -7.728   6.885  66.168  1.00  0.00    -0.091 C  
HETATM   32  C   UNL     1      -8.417   5.472  65.806  1.00  0.00    -0.134 C  
HETATM   33  C   UNL     1      -7.539   4.279  66.304  1.00  0.00    -0.089 C  
HETATM   34  C   UNL     1      -8.263   3.661  67.519  1.00  0.00    -0.090 C  
HETATM   35  C   UNL     1      -9.216   4.773  67.951  1.00  0.00    -0.122 C  
HETATM   36  C   UNL     1      -8.780   7.972  66.366  1.00  0.00    -0.169 C  
HETATM   37  C   UNL     1      -9.792   5.201  66.570  1.00  0.00    -0.210 C  
HETATM   38  C   UNL     1      -9.977   7.571  67.220  1.00  0.00    -0.273 C  
HETATM   39  C   UNL     1     -10.687   6.415  66.617  1.00  0.00    -0.271 C  
HETATM   40  C   UNL     1     -10.701   4.140  65.892  1.00  0.00     0.429 C  
BRANCH  35  41
HETATM   41  O   UNL     1     -10.108   4.469  69.034  1.00  0.00    -0.129 OA 
BRANCH  41  42
HETATM   42  C   UNL     1      -9.544   4.788  70.247  1.00  0.00    -0.199 C  
HETATM   43  O   UNL     1      -8.787   4.037  70.855  1.00  0.00    -0.081 OA 
BRANCH  42  44
HETATM   44  C   UNL     1      -9.896   6.118  70.877  1.00  0.00    -0.215 C  
BRANCH  44  45
HETATM   45  C   UNL     1      -9.061   7.371  70.660  1.00  0.00    -0.156 C  
BRANCH  45  46
HETATM   46  C   UNL     1      -9.514   8.556  71.504  1.00  0.00    -0.290 C  
BRANCH  46  47
HETATM   47  C   UNL     1     -10.381   9.570  70.746  1.00  0.00    -0.377 C  
BRANCH  47  48
HETATM   48  C   UNL     1     -11.770   9.769  71.355  1.00  0.00    -0.475 C  
HETATM   49  C   UNL     1     -12.487   8.441  71.558  1.00  0.00    -0.342 C  
ENDBRANCH  47  48
ENDBRANCH  46  47
ENDBRANCH  45  46
ENDBRANCH  44  45
ENDBRANCH  42  44
ENDBRANCH  41  42
ENDBRANCH  35  41
ENDBRANCH  20  22
ENDBRANCH   1  20
TORSDOF 9
ENDMDL
MODEL       69
REMARK 921   NORMALIZED FREE ENERGY PREDICTED BY IDOCK:   -4.34 KCAL/MOL
REMARK 922        TOTAL FREE ENERGY PREDICTED BY IDOCK:   -9.94 KCAL/MOL
REMARK 923 INTER-LIGAND FREE ENERGY PREDICTED BY IDOCK:   -9.02 KCAL/MOL
REMARK 924 INTRA-LIGAND FREE ENERGY PREDICTED BY IDOCK:   -0.92 KCAL/MOL
REMARK 927      BINDING AFFINITY PREDICTED BY RF-SCORE:    0.00 PKD
ROOT
HETATM    1  N   UNL     1     -11.194   6.504  68.697  1.00  0.00    -0.551 N  
HETATM    2  C   UNL     1     -10.522   6.064  69.827  1.00  0.00    -0.255 C  
HETATM    3  C   UNL     1     -14.367   8.532  72.147  1.00  0.00    -0.529 A  
HETATM    4  H   UNL     1     -11.605   5.762  68.130  1.00  0.00     0.000 HD 
HETATM    5  C   UNL     1      -8.262   7.347  72.359  1.00  0.00    -0.117 A  
HETATM    6  O   UNL     1      -9.975   4.934  69.726  1.00  0.00    -0.209 OA 
HETATM    7  C   UNL     1      -6.837   9.126  71.563  1.00  0.00    -0.005 A  
HETATM    8  C   UNL     1     -10.510   6.787  71.202  1.00  0.00    -0.214 C  
HETATM    9  O   UNL     1     -10.425   5.704  72.178  1.00  0.00    -0.202 OA 
HETATM   10  C   UNL     1      -9.239   7.637  71.377  1.00  0.00    -0.152 A  
HETATM   11  C   UNL     1     -11.955   8.540  72.384  1.00  0.00    -0.434 A  
HETATM   12  C   UNL     1     -11.852   7.423  71.543  1.00  0.00    -0.327 A  
HETATM   13  C   UNL     1      -8.995   8.727  70.534  1.00  0.00    -0.203 A  
HETATM   14  C   UNL     1     -13.047   6.829  71.087  1.00  0.00    -0.096 A  
HETATM   15  C   UNL     1     -13.208   9.093  72.676  1.00  0.00    -0.362 A  
HETATM   16  H   UNL     1     -10.417   6.146  73.019  1.00  0.00     0.000 HD 
HETATM   17  C   UNL     1      -7.074   8.081  72.444  1.00  0.00    -0.101 A  
HETATM   18  C   UNL     1     -14.290   7.390  71.356  1.00  0.00    -0.522 A  
HETATM   19  C   UNL     1      -7.805   9.459  70.615  1.00  0.00    -0.178 A  
ENDROOT
BRANCH   1  20
HETATM   20  N   UNL     1     -11.405   7.816  68.199  1.00  0.00    -0.009 NA 
HETATM   21  H   UNL     1     -12.318   8.168  67.908  1.00  0.00     0.000 HD 
BRANCH  20  22
HETATM   22  C   UNL     1     -10.310   8.528  68.150  1.00  0.00    -0.206 C  
HETATM   23  C   UNL     1      -8.234   9.362  66.967  1.00  0.00    -0.116 C  
HETATM   24  C   UNL     1      -8.923  10.739  66.846  1.00  0.00    -0.147 C  
HETATM   25  C   UNL     1     -10.378  10.600  67.268  1.00  0.00    -0.265 C  
HETATM   26  C   UNL     1      -8.927   8.274  67.436  1.00  0.00    -0.142 C  
HETATM   27  C   UNL     1      -6.763   9.521  66.527  1.00  0.00    -0.075 C  
HETATM   28  C   UNL     1     -10.349   9.939  68.640  1.00  0.00    -0.217 C  
HETATM   29  C   UNL     1      -8.941  11.234  65.384  1.00  0.00    -0.106 C  
HETATM   30  C   UNL     1      -5.986  10.832  67.055  1.00  0.00    -0.063 C  
HETATM   31  C   UNL     1      -6.832  12.137  67.355  1.00  0.00    -0.147 C  
HETATM   32  C   UNL     1      -6.194  13.233  68.352  1.00  0.00    -0.086 C  
HETATM   33  C   UNL     1      -5.257  14.214  67.577  1.00  0.00     0.221 C  
HETATM   34  C   UNL     1      -5.992  15.570  67.493  1.00  0.00    -0.099 C  
HETATM   35  C   UNL     1      -7.445  15.188  67.767  1.00  0.00    -0.162 C  
HETATM   36  C   UNL     1      -8.197  11.672  67.854  1.00  0.00    -0.141 C  
HETATM   37  C   UNL     1      -7.260  14.238  68.986  1.00  0.00    -0.118 C  
HETATM   38  C   UNL     1      -9.133  12.782  68.318  1.00  0.00    -0.180 C  
HETATM   39  C   UNL     1      -8.524  13.547  69.435  1.00  0.00     0.887 C  
HETATM   40  C   UNL     1      -6.781  14.940  70.286  1.00  0.00    -0.046 C  
BRANCH  35  41
HETATM   41  O   UNL     1      -8.389  16.267  67.840  1.00  0.00    -0.163 OA 
BRANCH  41  42
HETATM   42  C   UNL     1      -9.371  16.132  66.886  1.00  0.00    -0.227 C  
HETATM   43  O   UNL     1      -9.160  16.240  65.682  1.00  0.00    -0.428 OA 
BRANCH  42  44
HETATM   44  C   UNL     1     -10.788  15.868  67.347  1.00  0.00    -0.291 C  
BRANCH  44  45
HETATM   45  C   UNL     1     -11.225  16.049  68.793  1.00  0.00    -0.360 C  
BRANCH  45  46
HETATM   46  C   UNL     1     -11.996  14.858  69.348  1.00  0.00    -0.336 C  
BRANCH  46  47
HETATM   47  C   UNL     1     -12.592  15.093  70.742  1.00  0.00    -0.452 C  
BRANCH  47  48
HETATM   48  C   UNL     1     -11.547  15.144  71.858  1.00  0.00    -0.490 C  
HETATM   49  C   UNL     1     -12.131  15.715  73.144  1.00  0.00    -0.598 C  
ENDBRANCH  47  48
ENDBRANCH  46  47
ENDBRANCH  45  46
ENDBRANCH  44  45
ENDBRANCH  42  44
ENDBRANCH  41  42
ENDBRANCH  35  41
ENDBRANCH  20  22
ENDBRANCH   1  20
TORSDOF 9
ENDMDL
MODEL       70
REMARK 921   NORMALIZED FREE ENERGY PREDICTED BY IDOCK:   -4.31 KCAL/MOL
REMARK 922        TOTAL FREE ENERGY PREDICTED BY IDOCK:   -9.90 KCAL/MOL
REMARK 923 INTER-LIGAND FREE ENERGY PREDICTED BY IDOCK:   -8.14 KCAL/MOL
REMARK 924 INTRA-LIGAND FREE ENERGY PREDICTED BY IDOCK:   -1.76 KCAL/MOL
REMARK 927      BINDING AFFINITY PREDICTED BY RF-SCORE:    0.00 PKD
ROOT
HETATM    1  N   UNL     1     -10.994   7.489  67.396  1.00  0.00    -0.555 N  
HETATM    2  C   UNL     1     -10.430   6.301  67.833  1.00  0.00    -0.230 C  
HETATM    3  C   UNL     1      -7.176   9.557  70.085  1.00  0.00    -0.114 A  
HETATM    4  H   UNL     1     -11.924   7.681  67.768  1.00  0.00     0.000 HD 
HETATM    5  C   UNL     1      -7.621   4.139  67.057  1.00  0.00    -0.077 A  
HETATM    6  O   UNL     1     -11.244   5.372  68.077  1.00  0.00     0.366 OA 
HETATM    7  C   UNL     1      -6.975   4.201  64.731  1.00  0.00    -0.050 A  
HETATM    8  C   UNL     1      -8.925   6.088  68.155  1.00  0.00    -0.112 C  
HETATM    9  O   UNL     1      -8.924   5.110  69.240  1.00  0.00    -0.097 OA 
HETATM   10  C   UNL     1      -8.186   5.434  66.974  1.00  0.00    -0.104 A  
HETATM   11  C   UNL     1      -6.919   7.584  68.701  1.00  0.00    -0.079 A  
HETATM   12  C   UNL     1      -8.288   7.304  68.817  1.00  0.00    -0.129 A  
HETATM   13  C   UNL     1      -8.073   6.105  65.751  1.00  0.00    -0.124 A  
HETATM   14  C   UNL     1      -9.062   8.134  69.655  1.00  0.00    -0.151 A  
HETATM   15  C   UNL     1      -6.371   8.710  69.328  1.00  0.00    -0.042 A  
HETATM   16  H   UNL     1      -8.004   4.979  69.438  1.00  0.00     0.000 HD 
HETATM   17  C   UNL     1      -7.029   3.530  65.944  1.00  0.00    -0.061 A  
HETATM   18  C   UNL     1      -8.525   9.265  70.258  1.00  0.00    -0.224 A  
HETATM   19  C   UNL     1      -7.485   5.496  64.637  1.00  0.00    -0.067 A  
ENDROOT
BRANCH   1  20
HETATM   20  N   UNL     1     -10.491   8.484  66.517  1.00  0.00    -0.331 NA 
HETATM   21  H   UNL     1      -9.948   8.273  65.679  1.00  0.00     0.000 HD 
BRANCH  20  22
HETATM   22  C   UNL     1     -10.793   9.699  66.891  1.00  0.00    -0.036 C  
HETATM   23  C   UNL     1     -10.967  11.526  68.634  1.00  0.00    -0.270 C  
HETATM   24  C   UNL     1      -9.780  12.228  67.937  1.00  0.00    -0.202 C  
HETATM   25  C   UNL     1      -9.192  11.284  66.898  1.00  0.00    -0.184 C  
HETATM   26  C   UNL     1     -11.355  10.267  68.250  1.00  0.00    -0.245 C  
HETATM   27  C   UNL     1     -11.544  12.494  69.689  1.00  0.00    -0.323 C  
HETATM   28  C   UNL     1     -10.364  10.842  66.031  1.00  0.00    -0.304 C  
HETATM   29  C   UNL     1      -8.643  12.536  68.935  1.00  0.00     0.307 C  
HETATM   30  C   UNL     1     -11.698  14.038  69.249  1.00  0.00    -0.372 C  
HETATM   31  C   UNL     1     -10.701  14.612  68.159  1.00  0.00    -0.242 C  
HETATM   32  C   UNL     1     -11.156  15.927  67.343  1.00  0.00    -0.207 C  
HETATM   33  C   UNL     1     -10.789  17.227  68.129  1.00  0.00    -0.294 C  
HETATM   34  C   UNL     1      -9.606  17.885  67.386  1.00  0.00    -0.271 C  
HETATM   35  C   UNL     1      -9.052  16.739  66.544  1.00  0.00    -0.273 C  
HETATM   36  C   UNL     1     -10.379  13.462  67.209  1.00  0.00    -0.244 C  
HETATM   37  C   UNL     1     -10.372  16.148  65.971  1.00  0.00    -0.372 C  
HETATM   38  C   UNL     1      -9.521  13.835  66.005  1.00  0.00    -0.125 C  
HETATM   39  C   UNL     1     -10.195  14.873  65.184  1.00  0.00    -0.409 C  
HETATM   40  C   UNL     1     -11.107  17.067  64.957  1.00  0.00     0.094 C  
BRANCH  35  41
HETATM   41  O   UNL     1      -7.969  17.060  65.657  1.00  0.00    -0.318 OA 
BRANCH  41  42
HETATM   42  C   UNL     1      -7.284  18.170  66.092  1.00  0.00    -0.281 C  
HETATM   43  O   UNL     1      -6.996  19.113  65.361  1.00  0.00    -0.419 OA 
BRANCH  42  44
HETATM   44  C   UNL     1      -6.837  18.219  67.537  1.00  0.00    -0.203 C  
BRANCH  44  45
HETATM   45  C   UNL     1      -5.549  17.564  68.016  1.00  0.00    -0.134 C  
BRANCH  45  46
HETATM   46  C   UNL     1      -5.601  17.115  69.471  1.00  0.00    -0.199 C  
BRANCH  46  47
HETATM   47  C   UNL     1      -5.214  15.647  69.687  1.00  0.00    -0.106 C  
BRANCH  47  48
HETATM   48  C   UNL     1      -6.256  14.844  70.467  1.00  0.00    -0.088 C  
HETATM   49  C   UNL     1      -5.602  13.928  71.494  1.00  0.00    -0.235 C  
ENDBRANCH  47  48
ENDBRANCH  46  47
ENDBRANCH  45  46
ENDBRANCH  44  45
ENDBRANCH  42  44
ENDBRANCH  41  42
ENDBRANCH  35  41
ENDBRANCH  20  22
ENDBRANCH   1  20
TORSDOF 9
ENDMDL
MODEL       71
REMARK 921   NORMALIZED FREE ENERGY PREDICTED BY IDOCK:   -4.25 KCAL/MOL
REMARK 922        TOTAL FREE ENERGY PREDICTED BY IDOCK:   -9.80 KCAL/MOL
REMARK 923 INTER-LIGAND FREE ENERGY PREDICTED BY IDOCK:   -7.56 KCAL/MOL
REMARK 924 INTRA-LIGAND FREE ENERGY PREDICTED BY IDOCK:   -2.24 KCAL/MOL
REMARK 927      BINDING AFFINITY PREDICTED BY RF-SCORE:    0.00 PKD
ROOT
HETATM    1  N   UNL     1      -8.684  10.575  66.943  1.00  0.00    -0.127 N  
HETATM    2  C   UNL     1      -8.897  11.873  67.380  1.00  0.00    -0.171 C  
HETATM    3  C   UNL     1     -11.654   9.418  70.933  1.00  0.00    -0.380 A  
HETATM    4  H   UNL     1      -7.720  10.250  67.026  1.00  0.00     0.000 HD 
HETATM    5  C   UNL     1     -11.465  14.433  67.255  1.00  0.00    -0.377 A  
HETATM    6  O   UNL     1      -7.924  12.659  67.236  1.00  0.00    -0.173 OA 
HETATM    7  C   UNL     1     -12.844  14.314  65.276  1.00  0.00    -0.300 A  
HETATM    8  C   UNL     1     -10.164  12.371  68.128  1.00  0.00    -0.225 C  
HETATM    9  O   UNL     1      -9.667  13.412  69.025  1.00  0.00    -0.409 OA 
HETATM   10  C   UNL     1     -11.150  13.056  67.164  1.00  0.00    -0.304 A  
HETATM   11  C   UNL     1     -12.069  11.297  69.461  1.00  0.00    -0.386 A  
HETATM   12  C   UNL     1     -10.714  11.339  69.105  1.00  0.00    -0.247 A  
HETATM   13  C   UNL     1     -11.754  12.327  66.134  1.00  0.00    -0.440 A  
HETATM   14  C   UNL     1      -9.833  10.450  69.756  1.00  0.00    -0.134 A  
HETATM   15  C   UNL     1     -12.534  10.335  70.366  1.00  0.00    -0.296 A  
HETATM   16  H   UNL     1     -10.442  13.717  69.482  1.00  0.00     0.000 HD 
HETATM   17  C   UNL     1     -12.298  15.053  66.316  1.00  0.00     0.381 A  
HETATM   18  C   UNL     1     -10.296   9.479  70.636  1.00  0.00    -0.369 A  
HETATM   19  C   UNL     1     -12.584  12.946  65.193  1.00  0.00    -0.536 A  
ENDROOT
BRANCH   1  20
HETATM   20  N   UNL     1      -9.585   9.622  66.400  1.00  0.00    -0.193 NA 
HETATM   21  H   UNL     1     -10.489   9.869  65.996  1.00  0.00     0.000 HD 
BRANCH  20  22
HETATM   22  C   UNL     1      -9.139   8.396  66.471  1.00  0.00    -0.176 C  
HETATM   23  C   UNL     1      -7.299   6.669  66.279  1.00  0.00    -0.073 C  
HETATM   24  C   UNL     1      -7.311   6.564  67.820  1.00  0.00    -0.096 C  
HETATM   25  C   UNL     1      -8.186   7.676  68.381  1.00  0.00    -0.125 C  
HETATM   26  C   UNL     1      -8.039   7.632  65.639  1.00  0.00    -0.127 C  
HETATM   27  C   UNL     1      -6.400   5.540  65.728  1.00  0.00    -0.039 C  
HETATM   28  C   UNL     1      -9.518   7.562  67.651  1.00  0.00    -0.159 C  
HETATM   29  C   UNL     1      -5.902   6.782  68.411  1.00  0.00    -0.018 C  
HETATM   30  C   UNL     1      -6.561   4.088  66.411  1.00  0.00    -0.041 C  
HETATM   31  C   UNL     1      -7.026   4.016  67.924  1.00  0.00    -0.055 C  
HETATM   32  C   UNL     1      -7.688   2.639  68.442  1.00  0.00    -0.054 C  
HETATM   33  C   UNL     1      -6.588   1.629  68.901  1.00  0.00    -0.029 C  
HETATM   34  C   UNL     1      -6.652   1.561  70.442  1.00  0.00    -0.025 C  
HETATM   35  C   UNL     1      -7.403   2.839  70.809  1.00  0.00    -0.033 C  
HETATM   36  C   UNL     1      -7.967   5.196  68.151  1.00  0.00    -0.087 C  
HETATM   37  C   UNL     1      -8.560   2.793  69.769  1.00  0.00    -0.112 C  
HETATM   38  C   UNL     1      -8.630   5.244  69.523  1.00  0.00    -0.100 C  
HETATM   39  C   UNL     1      -9.437   4.020  69.758  1.00  0.00    -0.265 C  
HETATM   40  C   UNL     1      -9.587   1.649  69.995  1.00  0.00    -0.081 C  
BRANCH  35  41
HETATM   41  O   UNL     1      -7.701   3.031  72.201  1.00  0.00    -0.052 OA 
BRANCH  41  42
HETATM   42  C   UNL     1      -7.112   4.177  72.680  1.00  0.00    -0.061 C  
HETATM   43  O   UNL     1      -5.927   4.449  72.508  1.00  0.00    -0.014 OA 
BRANCH  42  44
HETATM   44  C   UNL     1      -7.959   5.137  73.487  1.00  0.00    -0.110 C  
BRANCH  44  45
HETATM   45  C   UNL     1      -8.953   6.091  72.840  1.00  0.00    -0.125 C  
BRANCH  45  46
HETATM   46  C   UNL     1      -9.195   7.358  73.651  1.00  0.00    -0.291 C  
BRANCH  46  47
HETATM   47  C   UNL     1      -7.988   7.810  74.482  1.00  0.00    -0.262 C  
BRANCH  47  48
HETATM   48  C   UNL     1      -6.835   8.364  73.642  1.00  0.00    -0.133 C  
HETATM   49  C   UNL     1      -5.734   8.946  74.520  1.00  0.00    -0.133 C  
ENDBRANCH  47  48
ENDBRANCH  46  47
ENDBRANCH  45  46
ENDBRANCH  44  45
ENDBRANCH  42  44
ENDBRANCH  41  42
ENDBRANCH  35  41
ENDBRANCH  20  22
ENDBRANCH   1  20
TORSDOF 9
ENDMDL
MODEL       72
REMARK 921   NORMALIZED FREE ENERGY PREDICTED BY IDOCK:   -4.20 KCAL/MOL
REMARK 922        TOTAL FREE ENERGY PREDICTED BY IDOCK:   -9.73 KCAL/MOL
REMARK 923 INTER-LIGAND FREE ENERGY PREDICTED BY IDOCK:   -7.46 KCAL/MOL
REMARK 924 INTRA-LIGAND FREE ENERGY PREDICTED BY IDOCK:   -2.27 KCAL/MOL
REMARK 927      BINDING AFFINITY PREDICTED BY RF-SCORE:    0.00 PKD
ROOT
HETATM    1  N   UNL     1     -11.266  10.708  67.172  1.00  0.00    -0.197 N  
HETATM    2  C   UNL     1     -10.447  11.822  67.260  1.00  0.00    -0.214 C  
HETATM    3  C   UNL     1      -8.573   9.848  62.919  1.00  0.00    -0.194 A  
HETATM    4  H   UNL     1     -12.252  10.915  67.013  1.00  0.00     0.000 HD 
HETATM    5  C   UNL     1      -7.063  12.681  68.249  1.00  0.00    -0.105 A  
HETATM    6  O   UNL     1     -10.987  12.855  67.738  1.00  0.00    -0.231 OA 
HETATM    7  C   UNL     1      -6.169  11.239  69.967  1.00  0.00    -0.149 A  
HETATM    8  C   UNL     1      -8.998  11.917  66.707  1.00  0.00    -0.196 C  
HETATM    9  O   UNL     1      -8.857  13.314  66.303  1.00  0.00    -0.443 OA 
HETATM   10  C   UNL     1      -7.958  11.674  67.816  1.00  0.00    -0.131 A  
HETATM   11  C   UNL     1      -7.589  10.653  64.982  1.00  0.00     0.056 A  
HETATM   12  C   UNL     1      -8.824  11.180  65.385  1.00  0.00    -0.110 A  
HETATM   13  C   UNL     1      -7.886  10.433  68.458  1.00  0.00    -0.107 A  
HETATM   14  C   UNL     1      -9.903  11.095  64.481  1.00  0.00    -0.330 A  
HETATM   15  C   UNL     1      -7.470   9.985  63.757  1.00  0.00    -0.141 A  
HETATM   16  H   UNL     1      -7.971  13.372  65.964  1.00  0.00     0.000 HD 
HETATM   17  C   UNL     1      -6.184  12.465  69.317  1.00  0.00    -0.101 A  
HETATM   18  C   UNL     1      -9.793  10.412  63.275  1.00  0.00    -0.231 A  
HETATM   19  C   UNL     1      -7.011  10.217  69.528  1.00  0.00    -0.086 A  
ENDROOT
BRANCH   1  20
HETATM   20  N   UNL     1     -10.959   9.325  67.267  1.00  0.00    -0.348 NA 
HETATM   21  H   UNL     1     -11.080   8.667  66.496  1.00  0.00     0.000 HD 
BRANCH  20  22
HETATM   22  C   UNL     1     -10.505   8.980  68.443  1.00  0.00    -0.192 C  
HETATM   23  C   UNL     1     -10.817   8.492  70.907  1.00  0.00    -0.275 C  
HETATM   24  C   UNL     1     -10.600   6.997  70.582  1.00  0.00    -0.246 C  
HETATM   25  C   UNL     1     -10.596   6.818  69.071  1.00  0.00    -0.258 C  
HETATM   26  C   UNL     1     -10.929   9.416  69.897  1.00  0.00    -0.251 C  
HETATM   27  C   UNL     1     -10.828   8.653  72.442  1.00  0.00    -0.312 C  
HETATM   28  C   UNL     1      -9.575   7.815  68.539  1.00  0.00    -0.151 C  
HETATM   29  C   UNL     1     -11.759   6.130  71.118  1.00  0.00    -0.201 C  
HETATM   30  C   UNL     1      -9.712   7.829  73.265  1.00  0.00    -0.357 C  
HETATM   31  C   UNL     1      -9.173   6.472  72.649  1.00  0.00    -0.141 C  
HETATM   32  C   UNL     1      -7.739   5.934  73.154  1.00  0.00    -0.102 C  
HETATM   33  C   UNL     1      -7.887   5.094  74.463  1.00  0.00    -0.095 C  
HETATM   34  C   UNL     1      -7.655   3.616  74.079  1.00  0.00    -0.070 C  
HETATM   35  C   UNL     1      -7.869   3.618  72.567  1.00  0.00    -0.068 C  
HETATM   36  C   UNL     1      -9.193   6.639  71.132  1.00  0.00    -0.159 C  
HETATM   37  C   UNL     1      -7.053   4.882  72.170  1.00  0.00    -0.074 C  
HETATM   38  C   UNL     1      -8.594   5.480  70.342  1.00  0.00    -0.131 C  
HETATM   39  C   UNL     1      -7.173   5.271  70.717  1.00  0.00    -0.065 C  
HETATM   40  C   UNL     1      -5.516   4.744  72.353  1.00  0.00    -0.008 C  
BRANCH  35  41
HETATM   41  O   UNL     1      -7.639   2.376  71.885  1.00  0.00    -0.042 OA 
BRANCH  41  42
HETATM   42  C   UNL     1      -8.642   2.112  70.983  1.00  0.00    -0.058 C  
HETATM   43  O   UNL     1      -9.834   2.250  71.243  1.00  0.00    -0.149 OA 
BRANCH  42  44
HETATM   44  C   UNL     1      -8.260   1.597  69.612  1.00  0.00    -0.064 C  
BRANCH  44  45
HETATM   45  C   UNL     1      -7.122   2.200  68.802  1.00  0.00    -0.043 C  
BRANCH  45  46
HETATM   46  C   UNL     1      -7.475   2.432  67.338  1.00  0.00    -0.060 C  
BRANCH  46  47
HETATM   47  C   UNL     1      -8.072   3.816  67.050  1.00  0.00    -0.095 C  
BRANCH  47  48
HETATM   48  C   UNL     1      -9.591   3.878  67.211  1.00  0.00    -0.222 C  
HETATM   49  C   UNL     1     -10.246   4.617  66.052  1.00  0.00    -0.306 C  
ENDBRANCH  47  48
ENDBRANCH  46  47
ENDBRANCH  45  46
ENDBRANCH  44  45
ENDBRANCH  42  44
ENDBRANCH  41  42
ENDBRANCH  35  41
ENDBRANCH  20  22
ENDBRANCH   1  20
TORSDOF 9
ENDMDL
MODEL       73
REMARK 921   NORMALIZED FREE ENERGY PREDICTED BY IDOCK:   -4.20 KCAL/MOL
REMARK 922        TOTAL FREE ENERGY PREDICTED BY IDOCK:   -9.72 KCAL/MOL
REMARK 923 INTER-LIGAND FREE ENERGY PREDICTED BY IDOCK:   -9.47 KCAL/MOL
REMARK 924 INTRA-LIGAND FREE ENERGY PREDICTED BY IDOCK:   -0.25 KCAL/MOL
REMARK 927      BINDING AFFINITY PREDICTED BY RF-SCORE:    0.00 PKD
ROOT
HETATM    1  N   UNL     1      -9.233  14.058  65.865  1.00  0.00    -0.493 N  
HETATM    2  C   UNL     1     -10.187  15.010  66.188  1.00  0.00    -0.297 C  
HETATM    3  C   UNL     1      -6.009  17.619  67.599  1.00  0.00    -0.156 A  
HETATM    4  H   UNL     1      -9.148  13.861  64.868  1.00  0.00     0.000 HD 
HETATM    5  C   UNL     1     -11.902  16.309  69.110  1.00  0.00    -0.070 A  
HETATM    6  O   UNL     1     -11.185  15.058  65.421  1.00  0.00    -0.345 OA 
HETATM    7  C   UNL     1     -12.178  14.675  70.866  1.00  0.00    -0.391 A  
HETATM    8  C   UNL     1     -10.051  16.071  67.314  1.00  0.00    -0.266 C  
HETATM    9  O   UNL     1     -10.780  17.231  66.808  1.00  0.00    -0.230 OA 
HETATM   10  C   UNL     1     -10.775  15.623  68.597  1.00  0.00    -0.256 A  
HETATM   11  C   UNL     1      -8.132  17.113  68.653  1.00  0.00    -0.264 A  
HETATM   12  C   UNL     1      -8.633  16.613  67.442  1.00  0.00    -0.203 A  
HETATM   13  C   UNL     1     -10.348  14.485  69.289  1.00  0.00    -0.154 A  
HETATM   14  C   UNL     1      -7.813  16.712  66.299  1.00  0.00    -0.309 A  
HETATM   15  C   UNL     1      -6.824  17.607  68.728  1.00  0.00    -0.235 A  
HETATM   16  H   UNL     1     -10.697  17.880  67.496  1.00  0.00     0.000 HD 
HETATM   17  C   UNL     1     -12.596  15.834  70.228  1.00  0.00    -0.226 A  
HETATM   18  C   UNL     1      -6.506  17.179  66.377  1.00  0.00    -0.236 A  
HETATM   19  C   UNL     1     -11.043  14.007  70.405  1.00  0.00     0.285 A  
ENDROOT
BRANCH   1  20
HETATM   20  N   UNL     1      -8.354  13.312  66.693  1.00  0.00    -0.405 NA 
HETATM   21  H   UNL     1      -7.339  13.325  66.592  1.00  0.00     0.000 HD 
BRANCH  20  22
HETATM   22  C   UNL     1      -8.978  12.606  67.598  1.00  0.00    -0.186 C  
HETATM   23  C   UNL     1     -10.882  11.121  68.358  1.00  0.00    -0.248 C  
HETATM   24  C   UNL     1      -9.880   9.946  68.390  1.00  0.00    -0.166 C  
HETATM   25  C   UNL     1      -8.575  10.394  67.747  1.00  0.00    -0.122 C  
HETATM   26  C   UNL     1     -10.513  12.339  67.843  1.00  0.00    -0.227 C  
HETATM   27  C   UNL     1     -12.200  10.645  69.006  1.00  0.00     0.045 C  
HETATM   28  C   UNL     1      -8.184  11.682  68.461  1.00  0.00    -0.144 C  
HETATM   29  C   UNL     1     -10.386   8.751  67.555  1.00  0.00    -0.334 C  
HETATM   30  C   UNL     1     -12.070   9.766  70.351  1.00  0.00    -0.176 C  
HETATM   31  C   UNL     1     -10.767   8.887  70.552  1.00  0.00    -0.271 C  
HETATM   32  C   UNL     1     -10.381   8.448  72.056  1.00  0.00    -0.374 C  
HETATM   33  C   UNL     1     -11.131   7.140  72.465  1.00  0.00    -0.317 C  
HETATM   34  C   UNL     1     -10.082   6.006  72.486  1.00  0.00    -0.200 C  
HETATM   35  C   UNL     1      -8.942   6.580  71.648  1.00  0.00    -0.143 C  
HETATM   36  C   UNL     1      -9.619   9.645  69.892  1.00  0.00    -0.260 C  
HETATM   37  C   UNL     1      -8.856   8.017  72.239  1.00  0.00    -0.224 C  
HETATM   38  C   UNL     1      -8.239   9.025  70.076  1.00  0.00    -0.128 C  
HETATM   39  C   UNL     1      -7.896   8.931  71.518  1.00  0.00    -0.107 C  
HETATM   40  C   UNL     1      -8.345   8.085  73.705  1.00  0.00    -0.302 C  
BRANCH  35  41
HETATM   41  O   UNL     1      -7.756   5.779  71.544  1.00  0.00    -0.102 OA 
BRANCH  41  42
HETATM   42  C   UNL     1      -7.670   5.177  70.311  1.00  0.00    -0.071 C  
HETATM   43  O   UNL     1      -7.002   5.629  69.386  1.00  0.00    -0.059 OA 
BRANCH  42  44
HETATM   44  C   UNL     1      -8.463   3.910  70.072  1.00  0.00    -0.095 C  
BRANCH  44  45
HETATM   45  C   UNL     1      -9.476   3.781  68.945  1.00  0.00    -0.223 C  
BRANCH  45  46
HETATM   46  C   UNL     1     -10.034   5.118  68.473  1.00  0.00    -0.221 C  
BRANCH  46  47
HETATM   47  C   UNL     1     -10.350   5.170  66.973  1.00  0.00    -0.267 C  
BRANCH  47  48
HETATM   48  C   UNL     1      -9.120   5.018  66.078  1.00  0.00    -0.146 C  
HETATM   49  C   UNL     1      -8.438   6.358  65.833  1.00  0.00    -0.147 C  
ENDBRANCH  47  48
ENDBRANCH  46  47
ENDBRANCH  45  46
ENDBRANCH  44  45
ENDBRANCH  42  44
ENDBRANCH  41  42
ENDBRANCH  35  41
ENDBRANCH  20  22
ENDBRANCH   1  20
TORSDOF 9
ENDMDL
MODEL       74
REMARK 921   NORMALIZED FREE ENERGY PREDICTED BY IDOCK:   -4.17 KCAL/MOL
REMARK 922        TOTAL FREE ENERGY PREDICTED BY IDOCK:   -9.68 KCAL/MOL
REMARK 923 INTER-LIGAND FREE ENERGY PREDICTED BY IDOCK:   -6.91 KCAL/MOL
REMARK 924 INTRA-LIGAND FREE ENERGY PREDICTED BY IDOCK:   -2.77 KCAL/MOL
REMARK 927      BINDING AFFINITY PREDICTED BY RF-SCORE:    0.00 PKD
ROOT
HETATM    1  N   UNL     1     -11.258  10.582  67.633  1.00  0.00    -0.339 N  
HETATM    2  C   UNL     1     -11.382  11.862  67.116  1.00  0.00    -0.331 C  
HETATM    3  C   UNL     1      -6.343  11.908  68.046  1.00  0.00    -0.055 A  
HETATM    4  H   UNL     1     -11.439   9.833  66.965  1.00  0.00     0.000 HD 
HETATM    5  C   UNL     1     -11.558  15.295  68.278  1.00  0.00    -0.357 A  
HETATM    6  O   UNL     1     -12.230  11.994  66.195  1.00  0.00    -0.552 OA 
HETATM    7  C   UNL     1     -12.547  15.517  70.470  1.00  0.00    -0.462 A  
HETATM    8  C   UNL     1     -10.484  13.072  67.493  1.00  0.00    -0.227 C  
HETATM    9  O   UNL     1     -10.412  13.863  66.267  1.00  0.00    -0.278 OA 
HETATM   10  C   UNL     1     -11.161  13.964  68.551  1.00  0.00    -0.298 A  
HETATM   11  C   UNL     1      -8.177  13.407  68.554  1.00  0.00    -0.093 A  
HETATM   12  C   UNL     1      -9.029  12.680  67.710  1.00  0.00    -0.189 A  
HETATM   13  C   UNL     1     -11.433  13.463  69.829  1.00  0.00    -0.236 A  
HETATM   14  C   UNL     1      -8.472  11.611  66.976  1.00  0.00    -0.168 A  
HETATM   15  C   UNL     1      -6.844  13.015  68.724  1.00  0.00    -0.102 A  
HETATM   16  H   UNL     1      -9.863  14.604  66.497  1.00  0.00     0.000 HD 
HETATM   17  C   UNL     1     -12.248  16.058  69.227  1.00  0.00     0.044 A  
HETATM   18  C   UNL     1      -7.155  11.206  67.161  1.00  0.00    -0.113 A  
HETATM   19  C   UNL     1     -12.126  14.223  70.777  1.00  0.00    -0.418 A  
ENDROOT
BRANCH   1  20
HETATM   20  N   UNL     1     -10.920  10.141  68.940  1.00  0.00    -0.249 NA 
HETATM   21  H   UNL     1     -11.288  10.567  69.791  1.00  0.00     0.000 HD 
BRANCH  20  22
HETATM   22  C   UNL     1     -10.089   9.132  68.942  1.00  0.00    -0.197 C  
HETATM   23  C   UNL     1      -7.928   8.014  69.641  1.00  0.00    -0.117 C  
HETATM   24  C   UNL     1      -8.765   7.095  70.558  1.00  0.00    -0.149 C  
HETATM   25  C   UNL     1     -10.195   7.616  70.604  1.00  0.00    -0.199 C  
HETATM   26  C   UNL     1      -8.514   9.074  68.994  1.00  0.00    -0.132 C  
HETATM   27  C   UNL     1      -6.481   7.476  69.614  1.00  0.00    -0.035 C  
HETATM   28  C   UNL     1     -10.630   7.756  69.151  1.00  0.00    -0.193 C  
HETATM   29  C   UNL     1      -8.246   7.125  72.011  1.00  0.00    -0.102 C  
HETATM   30  C   UNL     1      -6.305   5.878  69.488  1.00  0.00    -0.041 C  
HETATM   31  C   UNL     1      -7.449   4.948  70.069  1.00  0.00    -0.055 C  
HETATM   32  C   UNL     1      -7.554   3.442  69.500  1.00  0.00    -0.048 C  
HETATM   33  C   UNL     1      -6.599   2.482  70.281  1.00  0.00    -0.032 C  
HETATM   34  C   UNL     1      -7.488   1.588  71.172  1.00  0.00    -0.033 C  
HETATM   35  C   UNL     1      -8.800   2.366  71.237  1.00  0.00    -0.070 C  
HETATM   36  C   UNL     1      -8.764   5.697  69.880  1.00  0.00    -0.127 C  
HETATM   37  C   UNL     1      -8.972   2.751  69.739  1.00  0.00    -0.168 C  
HETATM   38  C   UNL     1     -10.017   4.920  70.266  1.00  0.00    -0.321 C  
HETATM   39  C   UNL     1     -10.130   3.677  69.462  1.00  0.00     0.518 C  
HETATM   40  C   UNL     1      -9.267   1.554  68.793  1.00  0.00    -0.193 C  
BRANCH  35  41
HETATM   41  O   UNL     1      -9.883   1.741  71.943  1.00  0.00    -0.118 OA 
BRANCH  41  42
HETATM   42  C   UNL     1     -10.202   2.441  73.082  1.00  0.00    -0.126 C  
HETATM   43  O   UNL     1     -11.355   2.713  73.404  1.00  0.00    -0.194 OA 
BRANCH  42  44
HETATM   44  C   UNL     1      -9.075   2.928  73.967  1.00  0.00    -0.089 C  
BRANCH  44  45
HETATM   45  C   UNL     1      -8.884   4.397  74.314  1.00  0.00    -0.101 C  
BRANCH  45  46
HETATM   46  C   UNL     1      -7.423   4.797  74.482  1.00  0.00    -0.085 C  
BRANCH  46  47
HETATM   47  C   UNL     1      -6.437   3.897  73.726  1.00  0.00    -0.041 C  
BRANCH  47  48
HETATM   48  C   UNL     1      -5.367   4.670  72.953  1.00  0.00    -0.008 C  
HETATM   49  C   UNL     1      -5.163   6.066  73.525  1.00  0.00    -0.031 C  
ENDBRANCH  47  48
ENDBRANCH  46  47
ENDBRANCH  45  46
ENDBRANCH  44  45
ENDBRANCH  42  44
ENDBRANCH  41  42
ENDBRANCH  35  41
ENDBRANCH  20  22
ENDBRANCH   1  20
TORSDOF 9
ENDMDL
MODEL       75
REMARK 921   NORMALIZED FREE ENERGY PREDICTED BY IDOCK:   -4.12 KCAL/MOL
REMARK 922        TOTAL FREE ENERGY PREDICTED BY IDOCK:   -9.59 KCAL/MOL
REMARK 923 INTER-LIGAND FREE ENERGY PREDICTED BY IDOCK:   -8.70 KCAL/MOL
REMARK 924 INTRA-LIGAND FREE ENERGY PREDICTED BY IDOCK:   -0.89 KCAL/MOL
REMARK 927      BINDING AFFINITY PREDICTED BY RF-SCORE:    0.00 PKD
ROOT
HETATM    1  N   UNL     1      -9.453   7.778  68.002  1.00  0.00    -0.144 N  
HETATM    2  C   UNL     1     -10.146   6.635  68.371  1.00  0.00    -0.156 C  
HETATM    3  C   UNL     1      -8.710   8.189  73.038  1.00  0.00    -0.309 A  
HETATM    4  H   UNL     1     -10.032   8.515  67.599  1.00  0.00     0.000 HD 
HETATM    5  C   UNL     1      -9.476   3.215  69.379  1.00  0.00    -0.189 A  
HETATM    6  O   UNL     1     -11.160   6.368  67.674  1.00  0.00    -0.339 OA 
HETATM    7  C   UNL     1      -7.448   2.313  68.426  1.00  0.00    -0.047 A  
HETATM    8  C   UNL     1      -9.842   5.767  69.623  1.00  0.00    -0.176 C  
HETATM    9  O   UNL     1     -11.148   5.259  70.035  1.00  0.00    -0.048 OA 
HETATM   10  C   UNL     1      -8.989   4.538  69.258  1.00  0.00    -0.142 A  
HETATM   11  C   UNL     1      -8.600   6.086  71.840  1.00  0.00    -0.137 A  
HETATM   12  C   UNL     1      -9.424   6.599  70.828  1.00  0.00    -0.173 A  
HETATM   13  C   UNL     1      -7.691   4.701  68.761  1.00  0.00    -0.072 A  
HETATM   14  C   UNL     1      -9.947   7.898  71.001  1.00  0.00    -0.200 A  
HETATM   15  C   UNL     1      -8.242   6.883  72.934  1.00  0.00    -0.117 A  
HETATM   16  H   UNL     1     -10.962   4.728  70.801  1.00  0.00     0.000 HD 
HETATM   17  C   UNL     1      -8.714   2.118  68.961  1.00  0.00    -0.124 A  
HETATM   18  C   UNL     1      -9.574   8.699  72.074  1.00  0.00    -0.385 A  
HETATM   19  C   UNL     1      -6.930   3.605  68.339  1.00  0.00    -0.050 A  
ENDROOT
BRANCH   1  20
HETATM   20  N   UNL     1      -8.072   8.092  68.093  1.00  0.00    -0.127 NA 
HETATM   21  H   UNL     1      -7.329   7.445  67.828  1.00  0.00     0.000 HD 
BRANCH  20  22
HETATM   22  C   UNL     1      -7.849   9.295  68.553  1.00  0.00    -0.090 C  
HETATM   23  C   UNL     1      -6.303  11.146  69.322  1.00  0.00    -0.076 C  
HETATM   24  C   UNL     1      -6.649  11.900  68.020  1.00  0.00    -0.063 C  
HETATM   25  C   UNL     1      -7.434  10.971  67.106  1.00  0.00    -0.117 C  
HETATM   26  C   UNL     1      -6.735   9.857  69.517  1.00  0.00    -0.057 C  
HETATM   27  C   UNL     1      -5.500  12.100  70.232  1.00  0.00    -0.138 C  
HETATM   28  C   UNL     1      -8.588  10.442  67.948  1.00  0.00    -0.118 C  
HETATM   29  C   UNL     1      -5.375  12.297  67.243  1.00  0.00    -0.099 C  
HETATM   30  C   UNL     1      -6.024  13.622  70.327  1.00  0.00    -0.147 C  
HETATM   31  C   UNL     1      -6.796  14.231  69.084  1.00  0.00    -0.120 C  
HETATM   32  C   UNL     1      -7.759  15.499  69.345  1.00  0.00    -0.227 C  
HETATM   33  C   UNL     1      -6.950  16.834  69.290  1.00  0.00    -0.216 C  
HETATM   34  C   UNL     1      -7.339  17.545  67.976  1.00  0.00    -0.208 C  
HETATM   35  C   UNL     1      -7.938  16.416  67.142  1.00  0.00    -0.183 C  
HETATM   36  C   UNL     1      -7.566  13.082  68.439  1.00  0.00    -0.133 C  
HETATM   37  C   UNL     1      -8.849  15.736  68.204  1.00  0.00    -0.178 C  
HETATM   38  C   UNL     1      -8.480  13.478  67.286  1.00  0.00    -0.200 C  
HETATM   39  C   UNL     1      -9.501  14.457  67.739  1.00  0.00    -0.211 C  
HETATM   40  C   UNL     1     -10.068  16.588  68.653  1.00  0.00    -0.255 C  
BRANCH  35  41
HETATM   41  O   UNL     1      -8.481  16.781  65.864  1.00  0.00    -0.484 OA 
BRANCH  41  42
HETATM   42  C   UNL     1      -9.507  17.687  66.001  1.00  0.00    -0.066 C  
HETATM   43  O   UNL     1      -9.351  18.819  66.449  1.00  0.00    -0.319 OA 
BRANCH  42  44
HETATM   44  C   UNL     1     -10.904  17.256  65.608  1.00  0.00    -0.029 C  
BRANCH  44  45
HETATM   45  C   UNL     1     -11.163  16.148  64.598  1.00  0.00    -0.307 C  
BRANCH  45  46
HETATM   46  C   UNL     1     -11.894  14.948  65.187  1.00  0.00    -0.258 C  
BRANCH  46  47
HETATM   47  C   UNL     1     -11.338  13.592  64.735  1.00  0.00    -0.365 C  
BRANCH  47  48
HETATM   48  C   UNL     1     -12.378  12.470  64.729  1.00  0.00    -0.544 C  
HETATM   49  C   UNL     1     -12.546  11.872  63.339  1.00  0.00    -0.555 C  
ENDBRANCH  47  48
ENDBRANCH  46  47
ENDBRANCH  45  46
ENDBRANCH  44  45
ENDBRANCH  42  44
ENDBRANCH  41  42
ENDBRANCH  35  41
ENDBRANCH  20  22
ENDBRANCH   1  20
TORSDOF 9
ENDMDL
MODEL       76
REMARK 921   NORMALIZED FREE ENERGY PREDICTED BY IDOCK:   -4.04 KCAL/MOL
REMARK 922        TOTAL FREE ENERGY PREDICTED BY IDOCK:   -9.48 KCAL/MOL
REMARK 923 INTER-LIGAND FREE ENERGY PREDICTED BY IDOCK:   -9.69 KCAL/MOL
REMARK 924 INTRA-LIGAND FREE ENERGY PREDICTED BY IDOCK:    0.21 KCAL/MOL
REMARK 927      BINDING AFFINITY PREDICTED BY RF-SCORE:    0.00 PKD
ROOT
HETATM    1  N   UNL     1     -10.928   6.631  68.374  1.00  0.00    -0.438 N  
HETATM    2  C   UNL     1     -10.102   6.355  69.452  1.00  0.00    -0.173 C  
HETATM    3  C   UNL     1     -14.111   8.233  72.033  1.00  0.00    -0.470 A  
HETATM    4  H   UNL     1     -11.251   5.809  67.864  1.00  0.00     0.000 HD 
HETATM    5  C   UNL     1      -7.897   8.097  71.748  1.00  0.00    -0.135 A  
HETATM    6  O   UNL     1      -9.381   5.330  69.333  1.00  0.00    -0.116 OA 
HETATM    7  C   UNL     1      -6.864  10.057  70.786  1.00  0.00     0.016 A  
HETATM    8  C   UNL     1     -10.103   7.123  70.802  1.00  0.00    -0.190 C  
HETATM    9  O   UNL     1      -9.755   6.109  71.795  1.00  0.00    -0.155 OA 
HETATM   10  C   UNL     1      -8.984   8.181  70.846  1.00  0.00    -0.163 A  
HETATM   11  C   UNL     1     -11.725   8.655  72.061  1.00  0.00    -0.439 A  
HETATM   12  C   UNL     1     -11.501   7.539  71.242  1.00  0.00    -0.298 A  
HETATM   13  C   UNL     1      -8.998   9.262  69.958  1.00  0.00    -0.216 A  
HETATM   14  C   UNL     1     -12.610   6.735  70.906  1.00  0.00    -0.199 A  
HETATM   15  C   UNL     1     -13.026   9.001  72.446  1.00  0.00    -0.471 A  
HETATM   16  H   UNL     1      -9.755   6.579  72.621  1.00  0.00     0.000 HD 
HETATM   17  C   UNL     1      -6.848   9.023  71.711  1.00  0.00     0.008 A  
HETATM   18  C   UNL     1     -13.905   7.090  71.267  1.00  0.00    -0.222 A  
HETATM   19  C   UNL     1      -7.948  10.186  69.918  1.00  0.00    -0.149 A  
ENDROOT
BRANCH   1  20
HETATM   20  N   UNL     1     -11.399   7.869  67.863  1.00  0.00     0.024 NA 
HETATM   21  H   UNL     1     -12.365   8.027  67.573  1.00  0.00     0.000 HD 
BRANCH  20  22
HETATM   22  C   UNL     1     -10.470   8.785  67.802  1.00  0.00    -0.229 C  
HETATM   23  C   UNL     1      -8.608  10.007  66.599  1.00  0.00    -0.130 C  
HETATM   24  C   UNL     1      -9.559  11.217  66.471  1.00  0.00    -0.215 C  
HETATM   25  C   UNL     1     -10.955  10.794  66.903  1.00  0.00    -0.255 C  
HETATM   26  C   UNL     1      -9.067   8.807  67.081  1.00  0.00    -0.155 C  
HETATM   27  C   UNL     1      -7.200  10.453  66.148  1.00  0.00    -0.131 C  
HETATM   28  C   UNL     1     -10.788  10.164  68.280  1.00  0.00    -0.297 C  
HETATM   29  C   UNL     1      -9.683  11.685  65.006  1.00  0.00    -0.237 C  
HETATM   30  C   UNL     1      -6.699  11.898  66.661  1.00  0.00     0.084 C  
HETATM   31  C   UNL     1      -7.788  13.010  66.956  1.00  0.00     0.015 C  
HETATM   32  C   UNL     1      -7.379  14.221  67.940  1.00  0.00    -0.163 C  
HETATM   33  C   UNL     1      -6.660  15.363  67.151  1.00  0.00     0.090 C  
HETATM   34  C   UNL     1      -7.653  16.543  67.061  1.00  0.00    -0.240 C  
HETATM   35  C   UNL     1      -8.998  15.880  67.347  1.00  0.00    -0.192 C  
HETATM   36  C   UNL     1      -9.030  12.285  67.467  1.00  0.00    -0.180 C  
HETATM   37  C   UNL     1      -8.621  14.998  68.572  1.00  0.00    -0.166 C  
HETATM   38  C   UNL     1     -10.167  13.190  67.928  1.00  0.00    -0.233 C  
HETATM   39  C   UNL     1      -9.718  14.072  69.035  1.00  0.00     0.046 C  
HETATM   40  C   UNL     1      -8.287  15.793  69.864  1.00  0.00     0.335 C  
BRANCH  35  41
HETATM   41  O   UNL     1     -10.139  16.749  67.417  1.00  0.00    -0.263 OA 
BRANCH  41  42
HETATM   42  C   UNL     1     -10.409  17.313  66.192  1.00  0.00    -0.317 C  
HETATM   43  O   UNL     1     -10.596  16.653  65.174  1.00  0.00    -0.645 OA 
BRANCH  42  44
HETATM   44  C   UNL     1     -10.448  18.822  66.088  1.00  0.00    -0.499 C  
BRANCH  44  45
HETATM   45  C   UNL     1      -9.672  19.726  67.034  1.00  0.00    -0.503 C  
BRANCH  45  46
HETATM   46  C   UNL     1      -8.326  20.176  66.479  1.00  0.00    -0.314 C  
BRANCH  46  47
HETATM   47  C   UNL     1      -7.236  20.351  67.543  1.00  0.00    -0.353 C  
BRANCH  47  48
HETATM   48  C   UNL     1      -7.479  19.536  68.814  1.00  0.00    -0.387 C  
HETATM   49  C   UNL     1      -6.337  19.698  69.809  1.00  0.00    -0.366 C  
ENDBRANCH  47  48
ENDBRANCH  46  47
ENDBRANCH  45  46
ENDBRANCH  44  45
ENDBRANCH  42  44
ENDBRANCH  41  42
ENDBRANCH  35  41
ENDBRANCH  20  22
ENDBRANCH   1  20
TORSDOF 9
ENDMDL
MODEL       77
REMARK 921   NORMALIZED FREE ENERGY PREDICTED BY IDOCK:   -4.00 KCAL/MOL
REMARK 922        TOTAL FREE ENERGY PREDICTED BY IDOCK:   -9.42 KCAL/MOL
REMARK 923 INTER-LIGAND FREE ENERGY PREDICTED BY IDOCK:   -8.07 KCAL/MOL
REMARK 924 INTRA-LIGAND FREE ENERGY PREDICTED BY IDOCK:   -1.35 KCAL/MOL
REMARK 927      BINDING AFFINITY PREDICTED BY RF-SCORE:    0.00 PKD
ROOT
HETATM    1  N   UNL     1     -10.053   4.653  68.196  1.00  0.00    -0.058 N  
HETATM    2  C   UNL     1      -9.217   3.565  68.002  1.00  0.00    -0.178 C  
HETATM    3  C   UNL     1      -5.630   7.176  68.601  1.00  0.00    -0.022 A  
HETATM    4  H   UNL     1     -10.601   4.621  69.056  1.00  0.00     0.000 HD 
HETATM    5  C   UNL     1      -7.189   2.084  65.382  1.00  0.00    -0.057 A  
HETATM    6  O   UNL     1      -9.627   2.474  68.479  1.00  0.00    -0.180 OA 
HETATM    7  C   UNL     1      -8.045   2.489  63.161  1.00  0.00    -0.069 A  
HETATM    8  C   UNL     1      -7.797   3.625  67.373  1.00  0.00    -0.079 C  
HETATM    9  O   UNL     1      -7.054   2.569  68.057  1.00  0.00    -0.047 OA 
HETATM   10  C   UNL     1      -7.829   3.243  65.881  1.00  0.00    -0.085 A  
HETATM   11  C   UNL     1      -6.027   5.431  66.967  1.00  0.00    -0.022 A  
HETATM   12  C   UNL     1      -7.027   4.876  67.778  1.00  0.00    -0.061 A  
HETATM   13  C   UNL     1      -8.529   4.034  64.964  1.00  0.00    -0.113 A  
HETATM   14  C   UNL     1      -7.244   5.454  69.046  1.00  0.00    -0.062 A  
HETATM   15  C   UNL     1      -5.339   6.580  67.377  1.00  0.00    -0.008 A  
HETATM   16  H   UNL     1      -6.186   2.606  67.672  1.00  0.00     0.000 HD 
HETATM   17  C   UNL     1      -7.303   1.711  64.038  1.00  0.00    -0.056 A  
HETATM   18  C   UNL     1      -6.579   6.608  69.445  1.00  0.00    -0.048 A  
HETATM   19  C   UNL     1      -8.647   3.660  63.621  1.00  0.00    -0.091 A  
ENDROOT
BRANCH   1  20
HETATM   20  N   UNL     1     -10.272   5.806  67.396  1.00  0.00    -0.177 NA 
HETATM   21  H   UNL     1     -10.032   5.857  66.406  1.00  0.00     0.000 HD 
BRANCH  20  22
HETATM   22  C   UNL     1     -10.811   6.794  68.059  1.00  0.00    -0.235 C  
HETATM   23  C   UNL     1     -11.335   8.028  70.206  1.00  0.00    -0.145 C  
HETATM   24  C   UNL     1     -10.323   9.109  69.767  1.00  0.00    -0.226 C  
HETATM   25  C   UNL     1      -9.567   8.608  68.545  1.00  0.00    -0.162 C  
HETATM   26  C   UNL     1     -11.462   6.861  69.494  1.00  0.00    -0.165 C  
HETATM   27  C   UNL     1     -12.085   8.550  71.451  1.00  0.00    -0.345 C  
HETATM   28  C   UNL     1     -10.634   8.185  67.544  1.00  0.00    -0.291 C  
HETATM   29  C   UNL     1      -9.262   9.366  70.858  1.00  0.00    -0.242 C  
HETATM   30  C   UNL     1     -12.555  10.092  71.419  1.00  0.00    -0.518 C  
HETATM   31  C   UNL     1     -11.709  11.119  70.558  1.00  0.00    -0.392 C  
HETATM   32  C   UNL     1     -12.432  12.483  70.092  1.00  0.00    -0.092 C  
HETATM   33  C   UNL     1     -12.329  13.577  71.203  1.00  0.00    -0.377 C  
HETATM   34  C   UNL     1     -11.313  14.630  70.707  1.00  0.00    -0.161 C  
HETATM   35  C   UNL     1     -10.546  13.880  69.621  1.00  0.00     0.250 C  
HETATM   36  C   UNL     1     -11.169  10.347  69.358  1.00  0.00    -0.314 C  
HETATM   37  C   UNL     1     -11.725  13.208  68.859  1.00  0.00    -0.368 C  
HETATM   38  C   UNL     1     -10.419  11.185  68.329  1.00  0.00    -0.215 C  
HETATM   39  C   UNL     1     -11.300  12.246  67.777  1.00  0.00    -0.362 C  
HETATM   40  C   UNL     1     -12.642  14.195  68.086  1.00  0.00     0.512 C  
BRANCH  35  41
HETATM   41  O   UNL     1      -9.562  14.631  68.895  1.00  0.00    -0.212 OA 
BRANCH  41  42
HETATM   42  C   UNL     1      -8.759  13.804  68.145  1.00  0.00    -0.183 C  
HETATM   43  O   UNL     1      -7.988  12.986  68.638  1.00  0.00    -0.116 OA 
BRANCH  42  44
HETATM   44  C   UNL     1      -8.808  13.928  66.638  1.00  0.00    -0.105 C  
BRANCH  44  45
HETATM   45  C   UNL     1      -9.662  14.970  65.931  1.00  0.00    -0.376 C  
BRANCH  45  46
HETATM   46  C   UNL     1     -10.514  14.396  64.806  1.00  0.00    -0.394 C  
BRANCH  46  47
HETATM   47  C   UNL     1     -10.253  12.912  64.518  1.00  0.00    -0.334 C  
BRANCH  47  48
HETATM   48  C   UNL     1     -11.060  12.362  63.341  1.00  0.00    -0.465 C  
HETATM   49  C   UNL     1     -12.509  12.102  63.729  1.00  0.00    -0.620 C  
ENDBRANCH  47  48
ENDBRANCH  46  47
ENDBRANCH  45  46
ENDBRANCH  44  45
ENDBRANCH  42  44
ENDBRANCH  41  42
ENDBRANCH  35  41
ENDBRANCH  20  22
ENDBRANCH   1  20
TORSDOF 9
ENDMDL
MODEL       78
REMARK 921   NORMALIZED FREE ENERGY PREDICTED BY IDOCK:   -3.90 KCAL/MOL
REMARK 922        TOTAL FREE ENERGY PREDICTED BY IDOCK:   -9.27 KCAL/MOL
REMARK 923 INTER-LIGAND FREE ENERGY PREDICTED BY IDOCK:   -7.97 KCAL/MOL
REMARK 924 INTRA-LIGAND FREE ENERGY PREDICTED BY IDOCK:   -1.30 KCAL/MOL
REMARK 927      BINDING AFFINITY PREDICTED BY RF-SCORE:    0.00 PKD
ROOT
HETATM    1  N   UNL     1     -12.248  12.480  67.097  1.00  0.00    -0.038 N  
HETATM    2  C   UNL     1     -11.896  13.505  66.234  1.00  0.00    -0.392 C  
HETATM    3  C   UNL     1      -7.313  11.248  66.637  1.00  0.00    -0.131 A  
HETATM    4  H   UNL     1     -12.893  11.794  66.704  1.00  0.00     0.000 HD 
HETATM    5  C   UNL     1     -10.238  16.731  66.323  1.00  0.00    -0.341 A  
HETATM    6  O   UNL     1     -12.777  13.836  65.398  1.00  0.00    -0.559 OA 
HETATM    7  C   UNL     1     -10.495  17.886  68.428  1.00  0.00    -0.338 A  
HETATM    8  C   UNL     1     -10.490  14.160  66.145  1.00  0.00    -0.296 C  
HETATM    9  O   UNL     1     -10.348  14.522  64.737  1.00  0.00    -0.466 OA 
HETATM   10  C   UNL     1     -10.433  15.475  66.944  1.00  0.00    -0.301 A  
HETATM   11  C   UNL     1      -8.106  13.529  66.839  1.00  0.00     0.107 A  
HETATM   12  C   UNL     1      -9.360  13.155  66.335  1.00  0.00    -0.188 A  
HETATM   13  C   UNL     1     -10.604  15.467  68.333  1.00  0.00    -0.247 A  
HETATM   14  C   UNL     1      -9.528  11.822  65.907  1.00  0.00    -0.239 A  
HETATM   15  C   UNL     1      -7.093  12.575  66.994  1.00  0.00     0.031 A  
HETATM   16  H   UNL     1      -9.489  14.923  64.683  1.00  0.00     0.000 HD 
HETATM   17  C   UNL     1     -10.275  17.921  67.059  1.00  0.00    -0.359 A  
HETATM   18  C   UNL     1      -8.531  10.868  66.082  1.00  0.00    -0.171 A  
HETATM   19  C   UNL     1     -10.645  16.656  69.069  1.00  0.00    -0.340 A  
ENDROOT
BRANCH   1  20
HETATM   20  N   UNL     1     -11.859  12.226  68.439  1.00  0.00    -0.327 NA 
HETATM   21  H   UNL     1     -12.323  12.641  69.248  1.00  0.00     0.000 HD 
BRANCH  20  22
HETATM   22  C   UNL     1     -10.846  11.405  68.532  1.00  0.00    -0.211 C  
HETATM   23  C   UNL     1      -8.843  10.452  69.751  1.00  0.00     0.036 C  
HETATM   24  C   UNL     1      -9.673   9.173  69.999  1.00  0.00    -0.217 C  
HETATM   25  C   UNL     1     -11.115   9.433  69.588  1.00  0.00    -0.163 C  
HETATM   26  C   UNL     1      -9.427  11.566  69.201  1.00  0.00     0.185 C  
HETATM   27  C   UNL     1      -7.387  10.171  70.182  1.00  0.00    -0.157 C  
HETATM   28  C   UNL     1     -11.048   9.972  68.165  1.00  0.00    -0.252 C  
HETATM   29  C   UNL     1      -9.709   8.806  71.498  1.00  0.00    -0.361 C  
HETATM   30  C   UNL     1      -6.768   8.744  69.755  1.00  0.00    -0.045 C  
HETATM   31  C   UNL     1      -7.757   7.518  69.580  1.00  0.00    -0.104 C  
HETATM   32  C   UNL     1      -7.264   6.280  68.670  1.00  0.00    -0.085 C  
HETATM   33  C   UNL     1      -6.419   5.271  69.513  1.00  0.00    -0.035 C  
HETATM   34  C   UNL     1      -7.293   4.015  69.722  1.00  0.00    -0.049 C  
HETATM   35  C   UNL     1      -8.702   4.528  69.438  1.00  0.00    -0.086 C  
HETATM   36  C   UNL     1      -9.075   8.086  69.063  1.00  0.00    -0.144 C  
HETATM   37  C   UNL     1      -8.446   5.348  68.141  1.00  0.00    -0.097 C  
HETATM   38  C   UNL     1     -10.136   7.050  68.709  1.00  0.00    -0.170 C  
HETATM   39  C   UNL     1      -9.638   6.132  67.652  1.00  0.00    -0.113 C  
HETATM   40  C   UNL     1      -8.076   4.493  66.897  1.00  0.00    -0.102 C  
BRANCH  35  41
HETATM   41  O   UNL     1      -9.758   3.556  69.472  1.00  0.00    -0.159 OA 
BRANCH  41  42
HETATM   42  C   UNL     1      -9.272   2.305  69.771  1.00  0.00    -0.115 C  
HETATM   43  O   UNL     1      -8.843   1.528  68.923  1.00  0.00    -0.059 OA 
BRANCH  42  44
HETATM   44  C   UNL     1      -9.293   1.852  71.215  1.00  0.00    -0.186 C  
BRANCH  44  45
HETATM   45  C   UNL     1      -9.978   2.654  72.313  1.00  0.00    -0.237 C  
BRANCH  45  46
HETATM   46  C   UNL     1      -9.037   3.594  73.055  1.00  0.00    -0.113 C  
BRANCH  46  47
HETATM   47  C   UNL     1      -9.286   5.081  72.772  1.00  0.00    -0.144 C  
BRANCH  47  48
HETATM   48  C   UNL     1      -8.044   5.957  72.944  1.00  0.00    -0.114 C  
HETATM   49  C   UNL     1      -6.896   5.181  73.576  1.00  0.00    -0.075 C  
ENDBRANCH  47  48
ENDBRANCH  46  47
ENDBRANCH  45  46
ENDBRANCH  44  45
ENDBRANCH  42  44
ENDBRANCH  41  42
ENDBRANCH  35  41
ENDBRANCH  20  22
ENDBRANCH   1  20
TORSDOF 9
ENDMDL
MODEL       79
REMARK 921   NORMALIZED FREE ENERGY PREDICTED BY IDOCK:   -3.88 KCAL/MOL
REMARK 922        TOTAL FREE ENERGY PREDICTED BY IDOCK:   -9.24 KCAL/MOL
REMARK 923 INTER-LIGAND FREE ENERGY PREDICTED BY IDOCK:   -7.74 KCAL/MOL
REMARK 924 INTRA-LIGAND FREE ENERGY PREDICTED BY IDOCK:   -1.50 KCAL/MOL
REMARK 927      BINDING AFFINITY PREDICTED BY RF-SCORE:    0.00 PKD
ROOT
HETATM    1  N   UNL     1      -9.474   7.734  67.249  1.00  0.00    -0.142 N  
HETATM    2  C   UNL     1     -10.127   6.613  67.737  1.00  0.00    -0.148 C  
HETATM    3  C   UNL     1      -8.540   8.567  72.201  1.00  0.00    -0.242 A  
HETATM    4  H   UNL     1     -10.083   8.425  66.812  1.00  0.00     0.000 HD 
HETATM    5  C   UNL     1      -9.346   3.299  68.990  1.00  0.00    -0.234 A  
HETATM    6  O   UNL     1     -11.162   6.272  67.107  1.00  0.00    -0.334 OA 
HETATM    7  C   UNL     1      -7.340   2.358  68.030  1.00  0.00    -0.048 A  
HETATM    8  C   UNL     1      -9.755   5.855  69.042  1.00  0.00    -0.136 C  
HETATM    9  O   UNL     1     -11.033   5.360  69.548  1.00  0.00    -0.212 OA 
HETATM   10  C   UNL     1      -8.892   4.616  68.743  1.00  0.00    -0.127 A  
HETATM   11  C   UNL     1      -8.433   6.376  71.173  1.00  0.00    -0.124 A  
HETATM   12  C   UNL     1      -9.307   6.790  70.158  1.00  0.00    -0.159 A  
HETATM   13  C   UNL     1      -7.619   4.760  68.181  1.00  0.00    -0.081 A  
HETATM   14  C   UNL     1      -9.851   8.089  70.247  1.00  0.00    -0.184 A  
HETATM   15  C   UNL     1      -8.049   7.265  72.183  1.00  0.00    -0.100 A  
HETATM   16  H   UNL     1     -10.806   4.896  70.345  1.00  0.00     0.000 HD 
HETATM   17  C   UNL     1      -8.579   2.185  68.631  1.00  0.00    -0.103 A  
HETATM   18  C   UNL     1      -9.452   8.981  71.235  1.00  0.00    -0.339 A  
HETATM   19  C   UNL     1      -6.852   3.647  67.818  1.00  0.00    -0.050 A  
ENDROOT
BRANCH   1  20
HETATM   20  N   UNL     1      -8.096   8.078  67.258  1.00  0.00    -0.120 NA 
HETATM   21  H   UNL     1      -7.372   7.513  66.815  1.00  0.00     0.000 HD 
BRANCH  20  22
HETATM   22  C   UNL     1      -7.851   9.194  67.892  1.00  0.00    -0.100 C  
HETATM   23  C   UNL     1      -6.275  10.861  68.961  1.00  0.00    -0.043 C  
HETATM   24  C   UNL     1      -6.555  11.806  67.772  1.00  0.00    -0.075 C  
HETATM   25  C   UNL     1      -7.339  11.045  66.713  1.00  0.00    -0.139 C  
HETATM   26  C   UNL     1      -6.752   9.574  68.957  1.00  0.00    -0.050 C  
HETATM   27  C   UNL     1      -5.472  11.647  70.020  1.00  0.00    -0.098 C  
HETATM   28  C   UNL     1      -8.536  10.442  67.438  1.00  0.00    -0.121 C  
HETATM   29  C   UNL     1      -5.246  12.265  67.096  1.00  0.00    -0.053 C  
HETATM   30  C   UNL     1      -5.952  13.157  70.319  1.00  0.00    -0.131 C  
HETATM   31  C   UNL     1      -6.665  13.964  69.157  1.00  0.00    -0.113 C  
HETATM   32  C   UNL     1      -7.596  15.214  69.571  1.00  0.00    -0.207 C  
HETATM   33  C   UNL     1      -6.745  16.515  69.732  1.00  0.00    -0.024 C  
HETATM   34  C   UNL     1      -7.070  17.420  68.524  1.00  0.00    -0.219 C  
HETATM   35  C   UNL     1      -7.677  16.443  67.519  1.00  0.00    -0.142 C  
HETATM   36  C   UNL     1      -7.449  12.947  68.333  1.00  0.00    -0.124 C  
HETATM   37  C   UNL     1      -8.642  15.650  68.448  1.00  0.00    -0.173 C  
HETATM   38  C   UNL     1      -8.314  13.536  67.224  1.00  0.00    -0.188 C  
HETATM   39  C   UNL     1      -9.318  14.474  67.786  1.00  0.00    -0.198 C  
HETATM   40  C   UNL     1      -9.847  16.471  68.982  1.00  0.00    -0.266 C  
BRANCH  35  41
HETATM   41  O   UNL     1      -8.168  17.006  66.293  1.00  0.00    -0.273 OA 
BRANCH  41  42
HETATM   42  C   UNL     1      -7.361  18.032  65.860  1.00  0.00    -0.213 C  
HETATM   43  O   UNL     1      -6.391  17.862  65.127  1.00  0.00    -0.159 OA 
BRANCH  42  44
HETATM   44  C   UNL     1      -7.665  19.436  66.335  1.00  0.00    -0.297 C  
BRANCH  44  45
HETATM   45  C   UNL     1      -8.886  20.212  65.861  1.00  0.00    -0.100 C  
BRANCH  45  46
HETATM   46  C   UNL     1     -10.151  19.367  65.786  1.00  0.00    -0.266 C  
BRANCH  46  47
HETATM   47  C   UNL     1     -10.899  19.239  67.118  1.00  0.00    -0.543 C  
BRANCH  47  48
HETATM   48  C   UNL     1     -10.532  20.318  68.138  1.00  0.00    -0.291 C  
HETATM   49  C   UNL     1      -9.919  19.715  69.395  1.00  0.00    -0.246 C  
ENDBRANCH  47  48
ENDBRANCH  46  47
ENDBRANCH  45  46
ENDBRANCH  44  45
ENDBRANCH  42  44
ENDBRANCH  41  42
ENDBRANCH  35  41
ENDBRANCH  20  22
ENDBRANCH   1  20
TORSDOF 9
ENDMDL
MODEL       80
REMARK 921   NORMALIZED FREE ENERGY PREDICTED BY IDOCK:   -3.85 KCAL/MOL
REMARK 922        TOTAL FREE ENERGY PREDICTED BY IDOCK:   -9.20 KCAL/MOL
REMARK 923 INTER-LIGAND FREE ENERGY PREDICTED BY IDOCK:   -5.98 KCAL/MOL
REMARK 924 INTRA-LIGAND FREE ENERGY PREDICTED BY IDOCK:   -3.22 KCAL/MOL
REMARK 927      BINDING AFFINITY PREDICTED BY RF-SCORE:    0.00 PKD
ROOT
HETATM    1  N   UNL     1      -7.827  12.582  66.720  1.00  0.00    -0.394 N  
HETATM    2  C   UNL     1      -8.769  13.594  66.815  1.00  0.00    -0.082 C  
HETATM    3  C   UNL     1     -11.075  10.130  69.806  1.00  0.00    -0.328 A  
HETATM    4  H   UNL     1      -6.925  12.799  67.143  1.00  0.00     0.000 HD 
HETATM    5  C   UNL     1     -12.014  14.472  65.448  1.00  0.00    -0.332 A  
HETATM    6  O   UNL     1      -8.308  14.766  66.815  1.00  0.00    -0.200 OA 
HETATM    7  C   UNL     1     -12.374  13.631  63.214  1.00  0.00    -0.037 A  
HETATM    8  C   UNL     1     -10.291  13.384  67.047  1.00  0.00    -0.247 C  
HETATM    9  O   UNL     1     -10.701  14.547  67.831  1.00  0.00    -0.241 OA 
HETATM   10  C   UNL     1     -11.073  13.451  65.723  1.00  0.00    -0.295 A  
HETATM   11  C   UNL     1     -11.785  11.506  67.942  1.00  0.00    -0.317 A  
HETATM   12  C   UNL     1     -10.587  12.232  67.999  1.00  0.00    -0.235 A  
HETATM   13  C   UNL     1     -10.852  12.498  64.722  1.00  0.00    -0.332 A  
HETATM   14  C   UNL     1      -9.684  11.931  69.040  1.00  0.00     0.159 A  
HETATM   15  C   UNL     1     -12.021  10.457  68.838  1.00  0.00     0.076 A  
HETATM   16  H   UNL     1     -11.631  14.418  67.973  1.00  0.00     0.000 HD 
HETATM   17  C   UNL     1     -12.650  14.562  64.205  1.00  0.00    -0.137 A  
HETATM   18  C   UNL     1      -9.905  10.874  69.915  1.00  0.00     0.484 A  
HETATM   19  C   UNL     1     -11.485  12.589  63.477  1.00  0.00    -0.570 A  
ENDROOT
BRANCH   1  20
HETATM   20  N   UNL     1      -7.910  11.293  66.131  1.00  0.00    -0.345 NA 
HETATM   21  H   UNL     1      -8.411  11.103  65.262  1.00  0.00     0.000 HD 
BRANCH  20  22
HETATM   22  C   UNL     1      -7.281  10.375  66.816  1.00  0.00    -0.109 C  
HETATM   23  C   UNL     1      -6.538   9.324  68.995  1.00  0.00    -0.047 C  
HETATM   24  C   UNL     1      -7.539   8.180  68.720  1.00  0.00    -0.105 C  
HETATM   25  C   UNL     1      -8.411   8.563  67.534  1.00  0.00    -0.128 C  
HETATM   26  C   UNL     1      -6.514  10.437  68.192  1.00  0.00    -0.056 C  
HETATM   27  C   UNL     1      -5.670   8.921  70.207  1.00  0.00    -0.033 C  
HETATM   28  C   UNL     1      -7.446   8.945  66.418  1.00  0.00    -0.088 C  
HETATM   29  C   UNL     1      -8.498   7.972  69.912  1.00  0.00    -0.126 C  
HETATM   30  C   UNL     1      -5.145   7.397  70.247  1.00  0.00    -0.023 C  
HETATM   31  C   UNL     1      -6.018   6.282  69.537  1.00  0.00    -0.021 C  
HETATM   32  C   UNL     1      -5.283   4.910  69.111  1.00  0.00     0.000 C  
HETATM   33  C   UNL     1      -5.253   3.900  70.302  1.00  0.00    -0.004 C  
HETATM   34  C   UNL     1      -6.264   2.781  69.970  1.00  0.00    -0.024 C  
HETATM   35  C   UNL     1      -7.145   3.422  68.901  1.00  0.00    -0.049 C  
HETATM   36  C   UNL     1      -6.682   6.944  68.333  1.00  0.00    -0.068 C  
HETATM   37  C   UNL     1      -6.059   4.073  67.996  1.00  0.00    -0.032 C  
HETATM   38  C   UNL     1      -7.480   6.007  67.434  1.00  0.00    -0.081 C  
HETATM   39  C   UNL     1      -6.607   4.937  66.888  1.00  0.00    -0.050 C  
HETATM   40  C   UNL     1      -5.170   3.060  67.223  1.00  0.00    -0.009 C  
BRANCH  35  41
HETATM   41  O   UNL     1      -8.156   2.587  68.316  1.00  0.00    -0.057 OA 
BRANCH  41  42
HETATM   42  C   UNL     1      -9.349   2.707  68.988  1.00  0.00    -0.143 C  
HETATM   43  O   UNL     1     -10.101   1.760  69.200  1.00  0.00     0.280 OA 
BRANCH  42  44
HETATM   44  C   UNL     1      -9.771   4.080  69.466  1.00  0.00    -0.227 C  
BRANCH  44  45
HETATM   45  C   UNL     1     -10.153   4.360  70.912  1.00  0.00    -0.199 C  
BRANCH  45  46
HETATM   46  C   UNL     1     -10.958   5.641  71.089  1.00  0.00    -0.248 C  
BRANCH  46  47
HETATM   47  C   UNL     1     -11.246   6.002  72.552  1.00  0.00    -0.333 C  
BRANCH  47  48
HETATM   48  C   UNL     1     -11.548   7.485  72.773  1.00  0.00    -0.299 C  
HETATM   49  C   UNL     1     -10.271   8.315  72.816  1.00  0.00    -0.325 C  
ENDBRANCH  47  48
ENDBRANCH  46  47
ENDBRANCH  45  46
ENDBRANCH  44  45
ENDBRANCH  42  44
ENDBRANCH  41  42
ENDBRANCH  35  41
ENDBRANCH  20  22
ENDBRANCH   1  20
TORSDOF 9
ENDMDL
MODEL       81
REMARK 921   NORMALIZED FREE ENERGY PREDICTED BY IDOCK:   -3.82 KCAL/MOL
REMARK 922        TOTAL FREE ENERGY PREDICTED BY IDOCK:   -9.15 KCAL/MOL
REMARK 923 INTER-LIGAND FREE ENERGY PREDICTED BY IDOCK:   -7.02 KCAL/MOL
REMARK 924 INTRA-LIGAND FREE ENERGY PREDICTED BY IDOCK:   -2.13 KCAL/MOL
REMARK 927      BINDING AFFINITY PREDICTED BY RF-SCORE:    0.00 PKD
ROOT
HETATM    1  N   UNL     1     -12.118  12.236  66.962  1.00  0.00    -0.118 N  
HETATM    2  C   UNL     1     -11.846  13.591  67.075  1.00  0.00    -0.402 C  
HETATM    3  C   UNL     1      -7.127  11.798  67.957  1.00  0.00    -0.082 A  
HETATM    4  H   UNL     1     -12.390  11.932  66.028  1.00  0.00     0.000 HD 
HETATM    5  C   UNL     1     -11.306  16.086  69.653  1.00  0.00    -0.332 A  
HETATM    6  O   UNL     1     -12.503  14.340  66.305  1.00  0.00    -0.445 OA 
HETATM    7  C   UNL     1     -12.490  15.618  71.705  1.00  0.00    -0.503 A  
HETATM    8  C   UNL     1     -10.731  14.211  67.960  1.00  0.00    -0.242 C  
HETATM    9  O   UNL     1     -10.299  15.395  67.220  1.00  0.00    -0.261 OA 
HETATM   10  C   UNL     1     -11.296  14.715  69.301  1.00  0.00    -0.313 A  
HETATM   11  C   UNL     1      -8.577  13.387  69.073  1.00  0.00     0.389 A  
HETATM   12  C   UNL     1      -9.463  13.367  67.987  1.00  0.00    -0.218 A  
HETATM   13  C   UNL     1     -11.853  13.815  70.217  1.00  0.00    -0.342 A  
HETATM   14  C   UNL     1      -9.101  12.608  66.855  1.00  0.00    -0.218 A  
HETATM   15  C   UNL     1      -7.419  12.599  69.057  1.00  0.00     0.098 A  
HETATM   16  H   UNL     1      -9.618  15.775  67.762  1.00  0.00     0.000 HD 
HETATM   17  C   UNL     1     -11.902  16.529  70.839  1.00  0.00     0.222 A  
HETATM   18  C   UNL     1      -7.965  11.807  66.847  1.00  0.00    -0.149 A  
HETATM   19  C   UNL     1     -12.452  14.257  71.401  1.00  0.00    -0.437 A  
ENDROOT
BRANCH   1  20
HETATM   20  N   UNL     1     -12.079  11.201  67.934  1.00  0.00    -0.631 NA 
HETATM   21  H   UNL     1     -12.857  10.986  68.558  1.00  0.00     0.000 HD 
BRANCH  20  22
HETATM   22  C   UNL     1     -10.944  10.554  67.947  1.00  0.00    -0.295 C  
HETATM   23  C   UNL     1      -9.356   8.840  68.922  1.00  0.00    -0.145 C  
HETATM   24  C   UNL     1      -9.642   7.955  67.688  1.00  0.00    -0.183 C  
HETATM   25  C   UNL     1     -10.795   8.563  66.903  1.00  0.00     0.030 C  
HETATM   26  C   UNL     1     -10.074   9.991  69.136  1.00  0.00    -0.219 C  
HETATM   27  C   UNL     1      -8.191   8.203  69.710  1.00  0.00    -0.122 C  
HETATM   28  C   UNL     1     -10.409  10.016  66.661  1.00  0.00    -0.281 C  
HETATM   29  C   UNL     1     -10.099   6.540  68.103  1.00  0.00    -0.170 C  
HETATM   30  C   UNL     1      -6.950   7.647  68.844  1.00  0.00    -0.070 C  
HETATM   31  C   UNL     1      -7.229   7.146  67.366  1.00  0.00    -0.090 C  
HETATM   32  C   UNL     1      -5.983   7.098  66.342  1.00  0.00    -0.035 C  
HETATM   33  C   UNL     1      -5.200   5.753  66.477  1.00  0.00    -0.009 C  
HETATM   34  C   UNL     1      -5.518   4.916  65.219  1.00  0.00    -0.013 C  
HETATM   35  C   UNL     1      -6.791   5.570  64.687  1.00  0.00    -0.048 C  
HETATM   36  C   UNL     1      -8.359   8.010  66.815  1.00  0.00    -0.116 C  
HETATM   37  C   UNL     1      -6.405   7.073  64.803  1.00  0.00    -0.037 C  
HETATM   38  C   UNL     1      -8.705   7.771  65.349  1.00  0.00    -0.051 C  
HETATM   39  C   UNL     1      -7.526   8.031  64.485  1.00  0.00    -0.102 C  
HETATM   40  C   UNL     1      -5.287   7.530  63.827  1.00  0.00    -0.033 C  
BRANCH  35  41
HETATM   41  O   UNL     1      -7.306   5.058  63.448  1.00  0.00    -0.047 OA 
BRANCH  41  42
HETATM   42  C   UNL     1      -8.463   4.343  63.649  1.00  0.00    -0.110 C  
HETATM   43  O   UNL     1      -9.157   3.913  62.732  1.00  0.00    -0.098 OA 
BRANCH  42  44
HETATM   44  C   UNL     1      -8.920   4.099  65.072  1.00  0.00    -0.137 C  
BRANCH  44  45
HETATM   45  C   UNL     1      -8.821   2.735  65.739  1.00  0.00    -0.134 C  
BRANCH  45  46
HETATM   46  C   UNL     1      -7.561   2.558  66.577  1.00  0.00    -0.071 C  
BRANCH  46  47
HETATM   47  C   UNL     1      -7.666   3.138  67.994  1.00  0.00    -0.059 C  
BRANCH  47  48
HETATM   48  C   UNL     1      -9.084   3.115  68.566  1.00  0.00    -0.210 C  
HETATM   49  C   UNL     1      -9.122   2.463  69.942  1.00  0.00    -0.176 C  
ENDBRANCH  47  48
ENDBRANCH  46  47
ENDBRANCH  45  46
ENDBRANCH  44  45
ENDBRANCH  42  44
ENDBRANCH  41  42
ENDBRANCH  35  41
ENDBRANCH  20  22
ENDBRANCH   1  20
TORSDOF 9
ENDMDL
MODEL       82
REMARK 921   NORMALIZED FREE ENERGY PREDICTED BY IDOCK:   -3.81 KCAL/MOL
REMARK 922        TOTAL FREE ENERGY PREDICTED BY IDOCK:   -9.12 KCAL/MOL
REMARK 923 INTER-LIGAND FREE ENERGY PREDICTED BY IDOCK:   -6.90 KCAL/MOL
REMARK 924 INTRA-LIGAND FREE ENERGY PREDICTED BY IDOCK:   -2.22 KCAL/MOL
REMARK 927      BINDING AFFINITY PREDICTED BY RF-SCORE:    0.00 PKD
ROOT
HETATM    1  N   UNL     1     -10.036   5.294  67.734  1.00  0.00    -0.163 N  
HETATM    2  C   UNL     1      -9.115   4.272  67.566  1.00  0.00    -0.134 C  
HETATM    3  C   UNL     1      -5.832   8.136  68.307  1.00  0.00    -0.037 A  
HETATM    4  H   UNL     1     -10.611   5.216  68.573  1.00  0.00     0.000 HD 
HETATM    5  C   UNL     1      -6.891   2.962  65.016  1.00  0.00    -0.044 A  
HETATM    6  O   UNL     1      -9.460   3.151  68.024  1.00  0.00    -0.200 OA 
HETATM    7  C   UNL     1      -7.695   3.316  62.766  1.00  0.00    -0.059 A  
HETATM    8  C   UNL     1      -7.683   4.442  66.989  1.00  0.00    -0.089 C  
HETATM    9  O   UNL     1      -6.888   3.440  67.695  1.00  0.00    -0.048 OA 
HETATM   10  C   UNL     1      -7.633   4.068  65.496  1.00  0.00    -0.082 A  
HETATM   11  C   UNL     1      -6.039   6.377  66.653  1.00  0.00    -0.032 A  
HETATM   12  C   UNL     1      -7.023   5.743  67.425  1.00  0.00    -0.065 A  
HETATM   13  C   UNL     1      -8.356   4.810  64.556  1.00  0.00    -0.128 A  
HETATM   14  C   UNL     1      -7.327   6.296  68.687  1.00  0.00    -0.086 A  
HETATM   15  C   UNL     1      -5.454   7.571  67.092  1.00  0.00    -0.030 A  
HETATM   16  H   UNL     1      -6.012   3.543  67.342  1.00  0.00     0.000 HD 
HETATM   17  C   UNL     1      -6.929   2.590  63.667  1.00  0.00    -0.040 A  
HETATM   18  C   UNL     1      -6.765   7.494  69.114  1.00  0.00    -0.048 A  
HETATM   19  C   UNL     1      -8.398   4.437  63.209  1.00  0.00    -0.099 A  
ENDROOT
BRANCH   1  20
HETATM   20  N   UNL     1     -10.312   6.432  66.931  1.00  0.00    -0.227 NA 
HETATM   21  H   UNL     1     -10.170   6.456  65.921  1.00  0.00     0.000 HD 
BRANCH  20  22
HETATM   22  C   UNL     1     -10.766   7.446  67.618  1.00  0.00    -0.207 C  
HETATM   23  C   UNL     1     -11.131   8.695  69.789  1.00  0.00    -0.073 C  
HETATM   24  C   UNL     1     -10.075   9.718  69.314  1.00  0.00    -0.207 C  
HETATM   25  C   UNL     1      -9.398   9.181  68.061  1.00  0.00    -0.149 C  
HETATM   26  C   UNL     1     -11.355   7.543  69.077  1.00  0.00     0.370 C  
HETATM   27  C   UNL     1     -11.800   9.253  71.064  1.00  0.00    -0.376 C  
HETATM   28  C   UNL     1     -10.527   8.827  67.101  1.00  0.00    -0.354 C  
HETATM   29  C   UNL     1      -8.959   9.905  70.364  1.00  0.00    -0.003 C  
HETATM   30  C   UNL     1     -12.179  10.820  71.057  1.00  0.00    -0.485 C  
HETATM   31  C   UNL     1     -11.308  11.801  70.168  1.00  0.00    -0.037 C  
HETATM   32  C   UNL     1     -11.966  13.208  69.735  1.00  0.00    -0.382 C  
HETATM   33  C   UNL     1     -11.755  14.287  70.846  1.00  0.00    -0.242 C  
HETATM   34  C   UNL     1     -10.700  15.281  70.314  1.00  0.00    -0.283 C  
HETATM   35  C   UNL     1     -10.021  14.494  69.196  1.00  0.00    -0.106 C  
HETATM   36  C   UNL     1     -10.862  11.006  68.944  1.00  0.00    -0.262 C  
HETATM   37  C   UNL     1     -11.266  13.898  68.478  1.00  0.00    -0.298 C  
HETATM   38  C   UNL     1     -10.105  11.805  67.890  1.00  0.00    -0.195 C  
HETATM   39  C   UNL     1     -10.942  12.919  67.377  1.00  0.00    -0.288 C  
HETATM   40  C   UNL     1     -12.153  14.942  67.747  1.00  0.00    -0.073 C  
BRANCH  35  41
HETATM   41  O   UNL     1      -9.023  15.191  68.435  1.00  0.00    -0.172 OA 
BRANCH  41  42
HETATM   42  C   UNL     1      -7.797  15.132  69.053  1.00  0.00    -0.181 C  
HETATM   43  O   UNL     1      -7.489  14.257  69.858  1.00  0.00     0.133 OA 
BRANCH  42  44
HETATM   44  C   UNL     1      -6.785  16.216  68.749  1.00  0.00    -0.136 C  
BRANCH  44  45
HETATM   45  C   UNL     1      -6.769  17.547  69.486  1.00  0.00    -0.116 C  
BRANCH  45  46
HETATM   46  C   UNL     1      -7.604  18.626  68.807  1.00  0.00    -0.327 C  
BRANCH  46  47
HETATM   47  C   UNL     1      -8.059  18.266  67.388  1.00  0.00    -0.232 C  
BRANCH  47  48
HETATM   48  C   UNL     1      -9.572  18.356  67.184  1.00  0.00    -0.299 C  
HETATM   49  C   UNL     1     -10.046  17.404  66.093  1.00  0.00    -0.309 C  
ENDBRANCH  47  48
ENDBRANCH  46  47
ENDBRANCH  45  46
ENDBRANCH  44  45
ENDBRANCH  42  44
ENDBRANCH  41  42
ENDBRANCH  35  41
ENDBRANCH  20  22
ENDBRANCH   1  20
TORSDOF 9
ENDMDL
MODEL       83
REMARK 921   NORMALIZED FREE ENERGY PREDICTED BY IDOCK:   -3.80 KCAL/MOL
REMARK 922        TOTAL FREE ENERGY PREDICTED BY IDOCK:   -9.12 KCAL/MOL
REMARK 923 INTER-LIGAND FREE ENERGY PREDICTED BY IDOCK:   -6.49 KCAL/MOL
REMARK 924 INTRA-LIGAND FREE ENERGY PREDICTED BY IDOCK:   -2.62 KCAL/MOL
REMARK 927      BINDING AFFINITY PREDICTED BY RF-SCORE:    0.00 PKD
ROOT
HETATM    1  N   UNL     1      -8.826   5.110  68.634  1.00  0.00    -0.096 N  
HETATM    2  C   UNL     1      -9.135   4.263  69.688  1.00  0.00    -0.115 C  
HETATM    3  C   UNL     1      -8.390   8.566  72.369  1.00  0.00    -0.177 A  
HETATM    4  H   UNL     1      -9.595   5.282  67.987  1.00  0.00     0.000 HD 
HETATM    5  C   UNL     1      -7.453   2.415  72.318  1.00  0.00    -0.044 A  
HETATM    6  O   UNL     1      -9.994   3.377  69.437  1.00  0.00     0.093 OA 
HETATM    7  C   UNL     1      -5.219   1.716  71.724  1.00  0.00     0.000 A  
HETATM    8  C   UNL     1      -8.608   4.412  71.142  1.00  0.00    -0.098 C  
HETATM    9  O   UNL     1      -9.700   3.911  71.974  1.00  0.00    -0.146 OA 
HETATM   10  C   UNL     1      -7.403   3.489  71.398  1.00  0.00    -0.036 A  
HETATM   11  C   UNL     1      -7.592   6.286  72.560  1.00  0.00    -0.101 A  
HETATM   12  C   UNL     1      -8.507   5.866  71.585  1.00  0.00    -0.128 A  
HETATM   13  C   UNL     1      -6.208   3.674  70.693  1.00  0.00    -0.019 A  
HETATM   14  C   UNL     1      -9.416   6.819  71.080  1.00  0.00    -0.164 A  
HETATM   15  C   UNL     1      -7.533   7.632  72.942  1.00  0.00    -0.114 A  
HETATM   16  H   UNL     1      -9.378   4.001  72.863  1.00  0.00     0.000 HD 
HETATM   17  C   UNL     1      -6.374   1.537  72.472  1.00  0.00    -0.010 A  
HETATM   18  C   UNL     1      -9.343   8.159  71.440  1.00  0.00    -0.200 A  
HETATM   19  C   UNL     1      -5.130   2.795  70.843  1.00  0.00    -0.004 A  
ENDROOT
BRANCH   1  20
HETATM   20  N   UNL     1      -7.616   5.777  68.308  1.00  0.00    -0.084 NA 
HETATM   21  H   UNL     1      -6.767   5.292  68.015  1.00  0.00     0.000 HD 
BRANCH  20  22
HETATM   22  C   UNL     1      -7.700   7.076  68.423  1.00  0.00    -0.120 C  
HETATM   23  C   UNL     1      -6.713   9.403  68.290  1.00  0.00    -0.059 C  
HETATM   24  C   UNL     1      -7.576   9.637  67.031  1.00  0.00    -0.095 C  
HETATM   25  C   UNL     1      -8.201   8.315  66.610  1.00  0.00    -0.106 C  
HETATM   26  C   UNL     1      -6.642   8.158  68.865  1.00  0.00    -0.049 C  
HETATM   27  C   UNL     1      -6.080  10.751  68.697  1.00  0.00    -0.039 C  
HETATM   28  C   UNL     1      -8.892   7.771  67.853  1.00  0.00    -0.123 C  
HETATM   29  C   UNL     1      -6.717  10.109  65.839  1.00  0.00    -0.107 C  
HETATM   30  C   UNL     1      -7.037  12.048  68.636  1.00  0.00    -0.103 C  
HETATM   31  C   UNL     1      -8.230  12.054  67.593  1.00  0.00    -0.155 C  
HETATM   32  C   UNL     1      -9.467  13.050  67.872  1.00  0.00    -0.219 C  
HETATM   33  C   UNL     1      -9.176  14.476  67.303  1.00  0.00    -0.213 C  
HETATM   34  C   UNL     1     -10.067  14.655  66.055  1.00  0.00    -0.330 C  
HETATM   35  C   UNL     1     -10.439  13.220  65.691  1.00  0.00    -0.281 C  
HETATM   36  C   UNL     1      -8.707  10.611  67.462  1.00  0.00    -0.125 C  
HETATM   37  C   UNL     1     -10.806  12.661  67.097  1.00  0.00    -0.282 C  
HETATM   38  C   UNL     1      -9.940  10.410  66.588  1.00  0.00    -0.262 C  
HETATM   39  C   UNL     1     -11.092  11.180  67.124  1.00  0.00    -0.352 C  
HETATM   40  C   UNL     1     -12.099  13.262  67.714  1.00  0.00    -0.281 C  
BRANCH  35  41
HETATM   41  O   UNL     1     -11.350  13.051  64.595  1.00  0.00    -0.305 OA 
BRANCH  41  42
HETATM   42  C   UNL     1     -10.944  12.033  63.765  1.00  0.00    -0.426 C  
HETATM   43  O   UNL     1     -11.725  11.288  63.180  1.00  0.00    -0.004 OA 
BRANCH  42  44
HETATM   44  C   UNL     1      -9.459  11.800  63.586  1.00  0.00    -0.106 C  
BRANCH  44  45
HETATM   45  C   UNL     1      -8.889  11.040  62.397  1.00  0.00    -0.358 C  
BRANCH  45  46
HETATM   46  C   UNL     1      -9.022   9.527  62.522  1.00  0.00    -0.268 C  
BRANCH  46  47
HETATM   47  C   UNL     1      -7.685   8.776  62.491  1.00  0.00    -0.119 C  
BRANCH  47  48
HETATM   48  C   UNL     1      -7.788   7.316  62.932  1.00  0.00    -0.128 C  
HETATM   49  C   UNL     1      -6.458   6.798  63.466  1.00  0.00    -0.042 C  
ENDBRANCH  47  48
ENDBRANCH  46  47
ENDBRANCH  45  46
ENDBRANCH  44  45
ENDBRANCH  42  44
ENDBRANCH  41  42
ENDBRANCH  35  41
ENDBRANCH  20  22
ENDBRANCH   1  20
TORSDOF 9
ENDMDL
MODEL       84
REMARK 921   NORMALIZED FREE ENERGY PREDICTED BY IDOCK:   -3.77 KCAL/MOL
REMARK 922        TOTAL FREE ENERGY PREDICTED BY IDOCK:   -9.07 KCAL/MOL
REMARK 923 INTER-LIGAND FREE ENERGY PREDICTED BY IDOCK:   -5.95 KCAL/MOL
REMARK 924 INTRA-LIGAND FREE ENERGY PREDICTED BY IDOCK:   -3.12 KCAL/MOL
REMARK 927      BINDING AFFINITY PREDICTED BY RF-SCORE:    0.00 PKD
ROOT
HETATM    1  N   UNL     1      -6.796  12.276  66.899  1.00  0.00    -0.364 N  
HETATM    2  C   UNL     1      -7.395  13.349  67.540  1.00  0.00    -0.156 C  
HETATM    3  C   UNL     1     -10.364   9.606  69.394  1.00  0.00    -0.226 A  
HETATM    4  H   UNL     1      -5.839  12.082  67.195  1.00  0.00     0.000 HD 
HETATM    5  C   UNL     1     -10.342  15.442  67.236  1.00  0.00    -0.271 A  
HETATM    6  O   UNL     1      -6.615  14.273  67.891  1.00  0.00    -0.134 OA 
HETATM    7  C   UNL     1     -11.104  15.703  64.959  1.00  0.00    -0.399 A  
HETATM    8  C   UNL     1      -8.889  13.424  67.957  1.00  0.00    -0.183 C  
HETATM    9  O   UNL     1      -8.882  14.221  69.182  1.00  0.00    -0.378 OA 
HETATM   10  C   UNL     1      -9.720  14.210  66.927  1.00  0.00    -0.272 A  
HETATM   11  C   UNL     1     -10.789  11.751  68.349  1.00  0.00    -0.260 A  
HETATM   12  C   UNL     1      -9.431  12.087  68.447  1.00  0.00    -0.181 A  
HETATM   13  C   UNL     1      -9.862  13.730  65.620  1.00  0.00    -0.216 A  
HETATM   14  C   UNL     1      -8.575  11.182  69.110  1.00  0.00     0.045 A  
HETATM   15  C   UNL     1     -11.247  10.512  68.815  1.00  0.00    -0.317 A  
HETATM   16  H   UNL     1      -9.796  14.268  69.437  1.00  0.00     0.000 HD 
HETATM   17  C   UNL     1     -11.020  16.181  66.260  1.00  0.00    -0.031 A  
HETATM   18  C   UNL     1      -9.023   9.943  69.552  1.00  0.00    -0.224 A  
HETATM   19  C   UNL     1     -10.536  14.469  64.642  1.00  0.00    -0.298 A  
ENDROOT
BRANCH   1  20
HETATM   20  N   UNL     1      -7.294  11.402  65.897  1.00  0.00    -0.351 NA 
HETATM   21  H   UNL     1      -7.961  11.689  65.180  1.00  0.00     0.000 HD 
BRANCH  20  22
HETATM   22  C   UNL     1      -6.813  10.190  65.988  1.00  0.00    -0.112 C  
HETATM   23  C   UNL     1      -6.413   8.029  67.244  1.00  0.00    -0.057 C  
HETATM   24  C   UNL     1      -7.441   7.359  66.307  1.00  0.00    -0.083 C  
HETATM   25  C   UNL     1      -8.133   8.435  65.485  1.00  0.00    -0.129 C  
HETATM   26  C   UNL     1      -6.220   9.388  67.210  1.00  0.00    -0.057 C  
HETATM   27  C   UNL     1      -5.728   6.923  68.076  1.00  0.00    -0.020 C  
HETATM   28  C   UNL     1      -7.016   9.250  64.846  1.00  0.00    -0.090 C  
HETATM   29  C   UNL     1      -8.551   6.644  67.107  1.00  0.00    -0.112 C  
HETATM   30  C   UNL     1      -5.307   5.581  67.288  1.00  0.00    -0.008 C  
HETATM   31  C   UNL     1      -6.153   5.159  66.016  1.00  0.00    -0.030 C  
HETATM   32  C   UNL     1      -5.457   4.174  64.944  1.00  0.00    -0.013 C  
HETATM   33  C   UNL     1      -5.638   2.679  65.361  1.00  0.00    -0.017 C  
HETATM   34  C   UNL     1      -6.667   2.061  64.389  1.00  0.00    -0.027 C  
HETATM   35  C   UNL     1      -7.368   3.287  63.809  1.00  0.00    -0.058 C  
HETATM   36  C   UNL     1      -6.621   6.449  65.351  1.00  0.00    -0.043 C  
HETATM   37  C   UNL     1      -6.140   4.192  63.502  1.00  0.00    -0.018 C  
HETATM   38  C   UNL     1      -7.357   6.270  64.029  1.00  0.00    -0.072 C  
HETATM   39  C   UNL     1      -6.491   5.584  63.037  1.00  0.00    -0.025 C  
HETATM   40  C   UNL     1      -5.226   3.677  62.357  1.00  0.00    -0.005 C  
BRANCH  35  41
HETATM   41  O   UNL     1      -8.347   3.043  62.788  1.00  0.00    -0.073 OA 
BRANCH  41  42
HETATM   42  C   UNL     1      -9.617   3.304  63.246  1.00  0.00    -0.098 C  
HETATM   43  O   UNL     1     -10.433   3.978  62.624  1.00  0.00    -0.195 OA 
BRANCH  42  44
HETATM   44  C   UNL     1     -10.019   2.759  64.600  1.00  0.00     0.067 C  
BRANCH  44  45
HETATM   45  C   UNL     1      -9.643   3.448  65.903  1.00  0.00    -0.067 C  
BRANCH  45  46
HETATM   46  C   UNL     1      -9.053   2.502  66.942  1.00  0.00    -0.147 C  
BRANCH  46  47
HETATM   47  C   UNL     1      -8.863   3.133  68.327  1.00  0.00    -0.163 C  
BRANCH  47  48
HETATM   48  C   UNL     1      -7.419   3.093  68.830  1.00  0.00    -0.049 C  
HETATM   49  C   UNL     1      -7.101   1.766  69.508  1.00  0.00    -0.036 C  
ENDBRANCH  47  48
ENDBRANCH  46  47
ENDBRANCH  45  46
ENDBRANCH  44  45
ENDBRANCH  42  44
ENDBRANCH  41  42
ENDBRANCH  35  41
ENDBRANCH  20  22
ENDBRANCH   1  20
TORSDOF 9
ENDMDL
MODEL       85
REMARK 921   NORMALIZED FREE ENERGY PREDICTED BY IDOCK:   -3.65 KCAL/MOL
REMARK 922        TOTAL FREE ENERGY PREDICTED BY IDOCK:   -8.88 KCAL/MOL
REMARK 923 INTER-LIGAND FREE ENERGY PREDICTED BY IDOCK:   -8.22 KCAL/MOL
REMARK 924 INTRA-LIGAND FREE ENERGY PREDICTED BY IDOCK:   -0.66 KCAL/MOL
REMARK 927      BINDING AFFINITY PREDICTED BY RF-SCORE:    0.00 PKD
ROOT
HETATM    1  N   UNL     1      -7.862  11.531  66.458  1.00  0.00    -0.307 N  
HETATM    2  C   UNL     1      -7.947  12.793  67.026  1.00  0.00    -0.038 C  
HETATM    3  C   UNL     1     -11.584  10.473  69.791  1.00  0.00    -0.368 A  
HETATM    4  H   UNL     1      -6.985  11.043  66.636  1.00  0.00     0.000 HD 
HETATM    5  C   UNL     1     -10.048  15.747  66.868  1.00  0.00    -0.267 A  
HETATM    6  O   UNL     1      -6.857  13.415  67.129  1.00  0.00    -0.129 OA 
HETATM    7  C   UNL     1     -11.086  16.073  64.713  1.00  0.00    -0.378 A  
HETATM    8  C   UNL     1      -9.230  13.415  67.642  1.00  0.00    -0.212 C  
HETATM    9  O   UNL     1      -8.737  14.256  68.730  1.00  0.00    -0.251 OA 
HETATM   10  C   UNL     1      -9.932  14.355  66.645  1.00  0.00    -0.278 A  
HETATM   11  C   UNL     1     -11.467  12.541  68.533  1.00  0.00    -0.346 A  
HETATM   12  C   UNL     1     -10.081  12.392  68.385  1.00  0.00    -0.217 A  
HETATM   13  C   UNL     1     -10.462  13.851  65.451  1.00  0.00    -0.357 A  
HETATM   14  C   UNL     1      -9.462  11.304  69.035  1.00  0.00    -0.030 A  
HETATM   15  C   UNL     1     -12.212  11.580  69.227  1.00  0.00    -0.245 A  
HETATM   16  H   UNL     1      -9.522  14.637  69.107  1.00  0.00     0.000 HD 
HETATM   17  C   UNL     1     -10.613  16.594  65.909  1.00  0.00    -0.257 A  
HETATM   18  C   UNL     1     -10.203  10.336  69.704  1.00  0.00    -0.268 A  
HETATM   19  C   UNL     1     -11.024  14.697  64.490  1.00  0.00    -0.247 A  
ENDROOT
BRANCH   1  20
HETATM   20  N   UNL     1      -8.795  10.807  65.671  1.00  0.00    -0.186 NA 
HETATM   21  H   UNL     1      -9.459  11.250  65.035  1.00  0.00     0.000 HD 
BRANCH  20  22
HETATM   22  C   UNL     1      -8.716   9.514  65.843  1.00  0.00    -0.147 C  
HETATM   23  C   UNL     1      -7.612   7.269  65.463  1.00  0.00    -0.097 C  
HETATM   24  C   UNL     1      -7.140   7.313  66.933  1.00  0.00    -0.086 C  
HETATM   25  C   UNL     1      -7.427   8.696  67.499  1.00  0.00    -0.090 C  
HETATM   26  C   UNL     1      -8.219   8.359  64.891  1.00  0.00    -0.155 C  
HETATM   27  C   UNL     1      -7.305   5.863  64.903  1.00  0.00    -0.073 C  
HETATM   28  C   UNL     1      -8.900   8.961  67.218  1.00  0.00    -0.137 C  
HETATM   29  C   UNL     1      -5.614   7.109  67.042  1.00  0.00    -0.022 C  
HETATM   30  C   UNL     1      -7.632   4.612  65.866  1.00  0.00    -0.090 C  
HETATM   31  C   UNL     1      -7.569   4.834  67.434  1.00  0.00    -0.086 C  
HETATM   32  C   UNL     1      -8.381   3.803  68.373  1.00  0.00    -0.098 C  
HETATM   33  C   UNL     1      -7.524   2.534  68.680  1.00  0.00    -0.047 C  
HETATM   34  C   UNL     1      -7.088   2.630  70.158  1.00  0.00    -0.033 C  
HETATM   35  C   UNL     1      -7.281   4.111  70.475  1.00  0.00    -0.041 C  
HETATM   36  C   UNL     1      -8.007   6.272  67.693  1.00  0.00    -0.113 C  
HETATM   37  C   UNL     1      -8.680   4.354  69.840  1.00  0.00    -0.111 C  
HETATM   38  C   UNL     1      -8.133   6.659  69.162  1.00  0.00    -0.116 C  
HETATM   39  C   UNL     1      -9.127   5.795  69.847  1.00  0.00    -0.159 C  
HETATM   40  C   UNL     1      -9.853   3.637  70.564  1.00  0.00    -0.111 C  
BRANCH  35  41
HETATM   41  O   UNL     1      -7.031   4.515  71.830  1.00  0.00    -0.050 OA 
BRANCH  41  42
HETATM   42  C   UNL     1      -7.796   3.789  72.713  1.00  0.00    -0.074 C  
HETATM   43  O   UNL     1      -7.644   2.587  72.905  1.00  0.00    -0.043 OA 
BRANCH  42  44
HETATM   44  C   UNL     1      -8.901   4.503  73.462  1.00  0.00    -0.101 C  
BRANCH  44  45
HETATM   45  C   UNL     1      -8.859   5.995  73.753  1.00  0.00    -0.123 C  
BRANCH  45  46
HETATM   46  C   UNL     1     -10.239   6.637  73.836  1.00  0.00    -0.379 C  
BRANCH  46  47
HETATM   47  C   UNL     1     -10.432   7.831  72.893  1.00  0.00    -0.412 C  
BRANCH  47  48
HETATM   48  C   UNL     1     -11.871   8.006  72.407  1.00  0.00    -0.429 C  
HETATM   49  C   UNL     1     -12.242   6.956  71.368  1.00  0.00    -0.418 C  
ENDBRANCH  47  48
ENDBRANCH  46  47
ENDBRANCH  45  46
ENDBRANCH  44  45
ENDBRANCH  42  44
ENDBRANCH  41  42
ENDBRANCH  35  41
ENDBRANCH  20  22
ENDBRANCH   1  20
TORSDOF 9
ENDMDL
MODEL       86
REMARK 921   NORMALIZED FREE ENERGY PREDICTED BY IDOCK:   -3.61 KCAL/MOL
REMARK 922        TOTAL FREE ENERGY PREDICTED BY IDOCK:   -8.82 KCAL/MOL
REMARK 923 INTER-LIGAND FREE ENERGY PREDICTED BY IDOCK:   -8.73 KCAL/MOL
REMARK 924 INTRA-LIGAND FREE ENERGY PREDICTED BY IDOCK:   -0.09 KCAL/MOL
REMARK 927      BINDING AFFINITY PREDICTED BY RF-SCORE:    0.00 PKD
ROOT
HETATM    1  N   UNL     1     -10.779  12.783  64.984  1.00  0.00    -0.287 N  
HETATM    2  C   UNL     1     -11.715  12.990  65.986  1.00  0.00    -0.393 C  
HETATM    3  C   UNL     1      -8.520  16.832  67.125  1.00  0.00    -0.208 A  
HETATM    4  H   UNL     1     -11.126  12.943  64.038  1.00  0.00     0.000 HD 
HETATM    5  C   UNL     1     -12.128  12.372  69.537  1.00  0.00    -0.250 A  
HETATM    6  O   UNL     1     -12.908  12.743  65.672  1.00  0.00    -0.458 OA 
HETATM    7  C   UNL     1     -10.959  10.406  70.312  1.00  0.00    -0.353 A  
HETATM    8  C   UNL     1     -11.415  13.611  67.378  1.00  0.00    -0.336 C  
HETATM    9  O   UNL     1     -12.637  14.334  67.721  1.00  0.00    -0.487 OA 
HETATM   10  C   UNL     1     -11.234  12.522  68.450  1.00  0.00    -0.313 A  
HETATM   11  C   UNL     1      -9.563  15.055  68.401  1.00  0.00    -0.212 A  
HETATM   12  C   UNL     1     -10.385  14.732  67.312  1.00  0.00    -0.247 A  
HETATM   13  C   UNL     1     -10.174  11.613  68.363  1.00  0.00    -0.211 A  
HETATM   14  C   UNL     1     -10.305  15.546  66.163  1.00  0.00    -0.327 A  
HETATM   15  C   UNL     1      -8.631  16.096  68.301  1.00  0.00    -0.182 A  
HETATM   16  H   UNL     1     -12.454  14.714  68.572  1.00  0.00     0.000 HD 
HETATM   17  C   UNL     1     -11.993  11.322  70.452  1.00  0.00    -0.471 A  
HETATM   18  C   UNL     1      -9.365  16.564  66.053  1.00  0.00    -0.302 A  
HETATM   19  C   UNL     1     -10.040  10.560  69.274  1.00  0.00    -0.244 A  
ENDROOT
BRANCH   1  20
HETATM   20  N   UNL     1      -9.419  12.383  65.057  1.00  0.00    -0.448 NA 
HETATM   21  H   UNL     1      -8.665  13.005  65.349  1.00  0.00     0.000 HD 
BRANCH  20  22
HETATM   22  C   UNL     1      -9.231  11.137  64.711  1.00  0.00    -0.138 C  
HETATM   23  C   UNL     1      -7.944   9.316  63.514  1.00  0.00    -0.144 C  
HETATM   24  C   UNL     1      -7.471   8.817  64.897  1.00  0.00    -0.095 C  
HETATM   25  C   UNL     1      -7.870   9.839  65.952  1.00  0.00    -0.108 C  
HETATM   26  C   UNL     1      -8.643  10.492  63.398  1.00  0.00    -0.172 C  
HETATM   27  C   UNL     1      -7.523   8.272  62.457  1.00  0.00    -0.103 C  
HETATM   28  C   UNL     1      -9.362  10.076  65.754  1.00  0.00    -0.241 C  
HETATM   29  C   UNL     1      -5.933   8.707  64.961  1.00  0.00    -0.055 C  
HETATM   30  C   UNL     1      -7.740   6.722  62.844  1.00  0.00    -0.102 C  
HETATM   31  C   UNL     1      -7.688   6.314  64.375  1.00  0.00    -0.107 C  
HETATM   32  C   UNL     1      -8.406   4.938  64.811  1.00  0.00    -0.136 C  
HETATM   33  C   UNL     1      -7.444   3.721  64.621  1.00  0.00    -0.072 C  
HETATM   34  C   UNL     1      -7.011   3.264  66.031  1.00  0.00    -0.057 C  
HETATM   35  C   UNL     1      -7.326   4.481  66.897  1.00  0.00    -0.081 C  
HETATM   36  C   UNL     1      -8.244   7.496  65.163  1.00  0.00    -0.122 C  
HETATM   37  C   UNL     1      -8.744   4.842  66.368  1.00  0.00    -0.113 C  
HETATM   38  C   UNL     1      -8.395   7.264  66.663  1.00  0.00    -0.121 C  
HETATM   39  C   UNL     1      -9.310   6.124  66.926  1.00  0.00    -0.143 C  
HETATM   40  C   UNL     1      -9.849   3.808  66.719  1.00  0.00    -0.050 C  
BRANCH  35  41
HETATM   41  O   UNL     1      -7.105   4.339  68.308  1.00  0.00    -0.057 OA 
BRANCH  41  42
HETATM   42  C   UNL     1      -7.781   3.251  68.809  1.00  0.00    -0.051 C  
HETATM   43  O   UNL     1      -7.482   2.091  68.542  1.00  0.00    -0.043 OA 
BRANCH  42  44
HETATM   44  C   UNL     1      -8.972   3.497  69.710  1.00  0.00    -0.174 C  
BRANCH  44  45
HETATM   45  C   UNL     1      -9.090   2.877  71.095  1.00  0.00    -0.182 C  
BRANCH  45  46
HETATM   46  C   UNL     1      -8.188   3.533  72.133  1.00  0.00    -0.072 C  
BRANCH  46  47
HETATM   47  C   UNL     1      -8.663   3.351  73.580  1.00  0.00    -0.081 C  
BRANCH  47  48
HETATM   48  C   UNL     1      -8.496   4.600  74.446  1.00  0.00    -0.104 C  
HETATM   49  C   UNL     1      -7.043   5.056  74.495  1.00  0.00    -0.078 C  
ENDBRANCH  47  48
ENDBRANCH  46  47
ENDBRANCH  45  46
ENDBRANCH  44  45
ENDBRANCH  42  44
ENDBRANCH  41  42
ENDBRANCH  35  41
ENDBRANCH  20  22
ENDBRANCH   1  20
TORSDOF 9
ENDMDL
MODEL       87
REMARK 921   NORMALIZED FREE ENERGY PREDICTED BY IDOCK:   -3.61 KCAL/MOL
REMARK 922        TOTAL FREE ENERGY PREDICTED BY IDOCK:   -8.82 KCAL/MOL
REMARK 923 INTER-LIGAND FREE ENERGY PREDICTED BY IDOCK:   -6.66 KCAL/MOL
REMARK 924 INTRA-LIGAND FREE ENERGY PREDICTED BY IDOCK:   -2.15 KCAL/MOL
REMARK 927      BINDING AFFINITY PREDICTED BY RF-SCORE:    0.00 PKD
ROOT
HETATM    1  N   UNL     1     -11.029  15.158  68.306  1.00  0.00    -0.265 N  
HETATM    2  C   UNL     1     -10.101  15.696  69.183  1.00  0.00    -0.237 C  
HETATM    3  C   UNL     1     -10.320  19.578  65.846  1.00  0.00    -0.562 A  
HETATM    4  H   UNL     1     -11.964  15.038  68.696  1.00  0.00     0.000 HD 
HETATM    5  C   UNL     1      -6.516  16.201  69.429  1.00  0.00    -0.185 A  
HETATM    6  O   UNL     1     -10.274  15.410  70.397  1.00  0.00    -0.244 OA 
HETATM    7  C   UNL     1      -5.228  14.519  68.269  1.00  0.00    -0.113 A  
HETATM    8  C   UNL     1      -8.978  16.698  68.799  1.00  0.00    -0.253 C  
HETATM    9  O   UNL     1      -8.821  17.537  69.985  1.00  0.00     1.410 OA 
HETATM   10  C   UNL     1      -7.633  15.979  68.589  1.00  0.00    -0.173 A  
HETATM   11  C   UNL     1      -8.521  18.313  66.864  1.00  0.00    -0.267 A  
HETATM   12  C   UNL     1      -9.425  17.707  67.748  1.00  0.00    -0.260 A  
HETATM   13  C   UNL     1      -7.483  15.047  67.556  1.00  0.00    -0.226 A  
HETATM   14  C   UNL     1     -10.770  18.130  67.707  1.00  0.00    -0.355 A  
HETATM   15  C   UNL     1      -8.972  19.238  65.914  1.00  0.00     0.035 A  
HETATM   16  H   UNL     1      -8.134  18.150  69.750  1.00  0.00     0.000 HD 
HETATM   17  C   UNL     1      -5.331  15.473  69.273  1.00  0.00    -0.097 A  
HETATM   18  C   UNL     1     -11.224  19.030  66.750  1.00  0.00     0.204 A  
HETATM   19  C   UNL     1      -6.300  14.316  67.401  1.00  0.00     0.142 A  
ENDROOT
BRANCH   1  20
HETATM   20  N   UNL     1     -10.894  14.749  66.953  1.00  0.00    -0.309 NA 
HETATM   21  H   UNL     1     -10.903  15.397  66.165  1.00  0.00     0.000 HD 
BRANCH  20  22
HETATM   22  C   UNL     1     -10.757  13.456  66.820  1.00  0.00    -0.277 C  
HETATM   23  C   UNL     1      -9.517  11.410  65.994  1.00  0.00    -0.245 C  
HETATM   24  C   UNL     1      -9.130  11.121  67.461  1.00  0.00    -0.146 C  
HETATM   25  C   UNL     1      -9.519  12.316  68.318  1.00  0.00    -0.209 C  
HETATM   26  C   UNL     1     -10.149  12.582  65.658  1.00  0.00    -0.285 C  
HETATM   27  C   UNL     1      -9.107  10.191  65.139  1.00  0.00    -0.242 C  
HETATM   28  C   UNL     1     -10.987  12.585  68.011  1.00  0.00    -0.266 C  
HETATM   29  C   UNL     1      -7.604  10.954  67.618  1.00  0.00    -0.096 C  
HETATM   30  C   UNL     1      -9.421   8.735  65.757  1.00  0.00    -0.239 C  
HETATM   31  C   UNL     1      -9.455   8.579  67.334  1.00  0.00    -0.188 C  
HETATM   32  C   UNL     1     -10.262   7.324  67.947  1.00  0.00    -0.237 C  
HETATM   33  C   UNL     1      -9.357   6.051  68.002  1.00  0.00    -0.114 C  
HETATM   34  C   UNL     1      -9.009   5.808  69.487  1.00  0.00    -0.130 C  
HETATM   35  C   UNL     1      -9.296   7.162  70.131  1.00  0.00    -0.158 C  
HETATM   36  C   UNL     1      -9.981   9.896  67.895  1.00  0.00    -0.190 C  
HETATM   37  C   UNL     1     -10.670   7.496  69.480  1.00  0.00    -0.222 C  
HETATM   38  C   UNL     1     -10.208   9.916  69.403  1.00  0.00    -0.231 C  
HETATM   39  C   UNL     1     -11.191   8.876  69.798  1.00  0.00    -0.018 C  
HETATM   40  C   UNL     1     -11.841   6.583  69.936  1.00  0.00    -0.223 C  
BRANCH  35  41
HETATM   41  O   UNL     1      -9.143   7.240  71.556  1.00  0.00    -0.140 OA 
BRANCH  41  42
HETATM   42  C   UNL     1      -7.903   7.728  71.896  1.00  0.00    -0.095 C  
HETATM   43  O   UNL     1      -7.571   8.898  71.732  1.00  0.00    -0.281 OA 
BRANCH  42  44
HETATM   44  C   UNL     1      -6.886   6.767  72.473  1.00  0.00    -0.063 C  
BRANCH  44  45
HETATM   45  C   UNL     1      -6.848   5.293  72.097  1.00  0.00    -0.069 C  
BRANCH  45  46
HETATM   46  C   UNL     1      -7.369   4.373  73.193  1.00  0.00    -0.076 C  
BRANCH  46  47
HETATM   47  C   UNL     1      -8.160   5.093  74.292  1.00  0.00    -0.095 C  
BRANCH  47  48
HETATM   48  C   UNL     1      -9.676   5.024  74.107  1.00  0.00    -0.157 C  
HETATM   49  C   UNL     1     -10.057   4.114  72.946  1.00  0.00    -0.217 C  
ENDBRANCH  47  48
ENDBRANCH  46  47
ENDBRANCH  45  46
ENDBRANCH  44  45
ENDBRANCH  42  44
ENDBRANCH  41  42
ENDBRANCH  35  41
ENDBRANCH  20  22
ENDBRANCH   1  20
TORSDOF 9
ENDMDL
MODEL       88
REMARK 921   NORMALIZED FREE ENERGY PREDICTED BY IDOCK:   -3.60 KCAL/MOL
REMARK 922        TOTAL FREE ENERGY PREDICTED BY IDOCK:   -8.81 KCAL/MOL
REMARK 923 INTER-LIGAND FREE ENERGY PREDICTED BY IDOCK:   -7.41 KCAL/MOL
REMARK 924 INTRA-LIGAND FREE ENERGY PREDICTED BY IDOCK:   -1.40 KCAL/MOL
REMARK 927      BINDING AFFINITY PREDICTED BY RF-SCORE:    0.00 PKD
ROOT
HETATM    1  N   UNL     1      -8.208  14.537  68.194  1.00  0.00    -0.137 N  
HETATM    2  C   UNL     1      -8.911  15.228  67.220  1.00  0.00    -0.196 C  
HETATM    3  C   UNL     1     -12.243  15.757  71.077  1.00  0.00    -0.466 A  
HETATM    4  H   UNL     1      -7.334  14.977  68.482  1.00  0.00     0.000 HD 
HETATM    5  C   UNL     1     -11.708  14.724  64.964  1.00  0.00    -0.364 A  
HETATM    6  O   UNL     1      -8.208  15.886  66.409  1.00  0.00    -0.283 OA 
HETATM    7  C   UNL     1     -11.986  12.425  64.278  1.00  0.00    -0.489 A  
HETATM    8  C   UNL     1     -10.458  15.347  67.145  1.00  0.00    -0.290 C  
HETATM    9  O   UNL     1     -10.691  16.670  66.571  1.00  0.00    -0.250 OA 
HETATM   10  C   UNL     1     -11.051  14.329  66.154  1.00  0.00    -0.324 A  
HETATM   11  C   UNL     1     -12.419  15.049  68.766  1.00  0.00     0.155 A  
HETATM   12  C   UNL     1     -11.105  15.473  68.518  1.00  0.00    -0.307 A  
HETATM   13  C   UNL     1     -10.930  12.956  66.393  1.00  0.00    -0.310 A  
HETATM   14  C   UNL     1     -10.414  16.120  69.564  1.00  0.00    -0.295 A  
HETATM   15  C   UNL     1     -12.978  15.186  70.042  1.00  0.00    -0.030 A  
HETATM   16  H   UNL     1     -11.637  16.744  66.525  1.00  0.00     0.000 HD 
HETATM   17  C   UNL     1     -12.163  13.780  64.036  1.00  0.00    -0.429 A  
HETATM   18  C   UNL     1     -10.959  16.235  70.838  1.00  0.00    -0.025 A  
HETATM   19  C   UNL     1     -11.382  12.012  65.465  1.00  0.00    -0.381 A  
ENDROOT
BRANCH   1  20
HETATM   20  N   UNL     1      -8.503  13.316  68.857  1.00  0.00    -0.355 NA 
HETATM   21  H   UNL     1      -8.766  13.260  69.842  1.00  0.00     0.000 HD 
BRANCH  20  22
HETATM   22  C   UNL     1      -8.403  12.272  68.078  1.00  0.00    -0.165 C  
HETATM   23  C   UNL     1      -7.059  10.622  66.708  1.00  0.00    -0.118 C  
HETATM   24  C   UNL     1      -7.360   9.562  67.791  1.00  0.00    -0.083 C  
HETATM   25  C   UNL     1      -8.005  10.249  68.986  1.00  0.00    -0.125 C  
HETATM   26  C   UNL     1      -7.410  11.935  66.901  1.00  0.00    -0.075 C  
HETATM   27  C   UNL     1      -6.398   9.908  65.509  1.00  0.00    -0.086 C  
HETATM   28  C   UNL     1      -9.177  11.043  68.424  1.00  0.00    -0.175 C  
HETATM   29  C   UNL     1      -6.064   8.908  68.315  1.00  0.00    -0.053 C  
HETATM   30  C   UNL     1      -7.038   8.497  65.064  1.00  0.00    -0.079 C  
HETATM   31  C   UNL     1      -7.757   7.615  66.167  1.00  0.00    -0.089 C  
HETATM   32  C   UNL     1      -8.826   6.515  65.671  1.00  0.00    -0.057 C  
HETATM   33  C   UNL     1      -8.115   5.175  65.295  1.00  0.00    -0.120 C  
HETATM   34  C   UNL     1      -8.455   4.157  66.405  1.00  0.00    -0.108 C  
HETATM   35  C   UNL     1      -8.906   5.048  67.560  1.00  0.00    -0.102 C  
HETATM   36  C   UNL     1      -8.390   8.585  67.160  1.00  0.00    -0.111 C  
HETATM   37  C   UNL     1      -9.842   6.034  66.803  1.00  0.00    -0.198 C  
HETATM   38  C   UNL     1      -9.242   7.939  68.247  1.00  0.00    -0.137 C  
HETATM   39  C   UNL     1     -10.362   7.172  67.647  1.00  0.00    -0.276 C  
HETATM   40  C   UNL     1     -11.150   5.397  66.259  1.00  0.00     0.108 C  
BRANCH  35  41
HETATM   41  O   UNL     1      -9.377   4.380  68.740  1.00  0.00    -0.129 OA 
BRANCH  41  42
HETATM   42  C   UNL     1      -8.823   3.127  68.855  1.00  0.00    -0.115 C  
HETATM   43  O   UNL     1      -9.485   2.113  69.056  1.00  0.00    -0.140 OA 
BRANCH  42  44
HETATM   44  C   UNL     1      -7.318   2.995  68.760  1.00  0.00    -0.049 C  
BRANCH  44  45
HETATM   45  C   UNL     1      -6.401   3.215  69.954  1.00  0.00    -0.028 C  
BRANCH  45  46
HETATM   46  C   UNL     1      -5.346   4.289  69.719  1.00  0.00    -0.008 C  
BRANCH  46  47
HETATM   47  C   UNL     1      -5.912   5.711  69.620  1.00  0.00    -0.021 C  
BRANCH  47  48
HETATM   48  C   UNL     1      -6.677   6.159  70.866  1.00  0.00    -0.061 C  
HETATM   49  C   UNL     1      -5.961   5.739  72.143  1.00  0.00    -0.035 C  
ENDBRANCH  47  48
ENDBRANCH  46  47
ENDBRANCH  45  46
ENDBRANCH  44  45
ENDBRANCH  42  44
ENDBRANCH  41  42
ENDBRANCH  35  41
ENDBRANCH  20  22
ENDBRANCH   1  20
TORSDOF 9
ENDMDL
MODEL       89
REMARK 921   NORMALIZED FREE ENERGY PREDICTED BY IDOCK:   -3.56 KCAL/MOL
REMARK 922        TOTAL FREE ENERGY PREDICTED BY IDOCK:   -8.74 KCAL/MOL
REMARK 923 INTER-LIGAND FREE ENERGY PREDICTED BY IDOCK:   -6.90 KCAL/MOL
REMARK 924 INTRA-LIGAND FREE ENERGY PREDICTED BY IDOCK:   -1.84 KCAL/MOL
REMARK 927      BINDING AFFINITY PREDICTED BY RF-SCORE:    0.00 PKD
ROOT
HETATM    1  N   UNL     1     -11.027  11.185  66.999  1.00  0.00    -0.288 N  
HETATM    2  C   UNL     1     -10.583  12.423  66.560  1.00  0.00    -0.235 C  
HETATM    3  C   UNL     1      -6.192  10.714  68.575  1.00  0.00    -0.049 A  
HETATM    4  H   UNL     1     -11.294  10.541  66.255  1.00  0.00     0.000 HD 
HETATM    5  C   UNL     1      -9.836  15.712  67.898  1.00  0.00    -0.217 A  
HETATM    6  O   UNL     1     -11.097  12.834  65.487  1.00  0.00    -0.277 OA 
HETATM    7  C   UNL     1     -11.167  16.288  69.829  1.00  0.00    -0.314 A  
HETATM    8  C   UNL     1      -9.438  13.247  67.211  1.00  0.00    -0.233 C  
HETATM    9  O   UNL     1      -8.818  13.951  66.090  1.00  0.00    -0.442 OA 
HETATM   10  C   UNL     1      -9.993  14.330  68.155  1.00  0.00    -0.230 A  
HETATM   11  C   UNL     1      -7.467  12.765  68.774  1.00  0.00    -0.048 A  
HETATM   12  C   UNL     1      -8.296  12.373  67.714  1.00  0.00    -0.164 A  
HETATM   13  C   UNL     1     -10.707  13.968  69.303  1.00  0.00    -0.144 A  
HETATM   14  C   UNL     1      -7.986  11.170  67.045  1.00  0.00    -0.145 A  
HETATM   15  C   UNL     1      -6.426  11.934  69.204  1.00  0.00    -0.098 A  
HETATM   16  H   UNL     1      -8.118  14.455  66.488  1.00  0.00     0.000 HD 
HETATM   17  C   UNL     1     -10.423  16.678  68.724  1.00  0.00    -0.324 A  
HETATM   18  C   UNL     1      -6.968  10.332  67.485  1.00  0.00    -0.085 A  
HETATM   19  C   UNL     1     -11.297  14.932  70.127  1.00  0.00    -0.299 A  
ENDROOT
BRANCH   1  20
HETATM   20  N   UNL     1     -11.172  10.667  68.313  1.00  0.00    -0.287 NA 
HETATM   21  H   UNL     1     -11.886  10.987  68.968  1.00  0.00     0.000 HD 
BRANCH  20  22
HETATM   22  C   UNL     1     -10.297   9.739  68.597  1.00  0.00    -0.201 C  
HETATM   23  C   UNL     1      -9.469   7.795  69.991  1.00  0.00    -0.161 C  
HETATM   24  C   UNL     1      -9.797   6.871  68.797  1.00  0.00    -0.149 C  
HETATM   25  C   UNL     1     -10.574   7.666  67.758  1.00  0.00    -0.265 C  
HETATM   26  C   UNL     1      -9.839   9.117  69.971  1.00  0.00    -0.217 C  
HETATM   27  C   UNL     1      -8.689   6.970  71.037  1.00  0.00    -0.139 C  
HETATM   28  C   UNL     1      -9.742   8.912  67.484  1.00  0.00    -0.216 C  
HETATM   29  C   UNL     1     -10.712   5.704  69.223  1.00  0.00    -0.350 C  
HETATM   30  C   UNL     1      -7.543   5.985  70.474  1.00  0.00    -0.092 C  
HETATM   31  C   UNL     1      -7.711   5.392  69.014  1.00  0.00    -0.089 C  
HETATM   32  C   UNL     1      -6.385   4.870  68.258  1.00  0.00    -0.036 C  
HETATM   33  C   UNL     1      -6.067   3.390  68.647  1.00  0.00    -0.028 C  
HETATM   34  C   UNL     1      -6.407   2.518  67.419  1.00  0.00    -0.032 C  
HETATM   35  C   UNL     1      -7.326   3.422  66.601  1.00  0.00    -0.075 C  
HETATM   36  C   UNL     1      -8.430   6.455  68.189  1.00  0.00    -0.115 C  
HETATM   37  C   UNL     1      -6.537   4.762  66.673  1.00  0.00    -0.050 C  
HETATM   38  C   UNL     1      -8.585   6.133  66.707  1.00  0.00    -0.111 C  
HETATM   39  C   UNL     1      -7.257   5.942  66.070  1.00  0.00    -0.075 C  
HETATM   40  C   UNL     1      -5.190   4.762  65.901  1.00  0.00    -0.009 C  
BRANCH  35  41
HETATM   41  O   UNL     1      -7.758   2.916  65.329  1.00  0.00    -0.079 OA 
BRANCH  41  42
HETATM   42  C   UNL     1      -9.058   3.279  65.066  1.00  0.00    -0.143 C  
HETATM   43  O   UNL     1      -9.984   3.079  65.846  1.00  0.00     0.215 OA 
BRANCH  42  44
HETATM   44  C   UNL     1      -9.367   3.932  63.736  1.00  0.00    -0.143 C  
BRANCH  44  45
HETATM   45  C   UNL     1      -8.401   3.888  62.561  1.00  0.00    -0.077 C  
BRANCH  45  46
HETATM   46  C   UNL     1      -7.405   5.041  62.549  1.00  0.00    -0.042 C  
BRANCH  46  47
HETATM   47  C   UNL     1      -8.048   6.422  62.368  1.00  0.00    -0.097 C  
BRANCH  47  48
HETATM   48  C   UNL     1      -7.175   7.577  62.860  1.00  0.00    -0.086 C  
HETATM   49  C   UNL     1      -7.946   8.501  63.794  1.00  0.00    -0.161 C  
ENDBRANCH  47  48
ENDBRANCH  46  47
ENDBRANCH  45  46
ENDBRANCH  44  45
ENDBRANCH  42  44
ENDBRANCH  41  42
ENDBRANCH  35  41
ENDBRANCH  20  22
ENDBRANCH   1  20
TORSDOF 9
ENDMDL
MODEL       90
REMARK 921   NORMALIZED FREE ENERGY PREDICTED BY IDOCK:   -3.45 KCAL/MOL
REMARK 922        TOTAL FREE ENERGY PREDICTED BY IDOCK:   -8.58 KCAL/MOL
REMARK 923 INTER-LIGAND FREE ENERGY PREDICTED BY IDOCK:   -7.60 KCAL/MOL
REMARK 924 INTRA-LIGAND FREE ENERGY PREDICTED BY IDOCK:   -0.98 KCAL/MOL
REMARK 927      BINDING AFFINITY PREDICTED BY RF-SCORE:    0.00 PKD
ROOT
HETATM    1  N   UNL     1     -10.621   7.232  71.152  1.00  0.00    -0.222 N  
HETATM    2  C   UNL     1     -11.106   6.445  72.186  1.00  0.00    -0.263 C  
HETATM    3  C   UNL     1      -6.628   7.781  74.288  1.00  0.00    -0.111 A  
HETATM    4  H   UNL     1     -11.149   8.089  70.987  1.00  0.00     0.000 HD 
HETATM    5  C   UNL     1     -10.670   3.109  73.543  1.00  0.00    -0.298 A  
HETATM    6  O   UNL     1     -12.351   6.497  72.368  1.00  0.00    -0.159 OA 
HETATM    7  C   UNL     1     -10.056   1.468  71.880  1.00  0.00    -0.219 A  
HETATM    8  C   UNL     1     -10.232   5.636  73.183  1.00  0.00    -0.191 C  
HETATM    9  O   UNL     1     -10.990   5.661  74.431  1.00  0.00    -0.376 OA 
HETATM   10  C   UNL     1     -10.127   4.158  72.763  1.00  0.00    -0.218 A  
HETATM   11  C   UNL     1      -7.794   5.681  73.967  1.00  0.00    -0.099 A  
HETATM   12  C   UNL     1      -8.951   6.365  73.568  1.00  0.00    -0.133 A  
HETATM   13  C   UNL     1      -9.503   3.806  71.561  1.00  0.00    -0.221 A  
HETATM   14  C   UNL     1      -8.935   7.774  73.626  1.00  0.00    -0.335 A  
HETATM   15  C   UNL     1      -6.638   6.389  74.317  1.00  0.00    -0.074 A  
HETATM   16  H   UNL     1     -10.456   5.166  75.041  1.00  0.00     0.000 HD 
HETATM   17  C   UNL     1     -10.638   1.781  73.101  1.00  0.00    -0.221 A  
HETATM   18  C   UNL     1      -7.782   8.479  73.950  1.00  0.00    -0.116 A  
HETATM   19  C   UNL     1      -9.475   2.480  71.116  1.00  0.00    -0.222 A  
ENDROOT
BRANCH   1  20
HETATM   20  N   UNL     1      -9.512   7.042  70.287  1.00  0.00    -0.165 NA 
HETATM   21  H   UNL     1      -9.334   6.173  69.783  1.00  0.00     0.000 HD 
BRANCH  20  22
HETATM   22  C   UNL     1      -8.741   8.094  70.204  1.00  0.00    -0.130 C  
HETATM   23  C   UNL     1      -6.615   9.258  69.475  1.00  0.00    -0.043 C  
HETATM   24  C   UNL     1      -7.455  10.011  68.420  1.00  0.00    -0.082 C  
HETATM   25  C   UNL     1      -8.848   9.400  68.371  1.00  0.00    -0.128 C  
HETATM   26  C   UNL     1      -7.171   8.245  70.215  1.00  0.00    -0.051 C  
HETATM   27  C   UNL     1      -5.205   9.886  69.503  1.00  0.00    -0.034 C  
HETATM   28  C   UNL     1      -9.349   9.399  69.810  1.00  0.00    -0.217 C  
HETATM   29  C   UNL     1      -6.861   9.847  67.005  1.00  0.00    -0.083 C  
HETATM   30  C   UNL     1      -5.128  11.496  69.447  1.00  0.00    -0.044 C  
HETATM   31  C   UNL     1      -6.291  12.280  68.710  1.00  0.00    -0.077 C  
HETATM   32  C   UNL     1      -6.512  13.831  69.093  1.00  0.00    -0.109 C  
HETATM   33  C   UNL     1      -5.575  14.753  68.247  1.00  0.00    -0.117 C  
HETATM   34  C   UNL     1      -6.467  15.481  67.218  1.00  0.00    -0.049 C  
HETATM   35  C   UNL     1      -7.727  14.619  67.187  1.00  0.00    -0.088 C  
HETATM   36  C   UNL     1      -7.569  11.475  68.927  1.00  0.00    -0.102 C  
HETATM   37  C   UNL     1      -7.954  14.399  68.711  1.00  0.00    -0.133 C  
HETATM   38  C   UNL     1      -8.844  12.122  68.396  1.00  0.00    -0.143 C  
HETATM   39  C   UNL     1      -9.070  13.440  69.043  1.00  0.00     0.402 C  
HETATM   40  C   UNL     1      -8.365  15.675  69.495  1.00  0.00    -0.176 C  
BRANCH  35  41
HETATM   41  O   UNL     1      -8.806  15.089  66.365  1.00  0.00    -0.273 OA 
BRANCH  41  42
HETATM   42  C   UNL     1      -9.014  16.437  66.542  1.00  0.00    -0.276 C  
HETATM   43  O   UNL     1      -8.187  17.291  66.237  1.00  0.00    -0.311 OA 
BRANCH  42  44
HETATM   44  C   UNL     1     -10.314  16.887  67.171  1.00  0.00    -0.304 C  
BRANCH  44  45
HETATM   45  C   UNL     1     -11.386  15.906  67.624  1.00  0.00    -0.151 C  
BRANCH  45  46
HETATM   46  C   UNL     1     -11.934  16.204  69.014  1.00  0.00    -0.060 C  
BRANCH  46  47
HETATM   47  C   UNL     1     -11.764  15.053  70.014  1.00  0.00    -0.345 C  
BRANCH  47  48
HETATM   48  C   UNL     1     -11.903  15.481  71.475  1.00  0.00    -0.472 C  
HETATM   49  C   UNL     1     -12.558  14.393  72.317  1.00  0.00    -0.363 C  
ENDBRANCH  47  48
ENDBRANCH  46  47
ENDBRANCH  45  46
ENDBRANCH  44  45
ENDBRANCH  42  44
ENDBRANCH  41  42
ENDBRANCH  35  41
ENDBRANCH  20  22
ENDBRANCH   1  20
TORSDOF 9
ENDMDL
MODEL       91
REMARK 921   NORMALIZED FREE ENERGY PREDICTED BY IDOCK:   -3.42 KCAL/MOL
REMARK 922        TOTAL FREE ENERGY PREDICTED BY IDOCK:   -8.54 KCAL/MOL
REMARK 923 INTER-LIGAND FREE ENERGY PREDICTED BY IDOCK:   -6.89 KCAL/MOL
REMARK 924 INTRA-LIGAND FREE ENERGY PREDICTED BY IDOCK:   -1.64 KCAL/MOL
REMARK 927      BINDING AFFINITY PREDICTED BY RF-SCORE:    0.00 PKD
ROOT
HETATM    1  N   UNL     1     -11.635   5.727  70.941  1.00  0.00     0.062 N  
HETATM    2  C   UNL     1     -10.856   6.185  71.992  1.00  0.00    -0.247 C  
HETATM    3  C   UNL     1     -14.118  10.126  71.693  1.00  0.00     0.331 A  
HETATM    4  H   UNL     1     -12.182   4.892  71.149  1.00  0.00     0.000 HD 
HETATM    5  C   UNL     1      -8.169   8.545  72.604  1.00  0.00    -0.129 A  
HETATM    6  O   UNL     1     -10.430   5.298  72.777  1.00  0.00    -0.196 OA 
HETATM    7  C   UNL     1      -6.715   8.859  70.701  1.00  0.00    -0.054 A  
HETATM    8  C   UNL     1     -10.594   7.679  72.330  1.00  0.00    -0.246 C  
HETATM    9  O   UNL     1     -10.471   7.704  73.786  1.00  0.00    -0.333 OA 
HETATM   10  C   UNL     1      -9.240   8.151  71.768  1.00  0.00    -0.232 A  
HETATM   11  C   UNL     1     -11.705   9.922  71.788  1.00  0.00    -0.183 A  
HETATM   12  C   UNL     1     -11.815   8.558  72.094  1.00  0.00    -0.448 A  
HETATM   13  C   UNL     1      -9.019   8.177  70.387  1.00  0.00    -0.146 A  
HETATM   14  C   UNL     1     -13.109   8.027  72.278  1.00  0.00    -0.149 A  
HETATM   15  C   UNL     1     -12.853  10.697  71.583  1.00  0.00    -0.570 A  
HETATM   16  H   UNL     1     -10.311   8.617  73.992  1.00  0.00     0.000 HD 
HETATM   17  C   UNL     1      -6.920   8.889  72.074  1.00  0.00     0.023 A  
HETATM   18  C   UNL     1     -14.250   8.788  72.051  1.00  0.00    -0.493 A  
HETATM   19  C   UNL     1      -7.770   8.517  69.856  1.00  0.00    -0.091 A  
ENDROOT
BRANCH   1  20
HETATM   20  N   UNL     1     -11.796   6.229  69.623  1.00  0.00    -0.371 NA 
HETATM   21  H   UNL     1     -12.704   6.434  69.206  1.00  0.00     0.000 HD 
BRANCH  20  22
HETATM   22  C   UNL     1     -10.661   6.399  68.997  1.00  0.00    -0.257 C  
HETATM   23  C   UNL     1      -8.829   5.622  67.433  1.00  0.00    -0.105 C  
HETATM   24  C   UNL     1      -9.346   6.651  66.405  1.00  0.00    -0.175 C  
HETATM   25  C   UNL     1     -10.669   7.218  66.898  1.00  0.00    -0.346 C  
HETATM   26  C   UNL     1      -9.526   5.382  68.592  1.00  0.00    -0.159 C  
HETATM   27  C   UNL     1      -7.492   5.051  66.912  1.00  0.00    -0.087 C  
HETATM   28  C   UNL     1     -10.405   7.704  68.318  1.00  0.00    -0.238 C  
HETATM   29  C   UNL     1      -9.641   5.987  65.043  1.00  0.00     0.869 C  
HETATM   30  C   UNL     1      -6.454   6.107  66.273  1.00  0.00    -0.047 C  
HETATM   31  C   UNL     1      -7.034   7.417  65.597  1.00  0.00    -0.060 C  
HETATM   32  C   UNL     1      -6.048   8.685  65.445  1.00  0.00    -0.049 C  
HETATM   33  C   UNL     1      -5.200   8.579  64.137  1.00  0.00    -0.048 C  
HETATM   34  C   UNL     1      -5.756   9.630  63.152  1.00  0.00    -0.089 C  
HETATM   35  C   UNL     1      -7.141   9.931  63.719  1.00  0.00    -0.126 C  
HETATM   36  C   UNL     1      -8.293   7.792  66.373  1.00  0.00    -0.131 C  
HETATM   37  C   UNL     1      -6.800  10.075  65.231  1.00  0.00    -0.128 C  
HETATM   38  C   UNL     1      -8.946   9.105  65.957  1.00  0.00    -0.221 C  
HETATM   39  C   UNL     1      -8.001  10.238  66.129  1.00  0.00    -0.131 C  
HETATM   40  C   UNL     1      -5.947  11.324  65.585  1.00  0.00     0.278 C  
BRANCH  35  41
HETATM   41  O   UNL     1      -7.898  10.955  63.057  1.00  0.00    -0.009 OA 
BRANCH  41  42
HETATM   42  C   UNL     1      -9.179  10.532  62.790  1.00  0.00    -0.309 C  
HETATM   43  O   UNL     1      -9.443   9.410  62.368  1.00  0.00    -0.080 OA 
BRANCH  42  44
HETATM   44  C   UNL     1     -10.317  11.508  62.999  1.00  0.00    -0.293 C  
BRANCH  44  45
HETATM   45  C   UNL     1     -10.825  11.885  64.383  1.00  0.00    -0.384 C  
BRANCH  45  46
HETATM   46  C   UNL     1     -10.168  13.137  64.952  1.00  0.00    -0.306 C  
BRANCH  46  47
HETATM   47  C   UNL     1     -10.307  13.281  66.472  1.00  0.00    -0.285 C  
BRANCH  47  48
HETATM   48  C   UNL     1     -10.790  12.009  67.170  1.00  0.00    -0.297 C  
HETATM   49  C   UNL     1     -10.098  11.810  68.512  1.00  0.00    -0.212 C  
ENDBRANCH  47  48
ENDBRANCH  46  47
ENDBRANCH  45  46
ENDBRANCH  44  45
ENDBRANCH  42  44
ENDBRANCH  41  42
ENDBRANCH  35  41
ENDBRANCH  20  22
ENDBRANCH   1  20
TORSDOF 9
ENDMDL
MODEL       92
REMARK 921   NORMALIZED FREE ENERGY PREDICTED BY IDOCK:   -3.39 KCAL/MOL
REMARK 922        TOTAL FREE ENERGY PREDICTED BY IDOCK:   -8.49 KCAL/MOL
REMARK 923 INTER-LIGAND FREE ENERGY PREDICTED BY IDOCK:   -7.33 KCAL/MOL
REMARK 924 INTRA-LIGAND FREE ENERGY PREDICTED BY IDOCK:   -1.16 KCAL/MOL
REMARK 927      BINDING AFFINITY PREDICTED BY RF-SCORE:    0.00 PKD
ROOT
HETATM    1  N   UNL     1      -7.878   7.493  71.191  1.00  0.00    -0.090 N  
HETATM    2  C   UNL     1      -7.194   6.360  71.603  1.00  0.00    -0.086 C  
HETATM    3  C   UNL     1      -7.527   5.270  66.607  1.00  0.00    -0.087 A  
HETATM    4  H   UNL     1      -7.353   8.363  71.280  1.00  0.00     0.000 HD 
HETATM    5  C   UNL     1      -7.844   2.866  72.338  1.00  0.00    -0.055 A  
HETATM    6  O   UNL     1      -6.366   6.536  72.535  1.00  0.00    -0.056 OA 
HETATM    7  C   UNL     1     -10.076   2.458  73.164  1.00  0.00    -0.194 A  
HETATM    8  C   UNL     1      -7.282   4.964  70.926  1.00  0.00    -0.060 C  
HETATM    9  O   UNL     1      -5.951   4.389  71.111  1.00  0.00    -0.016 OA 
HETATM   10  C   UNL     1      -8.265   4.042  71.671  1.00  0.00    -0.083 A  
HETATM   11  C   UNL     1      -8.012   4.054  68.646  1.00  0.00    -0.071 A  
HETATM   12  C   UNL     1      -7.388   5.051  69.409  1.00  0.00    -0.057 A  
HETATM   13  C   UNL     1      -9.625   4.361  71.733  1.00  0.00    -0.221 A  
HETATM   14  C   UNL     1      -6.763   6.112  68.721  1.00  0.00    -0.061 A  
HETATM   15  C   UNL     1      -8.085   4.170  67.253  1.00  0.00    -0.099 A  
HETATM   16  H   UNL     1      -6.005   3.536  70.697  1.00  0.00     0.000 HD 
HETATM   17  C   UNL     1      -8.741   2.090  73.080  1.00  0.00    -0.063 A  
HETATM   18  C   UNL     1      -6.855   6.242  67.340  1.00  0.00    -0.063 A  
HETATM   19  C   UNL     1     -10.522   3.587  72.478  1.00  0.00    -0.144 A  
ENDROOT
BRANCH   1  20
HETATM   20  N   UNL     1      -9.189   7.642  70.667  1.00  0.00    -0.161 NA 
HETATM   21  H   UNL     1     -10.004   7.156  71.041  1.00  0.00     0.000 HD 
BRANCH  20  22
HETATM   22  C   UNL     1      -9.245   8.466  69.654  1.00  0.00    -0.160 C  
HETATM   23  C   UNL     1     -10.393   9.432  67.615  1.00  0.00    -0.303 C  
HETATM   24  C   UNL     1     -10.660  10.711  68.440  1.00  0.00    -0.231 C  
HETATM   25  C   UNL     1     -10.298  10.443  69.894  1.00  0.00    -0.231 C  
HETATM   26  C   UNL     1      -9.868   8.313  68.213  1.00  0.00    -0.192 C  
HETATM   27  C   UNL     1     -10.774   9.720  66.147  1.00  0.00     0.115 C  
HETATM   28  C   UNL     1      -8.876   9.897  69.871  1.00  0.00    -0.222 C  
HETATM   29  C   UNL     1     -12.157  11.086  68.429  1.00  0.00    -0.009 C  
HETATM   30  C   UNL     1     -10.320  11.146  65.547  1.00  0.00    -0.326 C  
HETATM   31  C   UNL     1     -10.170  12.368  66.544  1.00  0.00    -0.244 C  
HETATM   32  C   UNL     1      -9.238  13.603  66.085  1.00  0.00    -0.009 C  
HETATM   33  C   UNL     1     -10.047  14.619  65.216  1.00  0.00    -0.393 C  
HETATM   34  C   UNL     1     -10.278  15.874  66.087  1.00  0.00    -0.340 C  
HETATM   35  C   UNL     1     -10.042  15.354  67.503  1.00  0.00    -0.233 C  
HETATM   36  C   UNL     1      -9.699  11.793  67.877  1.00  0.00    -0.185 C  
HETATM   37  C   UNL     1      -8.741  14.528  67.286  1.00  0.00    -0.225 C  
HETATM   38  C   UNL     1      -9.374  12.824  68.952  1.00  0.00     0.281 C  
HETATM   39  C   UNL     1      -8.297  13.737  68.492  1.00  0.00    -0.120 C  
HETATM   40  C   UNL     1      -7.482  15.377  66.960  1.00  0.00    -0.166 C  
BRANCH  35  41
HETATM   41  O   UNL     1     -10.104  16.324  68.561  1.00  0.00    -0.224 OA 
BRANCH  41  42
HETATM   42  C   UNL     1     -10.207  17.600  68.059  1.00  0.00    -0.362 C  
HETATM   43  O   UNL     1     -11.273  18.198  67.953  1.00  0.00    -0.052 OA 
BRANCH  42  44
HETATM   44  C   UNL     1      -8.946  18.289  67.585  1.00  0.00    -0.271 C  
BRANCH  44  45
HETATM   45  C   UNL     1      -8.658  19.755  67.876  1.00  0.00    -0.360 C  
BRANCH  45  46
HETATM   46  C   UNL     1      -7.171  20.087  67.906  1.00  0.00    -0.325 C  
BRANCH  46  47
HETATM   47  C   UNL     1      -6.700  20.958  66.735  1.00  0.00    -0.367 C  
BRANCH  47  48
HETATM   48  C   UNL     1      -5.568  20.333  65.919  1.00  0.00    -0.198 C  
HETATM   49  C   UNL     1      -6.087  19.252  64.980  1.00  0.00    -0.312 C  
ENDBRANCH  47  48
ENDBRANCH  46  47
ENDBRANCH  45  46
ENDBRANCH  44  45
ENDBRANCH  42  44
ENDBRANCH  41  42
ENDBRANCH  35  41
ENDBRANCH  20  22
ENDBRANCH   1  20
TORSDOF 9
ENDMDL
MODEL       93
REMARK 921   NORMALIZED FREE ENERGY PREDICTED BY IDOCK:   -3.38 KCAL/MOL
REMARK 922        TOTAL FREE ENERGY PREDICTED BY IDOCK:   -8.47 KCAL/MOL
REMARK 923 INTER-LIGAND FREE ENERGY PREDICTED BY IDOCK:   -7.48 KCAL/MOL
REMARK 924 INTRA-LIGAND FREE ENERGY PREDICTED BY IDOCK:   -1.00 KCAL/MOL
REMARK 927      BINDING AFFINITY PREDICTED BY RF-SCORE:    0.00 PKD
ROOT
HETATM    1  N   UNL     1      -7.941  12.216  66.520  1.00  0.00    -0.393 N  
HETATM    2  C   UNL     1      -7.932  13.309  67.373  1.00  0.00    -0.170 C  
HETATM    3  C   UNL     1     -11.905  10.793  69.410  1.00  0.00    -0.370 A  
HETATM    4  H   UNL     1      -7.124  11.610  66.596  1.00  0.00     0.000 HD 
HETATM    5  C   UNL     1      -9.729  16.420  67.882  1.00  0.00    -0.235 A  
HETATM    6  O   UNL     1      -6.793  13.771  67.649  1.00  0.00    -0.161 OA 
HETATM    7  C   UNL     1     -10.627  17.355  65.845  1.00  0.00    -0.201 A  
HETATM    8  C   UNL     1      -9.178  13.898  68.090  1.00  0.00    -0.202 C  
HETATM    9  O   UNL     1      -8.659  14.400  69.361  1.00  0.00    -0.369 OA 
HETATM   10  C   UNL     1      -9.737  15.116  67.332  1.00  0.00    -0.209 A  
HETATM   11  C   UNL     1     -11.529  13.077  68.691  1.00  0.00    -0.344 A  
HETATM   12  C   UNL     1     -10.157  12.823  68.545  1.00  0.00    -0.189 A  
HETATM   13  C   UNL     1     -10.254  14.968  66.041  1.00  0.00    -0.318 A  
HETATM   14  C   UNL     1      -9.678  11.552  68.927  1.00  0.00    -0.069 A  
HETATM   15  C   UNL     1     -12.395  12.062  69.115  1.00  0.00     0.069 A  
HETATM   16  H   UNL     1      -9.421  14.760  69.799  1.00  0.00     0.000 HD 
HETATM   17  C   UNL     1     -10.164  17.525  67.142  1.00  0.00    -0.323 A  
HETATM   18  C   UNL     1     -10.540  10.537  69.325  1.00  0.00    -0.265 A  
HETATM   19  C   UNL     1     -10.686  16.073  65.298  1.00  0.00    -0.417 A  
ENDROOT
BRANCH   1  20
HETATM   20  N   UNL     1      -8.900  11.802  65.559  1.00  0.00    -0.401 NA 
HETATM   21  H   UNL     1      -9.568  12.436  65.120  1.00  0.00     0.000 HD 
BRANCH  20  22
HETATM   22  C   UNL     1      -8.841  10.523  65.294  1.00  0.00    -0.188 C  
HETATM   23  C   UNL     1      -7.864   8.534  64.073  1.00  0.00    -0.148 C  
HETATM   24  C   UNL     1      -7.210   8.107  65.405  1.00  0.00    -0.068 C  
HETATM   25  C   UNL     1      -7.379   9.229  66.419  1.00  0.00    -0.092 C  
HETATM   26  C   UNL     1      -8.504   9.744  63.966  1.00  0.00    -0.186 C  
HETATM   27  C   UNL     1      -7.674   7.388  63.056  1.00  0.00    -0.129 C  
HETATM   28  C   UNL     1      -8.867   9.554  66.430  1.00  0.00    -0.164 C  
HETATM   29  C   UNL     1      -5.689   7.895  65.244  1.00  0.00    -0.037 C  
HETATM   30  C   UNL     1      -7.916   5.889  63.600  1.00  0.00    -0.114 C  
HETATM   31  C   UNL     1      -7.649   5.593  65.133  1.00  0.00    -0.078 C  
HETATM   32  C   UNL     1      -8.368   4.306  65.787  1.00  0.00    -0.109 C  
HETATM   33  C   UNL     1      -7.519   3.015  65.556  1.00  0.00    -0.073 C  
HETATM   34  C   UNL     1      -6.897   2.634  66.917  1.00  0.00    -0.044 C  
HETATM   35  C   UNL     1      -7.002   3.930  67.716  1.00  0.00    -0.055 C  
HETATM   36  C   UNL     1      -8.005   6.866  65.895  1.00  0.00    -0.112 C  
HETATM   37  C   UNL     1      -8.463   4.349  67.379  1.00  0.00    -0.103 C  
HETATM   38  C   UNL     1      -7.933   6.757  67.414  1.00  0.00    -0.114 C  
HETATM   39  C   UNL     1      -8.860   5.706  67.907  1.00  0.00    -0.105 C  
HETATM   40  C   UNL     1      -9.556   3.424  67.980  1.00  0.00    -0.160 C  
BRANCH  35  41
HETATM   41  O   UNL     1      -6.572   3.878  69.085  1.00  0.00    -0.038 OA 
BRANCH  41  42
HETATM   42  C   UNL     1      -6.143   2.615  69.422  1.00  0.00    -0.024 C  
HETATM   43  O   UNL     1      -5.215   2.046  68.855  1.00  0.00    -0.011 OA 
BRANCH  42  44
HETATM   44  C   UNL     1      -6.871   1.880  70.527  1.00  0.00    -0.032 C  
BRANCH  44  45
HETATM   45  C   UNL     1      -8.384   1.920  70.676  1.00  0.00    -0.074 C  
BRANCH  45  46
HETATM   46  C   UNL     1      -8.860   2.837  71.796  1.00  0.00    -0.120 C  
BRANCH  46  47
HETATM   47  C   UNL     1      -9.663   4.051  71.312  1.00  0.00    -0.255 C  
BRANCH  47  48
HETATM   48  C   UNL     1      -9.295   5.356  72.021  1.00  0.00    -0.163 C  
HETATM   49  C   UNL     1      -7.934   5.871  71.571  1.00  0.00    -0.113 C  
ENDBRANCH  47  48
ENDBRANCH  46  47
ENDBRANCH  45  46
ENDBRANCH  44  45
ENDBRANCH  42  44
ENDBRANCH  41  42
ENDBRANCH  35  41
ENDBRANCH  20  22
ENDBRANCH   1  20
TORSDOF 9
ENDMDL
MODEL       94
REMARK 921   NORMALIZED FREE ENERGY PREDICTED BY IDOCK:   -3.36 KCAL/MOL
REMARK 922        TOTAL FREE ENERGY PREDICTED BY IDOCK:   -8.44 KCAL/MOL
REMARK 923 INTER-LIGAND FREE ENERGY PREDICTED BY IDOCK:   -6.57 KCAL/MOL
REMARK 924 INTRA-LIGAND FREE ENERGY PREDICTED BY IDOCK:   -1.87 KCAL/MOL
REMARK 927      BINDING AFFINITY PREDICTED BY RF-SCORE:    0.00 PKD
ROOT
HETATM    1  N   UNL     1     -10.665  12.659  66.652  1.00  0.00    -0.251 N  
HETATM    2  C   UNL     1     -10.188  12.934  67.924  1.00  0.00    -0.233 C  
HETATM    3  C   UNL     1      -9.848  17.652  65.954  1.00  0.00    -0.090 A  
HETATM    4  H   UNL     1     -11.646  12.383  66.616  1.00  0.00     0.000 HD 
HETATM    5  C   UNL     1      -7.028  13.488  69.619  1.00  0.00     0.189 A  
HETATM    6  O   UNL     1     -10.720  12.275  68.856  1.00  0.00    -0.223 OA 
HETATM    7  C   UNL     1      -5.177  12.311  68.609  1.00  0.00    -0.050 A  
HETATM    8  C   UNL     1      -9.170  14.053  68.278  1.00  0.00    -0.200 C  
HETATM    9  O   UNL     1      -9.560  14.484  69.619  1.00  0.00    -0.398 OA 
HETATM   10  C   UNL     1      -7.741  13.494  68.396  1.00  0.00    -0.135 A  
HETATM   11  C   UNL     1      -8.334  16.210  67.179  1.00  0.00    -0.225 A  
HETATM   12  C   UNL     1      -9.380  15.319  67.458  1.00  0.00    -0.204 A  
HETATM   13  C   UNL     1      -7.104  12.939  67.281  1.00  0.00    -0.071 A  
HETATM   14  C   UNL     1     -10.679  15.676  67.037  1.00  0.00    -0.314 A  
HETATM   15  C   UNL     1      -8.570  17.366  66.425  1.00  0.00    -0.282 A  
HETATM   16  H   UNL     1      -8.938  15.169  69.835  1.00  0.00     0.000 HD 
HETATM   17  C   UNL     1      -5.763  12.897  69.722  1.00  0.00    -0.112 A  
HETATM   18  C   UNL     1     -10.910  16.810  66.267  1.00  0.00     0.005 A  
HETATM   19  C   UNL     1      -5.842  12.344  67.383  1.00  0.00    -0.149 A  
ENDROOT
BRANCH   1  20
HETATM   20  N   UNL     1     -10.013  12.700  65.391  1.00  0.00    -0.388 NA 
HETATM   21  H   UNL     1      -9.832  13.563  64.879  1.00  0.00     0.000 HD 
BRANCH  20  22
HETATM   22  C   UNL     1      -9.670  11.517  64.953  1.00  0.00    -0.234 C  
HETATM   23  C   UNL     1      -8.014   9.908  63.917  1.00  0.00    -0.149 C  
HETATM   24  C   UNL     1      -7.883   9.237  65.302  1.00  0.00    -0.105 C  
HETATM   25  C   UNL     1      -8.598  10.096  66.334  1.00  0.00    -0.137 C  
HETATM   26  C   UNL     1      -8.728  11.071  63.770  1.00  0.00     0.067 C  
HETATM   27  C   UNL     1      -7.276   9.028  62.885  1.00  0.00    -0.095 C  
HETATM   28  C   UNL     1     -10.001  10.321  65.785  1.00  0.00    -0.337 C  
HETATM   29  C   UNL     1      -6.408   9.157  65.751  1.00  0.00    -0.060 C  
HETATM   30  C   UNL     1      -7.493   7.435  63.005  1.00  0.00    -0.100 C  
HETATM   31  C   UNL     1      -7.810   6.824  64.432  1.00  0.00    -0.113 C  
HETATM   32  C   UNL     1      -8.534   5.384  64.489  1.00  0.00    -0.117 C  
HETATM   33  C   UNL     1      -7.485   4.228  64.407  1.00  0.00    -0.071 C  
HETATM   34  C   UNL     1      -7.401   3.594  65.812  1.00  0.00    -0.076 C  
HETATM   35  C   UNL     1      -7.998   4.674  66.711  1.00  0.00    -0.103 C  
HETATM   36  C   UNL     1      -8.618   7.874  65.189  1.00  0.00    -0.052 C  
HETATM   37  C   UNL     1      -9.253   5.069  65.878  1.00  0.00    -0.159 C  
HETATM   38  C   UNL     1      -9.135   7.436  66.555  1.00  0.00    -0.195 C  
HETATM   39  C   UNL     1     -10.017   6.249  66.425  1.00  0.00    -0.112 C  
HETATM   40  C   UNL     1     -10.347   3.970  65.796  1.00  0.00     0.027 C  
BRANCH  35  41
HETATM   41  O   UNL     1      -8.138   4.346  68.101  1.00  0.00    -0.089 OA 
BRANCH  41  42
HETATM   42  C   UNL     1      -7.462   5.243  68.893  1.00  0.00    -0.074 C  
HETATM   43  O   UNL     1      -6.333   5.651  68.636  1.00  0.00    -0.037 OA 
BRANCH  42  44
HETATM   44  C   UNL     1      -8.130   5.731  70.161  1.00  0.00    -0.108 C  
BRANCH  44  45
HETATM   45  C   UNL     1      -7.657   5.315  71.546  1.00  0.00    -0.102 C  
BRANCH  45  46
HETATM   46  C   UNL     1      -8.223   3.978  72.005  1.00  0.00    -0.088 C  
BRANCH  46  47
HETATM   47  C   UNL     1      -9.714   3.791  71.699  1.00  0.00    -0.239 C  
BRANCH  47  48
HETATM   48  C   UNL     1     -10.614   4.838  72.355  1.00  0.00    -0.246 C  
HETATM   49  C   UNL     1     -10.617   4.701  73.873  1.00  0.00    -0.337 C  
ENDBRANCH  47  48
ENDBRANCH  46  47
ENDBRANCH  45  46
ENDBRANCH  44  45
ENDBRANCH  42  44
ENDBRANCH  41  42
ENDBRANCH  35  41
ENDBRANCH  20  22
ENDBRANCH   1  20
TORSDOF 9
ENDMDL
MODEL       95
REMARK 921   NORMALIZED FREE ENERGY PREDICTED BY IDOCK:   -3.36 KCAL/MOL
REMARK 922        TOTAL FREE ENERGY PREDICTED BY IDOCK:   -8.43 KCAL/MOL
REMARK 923 INTER-LIGAND FREE ENERGY PREDICTED BY IDOCK:   -8.30 KCAL/MOL
REMARK 924 INTRA-LIGAND FREE ENERGY PREDICTED BY IDOCK:   -0.13 KCAL/MOL
REMARK 927      BINDING AFFINITY PREDICTED BY RF-SCORE:    0.00 PKD
ROOT
HETATM    1  N   UNL     1      -7.996   5.062  67.593  1.00  0.00    -0.095 N  
HETATM    2  C   UNL     1      -8.202   3.792  68.110  1.00  0.00    -0.083 C  
HETATM    3  C   UNL     1     -11.583   6.342  70.996  1.00  0.00    -0.337 A  
HETATM    4  H   UNL     1      -8.278   5.176  66.620  1.00  0.00     0.000 HD 
HETATM    5  C   UNL     1      -7.302   1.825  71.023  1.00  0.00    -0.033 A  
HETATM    6  O   UNL     1      -8.106   2.848  67.282  1.00  0.00    -0.076 OA 
HETATM    7  C   UNL     1      -5.166   2.434  71.969  1.00  0.00     0.000 A  
HETATM    8  C   UNL     1      -8.659   3.477  69.561  1.00  0.00    -0.068 C  
HETATM    9  O   UNL     1      -9.465   2.266  69.431  1.00  0.00    -0.117 OA 
HETATM   10  C   UNL     1      -7.462   3.113  70.458  1.00  0.00    -0.040 A  
HETATM   11  C   UNL     1      -9.809   4.757  71.459  1.00  0.00    -0.253 A  
HETATM   12  C   UNL     1      -9.672   4.484  70.090  1.00  0.00    -0.287 A  
HETATM   13  C   UNL     1      -6.463   4.057  70.723  1.00  0.00    -0.030 A  
HETATM   14  C   UNL     1     -10.577   5.103  69.202  1.00  0.00    -0.069 A  
HETATM   15  C   UNL     1     -10.756   5.687  71.905  1.00  0.00    -0.299 A  
HETATM   16  H   UNL     1      -9.744   2.073  70.318  1.00  0.00     0.000 HD 
HETATM   17  C   UNL     1      -6.163   1.491  71.764  1.00  0.00    -0.014 A  
HETATM   18  C   UNL     1     -11.501   6.044  69.640  1.00  0.00    -0.179 A  
HETATM   19  C   UNL     1      -5.322   3.723  71.460  1.00  0.00    -0.004 A  
ENDROOT
BRANCH   1  20
HETATM   20  N   UNL     1      -7.457   6.229  68.196  1.00  0.00    -0.089 NA 
HETATM   21  H   UNL     1      -6.479   6.321  68.469  1.00  0.00     0.000 HD 
BRANCH  20  22
HETATM   22  C   UNL     1      -8.345   7.173  68.366  1.00  0.00    -0.125 C  
HETATM   23  C   UNL     1      -9.342   9.098  69.674  1.00  0.00    -0.177 C  
HETATM   24  C   UNL     1      -8.803  10.047  68.581  1.00  0.00    -0.132 C  
HETATM   25  C   UNL     1      -7.886   9.261  67.655  1.00  0.00    -0.096 C  
HETATM   26  C   UNL     1      -9.005   7.767  69.669  1.00  0.00    -0.143 C  
HETATM   27  C   UNL     1     -10.261   9.914  70.608  1.00  0.00    -0.203 C  
HETATM   28  C   UNL     1      -8.692   8.049  67.207  1.00  0.00    -0.132 C  
HETATM   29  C   UNL     1      -7.941  11.174  69.189  1.00  0.00    -0.046 C  
HETATM   30  C   UNL     1     -11.277  10.948  69.901  1.00  0.00    -0.355 C  
HETATM   31  C   UNL     1     -10.860  11.578  68.508  1.00  0.00    -0.254 C  
HETATM   32  C   UNL     1     -12.033  12.161  67.566  1.00  0.00    -0.175 C  
HETATM   33  C   UNL     1     -12.375  13.637  67.949  1.00  0.00     0.008 C  
HETATM   34  C   UNL     1     -11.819  14.536  66.823  1.00  0.00    -0.390 C  
HETATM   35  C   UNL     1     -10.802  13.630  66.133  1.00  0.00    -0.279 C  
HETATM   36  C   UNL     1     -10.043  10.520  67.774  1.00  0.00    -0.205 C  
HETATM   37  C   UNL     1     -11.623  12.312  66.032  1.00  0.00    -0.451 C  
HETATM   38  C   UNL     1      -9.641  10.882  66.349  1.00  0.00    -0.229 C  
HETATM   39  C   UNL     1     -10.843  11.130  65.513  1.00  0.00    -0.205 C  
HETATM   40  C   UNL     1     -12.827  12.374  65.052  1.00  0.00     0.019 C  
BRANCH  35  41
HETATM   41  O   UNL     1     -10.157  14.161  64.966  1.00  0.00    -0.383 OA 
BRANCH  41  42
HETATM   42  C   UNL     1     -10.150  15.536  64.985  1.00  0.00    -0.128 C  
HETATM   43  O   UNL     1     -10.728  16.224  64.149  1.00  0.00    -0.320 OA 
BRANCH  42  44
HETATM   44  C   UNL     1      -9.366  16.236  66.074  1.00  0.00    -0.361 C  
BRANCH  44  45
HETATM   45  C   UNL     1      -9.895  17.464  66.801  1.00  0.00    -0.297 C  
BRANCH  45  46
HETATM   46  C   UNL     1      -9.527  18.777  66.121  1.00  0.00    -0.199 C  
BRANCH  46  47
HETATM   47  C   UNL     1      -9.042  19.867  67.085  1.00  0.00    -0.443 C  
BRANCH  47  48
HETATM   48  C   UNL     1      -7.769  19.495  67.846  1.00  0.00    -0.324 C  
HETATM   49  C   UNL     1      -6.550  19.503  66.933  1.00  0.00    -0.203 C  
ENDBRANCH  47  48
ENDBRANCH  46  47
ENDBRANCH  45  46
ENDBRANCH  44  45
ENDBRANCH  42  44
ENDBRANCH  41  42
ENDBRANCH  35  41
ENDBRANCH  20  22
ENDBRANCH   1  20
TORSDOF 9
ENDMDL
MODEL       96
REMARK 921   NORMALIZED FREE ENERGY PREDICTED BY IDOCK:   -3.25 KCAL/MOL
REMARK 922        TOTAL FREE ENERGY PREDICTED BY IDOCK:   -8.28 KCAL/MOL
REMARK 923 INTER-LIGAND FREE ENERGY PREDICTED BY IDOCK:   -6.39 KCAL/MOL
REMARK 924 INTRA-LIGAND FREE ENERGY PREDICTED BY IDOCK:   -1.89 KCAL/MOL
REMARK 927      BINDING AFFINITY PREDICTED BY RF-SCORE:    0.00 PKD
ROOT
HETATM    1  N   UNL     1      -8.669  15.421  68.932  1.00  0.00    -0.191 N  
HETATM    2  C   UNL     1      -8.492  15.391  67.557  1.00  0.00    -0.173 C  
HETATM    3  C   UNL     1      -9.981  20.272  68.024  1.00  0.00    -0.459 A  
HETATM    4  H   UNL     1      -7.812  15.310  69.474  1.00  0.00     0.000 HD 
HETATM    5  C   UNL     1     -10.478  15.147  64.530  1.00  0.00     0.145 A  
HETATM    6  O   UNL     1      -7.544  14.670  67.149  1.00  0.00    -0.181 OA 
HETATM    7  C   UNL     1     -12.522  13.894  64.821  1.00  0.00    -0.386 A  
HETATM    8  C   UNL     1      -9.273  16.261  66.534  1.00  0.00    -0.269 C  
HETATM    9  O   UNL     1      -8.311  16.506  65.461  1.00  0.00    -0.014 OA 
HETATM   10  C   UNL     1     -10.439  15.476  65.906  1.00  0.00    -0.356 A  
HETATM   11  C   UNL     1     -10.645  18.422  66.606  1.00  0.00    -0.359 A  
HETATM   12  C   UNL     1      -9.548  17.669  67.047  1.00  0.00    -0.276 A  
HETATM   13  C   UNL     1     -11.502  15.034  66.701  1.00  0.00    -0.251 A  
HETATM   14  C   UNL     1      -8.631  18.290  67.921  1.00  0.00    -0.267 A  
HETATM   15  C   UNL     1     -10.861  19.715  67.100  1.00  0.00    -0.526 A  
HETATM   16  H   UNL     1      -8.788  17.038  64.835  1.00  0.00     0.000 HD 
HETATM   17  C   UNL     1     -11.505  14.359  63.999  1.00  0.00     0.050 A  
HETATM   18  C   UNL     1      -8.856  19.563  68.431  1.00  0.00    -0.389 A  
HETATM   19  C   UNL     1     -12.528  14.243  66.172  1.00  0.00    -0.362 A  
ENDROOT
BRANCH   1  20
HETATM   20  N   UNL     1      -9.846  15.581  69.709  1.00  0.00    -0.331 NA 
HETATM   21  H   UNL     1     -10.282  16.485  69.890  1.00  0.00     0.000 HD 
BRANCH  20  22
HETATM   22  C   UNL     1     -10.313  14.451  70.170  1.00  0.00     0.571 C  
HETATM   23  C   UNL     1     -12.184  12.786  70.538  1.00  0.00    -0.389 C  
HETATM   24  C   UNL     1     -11.503  11.874  69.494  1.00  0.00    -0.357 C  
HETATM   25  C   UNL     1     -10.384  12.650  68.817  1.00  0.00    -0.132 C  
HETATM   26  C   UNL     1     -11.725  14.062  70.754  1.00  0.00    -0.190 C  
HETATM   27  C   UNL     1     -13.322  11.985  71.207  1.00  0.00     0.119 C  
HETATM   28  C   UNL     1      -9.523  13.203  69.946  1.00  0.00     2.570 C  
HETATM   29  C   UNL     1     -12.486  11.466  68.376  1.00  0.00     0.764 C  
HETATM   30  C   UNL     1     -12.996  10.455  71.601  1.00  0.00    -0.581 C  
HETATM   31  C   UNL     1     -11.919   9.671  70.743  1.00  0.00    -0.356 C  
HETATM   32  C   UNL     1     -11.211   8.387  71.416  1.00  0.00    -0.316 C  
HETATM   33  C   UNL     1     -12.075   7.102  71.211  1.00  0.00    -0.386 C  
HETATM   34  C   UNL     1     -11.345   6.229  70.167  1.00  0.00    -0.476 C  
HETATM   35  C   UNL     1     -10.408   7.223  69.486  1.00  0.00    -0.225 C  
HETATM   36  C   UNL     1     -10.882  10.696  70.295  1.00  0.00    -0.157 C  
HETATM   37  C   UNL     1      -9.835   7.965  70.728  1.00  0.00    -0.188 C  
HETATM   38  C   UNL     1      -9.682  10.124  69.549  1.00  0.00    -0.251 C  
HETATM   39  C   UNL     1      -8.956   9.146  70.399  1.00  0.00    -0.263 C  
HETATM   40  C   UNL     1      -8.910   7.100  71.628  1.00  0.00    -0.121 C  
BRANCH  35  41
HETATM   41  O   UNL     1      -9.515   6.689  68.497  1.00  0.00    -0.125 OA 
BRANCH  41  42
HETATM   42  C   UNL     1     -10.029   6.839  67.231  1.00  0.00    -0.157 C  
HETATM   43  O   UNL     1     -10.380   7.921  66.770  1.00  0.00    -0.309 OA 
BRANCH  42  44
HETATM   44  C   UNL     1     -10.197   5.603  66.373  1.00  0.00    -0.220 C  
BRANCH  44  45
HETATM   45  C   UNL     1      -9.614   4.253  66.762  1.00  0.00    -0.221 C  
BRANCH  45  46
HETATM   46  C   UNL     1      -8.160   4.075  66.342  1.00  0.00    -0.098 C  
BRANCH  46  47
HETATM   47  C   UNL     1      -7.981   3.503  64.930  1.00  0.00    -0.090 C  
BRANCH  47  48
HETATM   48  C   UNL     1      -8.935   2.353  64.605  1.00  0.00    -0.120 C  
HETATM   49  C   UNL     1      -9.613   2.553  63.256  1.00  0.00    -0.098 C  
ENDBRANCH  47  48
ENDBRANCH  46  47
ENDBRANCH  45  46
ENDBRANCH  44  45
ENDBRANCH  42  44
ENDBRANCH  41  42
ENDBRANCH  35  41
ENDBRANCH  20  22
ENDBRANCH   1  20
TORSDOF 9
ENDMDL
MODEL       97
REMARK 921   NORMALIZED FREE ENERGY PREDICTED BY IDOCK:   -3.16 KCAL/MOL
REMARK 922        TOTAL FREE ENERGY PREDICTED BY IDOCK:   -8.14 KCAL/MOL
REMARK 923 INTER-LIGAND FREE ENERGY PREDICTED BY IDOCK:   -7.24 KCAL/MOL
REMARK 924 INTRA-LIGAND FREE ENERGY PREDICTED BY IDOCK:   -0.90 KCAL/MOL
REMARK 927      BINDING AFFINITY PREDICTED BY RF-SCORE:    0.00 PKD
ROOT
HETATM    1  N   UNL     1     -10.580   5.762  70.885  1.00  0.00    -0.250 N  
HETATM    2  C   UNL     1     -10.269   5.288  72.150  1.00  0.00    -0.199 C  
HETATM    3  C   UNL     1      -6.777   9.027  71.862  1.00  0.00     0.028 A  
HETATM    4  H   UNL     1     -11.500   6.196  70.807  1.00  0.00     0.000 HD 
HETATM    5  C   UNL     1      -7.791   3.193  73.773  1.00  0.00    -0.065 A  
HETATM    6  O   UNL     1     -11.247   4.884  72.832  1.00  0.00    -0.260 OA 
HETATM    7  C   UNL     1      -6.903   1.467  72.336  1.00  0.00    -0.018 A  
HETATM    8  C   UNL     1      -8.863   5.344  72.808  1.00  0.00    -0.122 C  
HETATM    9  O   UNL     1      -9.138   5.513  74.233  1.00  0.00    -0.121 OA 
HETATM   10  C   UNL     1      -8.122   4.002  72.660  1.00  0.00    -0.094 A  
HETATM   11  C   UNL     1      -6.706   6.679  72.456  1.00  0.00    -0.063 A  
HETATM   12  C   UNL     1      -8.107   6.623  72.471  1.00  0.00    -0.102 A  
HETATM   13  C   UNL     1      -7.772   3.523  71.393  1.00  0.00    -0.056 A  
HETATM   14  C   UNL     1      -8.816   7.823  72.260  1.00  0.00    -0.180 A  
HETATM   15  C   UNL     1      -6.049   7.876  72.145  1.00  0.00    -0.041 A  
HETATM   16  H   UNL     1      -8.278   5.547  74.635  1.00  0.00     0.000 HD 
HETATM   17  C   UNL     1      -7.194   1.938  73.609  1.00  0.00    -0.028 A  
HETATM   18  C   UNL     1      -8.166   9.006  71.928  1.00  0.00     0.143 A  
HETATM   19  C   UNL     1      -7.179   2.267  71.227  1.00  0.00    -0.033 A  
ENDROOT
BRANCH   1  20
HETATM   20  N   UNL     1      -9.830   5.743  69.680  1.00  0.00    -0.166 NA 
HETATM   21  H   UNL     1      -9.739   4.918  69.086  1.00  0.00     0.000 HD 
BRANCH  20  22
HETATM   22  C   UNL     1      -9.265   6.890  69.409  1.00  0.00    -0.147 C  
HETATM   23  C   UNL     1      -7.743   8.364  68.025  1.00  0.00    -0.103 C  
HETATM   24  C   UNL     1      -9.008   9.059  67.474  1.00  0.00    -0.131 C  
HETATM   25  C   UNL     1     -10.233   8.273  67.917  1.00  0.00    -0.276 C  
HETATM   26  C   UNL     1      -7.849   7.246  68.814  1.00  0.00    -0.121 C  
HETATM   27  C   UNL     1      -6.511   9.170  67.559  1.00  0.00    -0.064 C  
HETATM   28  C   UNL     1     -10.106   8.124  69.428  1.00  0.00    -0.194 C  
HETATM   29  C   UNL     1      -9.026   9.055  65.931  1.00  0.00    -0.233 C  
HETATM   30  C   UNL     1      -6.621  10.776  67.647  1.00  0.00    -0.061 C  
HETATM   31  C   UNL     1      -8.054  11.440  67.517  1.00  0.00    -0.127 C  
HETATM   32  C   UNL     1      -8.251  12.925  68.117  1.00  0.00    -0.163 C  
HETATM   33  C   UNL     1      -7.833  14.009  67.072  1.00  0.00     0.086 C  
HETATM   34  C   UNL     1      -9.132  14.671  66.563  1.00  0.00    -0.267 C  
HETATM   35  C   UNL     1     -10.205  13.653  66.942  1.00  0.00    -0.261 C  
HETATM   36  C   UNL     1      -9.049  10.463  68.137  1.00  0.00    -0.142 C  
HETATM   37  C   UNL     1      -9.772  13.319  68.399  1.00  0.00    -0.198 C  
HETATM   38  C   UNL     1     -10.485  10.966  68.225  1.00  0.00    -0.205 C  
HETATM   39  C   UNL     1     -10.557  12.203  69.043  1.00  0.00    -0.117 C  
HETATM   40  C   UNL     1      -9.952  14.483  69.411  1.00  0.00     0.026 C  
BRANCH  35  41
HETATM   41  O   UNL     1     -11.565  14.023  66.669  1.00  0.00    -0.347 OA 
BRANCH  41  42
HETATM   42  C   UNL     1     -12.228  13.019  66.003  1.00  0.00    -0.399 C  
HETATM   43  O   UNL     1     -12.281  11.862  66.410  1.00  0.00    -0.476 OA 
BRANCH  42  44
HETATM   44  C   UNL     1     -12.900  13.349  64.688  1.00  0.00    -0.148 C  
BRANCH  44  45
HETATM   45  C   UNL     1     -12.181  13.236  63.352  1.00  0.00    -0.476 C  
BRANCH  45  46
HETATM   46  C   UNL     1     -11.482  11.898  63.150  1.00  0.00    -0.230 C  
BRANCH  46  47
HETATM   47  C   UNL     1      -9.963  11.947  63.361  1.00  0.00    -0.435 C  
BRANCH  47  48
HETATM   48  C   UNL     1      -9.193  10.912  62.539  1.00  0.00    -0.339 C  
HETATM   49  C   UNL     1      -7.873  10.541  63.203  1.00  0.00    -0.063 C  
ENDBRANCH  47  48
ENDBRANCH  46  47
ENDBRANCH  45  46
ENDBRANCH  44  45
ENDBRANCH  42  44
ENDBRANCH  41  42
ENDBRANCH  35  41
ENDBRANCH  20  22
ENDBRANCH   1  20
TORSDOF 9
ENDMDL
MODEL       98
REMARK 921   NORMALIZED FREE ENERGY PREDICTED BY IDOCK:   -2.66 KCAL/MOL
REMARK 922        TOTAL FREE ENERGY PREDICTED BY IDOCK:   -7.37 KCAL/MOL
REMARK 923 INTER-LIGAND FREE ENERGY PREDICTED BY IDOCK:   -8.24 KCAL/MOL
REMARK 924 INTRA-LIGAND FREE ENERGY PREDICTED BY IDOCK:    0.87 KCAL/MOL
REMARK 927      BINDING AFFINITY PREDICTED BY RF-SCORE:    0.00 PKD
ROOT
HETATM    1  N   UNL     1      -8.272   4.245  69.920  1.00  0.00    -0.062 N  
HETATM    2  C   UNL     1      -7.247   3.999  70.821  1.00  0.00    -0.037 C  
HETATM    3  C   UNL     1     -11.171   2.339  73.669  1.00  0.00    -0.316 A  
HETATM    4  H   UNL     1      -8.243   3.673  69.076  1.00  0.00     0.000 HD 
HETATM    5  C   UNL     1      -5.792   5.466  73.804  1.00  0.00    -0.039 A  
HETATM    6  O   UNL     1      -6.155   3.632  70.312  1.00  0.00    -0.018 OA 
HETATM    7  C   UNL     1      -5.998   7.870  73.890  1.00  0.00    -0.076 A  
HETATM    8  C   UNL     1      -7.389   4.018  72.368  1.00  0.00    -0.059 C  
HETATM    9  O   UNL     1      -6.439   3.008  72.829  1.00  0.00    -0.016 OA 
HETATM   10  C   UNL     1      -6.921   5.361  72.957  1.00  0.00    -0.084 A  
HETATM   11  C   UNL     1      -9.309   3.842  74.054  1.00  0.00    -0.105 A  
HETATM   12  C   UNL     1      -8.720   3.449  72.843  1.00  0.00    -0.091 A  
HETATM   13  C   UNL     1      -7.598   6.545  72.642  1.00  0.00    -0.101 A  
HETATM   14  C   UNL     1      -9.349   2.424  72.106  1.00  0.00    -0.161 A  
HETATM   15  C   UNL     1     -10.532   3.292  74.457  1.00  0.00    -0.224 A  
HETATM   16  H   UNL     1      -6.525   3.019  73.775  1.00  0.00     0.000 HD 
HETATM   17  C   UNL     1      -5.335   6.708  74.258  1.00  0.00    -0.050 A  
HETATM   18  C   UNL     1     -10.575   1.895  72.493  1.00  0.00    -0.194 A  
HETATM   19  C   UNL     1      -7.140   7.787  73.093  1.00  0.00    -0.103 A  
ENDROOT
BRANCH   1  20
HETATM   20  N   UNL     1      -9.355   5.161  69.979  1.00  0.00    -0.139 NA 
HETATM   21  H   UNL     1     -10.315   4.885  70.187  1.00  0.00     0.000 HD 
BRANCH  20  22
HETATM   22  C   UNL     1      -8.996   6.394  69.740  1.00  0.00    -0.141 C  
HETATM   23  C   UNL     1      -7.600   8.124  68.528  1.00  0.00    -0.104 C  
HETATM   24  C   UNL     1      -8.875   8.534  67.759  1.00  0.00    -0.137 C  
HETATM   25  C   UNL     1      -9.973   7.521  68.051  1.00  0.00    -0.204 C  
HETATM   26  C   UNL     1      -7.603   7.022  69.348  1.00  0.00    -0.099 C  
HETATM   27  C   UNL     1      -6.496   9.157  68.213  1.00  0.00    -0.055 C  
HETATM   28  C   UNL     1     -10.058   7.430  69.569  1.00  0.00    -0.187 C  
HETATM   29  C   UNL     1      -8.648   8.499  66.233  1.00  0.00    -0.143 C  
HETATM   30  C   UNL     1      -6.938  10.708  68.202  1.00  0.00    -0.073 C  
HETATM   31  C   UNL     1      -8.436  11.061  67.826  1.00  0.00    -0.122 C  
HETATM   32  C   UNL     1      -9.018  12.484  68.313  1.00  0.00    -0.178 C  
HETATM   33  C   UNL     1      -8.665  13.612  67.290  1.00  0.00    -0.223 C  
HETATM   34  C   UNL     1      -9.973  13.983  66.559  1.00  0.00    -0.289 C  
HETATM   35  C   UNL     1     -10.867  12.774  66.823  1.00  0.00    -0.264 C  
HETATM   36  C   UNL     1      -9.300   9.912  68.336  1.00  0.00    -0.135 C  
HETATM   37  C   UNL     1     -10.611  12.563  68.343  1.00  0.00    -0.256 C  
HETATM   38  C   UNL     1     -10.804  10.111  68.182  1.00  0.00    -0.310 C  
HETATM   39  C   UNL     1     -11.250  11.322  68.916  1.00  0.00    -0.315 C  
HETATM   40  C   UNL     1     -11.179  13.683  69.257  1.00  0.00    -0.284 C  
BRANCH  35  41
HETATM   41  O   UNL     1     -12.213  12.852  66.329  1.00  0.00    -0.454 OA 
BRANCH  41  42
HETATM   42  C   UNL     1     -12.259  13.486  65.110  1.00  0.00    -0.428 C  
HETATM   43  O   UNL     1     -13.069  13.202  64.233  1.00  0.00    -0.499 OA 
BRANCH  42  44
HETATM   44  C   UNL     1     -11.242  14.570  64.825  1.00  0.00    -0.395 C  
BRANCH  44  45
HETATM   45  C   UNL     1     -11.643  15.990  64.455  1.00  0.00    -0.212 C  
BRANCH  45  46
HETATM   46  C   UNL     1     -10.761  17.057  65.092  1.00  0.00    -0.066 C  
BRANCH  46  47
HETATM   47  C   UNL     1     -10.752  17.028  66.625  1.00  0.00    -0.092 C  
BRANCH  47  48
HETATM   48  C   UNL     1      -9.556  17.749  67.249  1.00  0.00    -0.272 C  
HETATM   49  C   UNL     1      -9.846  19.229  67.463  1.00  0.00    -0.429 C  
ENDBRANCH  47  48
ENDBRANCH  46  47
ENDBRANCH  45  46
ENDBRANCH  44  45
ENDBRANCH  42  44
ENDBRANCH  41  42
ENDBRANCH  35  41
ENDBRANCH  20  22
ENDBRANCH   1  20
TORSDOF 9
ENDMDL
MODEL       99
REMARK 921   NORMALIZED FREE ENERGY PREDICTED BY IDOCK:   -2.60 KCAL/MOL
REMARK 922        TOTAL FREE ENERGY PREDICTED BY IDOCK:   -7.28 KCAL/MOL
REMARK 923 INTER-LIGAND FREE ENERGY PREDICTED BY IDOCK:   -4.52 KCAL/MOL
REMARK 924 INTRA-LIGAND FREE ENERGY PREDICTED BY IDOCK:   -2.75 KCAL/MOL
REMARK 927      BINDING AFFINITY PREDICTED BY RF-SCORE:    0.00 PKD
ROOT
HETATM    1  N   UNL     1      -8.351  11.869  68.417  1.00  0.00    -0.168 N  
HETATM    2  C   UNL     1      -9.287  12.839  68.096  1.00  0.00    -0.214 C  
HETATM    3  C   UNL     1     -12.296   9.784  70.901  1.00  0.00    -0.379 A  
HETATM    4  H   UNL     1      -7.594  12.190  69.020  1.00  0.00     0.000 HD 
HETATM    5  C   UNL     1     -12.054  13.344  65.804  1.00  0.00    -0.481 A  
HETATM    6  O   UNL     1      -8.845  14.016  68.026  1.00  0.00    -0.165 OA 
HETATM    7  C   UNL     1     -11.806  12.149  63.720  1.00  0.00    -0.592 A  
HETATM    8  C   UNL     1     -10.815  12.599  67.952  1.00  0.00    -0.219 C  
HETATM    9  O   UNL     1     -11.421  13.850  68.402  1.00  0.00    -0.273 OA 
HETATM   10  C   UNL     1     -11.218  12.422  66.477  1.00  0.00    -0.368 A  
HETATM   11  C   UNL     1     -12.489  10.818  68.718  1.00  0.00     0.606 A  
HETATM   12  C   UNL     1     -11.351  11.598  68.968  1.00  0.00    -0.337 A  
HETATM   13  C   UNL     1     -10.737  11.336  65.737  1.00  0.00    -0.284 A  
HETATM   14  C   UNL     1     -10.756  11.504  70.243  1.00  0.00     0.963 A  
HETATM   15  C   UNL     1     -12.952   9.912  69.680  1.00  0.00     1.202 A  
HETATM   16  H   UNL     1     -12.356  13.703  68.314  1.00  0.00     0.000 HD 
HETATM   17  C   UNL     1     -12.338  13.210  64.440  1.00  0.00    -0.426 A  
HETATM   18  C   UNL     1     -11.199  10.588  71.190  1.00  0.00     0.217 A  
HETATM   19  C   UNL     1     -11.016  11.202  64.373  1.00  0.00    -0.270 A  
ENDROOT
BRANCH   1  20
HETATM   20  N   UNL     1      -8.272  10.501  68.044  1.00  0.00    -0.111 NA 
HETATM   21  H   UNL     1      -8.712  10.120  67.206  1.00  0.00     0.000 HD 
BRANCH  20  22
HETATM   22  C   UNL     1      -7.578   9.780  68.885  1.00  0.00    -0.081 C  
HETATM   23  C   UNL     1      -6.707   9.268  71.205  1.00  0.00    -0.047 C  
HETATM   24  C   UNL     1      -7.670   8.061  71.241  1.00  0.00    -0.090 C  
HETATM   25  C   UNL     1      -8.603   8.140  70.041  1.00  0.00    -0.129 C  
HETATM   26  C   UNL     1      -6.761  10.173  70.175  1.00  0.00    -0.138 C  
HETATM   27  C   UNL     1      -5.776   9.175  72.433  1.00  0.00    -0.050 C  
HETATM   28  C   UNL     1      -7.700   8.293  68.824  1.00  0.00    -0.114 C  
HETATM   29  C   UNL     1      -8.571   8.095  72.493  1.00  0.00    -0.255 C  
HETATM   30  C   UNL     1      -5.187   7.716  72.786  1.00  0.00    -0.037 C  
HETATM   31  C   UNL     1      -6.040   6.443  72.385  1.00  0.00    -0.039 C  
HETATM   32  C   UNL     1      -5.267   5.035  72.240  1.00  0.00    -0.005 C  
HETATM   33  C   UNL     1      -5.148   4.318  73.624  1.00  0.00    -0.007 C  
HETATM   34  C   UNL     1      -6.124   3.122  73.598  1.00  0.00    -0.008 C  
HETATM   35  C   UNL     1      -7.073   3.479  72.457  1.00  0.00    -0.047 C  
HETATM   36  C   UNL     1      -6.778   6.797  71.098  1.00  0.00    -0.057 C  
HETATM   37  C   UNL     1      -6.051   3.944  71.379  1.00  0.00    -0.014 C  
HETATM   38  C   UNL     1      -7.572   5.657  70.468  1.00  0.00    -0.089 C  
HETATM   39  C   UNL     1      -6.678   4.520  70.133  1.00  0.00    -0.036 C  
HETATM   40  C   UNL     1      -5.152   2.813  70.809  1.00  0.00    -0.004 C  
BRANCH  35  41
HETATM   41  O   UNL     1      -8.070   2.502  72.121  1.00  0.00    -0.053 OA 
BRANCH  41  42
HETATM   42  C   UNL     1      -9.335   2.976  72.377  1.00  0.00    -0.104 C  
HETATM   43  O   UNL     1     -10.251   2.925  71.562  1.00  0.00    -0.026 OA 
BRANCH  42  44
HETATM   44  C   UNL     1      -9.603   3.621  73.720  1.00  0.00    -0.132 C  
BRANCH  44  45
HETATM   45  C   UNL     1     -10.184   5.021  73.853  1.00  0.00    -0.259 C  
BRANCH  45  46
HETATM   46  C   UNL     1     -11.380   5.271  72.943  1.00  0.00    -0.368 C  
BRANCH  46  47
HETATM   47  C   UNL     1     -11.349   6.627  72.228  1.00  0.00    -0.311 C  
BRANCH  47  48
HETATM   48  C   UNL     1     -11.752   6.556  70.754  1.00  0.00    -0.427 C  
HETATM   49  C   UNL     1     -10.895   5.555  69.989  1.00  0.00    -0.301 C  
ENDBRANCH  47  48
ENDBRANCH  46  47
ENDBRANCH  45  46
ENDBRANCH  44  45
ENDBRANCH  42  44
ENDBRANCH  41  42
ENDBRANCH  35  41
ENDBRANCH  20  22
ENDBRANCH   1  20
TORSDOF 9
ENDMDL
MODEL      100
REMARK 921   NORMALIZED FREE ENERGY PREDICTED BY IDOCK:   -2.43 KCAL/MOL
REMARK 922        TOTAL FREE ENERGY PREDICTED BY IDOCK:   -7.02 KCAL/MOL
REMARK 923 INTER-LIGAND FREE ENERGY PREDICTED BY IDOCK:   -8.05 KCAL/MOL
REMARK 924 INTRA-LIGAND FREE ENERGY PREDICTED BY IDOCK:    1.02 KCAL/MOL
REMARK 927      BINDING AFFINITY PREDICTED BY RF-SCORE:    0.00 PKD
ROOT
HETATM    1  N   UNL     1      -9.566  18.380  67.699  1.00  0.00    -0.275 N  
HETATM    2  C   UNL     1      -8.613  18.892  68.565  1.00  0.00    -0.348 C  
HETATM    3  C   UNL     1      -5.927  19.208  64.212  1.00  0.00    -0.225 A  
HETATM    4  H   UNL     1     -10.397  18.960  67.588  1.00  0.00     0.000 HD 
HETATM    5  C   UNL     1      -5.591  17.834  70.272  1.00  0.00    -0.239 A  
HETATM    6  O   UNL     1      -9.062  19.586  69.515  1.00  0.00    -0.067 OA 
HETATM    7  C   UNL     1      -5.559  15.477  70.796  1.00  0.00    -0.054 A  
HETATM    8  C   UNL     1      -7.075  18.783  68.373  1.00  0.00    -0.265 C  
HETATM    9  O   UNL     1      -6.550  20.015  68.956  1.00  0.00    -0.307 OA 
HETATM   10  C   UNL     1      -6.489  17.623  69.199  1.00  0.00    -0.237 A  
HETATM   11  C   UNL     1      -5.481  18.321  66.423  1.00  0.00    -0.185 A  
HETATM   12  C   UNL     1      -6.654  18.911  66.915  1.00  0.00    -0.199 A  
HETATM   13  C   UNL     1      -6.857  16.301  68.923  1.00  0.00    -0.165 A  
HETATM   14  C   UNL     1      -7.402  19.722  66.036  1.00  0.00    -0.319 A  
HETATM   15  C   UNL     1      -5.127  18.466  65.076  1.00  0.00    -0.190 A  
HETATM   16  H   UNL     1      -5.610  19.948  68.839  1.00  0.00     0.000 HD 
HETATM   17  C   UNL     1      -5.138  16.772  71.063  1.00  0.00    -0.167 A  
HETATM   18  C   UNL     1      -7.065  19.847  64.694  1.00  0.00     0.442 A  
HETATM   19  C   UNL     1      -6.408  15.239  69.715  1.00  0.00    -0.162 A  
ENDROOT
BRANCH   1  20
HETATM   20  N   UNL     1      -9.576  17.179  66.941  1.00  0.00    -0.253 NA 
HETATM   21  H   UNL     1      -9.377  17.144  65.940  1.00  0.00     0.000 HD 
BRANCH  20  22
HETATM   22  C   UNL     1      -9.867  16.124  67.655  1.00  0.00    -0.236 C  
HETATM   23  C   UNL     1     -11.476  14.351  68.475  1.00  0.00    -0.326 C  
HETATM   24  C   UNL     1     -10.710  13.331  67.605  1.00  0.00    -0.250 C  
HETATM   25  C   UNL     1      -9.731  14.082  66.713  1.00  0.00    -0.283 C  
HETATM   26  C   UNL     1     -11.192  15.692  68.392  1.00  0.00    -0.352 C  
HETATM   27  C   UNL     1     -12.469  13.573  69.365  1.00  0.00    -0.003 C  
HETATM   28  C   UNL     1      -8.919  14.970  67.647  1.00  0.00    -0.180 C  
HETATM   29  C   UNL     1     -11.663  12.571  66.658  1.00  0.00    -0.453 C  
HETATM   30  C   UNL     1     -11.922  12.219  70.049  1.00  0.00    -0.379 C  
HETATM   31  C   UNL     1     -10.776  11.413  69.308  1.00  0.00    -0.195 C  
HETATM   32  C   UNL     1      -9.875  10.406  70.190  1.00  0.00     0.156 C  
HETATM   33  C   UNL     1     -10.559   9.006  70.311  1.00  0.00    -0.250 C  
HETATM   34  C   UNL     1      -9.750   8.031  69.429  1.00  0.00    -0.170 C  
HETATM   35  C   UNL     1      -8.982   8.968  68.499  1.00  0.00    -0.133 C  
HETATM   36  C   UNL     1      -9.906  12.443  68.594  1.00  0.00    -0.086 C  
HETATM   37  C   UNL     1      -8.477  10.026  69.522  1.00  0.00    -0.186 C  
HETATM   38  C   UNL     1      -8.663  11.883  67.911  1.00  0.00    -0.167 C  
HETATM   39  C   UNL     1      -7.781  11.211  68.900  1.00  0.00    -0.137 C  
HETATM   40  C   UNL     1      -7.412   9.501  70.523  1.00  0.00    -0.159 C  
BRANCH  35  41
HETATM   41  O   UNL     1      -8.056   8.353  67.591  1.00  0.00    -0.115 OA 
BRANCH  41  42
HETATM   42  C   UNL     1      -7.946   7.004  67.832  1.00  0.00    -0.115 C  
HETATM   43  O   UNL     1      -6.869   6.423  67.929  1.00  0.00    -0.068 OA 
BRANCH  42  44
HETATM   44  C   UNL     1      -9.216   6.189  67.954  1.00  0.00    -0.115 C  
BRANCH  44  45
HETATM   45  C   UNL     1     -10.209   6.049  66.811  1.00  0.00    -0.268 C  
BRANCH  45  46
HETATM   46  C   UNL     1     -10.586   4.604  66.506  1.00  0.00    -0.043 C  
BRANCH  46  47
HETATM   47  C   UNL     1     -11.086   4.376  65.075  1.00  0.00     0.076 C  
BRANCH  47  48
HETATM   48  C   UNL     1     -10.161   3.496  64.232  1.00  0.00    -0.196 C  
HETATM   49  C   UNL     1     -10.748   3.230  62.851  1.00  0.00    -0.197 C  
ENDBRANCH  47  48
ENDBRANCH  46  47
ENDBRANCH  45  46
ENDBRANCH  44  45
ENDBRANCH  42  44
ENDBRANCH  41  42
ENDBRANCH  35  41
ENDBRANCH  20  22
ENDBRANCH   1  20
TORSDOF 9
ENDMDL
MODEL      101
REMARK 921   NORMALIZED FREE ENERGY PREDICTED BY IDOCK:   -2.43 KCAL/MOL
REMARK 922        TOTAL FREE ENERGY PREDICTED BY IDOCK:   -7.02 KCAL/MOL
REMARK 923 INTER-LIGAND FREE ENERGY PREDICTED BY IDOCK:   -6.83 KCAL/MOL
REMARK 924 INTRA-LIGAND FREE ENERGY PREDICTED BY IDOCK:   -0.19 KCAL/MOL
REMARK 927      BINDING AFFINITY PREDICTED BY RF-SCORE:    0.00 PKD
ROOT
HETATM    1  N   UNL     1      -9.079  15.466  65.925  1.00  0.00    -0.430 N  
HETATM    2  C   UNL     1      -9.928  16.362  66.555  1.00  0.00    -0.282 C  
HETATM    3  C   UNL     1      -5.463  18.290  68.168  1.00  0.00    -0.165 A  
HETATM    4  H   UNL     1      -9.085  15.518  64.906  1.00  0.00     0.000 HD 
HETATM    5  C   UNL     1     -11.312  16.993  69.850  1.00  0.00     0.682 A  
HETATM    6  O   UNL     1     -10.973  16.658  65.918  1.00  0.00    -0.119 OA 
HETATM    7  C   UNL     1     -11.585  14.993  71.175  1.00  0.00    -0.377 A  
HETATM    8  C   UNL     1      -9.624  17.100  67.888  1.00  0.00    -0.266 C  
HETATM    9  O   UNL     1     -10.296  18.390  67.747  1.00  0.00    -0.368 OA 
HETATM   10  C   UNL     1     -10.285  16.391  69.084  1.00  0.00    -0.280 A  
HETATM   11  C   UNL     1      -7.535  17.664  69.257  1.00  0.00     0.014 A  
HETATM   12  C   UNL     1      -8.162  17.510  68.013  1.00  0.00    -0.239 A  
HETATM   13  C   UNL     1      -9.898  15.094  69.438  1.00  0.00    -0.216 A  
HETATM   14  C   UNL     1      -7.424  17.842  66.858  1.00  0.00    -0.230 A  
HETATM   15  C   UNL     1      -6.189  18.045  69.329  1.00  0.00    -0.244 A  
HETATM   16  H   UNL     1     -10.110  18.842  68.562  1.00  0.00     0.000 HD 
HETATM   17  C   UNL     1     -11.956  16.297  70.879  1.00  0.00    -0.102 A  
HETATM   18  C   UNL     1      -6.082  18.197  66.926  1.00  0.00    -0.176 A  
HETATM   19  C   UNL     1     -10.544  14.395  70.464  1.00  0.00     0.667 A  
ENDROOT
BRANCH   1  20
HETATM   20  N   UNL     1      -8.203  14.488  66.463  1.00  0.00    -0.288 NA 
HETATM   21  H   UNL     1      -7.194  14.489  66.308  1.00  0.00     0.000 HD 
BRANCH  20  22
HETATM   22  C   UNL     1      -8.820  13.584  67.178  1.00  0.00    -0.226 C  
HETATM   23  C   UNL     1     -10.579  11.791  67.484  1.00  0.00    -0.247 C  
HETATM   24  C   UNL     1      -9.439  10.749  67.477  1.00  0.00    -0.168 C  
HETATM   25  C   UNL     1      -8.145  11.437  67.068  1.00  0.00    -0.157 C  
HETATM   26  C   UNL     1     -10.323  13.107  67.192  1.00  0.00    -0.247 C  
HETATM   27  C   UNL     1     -11.884  11.072  67.892  1.00  0.00    -0.085 C  
HETATM   28  C   UNL     1      -8.005  12.637  67.996  1.00  0.00    -0.155 C  
HETATM   29  C   UNL     1      -9.692   9.644  66.428  1.00  0.00    -0.285 C  
HETATM   30  C   UNL     1     -11.781  10.019  69.108  1.00  0.00     0.070 C  
HETATM   31  C   UNL     1     -10.401   9.277  69.346  1.00  0.00    -0.223 C  
HETATM   32  C   UNL     1     -10.121   8.661  70.810  1.00  0.00    -0.244 C  
HETATM   33  C   UNL     1     -10.730   7.228  70.939  1.00  0.00    -0.251 C  
HETATM   34  C   UNL     1      -9.548   6.233  70.932  1.00  0.00    -0.192 C  
HETATM   35  C   UNL     1      -8.412   7.056  70.329  1.00  0.00    -0.138 C  
HETATM   36  C   UNL     1      -9.301  10.254  68.943  1.00  0.00    -0.180 C  
HETATM   37  C   UNL     1      -8.580   8.386  71.119  1.00  0.00    -0.187 C  
HETATM   38  C   UNL     1      -7.878   9.777  69.209  1.00  0.00    -0.105 C  
HETATM   39  C   UNL     1      -7.679   9.505  70.655  1.00  0.00    -0.151 C  
HETATM   40  C   UNL     1      -8.239   8.288  72.632  1.00  0.00    -0.223 C  
BRANCH  35  41
HETATM   41  O   UNL     1      -7.126   6.422  70.262  1.00  0.00    -0.073 OA 
BRANCH  41  42
HETATM   42  C   UNL     1      -7.099   5.274  71.019  1.00  0.00    -0.064 C  
HETATM   43  O   UNL     1      -6.737   5.249  72.192  1.00  0.00    -0.056 OA 
BRANCH  42  44
HETATM   44  C   UNL     1      -7.507   3.972  70.365  1.00  0.00    -0.045 C  
BRANCH  44  45
HETATM   45  C   UNL     1      -7.724   2.692  71.159  1.00  0.00    -0.043 C  
BRANCH  45  46
HETATM   46  C   UNL     1      -8.424   2.917  72.493  1.00  0.00    -0.077 C  
BRANCH  46  47
HETATM   47  C   UNL     1      -9.954   2.852  72.417  1.00  0.00    -0.235 C  
BRANCH  47  48
HETATM   48  C   UNL     1     -10.659   3.526  73.595  1.00  0.00    -0.281 C  
HETATM   49  C   UNL     1     -11.725   4.506  73.122  1.00  0.00    -0.145 C  
ENDBRANCH  47  48
ENDBRANCH  46  47
ENDBRANCH  45  46
ENDBRANCH  44  45
ENDBRANCH  42  44
ENDBRANCH  41  42
ENDBRANCH  35  41
ENDBRANCH  20  22
ENDBRANCH   1  20
TORSDOF 9
ENDMDL
MODEL      102
REMARK 921   NORMALIZED FREE ENERGY PREDICTED BY IDOCK:   -2.37 KCAL/MOL
REMARK 922        TOTAL FREE ENERGY PREDICTED BY IDOCK:   -6.93 KCAL/MOL
REMARK 923 INTER-LIGAND FREE ENERGY PREDICTED BY IDOCK:   -5.03 KCAL/MOL
REMARK 924 INTRA-LIGAND FREE ENERGY PREDICTED BY IDOCK:   -1.89 KCAL/MOL
REMARK 927      BINDING AFFINITY PREDICTED BY RF-SCORE:    0.00 PKD
ROOT
HETATM    1  N   UNL     1      -8.041  11.133  65.884  1.00  0.00    -0.335 N  
HETATM    2  C   UNL     1      -8.348  12.219  66.689  1.00  0.00    -0.014 C  
HETATM    3  C   UNL     1     -10.213   8.506  69.687  1.00  0.00    -0.209 A  
HETATM    4  H   UNL     1      -7.043  10.959  65.767  1.00  0.00     0.000 HD 
HETATM    5  C   UNL     1     -11.208  14.272  67.569  1.00  0.00    -0.322 A  
HETATM    6  O   UNL     1      -7.514  13.163  66.667  1.00  0.00     0.434 OA 
HETATM    7  C   UNL     1     -12.840  14.454  65.799  1.00  0.00    -0.179 A  
HETATM    8  C   UNL     1      -9.542  12.292  67.680  1.00  0.00    -0.191 C  
HETATM    9  O   UNL     1      -9.052  13.128  68.774  1.00  0.00    -0.386 OA 
HETATM   10  C   UNL     1     -10.739  13.037  67.062  1.00  0.00    -0.270 A  
HETATM   11  C   UNL     1     -11.076  10.612  68.857  1.00  0.00    -0.314 A  
HETATM   12  C   UNL     1      -9.805  10.965  68.381  1.00  0.00    -0.183 A  
HETATM   13  C   UNL     1     -11.394  12.515  65.941  1.00  0.00    -0.380 A  
HETATM   14  C   UNL     1      -8.733  10.091  68.657  1.00  0.00    -0.127 A  
HETATM   15  C   UNL     1     -11.276   9.385  69.500  1.00  0.00    -0.059 A  
HETATM   16  H   UNL     1      -9.782  13.172  69.381  1.00  0.00     0.000 HD 
HETATM   17  C   UNL     1     -12.242  14.973  66.939  1.00  0.00     0.278 A  
HETATM   18  C   UNL     1      -8.934   8.862  69.273  1.00  0.00    -0.144 A  
HETATM   19  C   UNL     1     -12.425  13.216  65.308  1.00  0.00    -0.550 A  
ENDROOT
BRANCH   1  20
HETATM   20  N   UNL     1      -8.886  10.223  65.197  1.00  0.00    -0.173 NA 
HETATM   21  H   UNL     1      -9.848  10.438  64.933  1.00  0.00     0.000 HD 
BRANCH  20  22
HETATM   22  C   UNL     1      -8.306   9.081  64.937  1.00  0.00    -0.169 C  
HETATM   23  C   UNL     1      -6.261   7.665  64.470  1.00  0.00    -0.044 C  
HETATM   24  C   UNL     1      -6.430   7.055  65.879  1.00  0.00    -0.051 C  
HETATM   25  C   UNL     1      -7.488   7.846  66.634  1.00  0.00    -0.089 C  
HETATM   26  C   UNL     1      -7.038   8.724  64.071  1.00  0.00    -0.094 C  
HETATM   27  C   UNL     1      -5.179   6.856  63.723  1.00  0.00    -0.028 C  
HETATM   28  C   UNL     1      -8.709   7.877  65.723  1.00  0.00    -0.163 C  
HETATM   29  C   UNL     1      -5.130   7.174  66.703  1.00  0.00    -0.022 C  
HETATM   30  C   UNL     1      -5.237   5.252  63.878  1.00  0.00    -0.010 C  
HETATM   31  C   UNL     1      -5.853   4.647  65.207  1.00  0.00    -0.018 C  
HETATM   32  C   UNL     1      -6.397   3.129  65.160  1.00  0.00    -0.031 C  
HETATM   33  C   UNL     1      -5.240   2.113  65.425  1.00  0.00    -0.005 C  
HETATM   34  C   UNL     1      -5.464   1.534  66.839  1.00  0.00    -0.017 C  
HETATM   35  C   UNL     1      -6.398   2.555  67.483  1.00  0.00    -0.032 C  
HETATM   36  C   UNL     1      -6.948   5.607  65.661  1.00  0.00    -0.065 C  
HETATM   37  C   UNL     1      -7.421   2.766  66.329  1.00  0.00    -0.075 C  
HETATM   38  C   UNL     1      -7.758   5.147  66.868  1.00  0.00    -0.092 C  
HETATM   39  C   UNL     1      -8.433   3.855  66.583  1.00  0.00    -0.105 C  
HETATM   40  C   UNL     1      -8.321   1.536  66.029  1.00  0.00    -0.090 C  
BRANCH  35  41
HETATM   41  O   UNL     1      -6.867   2.252  68.805  1.00  0.00    -0.038 OA 
BRANCH  41  42
HETATM   42  C   UNL     1      -6.546   3.256  69.688  1.00  0.00    -0.033 C  
HETATM   43  O   UNL     1      -5.395   3.631  69.891  1.00  0.00    -0.007 OA 
BRANCH  42  44
HETATM   44  C   UNL     1      -7.664   3.910  70.471  1.00  0.00    -0.044 C  
BRANCH  44  45
HETATM   45  C   UNL     1      -9.123   3.511  70.301  1.00  0.00    -0.202 C  
BRANCH  45  46
HETATM   46  C   UNL     1      -9.532   2.324  71.165  1.00  0.00    -0.218 C  
BRANCH  46  47
HETATM   47  C   UNL     1      -9.932   2.701  72.597  1.00  0.00    -0.219 C  
BRANCH  47  48
HETATM   48  C   UNL     1     -11.314   3.347  72.701  1.00  0.00     0.473 C  
HETATM   49  C   UNL     1     -11.249   4.693  73.413  1.00  0.00    -0.423 C  
ENDBRANCH  47  48
ENDBRANCH  46  47
ENDBRANCH  45  46
ENDBRANCH  44  45
ENDBRANCH  42  44
ENDBRANCH  41  42
ENDBRANCH  35  41
ENDBRANCH  20  22
ENDBRANCH   1  20
TORSDOF 9
ENDMDL
MODEL      103
REMARK 921   NORMALIZED FREE ENERGY PREDICTED BY IDOCK:   -2.13 KCAL/MOL
REMARK 922        TOTAL FREE ENERGY PREDICTED BY IDOCK:   -6.56 KCAL/MOL
REMARK 923 INTER-LIGAND FREE ENERGY PREDICTED BY IDOCK:   -4.47 KCAL/MOL
REMARK 924 INTRA-LIGAND FREE ENERGY PREDICTED BY IDOCK:   -2.09 KCAL/MOL
REMARK 927      BINDING AFFINITY PREDICTED BY RF-SCORE:    0.00 PKD
ROOT
HETATM    1  N   UNL     1      -6.421   8.126  68.828  1.00  0.00    -0.051 N  
HETATM    2  C   UNL     1      -6.214   6.755  68.855  1.00  0.00    -0.027 C  
HETATM    3  C   UNL     1     -11.278   6.742  68.071  1.00  0.00    -0.159 A  
HETATM    4  H   UNL     1      -5.990   8.605  68.038  1.00  0.00     0.000 HD 
HETATM    5  C   UNL     1      -6.628   3.953  71.123  1.00  0.00    -0.027 A  
HETATM    6  O   UNL     1      -5.125   6.362  68.361  1.00  0.00    -0.006 OA 
HETATM    7  C   UNL     1      -6.409   4.561  73.450  1.00  0.00    -0.045 A  
HETATM    8  C   UNL     1      -7.257   5.700  69.318  1.00  0.00    -0.066 C  
HETATM    9  O   UNL     1      -6.979   4.531  68.487  1.00  0.00    -0.050 OA 
HETATM   10  C   UNL     1      -7.010   5.271  70.775  1.00  0.00    -0.056 A  
HETATM   11  C   UNL     1      -9.798   5.620  69.628  1.00  0.00    -0.243 A  
HETATM   12  C   UNL     1      -8.679   6.059  68.905  1.00  0.00    -0.122 A  
HETATM   13  C   UNL     1      -7.133   6.198  71.816  1.00  0.00    -0.085 A  
HETATM   14  C   UNL     1      -8.905   6.772  67.710  1.00  0.00    -0.118 A  
HETATM   15  C   UNL     1     -11.089   5.968  69.213  1.00  0.00    -0.424 A  
HETATM   16  H   UNL     1      -7.616   3.885  68.770  1.00  0.00     0.000 HD 
HETATM   17  C   UNL     1      -6.326   3.608  72.445  1.00  0.00    -0.014 A  
HETATM   18  C   UNL     1     -10.184   7.139  67.310  1.00  0.00    -0.315 A  
HETATM   19  C   UNL     1      -6.828   5.855  73.138  1.00  0.00    -0.079 A  
ENDROOT
BRANCH   1  20
HETATM   20  N   UNL     1      -7.133   8.972  69.719  1.00  0.00    -0.053 NA 
HETATM   21  H   UNL     1      -6.834   9.160  70.676  1.00  0.00     0.000 HD 
BRANCH  20  22
HETATM   22  C   UNL     1      -8.211   9.484  69.187  1.00  0.00    -0.111 C  
HETATM   23  C   UNL     1     -10.445  10.663  69.352  1.00  0.00    -0.252 C  
HETATM   24  C   UNL     1      -9.768  11.912  68.746  1.00  0.00    -0.051 C  
HETATM   25  C   UNL     1      -8.264  11.682  68.698  1.00  0.00    -0.110 C  
HETATM   26  C   UNL     1      -9.697   9.568  69.708  1.00  0.00    -0.234 C  
HETATM   27  C   UNL     1     -11.967  10.917  69.401  1.00  0.00    -0.393 C  
HETATM   28  C   UNL     1      -8.073  10.352  67.980  1.00  0.00    -0.110 C  
HETATM   29  C   UNL     1      -9.988  13.157  69.632  1.00  0.00     1.259 C  
HETATM   30  C   UNL     1     -12.627  11.612  68.104  1.00  0.00     1.501 C  
HETATM   31  C   UNL     1     -11.726  12.575  67.226  1.00  0.00    -0.431 C  
HETATM   32  C   UNL     1     -12.174  12.837  65.699  1.00  0.00    -0.503 C  
HETATM   33  C   UNL     1     -13.215  14.000  65.615  1.00  0.00     0.034 C  
HETATM   34  C   UNL     1     -12.486  15.214  64.999  1.00  0.00     0.164 C  
HETATM   35  C   UNL     1     -11.014  14.872  65.209  1.00  0.00    -0.380 C  
HETATM   36  C   UNL     1     -10.304  12.027  67.292  1.00  0.00    -0.232 C  
HETATM   37  C   UNL     1     -11.005  13.382  64.760  1.00  0.00    -0.371 C  
HETATM   38  C   UNL     1      -9.289  12.744  66.409  1.00  0.00    -0.196 C  
HETATM   39  C   UNL     1      -9.693  12.671  64.982  1.00  0.00     0.010 C  
HETATM   40  C   UNL     1     -11.251  13.163  63.241  1.00  0.00     0.216 C  
BRANCH  35  41
HETATM   41  O   UNL     1     -10.057  15.790  64.659  1.00  0.00    -0.191 OA 
BRANCH  41  42
HETATM   42  C   UNL     1      -9.593  16.658  65.618  1.00  0.00     0.022 C  
HETATM   43  O   UNL     1     -10.080  17.768  65.815  1.00  0.00    -0.555 OA 
BRANCH  42  44
HETATM   44  C   UNL     1      -8.404  16.237  66.455  1.00  0.00    -0.365 C  
BRANCH  44  45
HETATM   45  C   UNL     1      -7.033  16.880  66.307  1.00  0.00    -0.131 C  
BRANCH  45  46
HETATM   46  C   UNL     1      -6.589  17.656  67.541  1.00  0.00    -0.177 C  
BRANCH  46  47
HETATM   47  C   UNL     1      -7.697  17.863  68.582  1.00  0.00    -0.293 C  
BRANCH  47  48
HETATM   48  C   UNL     1      -7.838  19.312  69.051  1.00  0.00    -0.314 C  
HETATM   49  C   UNL     1      -6.748  20.199  68.463  1.00  0.00    -0.331 C  
ENDBRANCH  47  48
ENDBRANCH  46  47
ENDBRANCH  45  46
ENDBRANCH  44  45
ENDBRANCH  42  44
ENDBRANCH  41  42
ENDBRANCH  35  41
ENDBRANCH  20  22
ENDBRANCH   1  20
TORSDOF 9
ENDMDL
MODEL      104
REMARK 921   NORMALIZED FREE ENERGY PREDICTED BY IDOCK:   -2.07 KCAL/MOL
REMARK 922        TOTAL FREE ENERGY PREDICTED BY IDOCK:   -6.47 KCAL/MOL
REMARK 923 INTER-LIGAND FREE ENERGY PREDICTED BY IDOCK:   -4.82 KCAL/MOL
REMARK 924 INTRA-LIGAND FREE ENERGY PREDICTED BY IDOCK:   -1.66 KCAL/MOL
REMARK 927      BINDING AFFINITY PREDICTED BY RF-SCORE:    0.00 PKD
ROOT
HETATM    1  N   UNL     1     -10.801  15.926  68.171  1.00  0.00    -0.304 N  
HETATM    2  C   UNL     1     -10.228  16.773  69.107  1.00  0.00    -0.306 C  
HETATM    3  C   UNL     1     -10.591  20.086  65.215  1.00  0.00     0.011 A  
HETATM    4  H   UNL     1     -11.746  15.617  68.398  1.00  0.00     0.000 HD 
HETATM    5  C   UNL     1      -6.988  18.189  69.921  1.00  0.00     0.458 A  
HETATM    6  O   UNL     1     -10.591  16.586  70.299  1.00  0.00    -0.171 OA 
HETATM    7  C   UNL     1      -5.136  16.770  69.296  1.00  0.00    -0.130 A  
HETATM    8  C   UNL     1      -9.304  17.978  68.780  1.00  0.00    -0.241 C  
HETATM    9  O   UNL     1      -9.599  18.953  69.828  1.00  0.00     0.284 OA 
HETATM   10  C   UNL     1      -7.819  17.603  68.936  1.00  0.00    -0.186 A  
HETATM   11  C   UNL     1      -8.816  19.435  66.731  1.00  0.00    -0.363 A  
HETATM   12  C   UNL     1      -9.729  18.720  67.520  1.00  0.00    -0.343 A  
HETATM   13  C   UNL     1      -7.244  16.632  68.108  1.00  0.00    -0.160 A  
HETATM   14  C   UNL     1     -11.093  18.783  67.168  1.00  0.00    -0.033 A  
HETATM   15  C   UNL     1      -9.248  20.107  65.582  1.00  0.00     0.139 A  
HETATM   16  H   UNL     1      -9.033  19.690  69.628  1.00  0.00     0.000 HD 
HETATM   17  C   UNL     1      -5.665  17.770  70.100  1.00  0.00    -0.230 A  
HETATM   18  C   UNL     1     -11.521  19.430  66.015  1.00  0.00     0.921 A  
HETATM   19  C   UNL     1      -5.922  16.210  68.289  1.00  0.00    -0.112 A  
ENDROOT
BRANCH   1  20
HETATM   20  N   UNL     1     -10.289  15.419  66.947  1.00  0.00    -0.272 NA 
HETATM   21  H   UNL     1     -10.538  15.798  66.033  1.00  0.00     0.000 HD 
BRANCH  20  22
HETATM   22  C   UNL     1      -9.467  14.417  67.112  1.00  0.00    -0.222 C  
HETATM   23  C   UNL     1      -8.226  12.756  68.563  1.00  0.00    -0.068 C  
HETATM   24  C   UNL     1      -9.170  11.660  68.020  1.00  0.00    -0.178 C  
HETATM   25  C   UNL     1     -10.288  12.322  67.227  1.00  0.00    -0.228 C  
HETATM   26  C   UNL     1      -8.448  14.078  68.266  1.00  0.00    -0.171 C  
HETATM   27  C   UNL     1      -7.105  12.066  69.370  1.00  0.00     0.085 C  
HETATM   28  C   UNL     1      -9.597  13.229  66.217  1.00  0.00    -0.244 C  
HETATM   29  C   UNL     1      -9.852  10.885  69.167  1.00  0.00    -0.164 C  
HETATM   30  C   UNL     1      -6.465  10.732  68.729  1.00  0.00    -0.048 C  
HETATM   31  C   UNL     1      -7.373   9.843  67.782  1.00  0.00    -0.089 C  
HETATM   32  C   UNL     1      -6.634   8.853  66.746  1.00  0.00    -0.064 C  
HETATM   33  C   UNL     1      -6.290   7.489  67.426  1.00  0.00    -0.053 C  
HETATM   34  C   UNL     1      -7.257   6.436  66.843  1.00  0.00    -0.074 C  
HETATM   35  C   UNL     1      -8.380   7.289  66.260  1.00  0.00    -0.129 C  
HETATM   36  C   UNL     1      -8.314  10.797  67.052  1.00  0.00    -0.129 C  
HETATM   37  C   UNL     1      -7.550   8.382  65.526  1.00  0.00    -0.090 C  
HETATM   38  C   UNL     1      -9.200  10.153  65.992  1.00  0.00    -0.198 C  
HETATM   39  C   UNL     1      -8.373   9.504  64.943  1.00  0.00    -0.151 C  
HETATM   40  C   UNL     1      -6.757   7.873  64.292  1.00  0.00    -0.060 C  
BRANCH  35  41
HETATM   41  O   UNL     1      -9.419   6.590  65.558  1.00  0.00     0.221 OA 
BRANCH  41  42
HETATM   42  C   UNL     1     -10.257   5.939  66.431  1.00  0.00    -0.107 C  
HETATM   43  O   UNL     1     -10.650   4.789  66.258  1.00  0.00    -0.301 OA 
BRANCH  42  44
HETATM   44  C   UNL     1     -10.744   6.688  67.653  1.00  0.00    -0.373 C  
BRANCH  44  45
HETATM   45  C   UNL     1     -10.647   6.111  69.058  1.00  0.00    -0.341 C  
BRANCH  45  46
HETATM   46  C   UNL     1     -10.435   7.167  70.135  1.00  0.00    -0.231 C  
BRANCH  46  47
HETATM   47  C   UNL     1      -9.653   6.667  71.356  1.00  0.00    -0.174 C  
BRANCH  47  48
HETATM   48  C   UNL     1      -8.170   6.415  71.078  1.00  0.00    -0.122 C  
HETATM   49  C   UNL     1      -7.416   7.717  70.844  1.00  0.00    -0.073 C  
ENDBRANCH  47  48
ENDBRANCH  46  47
ENDBRANCH  45  46
ENDBRANCH  44  45
ENDBRANCH  42  44
ENDBRANCH  41  42
ENDBRANCH  35  41
ENDBRANCH  20  22
ENDBRANCH   1  20
TORSDOF 9
ENDMDL
MODEL      105
REMARK 921   NORMALIZED FREE ENERGY PREDICTED BY IDOCK:   -2.01 KCAL/MOL
REMARK 922        TOTAL FREE ENERGY PREDICTED BY IDOCK:   -6.37 KCAL/MOL
REMARK 923 INTER-LIGAND FREE ENERGY PREDICTED BY IDOCK:   -8.32 KCAL/MOL
REMARK 924 INTRA-LIGAND FREE ENERGY PREDICTED BY IDOCK:    1.95 KCAL/MOL
REMARK 927      BINDING AFFINITY PREDICTED BY RF-SCORE:    0.00 PKD
ROOT
HETATM    1  N   UNL     1     -11.786  11.897  68.645  1.00  0.00    -0.305 N  
HETATM    2  C   UNL     1     -10.850  12.896  68.427  1.00  0.00    -0.254 C  
HETATM    3  C   UNL     1     -12.119  11.972  63.549  1.00  0.00    -0.628 A  
HETATM    4  H   UNL     1     -12.630  12.204  69.128  1.00  0.00     0.000 HD 
HETATM    5  C   UNL     1      -7.391  13.247  67.389  1.00  0.00    -0.125 A  
HETATM    6  O   UNL     1     -10.816  13.806  69.297  1.00  0.00    -0.203 OA 
HETATM    7  C   UNL     1      -6.011  11.359  67.990  1.00  0.00    -0.046 A  
HETATM    8  C   UNL     1      -9.961  13.032  67.160  1.00  0.00    -0.235 C  
HETATM    9  O   UNL     1      -9.789  14.473  66.993  1.00  0.00    -0.240 OA 
HETATM   10  C   UNL     1      -8.557  12.446  67.395  1.00  0.00    -0.181 A  
HETATM   11  C   UNL     1     -10.024  12.158  64.753  1.00  0.00    -0.224 A  
HETATM   12  C   UNL     1     -10.696  12.645  65.883  1.00  0.00    -0.293 A  
HETATM   13  C   UNL     1      -8.395  11.080  67.653  1.00  0.00    -0.117 A  
HETATM   14  C   UNL     1     -12.086  12.866  65.777  1.00  0.00    -0.513 A  
HETATM   15  C   UNL     1     -10.736  11.817  63.597  1.00  0.00    -0.503 A  
HETATM   16  H   UNL     1      -9.245  14.556  66.218  1.00  0.00     0.000 HD 
HETATM   17  C   UNL     1      -6.135  12.708  67.689  1.00  0.00    -0.147 A  
HETATM   18  C   UNL     1     -12.798  12.506  64.639  1.00  0.00    -0.325 A  
HETATM   19  C   UNL     1      -7.140  10.541  67.957  1.00  0.00    -0.086 A  
ENDROOT
BRANCH   1  20
HETATM   20  N   UNL     1     -11.763  10.519  68.307  1.00  0.00    -0.744 NA 
HETATM   21  H   UNL     1     -12.312  10.117  67.546  1.00  0.00     0.000 HD 
BRANCH  20  22
HETATM   22  C   UNL     1     -10.969   9.816  69.070  1.00  0.00    -0.163 C  
HETATM   23  C   UNL     1     -10.339   8.779  71.292  1.00  0.00    -0.331 C  
HETATM   24  C   UNL     1     -10.679   7.402  70.682  1.00  0.00    -0.242 C  
HETATM   25  C   UNL     1     -11.354   7.612  69.335  1.00  0.00     0.242 C  
HETATM   26  C   UNL     1     -10.615   9.934  70.602  1.00  0.00    -0.341 C  
HETATM   27  C   UNL     1      -9.665   8.546  72.661  1.00  0.00    -0.285 C  
HETATM   28  C   UNL     1     -10.425   8.528  68.547  1.00  0.00    -0.205 C  
HETATM   29  C   UNL     1     -11.692   6.633  71.558  1.00  0.00    -0.369 C  
HETATM   30  C   UNL     1      -8.568   7.366  72.736  1.00  0.00    -0.148 C  
HETATM   31  C   UNL     1      -8.714   6.139  71.744  1.00  0.00    -0.137 C  
HETATM   32  C   UNL     1      -7.396   5.261  71.437  1.00  0.00    -0.086 C  
HETATM   33  C   UNL     1      -7.199   4.153  72.521  1.00  0.00    -0.066 C  
HETATM   34  C   UNL     1      -7.546   2.803  71.856  1.00  0.00    -0.048 C  
HETATM   35  C   UNL     1      -8.363   3.223  70.637  1.00  0.00    -0.056 C  
HETATM   36  C   UNL     1      -9.319   6.686  70.455  1.00  0.00    -0.160 C  
HETATM   37  C   UNL     1      -7.487   4.392  70.101  1.00  0.00    -0.046 C  
HETATM   38  C   UNL     1      -9.433   5.682  69.313  1.00  0.00    -0.167 C  
HETATM   39  C   UNL     1      -8.096   5.151  68.948  1.00  0.00    -0.085 C  
HETATM   40  C   UNL     1      -6.110   3.959  69.527  1.00  0.00    -0.027 C  
BRANCH  35  41
HETATM   41  O   UNL     1      -8.775   2.174  69.747  1.00  0.00    -0.056 OA 
BRANCH  41  42
HETATM   42  C   UNL     1      -8.271   2.370  68.483  1.00  0.00    -0.056 C  
HETATM   43  O   UNL     1      -8.839   3.045  67.629  1.00  0.00    -0.107 OA 
BRANCH  42  44
HETATM   44  C   UNL     1      -6.967   1.695  68.115  1.00  0.00    -0.035 C  
BRANCH  44  45
HETATM   45  C   UNL     1      -6.508   1.537  66.674  1.00  0.00    -0.023 C  
BRANCH  45  46
HETATM   46  C   UNL     1      -6.126   2.854  66.009  1.00  0.00    -0.024 C  
BRANCH  46  47
HETATM   47  C   UNL     1      -5.776   2.726  64.522  1.00  0.00    -0.010 C  
BRANCH  47  48
HETATM   48  C   UNL     1      -6.521   3.718  63.626  1.00  0.00    -0.030 C  
HETATM   49  C   UNL     1      -7.981   3.855  64.038  1.00  0.00    -0.089 C  
ENDBRANCH  47  48
ENDBRANCH  46  47
ENDBRANCH  45  46
ENDBRANCH  44  45
ENDBRANCH  42  44
ENDBRANCH  41  42
ENDBRANCH  35  41
ENDBRANCH  20  22
ENDBRANCH   1  20
TORSDOF 9
ENDMDL
MODEL      106
REMARK 921   NORMALIZED FREE ENERGY PREDICTED BY IDOCK:   -1.99 KCAL/MOL
REMARK 922        TOTAL FREE ENERGY PREDICTED BY IDOCK:   -6.35 KCAL/MOL
REMARK 923 INTER-LIGAND FREE ENERGY PREDICTED BY IDOCK:   -6.12 KCAL/MOL
REMARK 924 INTRA-LIGAND FREE ENERGY PREDICTED BY IDOCK:   -0.22 KCAL/MOL
REMARK 927      BINDING AFFINITY PREDICTED BY RF-SCORE:    0.00 PKD
ROOT
HETATM    1  N   UNL     1      -8.644  15.410  68.921  1.00  0.00    -0.190 N  
HETATM    2  C   UNL     1      -8.523  15.405  67.540  1.00  0.00    -0.173 C  
HETATM    3  C   UNL     1      -9.999  20.274  68.152  1.00  0.00    -0.421 A  
HETATM    4  H   UNL     1      -7.767  15.291  69.426  1.00  0.00     0.000 HD 
HETATM    5  C   UNL     1     -10.628  15.210  64.591  1.00  0.00    -0.167 A  
HETATM    6  O   UNL     1      -7.591  14.693  67.081  1.00  0.00    -0.181 OA 
HETATM    7  C   UNL     1     -12.656  13.947  64.942  1.00  0.00    -0.380 A  
HETATM    8  C   UNL     1      -9.345  16.291  66.564  1.00  0.00    -0.271 C  
HETATM    9  O   UNL     1      -8.428  16.557  65.458  1.00  0.00    -0.118 OA 
HETATM   10  C   UNL     1     -10.534  15.515  65.970  1.00  0.00    -0.335 A  
HETATM   11  C   UNL     1     -10.717  18.447  66.730  1.00  0.00    -0.274 A  
HETATM   12  C   UNL     1      -9.602  17.689  67.113  1.00  0.00    -0.278 A  
HETATM   13  C   UNL     1     -11.564  15.056  66.799  1.00  0.00    -0.209 A  
HETATM   14  C   UNL     1      -8.651  18.296  67.960  1.00  0.00    -0.280 A  
HETATM   15  C   UNL     1     -10.915  19.730  67.255  1.00  0.00    -0.345 A  
HETATM   16  H   UNL     1      -8.930  17.098  64.861  1.00  0.00     0.000 HD 
HETATM   17  C   UNL     1     -11.675  14.429  64.087  1.00  0.00    -0.249 A  
HETATM   18  C   UNL     1      -8.858  19.560  68.501  1.00  0.00    -0.389 A  
HETATM   19  C   UNL     1     -12.609  14.273  66.297  1.00  0.00    -0.216 A  
ENDROOT
BRANCH   1  20
HETATM   20  N   UNL     1      -9.790  15.553  69.748  1.00  0.00    -0.331 NA 
HETATM   21  H   UNL     1     -10.201  16.456  69.987  1.00  0.00     0.000 HD 
BRANCH  20  22
HETATM   22  C   UNL     1     -10.263  14.411  70.171  1.00  0.00     0.686 C  
HETATM   23  C   UNL     1     -12.137  12.736  70.464  1.00  0.00    -0.369 C  
HETATM   24  C   UNL     1     -11.438  11.852  69.408  1.00  0.00    -0.366 C  
HETATM   25  C   UNL     1     -10.309  12.647  68.770  1.00  0.00    -0.132 C  
HETATM   26  C   UNL     1     -11.683  14.006  70.721  1.00  0.00    -0.190 C  
HETATM   27  C   UNL     1     -13.284  11.916  71.093  1.00  0.00     0.038 C  
HETATM   28  C   UNL     1      -9.467  13.171  69.927  1.00  0.00     2.570 C  
HETATM   29  C   UNL     1     -12.402  11.473  68.263  1.00  0.00     0.482 C  
HETATM   30  C   UNL     1     -12.962  10.377  71.452  1.00  0.00    -0.545 C  
HETATM   31  C   UNL     1     -11.871   9.616  70.591  1.00  0.00    -0.331 C  
HETATM   32  C   UNL     1     -11.172   8.316  71.241  1.00  0.00    -0.302 C  
HETATM   33  C   UNL     1     -12.031   7.035  70.988  1.00  0.00    -0.406 C  
HETATM   34  C   UNL     1     -11.283   6.191  69.933  1.00  0.00    -0.484 C  
HETATM   35  C   UNL     1     -10.337   7.204  69.294  1.00  0.00    -0.203 C  
HETATM   36  C   UNL     1     -10.828  10.654  70.187  1.00  0.00    -0.224 C  
HETATM   37  C   UNL     1      -9.784   7.913  70.564  1.00  0.00    -0.174 C  
HETATM   38  C   UNL     1      -9.615  10.103  69.446  1.00  0.00    -0.249 C  
HETATM   39  C   UNL     1      -8.902   9.103  70.281  1.00  0.00    -0.238 C  
HETATM   40  C   UNL     1      -8.873   7.026  71.456  1.00  0.00    -0.128 C  
BRANCH  35  41
HETATM   41  O   UNL     1      -9.426   6.697  68.306  1.00  0.00    -0.126 OA 
BRANCH  41  42
HETATM   42  C   UNL     1      -9.399   5.323  68.316  1.00  0.00    -0.118 C  
HETATM   43  O   UNL     1      -9.994   4.643  69.147  1.00  0.00    -0.189 OA 
BRANCH  42  44
HETATM   44  C   UNL     1      -8.572   4.612  67.266  1.00  0.00    -0.104 C  
BRANCH  44  45
HETATM   45  C   UNL     1      -7.050   4.619  67.284  1.00  0.00    -0.065 C  
BRANCH  45  46
HETATM   46  C   UNL     1      -6.448   6.016  67.212  1.00  0.00    -0.047 C  
BRANCH  46  47
HETATM   47  C   UNL     1      -5.732   6.457  68.494  1.00  0.00    -0.019 C  
BRANCH  47  48
HETATM   48  C   UNL     1      -5.196   7.888  68.441  1.00  0.00    -0.031 C  
HETATM   49  C   UNL     1      -6.296   8.884  68.097  1.00  0.00    -0.055 C  
ENDBRANCH  47  48
ENDBRANCH  46  47
ENDBRANCH  45  46
ENDBRANCH  44  45
ENDBRANCH  42  44
ENDBRANCH  41  42
ENDBRANCH  35  41
ENDBRANCH  20  22
ENDBRANCH   1  20
TORSDOF 9
ENDMDL
MODEL      107
REMARK 921   NORMALIZED FREE ENERGY PREDICTED BY IDOCK:   -1.96 KCAL/MOL
REMARK 922        TOTAL FREE ENERGY PREDICTED BY IDOCK:   -6.30 KCAL/MOL
REMARK 923 INTER-LIGAND FREE ENERGY PREDICTED BY IDOCK:   -7.65 KCAL/MOL
REMARK 924 INTRA-LIGAND FREE ENERGY PREDICTED BY IDOCK:    1.35 KCAL/MOL
REMARK 927      BINDING AFFINITY PREDICTED BY RF-SCORE:    0.00 PKD
ROOT
HETATM    1  N   UNL     1     -10.889  13.865  65.196  1.00  0.00    -0.337 N  
HETATM    2  C   UNL     1     -11.890  14.067  66.133  1.00  0.00    -0.407 C  
HETATM    3  C   UNL     1      -8.524  17.522  67.863  1.00  0.00    -0.230 A  
HETATM    4  H   UNL     1     -11.138  14.130  64.243  1.00  0.00     0.000 HD 
HETATM    5  C   UNL     1     -12.659  13.197  69.571  1.00  0.00     0.272 A  
HETATM    6  O   UNL     1     -13.067  13.946  65.703  1.00  0.00    -0.625 OA 
HETATM    7  C   UNL     1     -11.717  11.083  70.260  1.00  0.00    -0.445 A  
HETATM    8  C   UNL     1     -11.667  14.545  67.594  1.00  0.00    -0.382 C  
HETATM    9  O   UNL     1     -12.856  15.337  67.900  1.00  0.00     0.565 OA 
HETATM   10  C   UNL     1     -11.665  13.360  68.577  1.00  0.00    -0.392 A  
HETATM   11  C   UNL     1      -9.808  15.740  68.888  1.00  0.00    -0.224 A  
HETATM   12  C   UNL     1     -10.553  15.578  67.712  1.00  0.00    -0.281 A  
HETATM   13  C   UNL     1     -10.673  12.376  68.496  1.00  0.00    -0.262 A  
HETATM   14  C   UNL     1     -10.311  16.473  66.649  1.00  0.00    -0.298 A  
HETATM   15  C   UNL     1      -8.794  16.704  68.956  1.00  0.00    -0.201 A  
HETATM   16  H   UNL     1     -12.720  15.629  68.794  1.00  0.00     0.000 HD 
HETATM   17  C   UNL     1     -12.686  12.068  70.397  1.00  0.00     0.000 A  
HETATM   18  C   UNL     1      -9.290  17.414  66.707  1.00  0.00    -0.279 A  
HETATM   19  C   UNL     1     -10.701  11.244  69.318  1.00  0.00    -0.221 A  
ENDROOT
BRANCH   1  20
HETATM   20  N   UNL     1      -9.575  13.349  65.343  1.00  0.00    -0.506 NA 
HETATM   21  H   UNL     1      -8.773  13.920  65.611  1.00  0.00     0.000 HD 
BRANCH  20  22
HETATM   22  C   UNL     1      -9.497  12.067  65.100  1.00  0.00     0.010 C  
HETATM   23  C   UNL     1      -8.544  10.078  63.858  1.00  0.00    -0.196 C  
HETATM   24  C   UNL     1      -7.796   9.696  65.155  1.00  0.00    -0.117 C  
HETATM   25  C   UNL     1      -7.933  10.835  66.155  1.00  0.00    -0.157 C  
HETATM   26  C   UNL     1      -9.222  11.268  63.769  1.00  0.00    -0.091 C  
HETATM   27  C   UNL     1      -8.386   8.916  62.853  1.00  0.00    -0.198 C  
HETATM   28  C   UNL     1      -9.426  11.121  66.254  1.00  0.00    -0.220 C  
HETATM   29  C   UNL     1      -6.284   9.521  64.902  1.00  0.00    -0.080 C  
HETATM   30  C   UNL     1      -8.553   7.424  63.441  1.00  0.00     0.472 C  
HETATM   31  C   UNL     1      -8.182   7.167  64.960  1.00  0.00    -0.095 C  
HETATM   32  C   UNL     1      -8.824   5.876  65.682  1.00  0.00    -0.126 C  
HETATM   33  C   UNL     1      -7.956   4.602  65.423  1.00  0.00    -0.099 C  
HETATM   34  C   UNL     1      -7.241   4.266  66.750  1.00  0.00    -0.072 C  
HETATM   35  C   UNL     1      -7.331   5.576  67.528  1.00  0.00    -0.076 C  
HETATM   36  C   UNL     1      -8.526   8.446  65.718  1.00  0.00    -0.169 C  
HETATM   37  C   UNL     1      -8.821   5.950  67.276  1.00  0.00    -0.106 C  
HETATM   38  C   UNL     1      -8.356   8.370  67.231  1.00  0.00    -0.123 C  
HETATM   39  C   UNL     1      -9.221   7.306  67.802  1.00  0.00    -0.127 C  
HETATM   40  C   UNL     1      -9.849   5.009  67.962  1.00  0.00    -0.202 C  
BRANCH  35  41
HETATM   41  O   UNL     1      -6.815   5.564  68.868  1.00  0.00    -0.051 OA 
BRANCH  41  42
HETATM   42  C   UNL     1      -7.730   5.034  69.747  1.00  0.00    -0.064 C  
HETATM   43  O   UNL     1      -8.288   3.955  69.570  1.00  0.00    -0.057 OA 
BRANCH  42  44
HETATM   44  C   UNL     1      -8.089   5.835  70.980  1.00  0.00    -0.120 C  
BRANCH  44  45
HETATM   45  C   UNL     1      -9.254   5.463  71.885  1.00  0.00    -0.155 C  
BRANCH  45  46
HETATM   46  C   UNL     1     -10.280   6.578  72.044  1.00  0.00    -0.212 C  
BRANCH  46  47
HETATM   47  C   UNL     1     -11.722   6.150  71.744  1.00  0.00    -0.312 C  
BRANCH  47  48
HETATM   48  C   UNL     1     -12.496   7.150  70.884  1.00  0.00    -0.302 C  
HETATM   49  C   UNL     1     -12.508   8.537  71.515  1.00  0.00    -0.353 C  
ENDBRANCH  47  48
ENDBRANCH  46  47
ENDBRANCH  45  46
ENDBRANCH  44  45
ENDBRANCH  42  44
ENDBRANCH  41  42
ENDBRANCH  35  41
ENDBRANCH  20  22
ENDBRANCH   1  20
TORSDOF 9
ENDMDL
MODEL      108
REMARK 921   NORMALIZED FREE ENERGY PREDICTED BY IDOCK:   -1.92 KCAL/MOL
REMARK 922        TOTAL FREE ENERGY PREDICTED BY IDOCK:   -6.24 KCAL/MOL
REMARK 923 INTER-LIGAND FREE ENERGY PREDICTED BY IDOCK:   -6.78 KCAL/MOL
REMARK 924 INTRA-LIGAND FREE ENERGY PREDICTED BY IDOCK:    0.54 KCAL/MOL
REMARK 927      BINDING AFFINITY PREDICTED BY RF-SCORE:    0.00 PKD
ROOT
HETATM    1  N   UNL     1     -11.204   5.902  69.110  1.00  0.00    -0.277 N  
HETATM    2  C   UNL     1     -10.534   5.549  70.271  1.00  0.00    -0.295 C  
HETATM    3  C   UNL     1     -14.405   8.152  72.393  1.00  0.00    -0.302 A  
HETATM    4  H   UNL     1     -11.608   5.119  68.596  1.00  0.00     0.000 HD 
HETATM    5  C   UNL     1      -8.294   7.023  72.715  1.00  0.00    -0.120 A  
HETATM    6  O   UNL     1      -9.981   4.418  70.254  1.00  0.00    -0.217 OA 
HETATM    7  C   UNL     1      -6.876   8.749  71.799  1.00  0.00    -0.073 A  
HETATM    8  C   UNL     1     -10.533   6.368  71.591  1.00  0.00    -0.217 C  
HETATM    9  O   UNL     1     -10.446   5.358  72.643  1.00  0.00    -0.197 OA 
HETATM   10  C   UNL     1      -9.267   7.236  71.710  1.00  0.00    -0.153 A  
HETATM   11  C   UNL     1     -11.994   8.193  72.639  1.00  0.00    -0.353 A  
HETATM   12  C   UNL     1     -11.880   7.019  71.880  1.00  0.00    -0.341 A  
HETATM   13  C   UNL     1      -9.026   8.265  70.792  1.00  0.00    -0.166 A  
HETATM   14  C   UNL     1     -13.070   6.386  71.463  1.00  0.00     0.259 A  
HETATM   15  C   UNL     1     -13.252   8.757  72.885  1.00  0.00    -0.014 A  
HETATM   16  H   UNL     1     -10.445   5.859  73.450  1.00  0.00     0.000 HD 
HETATM   17  C   UNL     1      -7.110   7.768  72.752  1.00  0.00    -0.089 A  
HETATM   18  C   UNL     1     -14.317   6.958  71.686  1.00  0.00    -0.382 A  
HETATM   19  C   UNL     1      -7.841   9.008  70.826  1.00  0.00    -0.156 A  
ENDROOT
BRANCH   1  20
HETATM   20  N   UNL     1     -11.421   7.175  68.518  1.00  0.00    -0.254 NA 
HETATM   21  H   UNL     1     -12.345   7.532  68.274  1.00  0.00     0.000 HD 
BRANCH  20  22
HETATM   22  C   UNL     1     -10.315   7.842  68.319  1.00  0.00    -0.198 C  
HETATM   23  C   UNL     1      -8.438   8.672  66.837  1.00  0.00    -0.113 C  
HETATM   24  C   UNL     1      -9.062  10.082  66.930  1.00  0.00    -0.157 C  
HETATM   25  C   UNL     1     -10.426   9.974  67.597  1.00  0.00    -0.297 C  
HETATM   26  C   UNL     1      -9.095   7.583  67.353  1.00  0.00    -0.135 C  
HETATM   27  C   UNL     1      -7.061   8.801  66.150  1.00  0.00    -0.085 C  
HETATM   28  C   UNL     1     -10.190   9.213  68.897  1.00  0.00    -0.221 C  
HETATM   29  C   UNL     1      -9.312  10.681  65.530  1.00  0.00    -0.245 C  
HETATM   30  C   UNL     1      -6.134  10.036  66.613  1.00  0.00    -0.064 C  
HETATM   31  C   UNL     1      -6.842  11.351  67.143  1.00  0.00    -0.124 C  
HETATM   32  C   UNL     1      -5.980  12.344  68.077  1.00  0.00    -0.072 C  
HETATM   33  C   UNL     1      -5.143  13.339  67.209  1.00  0.00     0.293 C  
HETATM   34  C   UNL     1      -5.807  14.726  67.346  1.00  0.00     0.257 C  
HETATM   35  C   UNL     1      -7.207  14.387  67.852  1.00  0.00    -0.160 C  
HETATM   36  C   UNL     1      -8.120  10.907  67.849  1.00  0.00    -0.113 C  
HETATM   37  C   UNL     1      -6.861  13.344  68.954  1.00  0.00    -0.111 C  
HETATM   38  C   UNL     1      -8.898  12.019  68.544  1.00  0.00    -0.095 C  
HETATM   39  C   UNL     1      -8.060  12.676  69.579  1.00  0.00     1.210 C  
HETATM   40  C   UNL     1      -6.123  13.929  70.190  1.00  0.00    -0.147 C  
BRANCH  35  41
HETATM   41  O   UNL     1      -8.064  15.496  68.162  1.00  0.00    -0.129 OA 
BRANCH  41  42
HETATM   42  C   UNL     1      -9.384  15.178  67.948  1.00  0.00    -0.185 C  
HETATM   43  O   UNL     1     -10.169  14.917  68.855  1.00  0.00    -0.226 OA 
BRANCH  42  44
HETATM   44  C   UNL     1      -9.887  15.118  66.522  1.00  0.00    -0.278 C  
BRANCH  44  45
HETATM   45  C   UNL     1     -10.335  16.357  65.761  1.00  0.00    -0.388 C  
BRANCH  45  46
HETATM   46  C   UNL     1      -9.552  17.612  66.129  1.00  0.00    -0.206 C  
BRANCH  46  47
HETATM   47  C   UNL     1     -10.410  18.880  66.221  1.00  0.00    -0.512 C  
BRANCH  47  48
HETATM   48  C   UNL     1      -9.645  20.106  66.722  1.00  0.00    -0.559 C  
HETATM   49  C   UNL     1      -8.635  19.733  67.799  1.00  0.00    -0.373 C  
ENDBRANCH  47  48
ENDBRANCH  46  47
ENDBRANCH  45  46
ENDBRANCH  44  45
ENDBRANCH  42  44
ENDBRANCH  41  42
ENDBRANCH  35  41
ENDBRANCH  20  22
ENDBRANCH   1  20
TORSDOF 9
ENDMDL
MODEL      109
REMARK 921   NORMALIZED FREE ENERGY PREDICTED BY IDOCK:   -1.88 KCAL/MOL
REMARK 922        TOTAL FREE ENERGY PREDICTED BY IDOCK:   -6.18 KCAL/MOL
REMARK 923 INTER-LIGAND FREE ENERGY PREDICTED BY IDOCK:   -3.98 KCAL/MOL
REMARK 924 INTRA-LIGAND FREE ENERGY PREDICTED BY IDOCK:   -2.20 KCAL/MOL
REMARK 927      BINDING AFFINITY PREDICTED BY RF-SCORE:    0.00 PKD
ROOT
HETATM    1  N   UNL     1      -8.011  15.527  68.434  1.00  0.00    -0.124 N  
HETATM    2  C   UNL     1      -8.180  15.742  67.075  1.00  0.00    -0.228 C  
HETATM    3  C   UNL     1     -10.149  20.151  68.789  1.00  0.00    -0.334 A  
HETATM    4  H   UNL     1      -7.039  15.486  68.741  1.00  0.00     0.000 HD 
HETATM    5  C   UNL     1     -10.806  15.621  64.574  1.00  0.00    -0.115 A  
HETATM    6  O   UNL     1      -7.276  15.271  66.336  1.00  0.00     0.419 OA 
HETATM    7  C   UNL     1     -12.524  13.997  65.064  1.00  0.00    -0.446 A  
HETATM    8  C   UNL     1      -9.301  16.608  66.436  1.00  0.00    -0.281 C  
HETATM    9  O   UNL     1      -8.679  17.181  65.245  1.00  0.00     0.409 OA 
HETATM   10  C   UNL     1     -10.470  15.735  65.944  1.00  0.00    -0.366 A  
HETATM   11  C   UNL     1     -10.890  18.454  67.226  1.00  0.00    -0.296 A  
HETATM   12  C   UNL     1      -9.626  17.848  67.259  1.00  0.00    -0.273 A  
HETATM   13  C   UNL     1     -11.232  14.995  66.854  1.00  0.00    -0.323 A  
HETATM   14  C   UNL     1      -8.613  18.478  68.011  1.00  0.00    -0.310 A  
HETATM   15  C   UNL     1     -11.148  19.596  67.994  1.00  0.00     0.228 A  
HETATM   16  H   UNL     1      -9.364  17.711  64.854  1.00  0.00     0.000 HD 
HETATM   17  C   UNL     1     -11.818  14.756  64.142  1.00  0.00    -0.235 A  
HETATM   18  C   UNL     1      -8.873  19.597  68.793  1.00  0.00    -0.292 A  
HETATM   19  C   UNL     1     -12.241  14.127  66.423  1.00  0.00    -0.473 A  
ENDROOT
BRANCH   1  20
HETATM   20  N   UNL     1      -8.967  15.354  69.469  1.00  0.00    -0.348 NA 
HETATM   21  H   UNL     1      -9.331  16.122  70.033  1.00  0.00     0.000 HD 
BRANCH  20  22
HETATM   22  C   UNL     1      -9.334  14.109  69.625  1.00  0.00     0.831 C  
HETATM   23  C   UNL     1     -10.864  12.150  69.149  1.00  0.00    -0.165 C  
HETATM   24  C   UNL     1      -9.714  11.522  68.331  1.00  0.00    -0.202 C  
HETATM   25  C   UNL     1      -8.605  12.552  68.169  1.00  0.00    -0.189 C  
HETATM   26  C   UNL     1     -10.757  13.430  69.634  1.00  0.00     0.302 C  
HETATM   27  C   UNL     1     -11.981  11.095  69.295  1.00  0.00    -0.421 C  
HETATM   28  C   UNL     1      -8.289  13.043  69.577  1.00  0.00     1.357 C  
HETATM   29  C   UNL     1     -10.174  11.153  66.904  1.00  0.00    -0.260 C  
HETATM   30  C   UNL     1     -11.516   9.588  69.631  1.00  0.00     0.011 C  
HETATM   31  C   UNL     1     -10.087   9.114  69.137  1.00  0.00    -0.199 C  
HETATM   32  C   UNL     1      -9.408   7.861  69.891  1.00  0.00    -0.156 C  
HETATM   33  C   UNL     1      -9.891   6.509  69.273  1.00  0.00    -0.161 C  
HETATM   34  C   UNL     1      -8.703   5.927  68.476  1.00  0.00    -0.112 C  
HETATM   35  C   UNL     1      -7.804   7.143  68.266  1.00  0.00    -0.122 C  
HETATM   36  C   UNL     1      -9.178  10.339  69.183  1.00  0.00    -0.203 C  
HETATM   37  C   UNL     1      -7.827   7.758  69.696  1.00  0.00    -0.107 C  
HETATM   38  C   UNL     1      -7.712  10.074  68.858  1.00  0.00    -0.089 C  
HETATM   39  C   UNL     1      -7.134   9.093  69.811  1.00  0.00    -0.061 C  
HETATM   40  C   UNL     1      -7.104   6.910  70.777  1.00  0.00    -0.068 C  
BRANCH  35  41
HETATM   41  O   UNL     1      -6.549   6.908  67.611  1.00  0.00    -0.051 OA 
BRANCH  41  42
HETATM   42  C   UNL     1      -6.464   7.612  66.433  1.00  0.00    -0.049 C  
HETATM   43  O   UNL     1      -5.401   7.862  65.873  1.00  0.00    -0.028 OA 
BRANCH  42  44
HETATM   44  C   UNL     1      -7.743   8.132  65.813  1.00  0.00    -0.092 C  
BRANCH  44  45
HETATM   45  C   UNL     1      -8.513   7.354  64.756  1.00  0.00     0.085 C  
BRANCH  45  46
HETATM   46  C   UNL     1      -7.685   7.025  63.520  1.00  0.00    -0.114 C  
BRANCH  46  47
HETATM   47  C   UNL     1      -7.984   5.648  62.915  1.00  0.00    -0.099 C  
BRANCH  47  48
HETATM   48  C   UNL     1      -8.589   4.656  63.909  1.00  0.00    -0.132 C  
HETATM   49  C   UNL     1      -9.302   3.514  63.195  1.00  0.00    -0.102 C  
ENDBRANCH  47  48
ENDBRANCH  46  47
ENDBRANCH  45  46
ENDBRANCH  44  45
ENDBRANCH  42  44
ENDBRANCH  41  42
ENDBRANCH  35  41
ENDBRANCH  20  22
ENDBRANCH   1  20
TORSDOF 9
ENDMDL
MODEL      110
REMARK 921   NORMALIZED FREE ENERGY PREDICTED BY IDOCK:   -1.80 KCAL/MOL
REMARK 922        TOTAL FREE ENERGY PREDICTED BY IDOCK:   -6.07 KCAL/MOL
REMARK 923 INTER-LIGAND FREE ENERGY PREDICTED BY IDOCK:   -5.98 KCAL/MOL
REMARK 924 INTRA-LIGAND FREE ENERGY PREDICTED BY IDOCK:   -0.09 KCAL/MOL
REMARK 927      BINDING AFFINITY PREDICTED BY RF-SCORE:    0.00 PKD
ROOT
HETATM    1  N   UNL     1      -9.040  15.338  65.919  1.00  0.00    -0.452 N  
HETATM    2  C   UNL     1     -10.124  16.042  66.420  1.00  0.00    -0.300 C  
HETATM    3  C   UNL     1      -6.373  18.968  68.327  1.00  0.00    -0.242 A  
HETATM    4  H   UNL     1      -8.954  15.355  64.903  1.00  0.00     0.000 HD 
HETATM    5  C   UNL     1     -11.936  16.456  69.536  1.00  0.00     0.292 A  
HETATM    6  O   UNL     1     -11.138  16.077  65.675  1.00  0.00    -0.202 OA 
HETATM    7  C   UNL     1     -11.898  14.489  70.937  1.00  0.00    -0.362 A  
HETATM    8  C   UNL     1     -10.124  16.873  67.733  1.00  0.00    -0.292 C  
HETATM    9  O   UNL     1     -11.043  17.976  67.462  1.00  0.00    -0.208 OA 
HETATM   10  C   UNL     1     -10.731  16.073  68.901  1.00  0.00    -0.275 A  
HETATM   11  C   UNL     1      -8.357  17.931  69.255  1.00  0.00     0.268 A  
HETATM   12  C   UNL     1      -8.807  17.601  67.969  1.00  0.00    -0.257 A  
HETATM   13  C   UNL     1     -10.108  14.907  69.358  1.00  0.00    -0.166 A  
HETATM   14  C   UNL     1      -8.047  18.051  66.869  1.00  0.00    -0.255 A  
HETATM   15  C   UNL     1      -7.142  18.605  69.429  1.00  0.00    -0.113 A  
HETATM   16  H   UNL     1     -11.044  18.483  68.265  1.00  0.00     0.000 HD 
HETATM   17  C   UNL     1     -12.514  15.667  70.538  1.00  0.00    -0.440 A  
HETATM   18  C   UNL     1      -6.829  18.699  67.040  1.00  0.00    -0.207 A  
HETATM   19  C   UNL     1     -10.686  14.116  70.357  1.00  0.00     0.679 A  
ENDROOT
BRANCH   1  20
HETATM   20  N   UNL     1      -8.030  14.597  66.587  1.00  0.00    -0.259 NA 
HETATM   21  H   UNL     1      -7.052  14.885  66.623  1.00  0.00     0.000 HD 
BRANCH  20  22
HETATM   22  C   UNL     1      -8.481  13.508  67.151  1.00  0.00    -0.166 C  
HETATM   23  C   UNL     1     -10.053  11.527  67.254  1.00  0.00    -0.223 C  
HETATM   24  C   UNL     1      -8.854  10.626  66.886  1.00  0.00    -0.143 C  
HETATM   25  C   UNL     1      -7.677  11.509  66.494  1.00  0.00    -0.052 C  
HETATM   26  C   UNL     1      -9.932  12.894  67.231  1.00  0.00    -0.224 C  
HETATM   27  C   UNL     1     -11.238  10.615  67.640  1.00  0.00    -0.361 C  
HETATM   28  C   UNL     1      -7.500  12.495  67.642  1.00  0.00    -0.139 C  
HETATM   29  C   UNL     1      -9.165   9.747  65.656  1.00  0.00    -0.252 C  
HETATM   30  C   UNL     1     -10.900   9.345  68.574  1.00  0.00    -0.149 C  
HETATM   31  C   UNL     1      -9.452   8.708  68.482  1.00  0.00    -0.146 C  
HETATM   32  C   UNL     1      -8.937   7.830  69.733  1.00  0.00    -0.146 C  
HETATM   33  C   UNL     1      -9.420   6.349  69.612  1.00  0.00    -0.154 C  
HETATM   34  C   UNL     1      -8.183   5.498  69.251  1.00  0.00    -0.095 C  
HETATM   35  C   UNL     1      -7.198   6.536  68.718  1.00  0.00    -0.085 C  
HETATM   36  C   UNL     1      -8.487   9.851  68.182  1.00  0.00    -0.114 C  
HETATM   37  C   UNL     1      -7.353   7.648  69.796  1.00  0.00    -0.081 C  
HETATM   38  C   UNL     1      -7.011   9.471  68.172  1.00  0.00    -0.078 C  
HETATM   39  C   UNL     1      -6.603   8.921  69.490  1.00  0.00    -0.044 C  
HETATM   40  C   UNL     1      -6.808   7.269  71.200  1.00  0.00    -0.055 C  
BRANCH  35  41
HETATM   41  O   UNL     1      -5.891   6.059  68.367  1.00  0.00    -0.011 OA 
BRANCH  41  42
HETATM   42  C   UNL     1      -5.699   4.770  68.803  1.00  0.00    -0.020 C  
HETATM   43  O   UNL     1      -5.828   4.429  69.976  1.00  0.00    -0.016 OA 
BRANCH  42  44
HETATM   44  C   UNL     1      -5.278   3.723  67.794  1.00  0.00    -0.008 C  
BRANCH  44  45
HETATM   45  C   UNL     1      -6.283   2.941  66.961  1.00  0.00    -0.028 C  
BRANCH  45  46
HETATM   46  C   UNL     1      -7.064   3.806  65.981  1.00  0.00    -0.063 C  
BRANCH  46  47
HETATM   47  C   UNL     1      -7.681   3.028  64.813  1.00  0.00    -0.077 C  
BRANCH  47  48
HETATM   48  C   UNL     1      -8.993   3.624  64.299  1.00  0.00    -0.120 C  
HETATM   49  C   UNL     1      -8.747   4.660  63.210  1.00  0.00    -0.132 C  
ENDBRANCH  47  48
ENDBRANCH  46  47
ENDBRANCH  45  46
ENDBRANCH  44  45
ENDBRANCH  42  44
ENDBRANCH  41  42
ENDBRANCH  35  41
ENDBRANCH  20  22
ENDBRANCH   1  20
TORSDOF 9
ENDMDL
MODEL      111
REMARK 921   NORMALIZED FREE ENERGY PREDICTED BY IDOCK:   -1.69 KCAL/MOL
REMARK 922        TOTAL FREE ENERGY PREDICTED BY IDOCK:   -5.90 KCAL/MOL
REMARK 923 INTER-LIGAND FREE ENERGY PREDICTED BY IDOCK:   -4.90 KCAL/MOL
REMARK 924 INTRA-LIGAND FREE ENERGY PREDICTED BY IDOCK:   -0.99 KCAL/MOL
REMARK 927      BINDING AFFINITY PREDICTED BY RF-SCORE:    0.00 PKD
ROOT
HETATM    1  N   UNL     1      -9.211   8.167  66.951  1.00  0.00    -0.151 N  
HETATM    2  C   UNL     1      -9.579   9.489  67.144  1.00  0.00    -0.160 C  
HETATM    3  C   UNL     1      -7.853   9.878  62.334  1.00  0.00    -0.133 A  
HETATM    4  H   UNL     1      -9.987   7.505  66.945  1.00  0.00     0.000 HD 
HETATM    5  C   UNL     1      -8.048  12.696  67.879  1.00  0.00    -0.165 A  
HETATM    6  O   UNL     1     -10.602   9.668  67.856  1.00  0.00    -0.231 OA 
HETATM    7  C   UNL     1      -6.034  12.517  69.199  1.00  0.00    -0.085 A  
HETATM    8  C   UNL     1      -8.917  10.714  66.455  1.00  0.00    -0.156 C  
HETATM    9  O   UNL     1     -10.009  11.672  66.294  1.00  0.00    -0.207 OA 
HETATM   10  C   UNL     1      -7.881  11.383  67.377  1.00  0.00    -0.135 A  
HETATM   11  C   UNL     1      -7.466  11.113  64.383  1.00  0.00     0.949 A  
HETATM   12  C   UNL     1      -8.519  10.434  65.012  1.00  0.00    -0.180 A  
HETATM   13  C   UNL     1      -6.735  10.686  67.775  1.00  0.00    -0.068 A  
HETATM   14  C   UNL     1      -9.279   9.535  64.235  1.00  0.00    -0.166 A  
HETATM   15  C   UNL     1      -7.133  10.828  63.053  1.00  0.00     0.158 A  
HETATM   16  H   UNL     1      -9.604  12.421  65.873  1.00  0.00     0.000 HD 
HETATM   17  C   UNL     1      -7.136  13.251  68.784  1.00  0.00    -0.100 A  
HETATM   18  C   UNL     1      -8.936   9.233  62.922  1.00  0.00    -0.122 A  
HETATM   19  C   UNL     1      -5.825  11.238  68.683  1.00  0.00    -0.042 A  
ENDROOT
BRANCH   1  20
HETATM   20  N   UNL     1      -7.931   7.582  66.761  1.00  0.00    -0.112 NA 
HETATM   21  H   UNL     1      -7.263   7.905  66.060  1.00  0.00     0.000 HD 
BRANCH  20  22
HETATM   22  C   UNL     1      -7.696   6.588  67.576  1.00  0.00    -0.106 C  
HETATM   23  C   UNL     1      -6.260   5.373  69.269  1.00  0.00    -0.029 C  
HETATM   24  C   UNL     1      -7.285   5.782  70.350  1.00  0.00    -0.071 C  
HETATM   25  C   UNL     1      -8.263   6.781  69.748  1.00  0.00    -0.127 C  
HETATM   26  C   UNL     1      -6.355   5.871  67.993  1.00  0.00    -0.041 C  
HETATM   27  C   UNL     1      -5.272   4.368  69.901  1.00  0.00    -0.004 C  
HETATM   28  C   UNL     1      -8.792   6.125  68.478  1.00  0.00    -0.113 C  
HETATM   29  C   UNL     1      -6.601   6.504  71.530  1.00  0.00    -0.054 C  
HETATM   30  C   UNL     1      -5.905   3.228  70.848  1.00  0.00    -0.014 C  
HETATM   31  C   UNL     1      -7.252   3.552  71.618  1.00  0.00    -0.039 C  
HETATM   32  C   UNL     1      -8.152   2.309  72.115  1.00  0.00    -0.053 C  
HETATM   33  C   UNL     1      -7.669   1.792  73.508  1.00  0.00    -0.041 C  
HETATM   34  C   UNL     1      -8.731   2.223  74.543  1.00  0.00    -0.073 C  
HETATM   35  C   UNL     1      -9.481   3.338  73.818  1.00  0.00    -0.095 C  
HETATM   36  C   UNL     1      -8.057   4.487  70.721  1.00  0.00    -0.068 C  
HETATM   37  C   UNL     1      -9.672   2.684  72.419  1.00  0.00    -0.206 C  
HETATM   38  C   UNL     1      -9.455   4.829  71.226  1.00  0.00    -0.216 C  
HETATM   39  C   UNL     1     -10.271   3.598  71.380  1.00  0.00     0.069 C  
HETATM   40  C   UNL     1     -10.645   1.473  72.399  1.00  0.00    -0.217 C  
BRANCH  35  41
HETATM   41  O   UNL     1     -10.609   3.903  74.503  1.00  0.00    -0.215 OA 
BRANCH  41  42
HETATM   42  C   UNL     1     -10.891   5.166  74.037  1.00  0.00    -0.187 C  
HETATM   43  O   UNL     1     -11.814   5.409  73.266  1.00  0.00    -0.090 OA 
BRANCH  42  44
HETATM   44  C   UNL     1      -9.999   6.309  74.474  1.00  0.00    -0.356 C  
BRANCH  44  45
HETATM   45  C   UNL     1      -8.930   6.902  73.569  1.00  0.00    -0.166 C  
BRANCH  45  46
HETATM   46  C   UNL     1      -9.188   8.356  73.195  1.00  0.00    -0.222 C  
BRANCH  46  47
HETATM   47  C   UNL     1     -10.167   8.538  72.028  1.00  0.00    -0.391 C  
BRANCH  47  48
HETATM   48  C   UNL     1     -11.638   8.467  72.440  1.00  0.00    -0.425 C  
HETATM   49  C   UNL     1     -12.540   8.191  71.245  1.00  0.00    -0.243 C  
ENDBRANCH  47  48
ENDBRANCH  46  47
ENDBRANCH  45  46
ENDBRANCH  44  45
ENDBRANCH  42  44
ENDBRANCH  41  42
ENDBRANCH  35  41
ENDBRANCH  20  22
ENDBRANCH   1  20
TORSDOF 9
ENDMDL
MODEL      112
REMARK 921   NORMALIZED FREE ENERGY PREDICTED BY IDOCK:   -1.63 KCAL/MOL
REMARK 922        TOTAL FREE ENERGY PREDICTED BY IDOCK:   -5.80 KCAL/MOL
REMARK 923 INTER-LIGAND FREE ENERGY PREDICTED BY IDOCK:   -5.24 KCAL/MOL
REMARK 924 INTRA-LIGAND FREE ENERGY PREDICTED BY IDOCK:   -0.56 KCAL/MOL
REMARK 927      BINDING AFFINITY PREDICTED BY RF-SCORE:    0.00 PKD
ROOT
HETATM    1  N   UNL     1      -7.726  15.585  68.472  1.00  0.00    -0.127 N  
HETATM    2  C   UNL     1      -8.586  15.940  67.445  1.00  0.00    -0.172 C  
HETATM    3  C   UNL     1     -11.860  16.390  71.361  1.00  0.00    -0.234 A  
HETATM    4  H   UNL     1      -6.963  16.241  68.635  1.00  0.00     0.000 HD 
HETATM    5  C   UNL     1     -11.259  14.490  65.466  1.00  0.00    -0.335 A  
HETATM    6  O   UNL     1      -8.062  16.587  66.500  1.00  0.00    -0.246 OA 
HETATM    7  C   UNL     1     -11.047  12.103  65.168  1.00  0.00    -0.369 A  
HETATM    8  C   UNL     1     -10.123  15.717  67.444  1.00  0.00    -0.251 C  
HETATM    9  O   UNL     1     -10.652  16.847  66.684  1.00  0.00    -0.282 OA 
HETATM   10  C   UNL     1     -10.504  14.446  66.662  1.00  0.00    -0.274 A  
HETATM   11  C   UNL     1     -11.933  15.286  69.205  1.00  0.00    -0.308 A  
HETATM   12  C   UNL     1     -10.749  15.930  68.816  1.00  0.00    -0.265 A  
HETATM   13  C   UNL     1     -10.082  13.189  67.107  1.00  0.00    -0.242 A  
HETATM   14  C   UNL     1     -10.191  16.873  69.704  1.00  0.00    -0.050 A  
HETATM   15  C   UNL     1     -12.478  15.513  70.474  1.00  0.00    -0.472 A  
HETATM   16  H   UNL     1     -11.592  16.710  66.683  1.00  0.00     0.000 HD 
HETATM   17  C   UNL     1     -11.520  13.331  64.727  1.00  0.00    -0.355 A  
HETATM   18  C   UNL     1     -10.717  17.081  70.973  1.00  0.00     1.250 A  
HETATM   19  C   UNL     1     -10.339  12.029  66.367  1.00  0.00    -0.246 A  
ENDROOT
BRANCH   1  20
HETATM   20  N   UNL     1      -7.733  14.458  69.336  1.00  0.00    -0.351 NA 
HETATM   21  H   UNL     1      -7.888  14.520  70.342  1.00  0.00     0.000 HD 
BRANCH  20  22
HETATM   22  C   UNL     1      -7.519  13.331  68.709  1.00  0.00    -0.053 C  
HETATM   23  C   UNL     1      -5.992  11.515  67.827  1.00  0.00    -0.049 C  
HETATM   24  C   UNL     1      -6.546  10.589  68.933  1.00  0.00    -0.054 C  
HETATM   25  C   UNL     1      -7.390  11.417  69.891  1.00  0.00     0.479 C  
HETATM   26  C   UNL     1      -6.323  12.847  67.803  1.00  0.00    -0.144 C  
HETATM   27  C   UNL     1      -5.131  10.660  66.872  1.00  0.00    -0.044 C  
HETATM   28  C   UNL     1      -8.394  12.161  69.019  1.00  0.00     0.319 C  
HETATM   29  C   UNL     1      -5.408   9.977  69.777  1.00  0.00    -0.037 C  
HETATM   30  C   UNL     1      -5.723   9.218  66.459  1.00  0.00    -0.054 C  
HETATM   31  C   UNL     1      -6.683   8.479  67.480  1.00  0.00    -0.063 C  
HETATM   32  C   UNL     1      -7.673   7.347  66.896  1.00  0.00    -0.110 C  
HETATM   33  C   UNL     1      -6.953   5.962  66.819  1.00  0.00    -0.068 C  
HETATM   34  C   UNL     1      -7.549   5.080  67.939  1.00  0.00    -0.083 C  
HETATM   35  C   UNL     1      -8.188   6.103  68.875  1.00  0.00    -0.112 C  
HETATM   36  C   UNL     1      -7.465   9.564  68.213  1.00  0.00    -0.078 C  
HETATM   37  C   UNL     1      -8.914   7.013  67.842  1.00  0.00    -0.122 C  
HETATM   38  C   UNL     1      -8.542   9.059  69.166  1.00  0.00    -0.133 C  
HETATM   39  C   UNL     1      -9.548   8.247  68.435  1.00  0.00    -0.153 C  
HETATM   40  C   UNL     1     -10.109   6.340  67.113  1.00  0.00    -0.213 C  
BRANCH  35  41
HETATM   41  O   UNL     1      -8.913   5.580  69.998  1.00  0.00    -0.128 OA 
BRANCH  41  42
HETATM   42  C   UNL     1      -8.483   4.314  70.320  1.00  0.00    -0.069 C  
HETATM   43  O   UNL     1      -9.051   3.294  69.943  1.00  0.00    -0.099 OA 
BRANCH  42  44
HETATM   44  C   UNL     1      -7.265   4.172  71.209  1.00  0.00    -0.040 C  
BRANCH  44  45
HETATM   45  C   UNL     1      -7.366   3.780  72.675  1.00  0.00    -0.058 C  
BRANCH  45  46
HETATM   46  C   UNL     1      -7.384   4.972  73.623  1.00  0.00    -0.087 C  
BRANCH  46  47
HETATM   47  C   UNL     1      -8.763   5.273  74.224  1.00  0.00    -0.116 C  
BRANCH  47  48
HETATM   48  C   UNL     1      -9.222   6.718  74.022  1.00  0.00    -0.220 C  
HETATM   49  C   UNL     1     -10.530   6.785  73.245  1.00  0.00    -0.321 C  
ENDBRANCH  47  48
ENDBRANCH  46  47
ENDBRANCH  45  46
ENDBRANCH  44  45
ENDBRANCH  42  44
ENDBRANCH  41  42
ENDBRANCH  35  41
ENDBRANCH  20  22
ENDBRANCH   1  20
TORSDOF 9
ENDMDL
MODEL      113
REMARK 921   NORMALIZED FREE ENERGY PREDICTED BY IDOCK:   -1.57 KCAL/MOL
REMARK 922        TOTAL FREE ENERGY PREDICTED BY IDOCK:   -5.71 KCAL/MOL
REMARK 923 INTER-LIGAND FREE ENERGY PREDICTED BY IDOCK:   -4.54 KCAL/MOL
REMARK 924 INTRA-LIGAND FREE ENERGY PREDICTED BY IDOCK:   -1.17 KCAL/MOL
REMARK 927      BINDING AFFINITY PREDICTED BY RF-SCORE:    0.00 PKD
ROOT
HETATM    1  N   UNL     1      -8.762   7.204  72.808  1.00  0.00    -0.117 N  
HETATM    2  C   UNL     1      -7.896   6.253  73.324  1.00  0.00    -0.099 C  
HETATM    3  C   UNL     1      -6.670   5.785  68.370  1.00  0.00    -0.054 A  
HETATM    4  H   UNL     1      -8.555   8.163  73.085  1.00  0.00     0.000 HD 
HETATM    5  C   UNL     1      -7.645   2.648  73.655  1.00  0.00    -0.050 A  
HETATM    6  O   UNL     1      -7.408   6.520  74.454  1.00  0.00    -0.098 OA 
HETATM    7  C   UNL     1      -9.788   1.548  73.822  1.00  0.00    -0.101 A  
HETATM    8  C   UNL     1      -7.401   4.987  72.571  1.00  0.00    -0.093 C  
HETATM    9  O   UNL     1      -6.047   4.773  73.075  1.00  0.00    -0.020 OA 
HETATM   10  C   UNL     1      -8.218   3.744  72.968  1.00  0.00    -0.090 A  
HETATM   11  C   UNL     1      -7.255   4.225  70.130  1.00  0.00    -0.045 A  
HETATM   12  C   UNL     1      -7.157   5.243  71.089  1.00  0.00    -0.061 A  
HETATM   13  C   UNL     1      -9.586   3.674  72.677  1.00  0.00    -0.188 A  
HETATM   14  C   UNL     1      -6.725   6.515  70.657  1.00  0.00    -0.057 A  
HETATM   15  C   UNL     1      -7.019   4.501  68.778  1.00  0.00    -0.052 A  
HETATM   16  H   UNL     1      -5.744   3.999  72.614  1.00  0.00     0.000 HD 
HETATM   17  C   UNL     1      -8.425   1.567  74.081  1.00  0.00    -0.049 A  
HETATM   18  C   UNL     1      -6.513   6.796  69.313  1.00  0.00    -0.043 A  
HETATM   19  C   UNL     1     -10.367   2.596  73.106  1.00  0.00    -0.233 A  
ENDROOT
BRANCH   1  20
HETATM   20  N   UNL     1      -9.890   7.063  71.958  1.00  0.00    -0.160 NA 
HETATM   21  H   UNL     1     -10.740   6.568  72.228  1.00  0.00     0.000 HD 
BRANCH  20  22
HETATM   22  C   UNL     1      -9.728   7.632  70.793  1.00  0.00    -0.173 C  
HETATM   23  C   UNL     1     -10.488   8.168  68.439  1.00  0.00    -0.205 C  
HETATM   24  C   UNL     1     -10.746   9.616  68.911  1.00  0.00    -0.230 C  
HETATM   25  C   UNL     1     -10.615   9.670  70.426  1.00  0.00    -0.354 C  
HETATM   26  C   UNL     1     -10.158   7.188  69.342  1.00  0.00    -0.178 C  
HETATM   27  C   UNL     1     -10.634   8.130  66.902  1.00  0.00    -0.311 C  
HETATM   28  C   UNL     1      -9.261   9.050  70.746  1.00  0.00    -0.299 C  
HETATM   29  C   UNL     1     -12.185  10.066  68.584  1.00  0.00     1.335 C  
HETATM   30  C   UNL     1      -9.969   9.349  66.082  1.00  0.00    -0.351 C  
HETATM   31  C   UNL     1      -9.845  10.758  66.797  1.00  0.00    -0.233 C  
HETATM   32  C   UNL     1      -8.748  11.795  66.229  1.00  0.00    -0.106 C  
HETATM   33  C   UNL     1      -9.330  12.629  65.043  1.00  0.00     0.438 C  
HETATM   34  C   UNL     1      -9.561  14.063  65.570  1.00  0.00    -0.032 C  
HETATM   35  C   UNL     1      -9.573  13.872  67.084  1.00  0.00    -0.247 C  
HETATM   36  C   UNL     1      -9.619  10.479  68.280  1.00  0.00    -0.164 C  
HETATM   37  C   UNL     1      -8.338  12.942  67.260  1.00  0.00    -0.185 C  
HETATM   38  C   UNL     1      -9.351  11.710  69.139  1.00  0.00     0.275 C  
HETATM   39  C   UNL     1      -8.140  12.426  68.664  1.00  0.00    -0.020 C  
HETATM   40  C   UNL     1      -6.972  13.616  66.956  1.00  0.00     0.596 C  
BRANCH  35  41
HETATM   41  O   UNL     1      -9.690  15.061  67.880  1.00  0.00    -0.210 OA 
BRANCH  41  42
HETATM   42  C   UNL     1      -9.701  16.187  67.091  1.00  0.00    -0.233 C  
HETATM   43  O   UNL     1     -10.684  16.912  66.965  1.00  0.00    -0.267 OA 
BRANCH  42  44
HETATM   44  C   UNL     1      -8.449  16.533  66.315  1.00  0.00    -0.363 C  
BRANCH  44  45
HETATM   45  C   UNL     1      -7.829  17.923  66.342  1.00  0.00    -0.307 C  
BRANCH  45  46
HETATM   46  C   UNL     1      -6.822  18.116  67.469  1.00  0.00    -0.203 C  
BRANCH  46  47
HETATM   47  C   UNL     1      -7.427  18.681  68.760  1.00  0.00    -0.322 C  
BRANCH  47  48
HETATM   48  C   UNL     1      -8.388  19.849  68.530  1.00  0.00    -0.179 C  
HETATM   49  C   UNL     1      -9.770  19.556  69.099  1.00  0.00    -0.401 C  
ENDBRANCH  47  48
ENDBRANCH  46  47
ENDBRANCH  45  46
ENDBRANCH  44  45
ENDBRANCH  42  44
ENDBRANCH  41  42
ENDBRANCH  35  41
ENDBRANCH  20  22
ENDBRANCH   1  20
TORSDOF 9
ENDMDL
MODEL      114
REMARK 921   NORMALIZED FREE ENERGY PREDICTED BY IDOCK:   -1.16 KCAL/MOL
REMARK 922        TOTAL FREE ENERGY PREDICTED BY IDOCK:   -5.08 KCAL/MOL
REMARK 923 INTER-LIGAND FREE ENERGY PREDICTED BY IDOCK:   -3.52 KCAL/MOL
REMARK 924 INTRA-LIGAND FREE ENERGY PREDICTED BY IDOCK:   -1.56 KCAL/MOL
REMARK 927      BINDING AFFINITY PREDICTED BY RF-SCORE:    0.00 PKD
ROOT
HETATM    1  N   UNL     1      -9.874  13.019  66.748  1.00  0.00    -0.237 N  
HETATM    2  C   UNL     1      -9.585  14.328  66.396  1.00  0.00    -0.298 C  
HETATM    3  C   UNL     1      -5.163  13.175  68.714  1.00  0.00    -0.069 A  
HETATM    4  H   UNL     1      -9.982  12.380  65.960  1.00  0.00     0.000 HD 
HETATM    5  C   UNL     1      -9.443  17.621  67.915  1.00  0.00    -0.276 A  
HETATM    6  O   UNL     1     -10.068  14.713  65.299  1.00  0.00    -0.371 OA 
HETATM    7  C   UNL     1     -10.993  17.901  69.745  1.00  0.00     1.440 A  
HETATM    8  C   UNL     1      -8.630  15.276  67.173  1.00  0.00    -0.211 C  
HETATM    9  O   UNL     1      -8.034  16.117  66.137  1.00  0.00    -0.217 OA 
HETATM   10  C   UNL     1      -9.413  16.219  68.105  1.00  0.00    -0.215 A  
HETATM   11  C   UNL     1      -6.740  15.008  68.880  1.00  0.00    -0.099 A  
HETATM   12  C   UNL     1      -7.415  14.552  67.739  1.00  0.00    -0.182 A  
HETATM   13  C   UNL     1     -10.154  15.701  69.174  1.00  0.00    -0.237 A  
HETATM   14  C   UNL     1      -6.877  13.442  67.055  1.00  0.00     0.561 A  
HETATM   15  C   UNL     1      -5.624  14.315  69.366  1.00  0.00    -0.087 A  
HETATM   16  H   UNL     1      -7.451  16.697  66.612  1.00  0.00     0.000 HD 
HETATM   17  C   UNL     1     -10.230  18.449  68.723  1.00  0.00    -0.333 A  
HETATM   18  C   UNL     1      -5.785  12.739  67.549  1.00  0.00    -0.116 A  
HETATM   19  C   UNL     1     -10.944  16.527  69.980  1.00  0.00    -0.245 A  
ENDROOT
BRANCH   1  20
HETATM   20  N   UNL     1     -10.044  12.421  68.024  1.00  0.00    -0.208 NA 
HETATM   21  H   UNL     1     -10.787  12.681  68.673  1.00  0.00     0.000 HD 
BRANCH  20  22
HETATM   22  C   UNL     1      -9.151  11.503  68.283  1.00  0.00    -0.185 C  
HETATM   23  C   UNL     1      -7.934   9.947  69.866  1.00  0.00    -0.193 C  
HETATM   24  C   UNL     1      -8.690   8.773  69.206  1.00  0.00    -0.135 C  
HETATM   25  C   UNL     1      -9.764   9.335  68.286  1.00  0.00    -0.167 C  
HETATM   26  C   UNL     1      -8.251  11.245  69.552  1.00  0.00     0.437 C  
HETATM   27  C   UNL     1      -6.856   9.359  70.801  1.00  0.00    -0.109 C  
HETATM   28  C   UNL     1      -9.051  10.323  67.372  1.00  0.00    -0.148 C  
HETATM   29  C   UNL     1      -9.425   7.914  70.256  1.00  0.00    -0.163 C  
HETATM   30  C   UNL     1      -6.012   8.106  70.236  1.00  0.00    -0.028 C  
HETATM   31  C   UNL     1      -6.704   7.148  69.180  1.00  0.00    -0.049 C  
HETATM   32  C   UNL     1      -5.749   6.254  68.236  1.00  0.00    -0.012 C  
HETATM   33  C   UNL     1      -5.354   4.920  68.947  1.00  0.00    -0.004 C  
HETATM   34  C   UNL     1      -6.132   3.786  68.243  1.00  0.00    -0.031 C  
HETATM   35  C   UNL     1      -7.256   4.534  67.532  1.00  0.00    -0.069 C  
HETATM   36  C   UNL     1      -7.640   8.017  68.346  1.00  0.00    -0.108 C  
HETATM   37  C   UNL     1      -6.458   5.717  66.912  1.00  0.00    -0.050 C  
HETATM   38  C   UNL     1      -8.322   7.307  67.181  1.00  0.00    -0.118 C  
HETATM   39  C   UNL     1      -7.313   6.762  66.238  1.00  0.00    -0.073 C  
HETATM   40  C   UNL     1      -5.473   5.311  65.781  1.00  0.00    -0.013 C  
BRANCH  35  41
HETATM   41  O   UNL     1      -8.126   3.748  66.704  1.00  0.00    -0.095 OA 
BRANCH  41  42
HETATM   42  C   UNL     1      -7.692   2.446  66.624  1.00  0.00    -0.071 C  
HETATM   43  O   UNL     1      -7.145   1.978  65.629  1.00  0.00    -0.049 OA 
BRANCH  42  44
HETATM   44  C   UNL     1      -7.928   1.535  67.809  1.00  0.00    -0.058 C  
BRANCH  44  45
HETATM   45  C   UNL     1      -9.260   1.476  68.542  1.00  0.00    -0.209 C  
BRANCH  45  46
HETATM   46  C   UNL     1      -9.454   2.610  69.541  1.00  0.00    -0.134 C  
BRANCH  46  47
HETATM   47  C   UNL     1      -9.448   2.161  71.008  1.00  0.00    -0.211 C  
BRANCH  47  48
HETATM   48  C   UNL     1      -8.114   1.568  71.465  1.00  0.00    -0.041 C  
HETATM   49  C   UNL     1      -7.002   2.609  71.438  1.00  0.00    -0.032 C  
ENDBRANCH  47  48
ENDBRANCH  46  47
ENDBRANCH  45  46
ENDBRANCH  44  45
ENDBRANCH  42  44
ENDBRANCH  41  42
ENDBRANCH  35  41
ENDBRANCH  20  22
ENDBRANCH   1  20
TORSDOF 9
ENDMDL
MODEL      115
REMARK 921   NORMALIZED FREE ENERGY PREDICTED BY IDOCK:   -1.12 KCAL/MOL
REMARK 922        TOTAL FREE ENERGY PREDICTED BY IDOCK:   -5.02 KCAL/MOL
REMARK 923 INTER-LIGAND FREE ENERGY PREDICTED BY IDOCK:   -5.74 KCAL/MOL
REMARK 924 INTRA-LIGAND FREE ENERGY PREDICTED BY IDOCK:    0.72 KCAL/MOL
REMARK 927      BINDING AFFINITY PREDICTED BY RF-SCORE:    0.00 PKD
ROOT
HETATM    1  N   UNL     1     -10.546   5.673  70.579  1.00  0.00    -0.278 N  
HETATM    2  C   UNL     1     -10.302   5.170  71.847  1.00  0.00    -0.212 C  
HETATM    3  C   UNL     1      -6.988   9.078  71.936  1.00  0.00     0.065 A  
HETATM    4  H   UNL     1     -11.478   6.066  70.449  1.00  0.00     0.000 HD 
HETATM    5  C   UNL     1      -7.844   3.136  73.576  1.00  0.00    -0.068 A  
HETATM    6  O   UNL     1     -11.304   4.695  72.443  1.00  0.00     0.047 OA 
HETATM    7  C   UNL     1      -6.771   1.508  72.151  1.00  0.00    -0.015 A  
HETATM    8  C   UNL     1      -8.950   5.268  72.606  1.00  0.00    -0.132 C  
HETATM    9  O   UNL     1      -9.333   5.372  74.013  1.00  0.00    -0.131 OA 
HETATM   10  C   UNL     1      -8.135   3.969  72.469  1.00  0.00    -0.090 A  
HETATM   11  C   UNL     1      -6.842   6.715  72.456  1.00  0.00    -0.064 A  
HETATM   12  C   UNL     1      -8.236   6.593  72.368  1.00  0.00    -0.103 A  
HETATM   13  C   UNL     1      -7.673   3.554  71.215  1.00  0.00    -0.055 A  
HETATM   14  C   UNL     1      -8.988   7.765  72.144  1.00  0.00    -0.182 A  
HETATM   15  C   UNL     1      -6.225   7.952  72.233  1.00  0.00    -0.043 A  
HETATM   16  H   UNL     1      -8.507   5.432  74.477  1.00  0.00     0.000 HD 
HETATM   17  C   UNL     1      -7.175   1.918  73.414  1.00  0.00    -0.028 A  
HETATM   18  C   UNL     1      -8.376   8.989  71.899  1.00  0.00     0.131 A  
HETATM   19  C   UNL     1      -7.007   2.334  71.052  1.00  0.00    -0.032 A  
ENDROOT
BRANCH   1  20
HETATM   20  N   UNL     1      -9.711   5.733  69.431  1.00  0.00    -0.148 NA 
HETATM   21  H   UNL     1      -9.565   4.945  68.801  1.00  0.00     0.000 HD 
BRANCH  20  22
HETATM   22  C   UNL     1      -9.150   6.902  69.266  1.00  0.00    -0.140 C  
HETATM   23  C   UNL     1      -7.523   8.460  68.114  1.00  0.00    -0.097 C  
HETATM   24  C   UNL     1      -8.736   9.148  67.450  1.00  0.00    -0.118 C  
HETATM   25  C   UNL     1      -9.983   8.319  67.725  1.00  0.00    -0.235 C  
HETATM   26  C   UNL     1      -7.687   7.311  68.846  1.00  0.00    -0.116 C  
HETATM   27  C   UNL     1      -6.268   9.310  67.817  1.00  0.00    -0.054 C  
HETATM   28  C   UNL     1     -10.019   8.117  69.234  1.00  0.00    -0.188 C  
HETATM   29  C   UNL     1      -8.583   9.203  65.915  1.00  0.00    -0.168 C  
HETATM   30  C   UNL     1      -6.428  10.909  67.948  1.00  0.00    -0.062 C  
HETATM   31  C   UNL     1      -7.854  11.546  67.683  1.00  0.00    -0.125 C  
HETATM   32  C   UNL     1      -8.155  13.002  68.309  1.00  0.00    -0.151 C  
HETATM   33  C   UNL     1      -7.651  14.134  67.357  1.00  0.00    -0.179 C  
HETATM   34  C   UNL     1      -8.902  14.786  66.729  1.00  0.00    -0.281 C  
HETATM   35  C   UNL     1      -9.984  13.732  66.950  1.00  0.00    -0.264 C  
HETATM   36  C   UNL     1      -8.886  10.525  68.153  1.00  0.00    -0.134 C  
HETATM   37  C   UNL     1      -9.707  13.352  68.434  1.00  0.00    -0.201 C  
HETATM   38  C   UNL     1     -10.336  10.993  68.098  1.00  0.00    -0.204 C  
HETATM   39  C   UNL     1     -10.530  12.196  68.946  1.00  0.00    -0.142 C  
HETATM   40  C   UNL     1     -10.028  14.473  69.460  1.00  0.00     0.118 C  
BRANCH  35  41
HETATM   41  O   UNL     1     -11.315  14.083  66.540  1.00  0.00    -0.317 OA 
BRANCH  41  42
HETATM   42  C   UNL     1     -11.860  13.107  65.739  1.00  0.00    -0.397 C  
HETATM   43  O   UNL     1     -11.906  11.923  66.057  1.00  0.00    -0.497 OA 
BRANCH  42  44
HETATM   44  C   UNL     1     -12.403  13.510  64.385  1.00  0.00    -0.391 C  
BRANCH  44  45
HETATM   45  C   UNL     1     -12.337  14.940  63.870  1.00  0.00     0.074 C  
BRANCH  45  46
HETATM   46  C   UNL     1     -11.069  15.677  64.284  1.00  0.00    -0.001 C  
BRANCH  46  47
HETATM   47  C   UNL     1     -11.281  16.716  65.391  1.00  0.00     0.162 C  
BRANCH  47  48
HETATM   48  C   UNL     1     -10.110  17.684  65.561  1.00  0.00     0.199 C  
HETATM   49  C   UNL     1     -10.591  19.096  65.871  1.00  0.00    -0.495 C  
ENDBRANCH  47  48
ENDBRANCH  46  47
ENDBRANCH  45  46
ENDBRANCH  44  45
ENDBRANCH  42  44
ENDBRANCH  41  42
ENDBRANCH  35  41
ENDBRANCH  20  22
ENDBRANCH   1  20
TORSDOF 9
ENDMDL
MODEL      116
REMARK 921   NORMALIZED FREE ENERGY PREDICTED BY IDOCK:   -1.04 KCAL/MOL
REMARK 922        TOTAL FREE ENERGY PREDICTED BY IDOCK:   -4.90 KCAL/MOL
REMARK 923 INTER-LIGAND FREE ENERGY PREDICTED BY IDOCK:   -5.07 KCAL/MOL
REMARK 924 INTRA-LIGAND FREE ENERGY PREDICTED BY IDOCK:    0.17 KCAL/MOL
REMARK 927      BINDING AFFINITY PREDICTED BY RF-SCORE:    0.00 PKD
ROOT
HETATM    1  N   UNL     1      -7.543   8.198  73.119  1.00  0.00    -0.147 N  
HETATM    2  C   UNL     1      -6.856   7.003  73.262  1.00  0.00    -0.073 C  
HETATM    3  C   UNL     1      -7.838   6.712  68.241  1.00  0.00    -0.110 A  
HETATM    4  H   UNL     1      -6.980   9.034  73.272  1.00  0.00     0.000 HD 
HETATM    5  C   UNL     1      -7.538   3.449  73.531  1.00  0.00    -0.061 A  
HETATM    6  O   UNL     1      -5.914   7.017  74.097  1.00  0.00    -0.065 OA 
HETATM    7  C   UNL     1      -9.665   2.955  74.561  1.00  0.00    -0.140 A  
HETATM    8  C   UNL     1      -7.077   5.732  72.397  1.00  0.00    -0.085 C  
HETATM    9  O   UNL     1      -5.755   5.113  72.321  1.00  0.00    -0.015 OA 
HETATM   10  C   UNL     1      -7.994   4.721  73.110  1.00  0.00    -0.100 A  
HETATM   11  C   UNL     1      -8.113   5.201  70.116  1.00  0.00    -0.083 A  
HETATM   12  C   UNL     1      -7.364   6.057  70.937  1.00  0.00    -0.082 A  
HETATM   13  C   UNL     1      -9.324   5.051  73.392  1.00  0.00    -0.141 A  
HETATM   14  C   UNL     1      -6.790   7.201  70.345  1.00  0.00    -0.057 A  
HETATM   15  C   UNL     1      -8.352   5.535  68.777  1.00  0.00    -0.102 A  
HETATM   16  H   UNL     1      -5.890   4.335  71.793  1.00  0.00     0.000 HD 
HETATM   17  C   UNL     1      -8.365   2.582  74.253  1.00  0.00    -0.067 A  
HETATM   18  C   UNL     1      -7.046   7.546  69.023  1.00  0.00    -0.079 A  
HETATM   19  C   UNL     1     -10.151   4.185  74.117  1.00  0.00    -0.213 A  
ENDROOT
BRANCH   1  20
HETATM   20  N   UNL     1      -8.902   8.450  72.793  1.00  0.00    -0.305 NA 
HETATM   21  H   UNL     1      -9.626   8.620  73.491  1.00  0.00     0.000 HD 
BRANCH  20  22
HETATM   22  C   UNL     1      -9.131   8.441  71.506  1.00  0.00    -0.195 C  
HETATM   23  C   UNL     1     -10.658   8.167  69.506  1.00  0.00    -0.215 C  
HETATM   24  C   UNL     1     -10.570   9.695  69.299  1.00  0.00    -0.236 C  
HETATM   25  C   UNL     1      -9.876  10.315  70.503  1.00  0.00     0.398 C  
HETATM   26  C   UNL     1     -10.116   7.582  70.624  1.00  0.00    -0.187 C  
HETATM   27  C   UNL     1     -11.372   7.556  68.281  1.00  0.00     0.566 C  
HETATM   28  C   UNL     1      -8.572   9.545  70.671  1.00  0.00    -0.178 C  
HETATM   29  C   UNL     1     -11.973  10.335  69.230  1.00  0.00    -0.005 C  
HETATM   30  C   UNL     1     -10.942   8.125  66.835  1.00  0.00     0.252 C  
HETATM   31  C   UNL     1     -10.415   9.616  66.739  1.00  0.00    -0.257 C  
HETATM   32  C   UNL     1      -9.510  10.014  65.464  1.00  0.00    -0.296 C  
HETATM   33  C   UNL     1     -10.405  10.424  64.251  1.00  0.00    -0.057 C  
HETATM   34  C   UNL     1     -10.273  11.954  64.089  1.00  0.00    -0.364 C  
HETATM   35  C   UNL     1      -9.736  12.396  65.448  1.00  0.00    -0.113 C  
HETATM   36  C   UNL     1      -9.680   9.907  68.044  1.00  0.00    -0.160 C  
HETATM   37  C   UNL     1      -8.628  11.327  65.673  1.00  0.00    -0.023 C  
HETATM   38  C   UNL     1      -8.984  11.262  68.111  1.00  0.00    -0.166 C  
HETATM   39  C   UNL     1      -7.973  11.385  67.031  1.00  0.00    -0.158 C  
HETATM   40  C   UNL     1      -7.414  11.441  64.711  1.00  0.00     1.358 C  
BRANCH  35  41
HETATM   41  O   UNL     1      -9.424  13.790  65.592  1.00  0.00    -0.079 OA 
BRANCH  41  42
HETATM   42  C   UNL     1     -10.058  14.330  66.686  1.00  0.00    -0.273 C  
HETATM   43  O   UNL     1      -9.527  15.141  67.440  1.00  0.00    -0.201 OA 
BRANCH  42  44
HETATM   44  C   UNL     1     -11.470  13.880  66.994  1.00  0.00    -0.367 C  
BRANCH  44  45
HETATM   45  C   UNL     1     -12.032  13.865  68.407  1.00  0.00    -0.391 C  
BRANCH  45  46
HETATM   46  C   UNL     1     -11.651  15.092  69.226  1.00  0.00    -0.344 C  
BRANCH  46  47
HETATM   47  C   UNL     1     -12.048  15.006  70.705  1.00  0.00    -0.377 C  
BRANCH  47  48
HETATM   48  C   UNL     1     -13.539  15.233  70.958  1.00  0.00    -0.486 C  
HETATM   49  C   UNL     1     -13.891  15.045  72.428  1.00  0.00    -0.596 C  
ENDBRANCH  47  48
ENDBRANCH  46  47
ENDBRANCH  45  46
ENDBRANCH  44  45
ENDBRANCH  42  44
ENDBRANCH  41  42
ENDBRANCH  35  41
ENDBRANCH  20  22
ENDBRANCH   1  20
TORSDOF 9
ENDMDL
MODEL      117
REMARK 921   NORMALIZED FREE ENERGY PREDICTED BY IDOCK:   -0.93 KCAL/MOL
REMARK 922        TOTAL FREE ENERGY PREDICTED BY IDOCK:   -4.73 KCAL/MOL
REMARK 923 INTER-LIGAND FREE ENERGY PREDICTED BY IDOCK:   -4.23 KCAL/MOL
REMARK 924 INTRA-LIGAND FREE ENERGY PREDICTED BY IDOCK:   -0.50 KCAL/MOL
REMARK 927      BINDING AFFINITY PREDICTED BY RF-SCORE:    0.00 PKD
ROOT
HETATM    1  N   UNL     1     -12.330  14.006  68.218  1.00  0.00    -0.508 N  
HETATM    2  C   UNL     1     -12.260  15.264  68.797  1.00  0.00    -0.049 C  
HETATM    3  C   UNL     1      -7.241  14.253  68.579  1.00  0.00    -0.118 A  
HETATM    4  H   UNL     1     -12.685  13.997  67.262  1.00  0.00     0.000 HD 
HETATM    5  C   UNL     1     -11.745  16.768  72.059  1.00  0.00     0.101 A  
HETATM    6  O   UNL     1     -13.132  16.086  68.412  1.00  0.00     1.863 OA 
HETATM    7  C   UNL     1     -12.528  15.394  73.884  1.00  0.00    -0.763 A  
HETATM    8  C   UNL     1     -11.139  15.749  69.756  1.00  0.00    -0.322 C  
HETATM    9  O   UNL     1     -11.010  17.176  69.470  1.00  0.00    -0.344 OA 
HETATM   10  C   UNL     1     -11.573  15.634  71.229  1.00  0.00    -0.485 A  
HETATM   11  C   UNL     1      -8.742  15.036  70.313  1.00  0.00     0.866 A  
HETATM   12  C   UNL     1      -9.764  15.218  69.370  1.00  0.00    -0.248 A  
HETATM   13  C   UNL     1     -11.841  14.382  71.792  1.00  0.00    -0.085 A  
HETATM   14  C   UNL     1      -9.457  14.985  68.013  1.00  0.00    -0.193 A  
HETATM   15  C   UNL     1      -7.491  14.549  69.916  1.00  0.00     0.181 A  
HETATM   16  H   UNL     1     -10.325  17.472  70.057  1.00  0.00     0.000 HD 
HETATM   17  C   UNL     1     -12.223  16.646  73.368  1.00  0.00    -0.366 A  
HETATM   18  C   UNL     1      -8.223  14.479  67.620  1.00  0.00    -0.187 A  
HETATM   19  C   UNL     1     -12.323  14.259  73.100  1.00  0.00    -0.090 A  
ENDROOT
BRANCH   1  20
HETATM   20  N   UNL     1     -11.987  12.729  68.736  1.00  0.00    -0.289 NA 
HETATM   21  H   UNL     1     -12.590  12.196  69.363  1.00  0.00     0.000 HD 
BRANCH  20  22
HETATM   22  C   UNL     1     -10.820  12.307  68.328  1.00  0.00    -0.225 C  
HETATM   23  C   UNL     1      -8.683  10.988  68.640  1.00  0.00    -0.161 C  
HETATM   24  C   UNL     1      -9.213   9.986  67.591  1.00  0.00    -0.148 C  
HETATM   25  C   UNL     1     -10.668  10.314  67.288  1.00  0.00    -0.323 C  
HETATM   26  C   UNL     1      -9.487  11.996  69.110  1.00  0.00     0.435 C  
HETATM   27  C   UNL     1      -7.210  10.634  68.941  1.00  0.00    -0.090 C  
HETATM   28  C   UNL     1     -10.691  11.795  66.931  1.00  0.00    -0.288 C  
HETATM   29  C   UNL     1      -9.200   8.541  68.135  1.00  0.00    -0.142 C  
HETATM   30  C   UNL     1      -6.281  10.262  67.677  1.00  0.00    -0.057 C  
HETATM   31  C   UNL     1      -6.969   9.622  66.401  1.00  0.00    -0.088 C  
HETATM   32  C   UNL     1      -6.195   9.740  64.991  1.00  0.00    -0.094 C  
HETATM   33  C   UNL     1      -5.166   8.576  64.820  1.00  0.00    -0.035 C  
HETATM   34  C   UNL     1      -5.744   7.614  63.760  1.00  0.00    -0.045 C  
HETATM   35  C   UNL     1      -7.225   7.981  63.737  1.00  0.00    -0.092 C  
HETATM   36  C   UNL     1      -8.369  10.221  66.308  1.00  0.00    -0.134 C  
HETATM   37  C   UNL     1      -7.129   9.534  63.713  1.00  0.00    -0.108 C  
HETATM   38  C   UNL     1      -9.166   9.826  65.070  1.00  0.00    -0.307 C  
HETATM   39  C   UNL     1      -8.455  10.243  63.835  1.00  0.00    -0.179 C  
HETATM   40  C   UNL     1      -6.552  10.127  62.398  1.00  0.00    -0.130 C  
BRANCH  35  41
HETATM   41  O   UNL     1      -8.040   7.302  62.769  1.00  0.00    -0.133 OA 
BRANCH  41  42
HETATM   42  C   UNL     1      -8.358   6.033  63.192  1.00  0.00     0.029 C  
HETATM   43  O   UNL     1      -8.664   5.124  62.426  1.00  0.00    -0.119 OA 
BRANCH  42  44
HETATM   44  C   UNL     1      -8.361   5.750  64.679  1.00  0.00    -0.102 C  
BRANCH  44  45
HETATM   45  C   UNL     1      -7.231   5.001  65.370  1.00  0.00    -0.068 C  
BRANCH  45  46
HETATM   46  C   UNL     1      -7.427   4.860  66.875  1.00  0.00    -0.087 C  
BRANCH  46  47
HETATM   47  C   UNL     1      -7.901   3.470  67.317  1.00  0.00    -0.079 C  
BRANCH  47  48
HETATM   48  C   UNL     1      -9.226   3.486  68.082  1.00  0.00    -0.228 C  
HETATM   49  C   UNL     1      -9.194   2.538  69.274  1.00  0.00    -0.196 C  
ENDBRANCH  47  48
ENDBRANCH  46  47
ENDBRANCH  45  46
ENDBRANCH  44  45
ENDBRANCH  42  44
ENDBRANCH  41  42
ENDBRANCH  35  41
ENDBRANCH  20  22
ENDBRANCH   1  20
TORSDOF 9
ENDMDL
MODEL      118
REMARK 921   NORMALIZED FREE ENERGY PREDICTED BY IDOCK:   -0.74 KCAL/MOL
REMARK 922        TOTAL FREE ENERGY PREDICTED BY IDOCK:   -4.44 KCAL/MOL
REMARK 923 INTER-LIGAND FREE ENERGY PREDICTED BY IDOCK:   -3.91 KCAL/MOL
REMARK 924 INTRA-LIGAND FREE ENERGY PREDICTED BY IDOCK:   -0.53 KCAL/MOL
REMARK 927      BINDING AFFINITY PREDICTED BY RF-SCORE:    0.00 PKD
ROOT
HETATM    1  N   UNL     1     -11.006  13.518  67.361  1.00  0.00    -0.268 N  
HETATM    2  C   UNL     1     -11.303  14.776  67.859  1.00  0.00    -0.316 C  
HETATM    3  C   UNL     1      -6.266  14.762  68.802  1.00  0.00    -0.083 A  
HETATM    4  H   UNL     1     -11.128  13.419  66.354  1.00  0.00     0.000 HD 
HETATM    5  C   UNL     1     -11.826  16.421  71.051  1.00  0.00    -0.068 A  
HETATM    6  O   UNL     1     -12.203  15.404  67.242  1.00  0.00     0.282 OA 
HETATM    7  C   UNL     1     -12.731  14.960  72.748  1.00  0.00    -0.500 A  
HETATM    8  C   UNL     1     -10.537  15.491  69.006  1.00  0.00    -0.246 C  
HETATM    9  O   UNL     1     -10.615  16.910  68.663  1.00  0.00    -0.322 OA 
HETATM   10  C   UNL     1     -11.264  15.326  70.354  1.00  0.00    -0.325 A  
HETATM   11  C   UNL     1      -8.238  15.274  70.115  1.00  0.00     0.546 A  
HETATM   12  C   UNL     1      -9.037  15.232  68.963  1.00  0.00    -0.225 A  
HETATM   13  C   UNL     1     -11.414  14.057  70.924  1.00  0.00     0.194 A  
HETATM   14  C   UNL     1      -8.394  15.035  67.723  1.00  0.00    -0.158 A  
HETATM   15  C   UNL     1      -6.862  15.033  70.031  1.00  0.00    -0.126 A  
HETATM   16  H   UNL     1     -10.147  17.347  69.365  1.00  0.00     0.000 HD 
HETATM   17  C   UNL     1     -12.556  16.236  72.231  1.00  0.00    -0.277 A  
HETATM   18  C   UNL     1      -7.031  14.771  67.640  1.00  0.00    -0.204 A  
HETATM   19  C   UNL     1     -12.147  13.870  72.101  1.00  0.00     0.303 A  
ENDROOT
BRANCH   1  20
HETATM   20  N   UNL     1     -10.557  12.344  68.022  1.00  0.00    -0.214 NA 
HETATM   21  H   UNL     1     -10.934  12.021  68.914  1.00  0.00     0.000 HD 
BRANCH  20  22
HETATM   22  C   UNL     1      -9.613  11.718  67.371  1.00  0.00    -0.168 C  
HETATM   23  C   UNL     1      -7.256  10.817  67.164  1.00  0.00    -0.100 C  
HETATM   24  C   UNL     1      -7.845   9.397  67.318  1.00  0.00    -0.099 C  
HETATM   25  C   UNL     1      -9.310   9.512  67.713  1.00  0.00    -0.143 C  
HETATM   26  C   UNL     1      -8.049  11.924  67.341  1.00  0.00    -0.165 C  
HETATM   27  C   UNL     1      -5.769  10.681  66.773  1.00  0.00    -0.062 C  
HETATM   28  C   UNL     1      -9.945  10.436  66.681  1.00  0.00    -0.262 C  
HETATM   29  C   UNL     1      -7.149   8.619  68.455  1.00  0.00    -0.077 C  
HETATM   30  C   UNL     1      -5.411   9.563  65.667  1.00  0.00    -0.043 C  
HETATM   31  C   UNL     1      -6.343   8.286  65.559  1.00  0.00    -0.049 C  
HETATM   32  C   UNL     1      -6.330   7.462  64.172  1.00  0.00    -0.048 C  
HETATM   33  C   UNL     1      -5.169   6.416  64.155  1.00  0.00    -0.021 C  
HETATM   34  C   UNL     1      -5.815   5.022  64.305  1.00  0.00    -0.017 C  
HETATM   35  C   UNL     1      -7.195   5.344  64.874  1.00  0.00    -0.066 C  
HETATM   36  C   UNL     1      -7.755   8.742  65.912  1.00  0.00    -0.094 C  
HETATM   37  C   UNL     1      -7.607   6.530  63.955  1.00  0.00    -0.103 C  
HETATM   38  C   UNL     1      -8.840   7.683  65.752  1.00  0.00    -0.134 C  
HETATM   39  C   UNL     1      -8.899   7.203  64.347  1.00  0.00     0.719 C  
HETATM   40  C   UNL     1      -7.869   6.141  62.474  1.00  0.00    -0.093 C  
BRANCH  35  41
HETATM   41  O   UNL     1      -8.090   4.236  65.054  1.00  0.00    -0.096 OA 
BRANCH  41  42
HETATM   42  C   UNL     1      -7.453   3.176  65.655  1.00  0.00    -0.073 C  
HETATM   43  O   UNL     1      -6.646   2.457  65.073  1.00  0.00    -0.029 OA 
BRANCH  42  44
HETATM   44  C   UNL     1      -7.785   2.862  67.098  1.00  0.00    -0.074 C  
BRANCH  44  45
HETATM   45  C   UNL     1      -6.972   3.411  68.262  1.00  0.00    -0.050 C  
BRANCH  45  46
HETATM   46  C   UNL     1      -7.685   3.306  69.604  1.00  0.00    -0.044 C  
BRANCH  46  47
HETATM   47  C   UNL     1      -8.942   4.177  69.715  1.00  0.00    -0.156 C  
BRANCH  47  48
HETATM   48  C   UNL     1      -9.552   4.203  71.118  1.00  0.00    -0.249 C  
HETATM   49  C   UNL     1      -8.476   4.156  72.195  1.00  0.00    -0.110 C  
ENDBRANCH  47  48
ENDBRANCH  46  47
ENDBRANCH  45  46
ENDBRANCH  44  45
ENDBRANCH  42  44
ENDBRANCH  41  42
ENDBRANCH  35  41
ENDBRANCH  20  22
ENDBRANCH   1  20
TORSDOF 9
ENDMDL
MODEL      119
REMARK 921   NORMALIZED FREE ENERGY PREDICTED BY IDOCK:   -0.74 KCAL/MOL
REMARK 922        TOTAL FREE ENERGY PREDICTED BY IDOCK:   -4.44 KCAL/MOL
REMARK 923 INTER-LIGAND FREE ENERGY PREDICTED BY IDOCK:   -6.68 KCAL/MOL
REMARK 924 INTRA-LIGAND FREE ENERGY PREDICTED BY IDOCK:    2.24 KCAL/MOL
REMARK 927      BINDING AFFINITY PREDICTED BY RF-SCORE:    0.00 PKD
ROOT
HETATM    1  N   UNL     1     -10.141   5.992  72.150  1.00  0.00    -0.180 N  
HETATM    2  C   UNL     1      -9.277   5.896  73.230  1.00  0.00    -0.132 C  
HETATM    3  C   UNL     1      -6.065   8.075  69.884  1.00  0.00    -0.026 A  
HETATM    4  H   UNL     1     -10.922   6.633  72.286  1.00  0.00     0.000 HD 
HETATM    5  C   UNL     1      -6.544   3.811  74.392  1.00  0.00    -0.040 A  
HETATM    6  O   UNL     1      -9.805   6.059  74.361  1.00  0.00    -0.202 OA 
HETATM    7  C   UNL     1      -6.693   1.523  73.636  1.00  0.00    -0.018 A  
HETATM    8  C   UNL     1      -7.735   5.736  73.133  1.00  0.00    -0.099 C  
HETATM    9  O   UNL     1      -7.225   6.445  74.305  1.00  0.00    -0.089 OA 
HETATM   10  C   UNL     1      -7.313   4.264  73.293  1.00  0.00    -0.075 A  
HETATM   11  C   UNL     1      -5.938   6.154  71.357  1.00  0.00    -0.031 A  
HETATM   12  C   UNL     1      -7.132   6.536  71.985  1.00  0.00    -0.081 A  
HETATM   13  C   UNL     1      -7.709   3.309  72.351  1.00  0.00    -0.058 A  
HETATM   14  C   UNL     1      -7.725   7.753  71.589  1.00  0.00    -0.091 A  
HETATM   15  C   UNL     1      -5.414   6.919  70.307  1.00  0.00    -0.023 A  
HETATM   16  H   UNL     1      -6.282   6.348  74.246  1.00  0.00     0.000 HD 
HETATM   17  C   UNL     1      -6.244   2.455  74.561  1.00  0.00    -0.012 A  
HETATM   18  C   UNL     1      -7.220   8.500  70.532  1.00  0.00    -0.045 A  
HETATM   19  C   UNL     1      -7.414   1.952  72.522  1.00  0.00    -0.039 A  
ENDROOT
BRANCH   1  20
HETATM   20  N   UNL     1     -10.117   5.345  70.886  1.00  0.00    -0.207 NA 
HETATM   21  H   UNL     1     -10.436   4.388  70.738  1.00  0.00     0.000 HD 
BRANCH  20  22
HETATM   22  C   UNL     1      -9.643   6.102  69.932  1.00  0.00    -0.159 C  
HETATM   23  C   UNL     1      -8.886   6.487  67.548  1.00  0.00    -0.112 C  
HETATM   24  C   UNL     1     -10.165   7.327  67.336  1.00  0.00    -0.304 C  
HETATM   25  C   UNL     1     -11.072   7.156  68.545  1.00  0.00    -0.003 C  
HETATM   26  C   UNL     1      -8.701   5.780  68.710  1.00  0.00    -0.108 C  
HETATM   27  C   UNL     1      -7.983   6.666  66.308  1.00  0.00    -0.108 C  
HETATM   28  C   UNL     1     -10.207   7.474  69.758  1.00  0.00    -0.211 C  
HETATM   29  C   UNL     1     -10.970   6.829  66.117  1.00  0.00     1.220 C  
HETATM   30  C   UNL     1      -7.847   8.161  65.720  1.00  0.00    -0.096 C  
HETATM   31  C   UNL     1      -9.057   9.164  65.927  1.00  0.00    -0.256 C  
HETATM   32  C   UNL     1      -8.747  10.744  65.837  1.00  0.00    -0.189 C  
HETATM   33  C   UNL     1      -8.801  11.239  64.355  1.00  0.00     0.189 C  
HETATM   34  C   UNL     1     -10.092  12.074  64.205  1.00  0.00    -0.319 C  
HETATM   35  C   UNL     1     -10.928  11.629  65.402  1.00  0.00    -0.270 C  
HETATM   36  C   UNL     1      -9.699   8.807  67.264  1.00  0.00    -0.238 C  
HETATM   37  C   UNL     1      -9.852  11.666  66.526  1.00  0.00    -0.228 C  
HETATM   38  C   UNL     1     -10.819   9.737  67.716  1.00  0.00    -0.306 C  
HETATM   39  C   UNL     1     -10.320  11.129  67.855  1.00  0.00    -0.211 C  
HETATM   40  C   UNL     1      -9.354  13.090  66.897  1.00  0.00    -0.241 C  
BRANCH  35  41
HETATM   41  O   UNL     1     -12.183  12.299  65.592  1.00  0.00    -0.605 OA 
BRANCH  41  42
HETATM   42  C   UNL     1     -12.095  13.246  66.585  1.00  0.00    -0.361 C  
HETATM   43  O   UNL     1     -12.117  12.971  67.782  1.00  0.00    -0.318 OA 
BRANCH  42  44
HETATM   44  C   UNL     1     -11.994  14.701  66.183  1.00  0.00    -0.250 C  
BRANCH  44  45
HETATM   45  C   UNL     1     -10.992  15.197  65.152  1.00  0.00    -0.428 C  
BRANCH  45  46
HETATM   46  C   UNL     1     -11.016  16.708  64.958  1.00  0.00    -0.172 C  
BRANCH  46  47
HETATM   47  C   UNL     1     -10.111  17.478  65.928  1.00  0.00    -0.197 C  
BRANCH  47  48
HETATM   48  C   UNL     1     -10.558  18.920  66.175  1.00  0.00    -0.476 C  
HETATM   49  C   UNL     1      -9.675  19.610  67.206  1.00  0.00    -0.474 C  
ENDBRANCH  47  48
ENDBRANCH  46  47
ENDBRANCH  45  46
ENDBRANCH  44  45
ENDBRANCH  42  44
ENDBRANCH  41  42
ENDBRANCH  35  41
ENDBRANCH  20  22
ENDBRANCH   1  20
TORSDOF 9
ENDMDL
MODEL      120
REMARK 921   NORMALIZED FREE ENERGY PREDICTED BY IDOCK:   -0.69 KCAL/MOL
REMARK 922        TOTAL FREE ENERGY PREDICTED BY IDOCK:   -4.37 KCAL/MOL
REMARK 923 INTER-LIGAND FREE ENERGY PREDICTED BY IDOCK:   -5.60 KCAL/MOL
REMARK 924 INTRA-LIGAND FREE ENERGY PREDICTED BY IDOCK:    1.23 KCAL/MOL
REMARK 927      BINDING AFFINITY PREDICTED BY RF-SCORE:    0.00 PKD
ROOT
HETATM    1  N   UNL     1      -8.099   8.139  66.442  1.00  0.00    -0.103 N  
HETATM    2  C   UNL     1      -7.244   7.205  67.005  1.00  0.00    -0.091 C  
HETATM    3  C   UNL     1      -8.250   4.763  62.613  1.00  0.00    -0.087 A  
HETATM    4  H   UNL     1      -7.660   9.029  66.204  1.00  0.00     0.000 HD 
HETATM    5  C   UNL     1      -7.401   4.018  68.733  1.00  0.00    -0.055 A  
HETATM    6  O   UNL     1      -6.301   7.678  67.692  1.00  0.00    -0.047 OA 
HETATM    7  C   UNL     1      -9.420   3.726  70.026  1.00  0.00    -0.264 A  
HETATM    8  C   UNL     1      -7.292   5.674  66.744  1.00  0.00    -0.083 C  
HETATM    9  O   UNL     1      -5.896   5.249  66.829  1.00  0.00    -0.017 OA 
HETATM   10  C   UNL     1      -8.043   4.938  67.869  1.00  0.00    -0.093 A  
HETATM   11  C   UNL     1      -8.276   4.130  64.953  1.00  0.00    -0.098 A  
HETATM   12  C   UNL     1      -7.646   5.333  65.302  1.00  0.00    -0.082 A  
HETATM   13  C   UNL     1      -9.402   5.183  68.091  1.00  0.00    -0.148 A  
HETATM   14  C   UNL     1      -7.251   6.198  64.260  1.00  0.00    -0.061 A  
HETATM   15  C   UNL     1      -8.581   3.854  63.614  1.00  0.00    -0.096 A  
HETATM   16  H   UNL     1      -5.926   4.313  66.670  1.00  0.00     0.000 HD 
HETATM   17  C   UNL     1      -8.083   3.425  69.802  1.00  0.00    -0.060 A  
HETATM   18  C   UNL     1      -7.575   5.936  62.933  1.00  0.00    -0.080 A  
HETATM   19  C   UNL     1     -10.084   4.595  69.161  1.00  0.00    -0.144 A  
ENDROOT
BRANCH   1  20
HETATM   20  N   UNL     1      -9.485   8.063  66.143  1.00  0.00    -0.384 NA 
HETATM   21  H   UNL     1      -9.853   7.642  65.289  1.00  0.00     0.000 HD 
BRANCH  20  22
HETATM   22  C   UNL     1     -10.239   8.587  67.072  1.00  0.00    -0.301 C  
HETATM   23  C   UNL     1     -11.070   8.741  69.458  1.00  0.00     0.006 C  
HETATM   24  C   UNL     1     -10.300  10.074  69.582  1.00  0.00    -0.274 C  
HETATM   25  C   UNL     1      -9.421  10.251  68.352  1.00  0.00    -0.149 C  
HETATM   26  C   UNL     1     -10.928   7.954  68.341  1.00  0.00     0.150 C  
HETATM   27  C   UNL     1     -11.948   8.574  70.717  1.00  0.00    -0.129 C  
HETATM   28  C   UNL     1     -10.347  10.074  67.155  1.00  0.00    -0.300 C  
HETATM   29  C   UNL     1      -9.347  10.063  70.796  1.00  0.00     0.557 C  
HETATM   30  C   UNL     1     -12.733   9.886  71.231  1.00  0.00    -0.482 C  
HETATM   31  C   UNL     1     -12.101  11.307  70.931  1.00  0.00    -0.406 C  
HETATM   32  C   UNL     1     -13.084  12.586  70.950  1.00  0.00     0.066 C  
HETATM   33  C   UNL     1     -13.245  13.144  72.400  1.00  0.00    -0.519 C  
HETATM   34  C   UNL     1     -12.463  14.474  72.463  1.00  0.00    -0.340 C  
HETATM   35  C   UNL     1     -11.525  14.375  71.262  1.00  0.00     0.161 C  
HETATM   36  C   UNL     1     -11.377  11.192  69.592  1.00  0.00    -0.366 C  
HETATM   37  C   UNL     1     -12.513  13.860  70.176  1.00  0.00    -0.355 C  
HETATM   38  C   UNL     1     -10.795  12.494  69.054  1.00  0.00    -0.183 C  
HETATM   39  C   UNL     1     -11.864  13.506  68.861  1.00  0.00    -0.384 C  
HETATM   40  C   UNL     1     -13.598  14.886  69.749  1.00  0.00     1.480 C  
BRANCH  35  41
HETATM   41  O   UNL     1     -10.703  15.521  70.994  1.00  0.00    -0.267 OA 
BRANCH  41  42
HETATM   42  C   UNL     1      -9.908  15.314  69.891  1.00  0.00    -0.121 C  
HETATM   43  O   UNL     1      -9.200  14.322  69.748  1.00  0.00     0.567 OA 
BRANCH  42  44
HETATM   44  C   UNL     1      -9.882  16.377  68.814  1.00  0.00    -0.250 C  
BRANCH  44  45
HETATM   45  C   UNL     1      -8.615  17.135  68.444  1.00  0.00    -0.246 C  
BRANCH  45  46
HETATM   46  C   UNL     1      -8.357  17.190  66.944  1.00  0.00    -0.252 C  
BRANCH  46  47
HETATM   47  C   UNL     1      -8.080  18.600  66.407  1.00  0.00    -0.300 C  
BRANCH  47  48
HETATM   48  C   UNL     1      -8.882  19.695  67.111  1.00  0.00    -0.374 C  
HETATM   49  C   UNL     1     -10.187  19.987  66.383  1.00  0.00    -0.598 C  
ENDBRANCH  47  48
ENDBRANCH  46  47
ENDBRANCH  45  46
ENDBRANCH  44  45
ENDBRANCH  42  44
ENDBRANCH  41  42
ENDBRANCH  35  41
ENDBRANCH  20  22
ENDBRANCH   1  20
TORSDOF 9
ENDMDL
MODEL      121
REMARK 921   NORMALIZED FREE ENERGY PREDICTED BY IDOCK:   -0.55 KCAL/MOL
REMARK 922        TOTAL FREE ENERGY PREDICTED BY IDOCK:   -4.16 KCAL/MOL
REMARK 923 INTER-LIGAND FREE ENERGY PREDICTED BY IDOCK:   -8.17 KCAL/MOL
REMARK 924 INTRA-LIGAND FREE ENERGY PREDICTED BY IDOCK:    4.01 KCAL/MOL
REMARK 927      BINDING AFFINITY PREDICTED BY RF-SCORE:    0.00 PKD
ROOT
HETATM    1  N   UNL     1      -6.733   3.948  68.910  1.00  0.00    -0.044 N  
HETATM    2  C   UNL     1      -7.632   2.945  69.238  1.00  0.00    -0.047 C  
HETATM    3  C   UNL     1     -10.963   6.803  68.712  1.00  0.00    -0.267 A  
HETATM    4  H   UNL     1      -6.266   3.823  68.012  1.00  0.00     0.000 HD 
HETATM    5  C   UNL     1      -9.536   1.783  72.100  1.00  0.00    -0.158 A  
HETATM    6  O   UNL     1      -7.351   1.800  68.797  1.00  0.00    -0.043 OA 
HETATM    7  C   UNL     1      -8.462   2.236  74.216  1.00  0.00    -0.059 A  
HETATM    8  C   UNL     1      -8.983   3.157  69.976  1.00  0.00    -0.103 C  
HETATM    9  O   UNL     1      -9.862   2.131  69.421  1.00  0.00     0.065 OA 
HETATM   10  C   UNL     1      -8.853   2.856  71.480  1.00  0.00    -0.128 A  
HETATM   11  C   UNL     1     -10.565   5.124  70.413  1.00  0.00    -0.225 A  
HETATM   12  C   UNL     1      -9.685   4.444  69.559  1.00  0.00    -0.280 A  
HETATM   13  C   UNL     1      -8.016   3.635  72.288  1.00  0.00    -0.068 A  
HETATM   14  C   UNL     1      -9.534   4.932  68.245  1.00  0.00    -0.182 A  
HETATM   15  C   UNL     1     -11.193   6.301  69.990  1.00  0.00    -0.480 A  
HETATM   16  H   UNL     1     -10.688   2.261  69.872  1.00  0.00     0.000 HD 
HETATM   17  C   UNL     1      -9.336   1.476  73.451  1.00  0.00    -0.077 A  
HETATM   18  C   UNL     1     -10.138   6.113  67.831  1.00  0.00    -0.179 A  
HETATM   19  C   UNL     1      -7.813   3.327  73.637  1.00  0.00    -0.066 A  
ENDROOT
BRANCH   1  20
HETATM   20  N   UNL     1      -6.357   5.120  69.617  1.00  0.00    -0.029 NA 
HETATM   21  H   UNL     1      -5.440   5.248  70.046  1.00  0.00     0.000 HD 
BRANCH  20  22
HETATM   22  C   UNL     1      -7.305   6.018  69.662  1.00  0.00    -0.079 C  
HETATM   23  C   UNL     1      -8.610   7.837  70.842  1.00  0.00    -0.128 C  
HETATM   24  C   UNL     1      -7.934   8.858  69.901  1.00  0.00    -0.108 C  
HETATM   25  C   UNL     1      -6.830   8.154  69.124  1.00  0.00    -0.055 C  
HETATM   26  C   UNL     1      -8.213   6.523  70.848  1.00  0.00    -0.125 C  
HETATM   27  C   UNL     1      -9.719   8.571  71.628  1.00  0.00    -0.322 C  
HETATM   28  C   UNL     1      -7.485   6.931  68.494  1.00  0.00    -0.096 C  
HETATM   29  C   UNL     1      -7.249   9.990  70.695  1.00  0.00     0.051 C  
HETATM   30  C   UNL     1     -10.643   9.594  70.791  1.00  0.00    -0.392 C  
HETATM   31  C   UNL     1     -10.018  10.304  69.520  1.00  0.00    -0.252 C  
HETATM   32  C   UNL     1     -11.033  10.881  68.406  1.00  0.00    -0.288 C  
HETATM   33  C   UNL     1     -11.509  12.322  68.778  1.00  0.00    -0.360 C  
HETATM   34  C   UNL     1     -10.808  13.294  67.804  1.00  0.00    -0.268 C  
HETATM   35  C   UNL     1      -9.642  12.464  67.273  1.00  0.00    -0.199 C  
HETATM   36  C   UNL     1      -9.033   9.316  68.904  1.00  0.00    -0.136 C  
HETATM   37  C   UNL     1     -10.367  11.119  66.977  1.00  0.00    -0.263 C  
HETATM   38  C   UNL     1      -8.404   9.759  67.588  1.00  0.00    -0.114 C  
HETATM   39  C   UNL     1      -9.450   9.995  66.561  1.00  0.00    -0.222 C  
HETATM   40  C   UNL     1     -11.380  11.177  65.801  1.00  0.00     0.122 C  
BRANCH  35  41
HETATM   41  O   UNL     1      -8.827  13.075  66.261  1.00  0.00    -0.004 OA 
BRANCH  41  42
HETATM   42  C   UNL     1      -9.482  14.126  65.665  1.00  0.00     0.043 C  
HETATM   43  O   UNL     1     -10.390  13.980  64.852  1.00  0.00    -0.404 OA 
BRANCH  42  44
HETATM   44  C   UNL     1      -9.043  15.534  66.005  1.00  0.00    -0.316 C  
BRANCH  44  45
HETATM   45  C   UNL     1      -9.981  16.553  66.636  1.00  0.00    -0.284 C  
BRANCH  45  46
HETATM   46  C   UNL     1      -9.577  16.957  68.048  1.00  0.00    -0.247 C  
BRANCH  46  47
HETATM   47  C   UNL     1      -8.952  18.354  68.145  1.00  0.00    -0.325 C  
BRANCH  47  48
HETATM   48  C   UNL     1      -9.967  19.466  68.419  1.00  0.00    -0.527 C  
HETATM   49  C   UNL     1     -10.217  20.312  67.177  1.00  0.00    -0.500 C  
ENDBRANCH  47  48
ENDBRANCH  46  47
ENDBRANCH  45  46
ENDBRANCH  44  45
ENDBRANCH  42  44
ENDBRANCH  41  42
ENDBRANCH  35  41
ENDBRANCH  20  22
ENDBRANCH   1  20
TORSDOF 9
ENDMDL
MODEL      122
REMARK 921   NORMALIZED FREE ENERGY PREDICTED BY IDOCK:   -0.38 KCAL/MOL
REMARK 922        TOTAL FREE ENERGY PREDICTED BY IDOCK:   -3.90 KCAL/MOL
REMARK 923 INTER-LIGAND FREE ENERGY PREDICTED BY IDOCK:   -5.66 KCAL/MOL
REMARK 924 INTRA-LIGAND FREE ENERGY PREDICTED BY IDOCK:    1.76 KCAL/MOL
REMARK 927      BINDING AFFINITY PREDICTED BY RF-SCORE:    0.00 PKD
ROOT
HETATM    1  N   UNL     1     -10.479   7.130  70.352  1.00  0.00    -0.214 N  
HETATM    2  C   UNL     1     -10.964   6.106  71.151  1.00  0.00    -0.284 C  
HETATM    3  C   UNL     1      -7.333   7.870  74.307  1.00  0.00    -0.192 A  
HETATM    4  H   UNL     1     -11.137   7.891  70.189  1.00  0.00     0.000 HD 
HETATM    5  C   UNL     1     -10.081   2.727  72.134  1.00  0.00    -0.210 A  
HETATM    6  O   UNL     1     -12.203   5.898  71.069  1.00  0.00     0.367 OA 
HETATM    7  C   UNL     1      -8.839   1.529  70.445  1.00  0.00    -0.118 A  
HETATM    8  C   UNL     1     -10.134   5.316  72.199  1.00  0.00    -0.190 C  
HETATM    9  O   UNL     1     -11.095   4.993  73.251  1.00  0.00    -0.289 OA 
HETATM   10  C   UNL     1      -9.642   3.974  71.627  1.00  0.00    -0.230 A  
HETATM   11  C   UNL     1      -7.946   5.676  73.482  1.00  0.00    -0.112 A  
HETATM   12  C   UNL     1      -9.130   6.193  72.937  1.00  0.00    -0.131 A  
HETATM   13  C   UNL     1      -8.749   3.949  70.550  1.00  0.00    -0.123 A  
HETATM   14  C   UNL     1      -9.426   7.551  73.175  1.00  0.00    -0.272 A  
HETATM   15  C   UNL     1      -7.052   6.515  74.156  1.00  0.00    -0.088 A  
HETATM   16  H   UNL     1     -10.587   4.509  73.892  1.00  0.00     0.000 HD 
HETATM   17  C   UNL     1      -9.687   1.521  71.543  1.00  0.00    -0.206 A  
HETATM   18  C   UNL     1      -8.529   8.391  73.823  1.00  0.00    -0.161 A  
HETATM   19  C   UNL     1      -8.358   2.744  69.956  1.00  0.00    -0.077 A  
ENDROOT
BRANCH   1  20
HETATM   20  N   UNL     1      -9.216   7.294  69.725  1.00  0.00    -0.141 NA 
HETATM   21  H   UNL     1      -8.402   6.718  69.940  1.00  0.00     0.000 HD 
BRANCH  20  22
HETATM   22  C   UNL     1      -9.202   8.260  68.845  1.00  0.00    -0.147 C  
HETATM   23  C   UNL     1     -10.300   9.672  67.054  1.00  0.00    -0.315 C  
HETATM   24  C   UNL     1     -10.330  10.837  68.068  1.00  0.00    -0.211 C  
HETATM   25  C   UNL     1      -9.935  10.306  69.439  1.00  0.00    -0.254 C  
HETATM   26  C   UNL     1      -9.916   8.414  67.448  1.00  0.00    -0.274 C  
HETATM   27  C   UNL     1     -10.712  10.227  65.673  1.00  0.00     0.082 C  
HETATM   28  C   UNL     1      -8.614   9.577  69.234  1.00  0.00    -0.149 C  
HETATM   29  C   UNL     1     -11.754  11.414  68.221  1.00  0.00    -0.359 C  
HETATM   30  C   UNL     1     -10.083  11.650  65.248  1.00  0.00    -0.305 C  
HETATM   31  C   UNL     1      -9.700  12.675  66.393  1.00  0.00    -0.259 C  
HETATM   32  C   UNL     1      -8.621  13.823  66.044  1.00  0.00     0.966 C  
HETATM   33  C   UNL     1      -9.315  15.061  65.390  1.00  0.00     0.249 C  
HETATM   34  C   UNL     1      -9.311  16.190  66.443  1.00  0.00    -0.329 C  
HETATM   35  C   UNL     1      -9.080  15.437  67.751  1.00  0.00    -0.178 C  
HETATM   36  C   UNL     1      -9.251  11.847  67.593  1.00  0.00    -0.183 C  
HETATM   37  C   UNL     1      -7.930  14.479  67.324  1.00  0.00    -0.216 C  
HETATM   38  C   UNL     1      -8.719  12.650  68.775  1.00  0.00     0.169 C  
HETATM   39  C   UNL     1      -7.544  13.463  68.370  1.00  0.00    -0.133 C  
HETATM   40  C   UNL     1      -6.578  15.184  67.028  1.00  0.00     0.469 C  
BRANCH  35  41
HETATM   41  O   UNL     1      -8.941  16.236  68.936  1.00  0.00    -0.227 OA 
BRANCH  41  42
HETATM   42  C   UNL     1      -8.237  17.388  68.678  1.00  0.00    -0.264 C  
HETATM   43  O   UNL     1      -8.015  18.246  69.527  1.00  0.00     0.238 OA 
BRANCH  42  44
HETATM   44  C   UNL     1      -7.738  17.625  67.269  1.00  0.00    -0.222 C  
BRANCH  44  45
HETATM   45  C   UNL     1      -7.099  18.937  66.839  1.00  0.00    -0.215 C  
BRANCH  45  46
HETATM   46  C   UNL     1      -8.108  20.051  66.587  1.00  0.00    -0.351 C  
BRANCH  46  47
HETATM   47  C   UNL     1      -9.220  19.677  65.599  1.00  0.00     0.235 C  
BRANCH  47  48
HETATM   48  C   UNL     1     -10.604  19.572  66.240  1.00  0.00    -0.580 C  
HETATM   49  C   UNL     1     -10.660  20.307  67.574  1.00  0.00    -0.223 C  
ENDBRANCH  47  48
ENDBRANCH  46  47
ENDBRANCH  45  46
ENDBRANCH  44  45
ENDBRANCH  42  44
ENDBRANCH  41  42
ENDBRANCH  35  41
ENDBRANCH  20  22
ENDBRANCH   1  20
TORSDOF 9
ENDMDL
MODEL      123
REMARK 921   NORMALIZED FREE ENERGY PREDICTED BY IDOCK:   -0.27 KCAL/MOL
REMARK 922        TOTAL FREE ENERGY PREDICTED BY IDOCK:   -3.72 KCAL/MOL
REMARK 923 INTER-LIGAND FREE ENERGY PREDICTED BY IDOCK:   -2.55 KCAL/MOL
REMARK 924 INTRA-LIGAND FREE ENERGY PREDICTED BY IDOCK:   -1.17 KCAL/MOL
REMARK 927      BINDING AFFINITY PREDICTED BY RF-SCORE:    0.00 PKD
ROOT
HETATM    1  N   UNL     1      -6.001   7.176  67.381  1.00  0.00    -0.028 N  
HETATM    2  C   UNL     1      -6.068   5.820  67.103  1.00  0.00    -0.022 C  
HETATM    3  C   UNL     1     -11.087   6.851  67.049  1.00  0.00    -0.315 A  
HETATM    4  H   UNL     1      -5.566   7.739  66.651  1.00  0.00     0.000 HD 
HETATM    5  C   UNL     1      -6.799   2.695  68.797  1.00  0.00    -0.037 A  
HETATM    6  O   UNL     1      -5.133   5.366  66.393  1.00  0.00    -0.005 OA 
HETATM    7  C   UNL     1      -6.234   2.720  71.144  1.00  0.00    -0.018 A  
HETATM    8  C   UNL     1      -7.247   4.883  67.485  1.00  0.00    -0.070 C  
HETATM    9  O   UNL     1      -7.291   3.899  66.406  1.00  0.00    -0.073 OA 
HETATM   10  C   UNL     1      -6.946   4.102  68.778  1.00  0.00    -0.047 A  
HETATM   11  C   UNL     1      -9.710   5.173  68.125  1.00  0.00    -0.190 A  
HETATM   12  C   UNL     1      -8.604   5.563  67.357  1.00  0.00    -0.108 A  
HETATM   13  C   UNL     1      -6.779   4.780  69.991  1.00  0.00    -0.037 A  
HETATM   14  C   UNL     1      -8.803   6.554  66.373  1.00  0.00    -0.149 A  
HETATM   15  C   UNL     1     -10.942   5.821  67.974  1.00  0.00    -0.145 A  
HETATM   16  H   UNL     1      -8.011   3.326  66.639  1.00  0.00     0.000 HD 
HETATM   17  C   UNL     1      -6.441   2.016  69.967  1.00  0.00    -0.028 A  
HETATM   18  C   UNL     1     -10.018   7.215  66.238  1.00  0.00     0.032 A  
HETATM   19  C   UNL     1      -6.417   4.103  71.160  1.00  0.00    -0.026 A  
ENDROOT
BRANCH   1  20
HETATM   20  N   UNL     1      -6.440   7.911  68.515  1.00  0.00    -0.051 NA 
HETATM   21  H   UNL     1      -5.914   7.966  69.387  1.00  0.00     0.000 HD 
BRANCH  20  22
HETATM   22  C   UNL     1      -7.586   8.508  68.326  1.00  0.00    -0.097 C  
HETATM   23  C   UNL     1      -9.668   9.675  69.170  1.00  0.00    -0.180 C  
HETATM   24  C   UNL     1      -9.091  10.993  68.607  1.00  0.00    -0.174 C  
HETATM   25  C   UNL     1      -7.649  10.756  68.180  1.00  0.00    -0.093 C  
HETATM   26  C   UNL     1      -8.909   8.531  69.183  1.00  0.00    -0.142 C  
HETATM   27  C   UNL     1     -11.126   9.937  69.606  1.00  0.00    -0.279 C  
HETATM   28  C   UNL     1      -7.687   9.545  67.256  1.00  0.00    -0.091 C  
HETATM   29  C   UNL     1      -9.046  12.095  69.687  1.00  0.00     1.816 C  
HETATM   30  C   UNL     1     -12.031  10.824  68.610  1.00  0.00    -0.103 C  
HETATM   31  C   UNL     1     -11.311  11.897  67.692  1.00  0.00    -0.372 C  
HETATM   32  C   UNL     1     -12.082  12.389  66.364  1.00  0.00    -0.215 C  
HETATM   33  C   UNL     1     -13.061  13.563  66.689  1.00  0.00     1.375 C  
HETATM   34  C   UNL     1     -12.437  14.847  66.100  1.00  0.00     0.305 C  
HETATM   35  C   UNL     1     -10.972  14.461  65.913  1.00  0.00    -0.312 C  
HETATM   36  C   UNL     1      -9.937  11.329  67.349  1.00  0.00    -0.206 C  
HETATM   37  C   UNL     1     -11.134  13.054  65.267  1.00  0.00    -0.311 C  
HETATM   38  C   UNL     1      -9.118  12.158  66.366  1.00  0.00    -0.177 C  
HETATM   39  C   UNL     1      -9.839  12.303  65.076  1.00  0.00    -0.158 C  
HETATM   40  C   UNL     1     -11.728  13.066  63.831  1.00  0.00    -0.531 C  
BRANCH  35  41
HETATM   41  O   UNL     1     -10.125  15.439  65.292  1.00  0.00    -0.349 OA 
BRANCH  41  42
HETATM   42  C   UNL     1     -10.220  16.654  65.929  1.00  0.00    -0.340 C  
HETATM   43  O   UNL     1     -10.793  17.625  65.443  1.00  0.00    -0.541 OA 
BRANCH  42  44
HETATM   44  C   UNL     1      -9.561  16.811  67.282  1.00  0.00    -0.234 C  
BRANCH  44  45
HETATM   45  C   UNL     1      -8.050  16.868  67.453  1.00  0.00    -0.193 C  
BRANCH  45  46
HETATM   46  C   UNL     1      -7.532  15.978  68.576  1.00  0.00    -0.156 C  
BRANCH  46  47
HETATM   47  C   UNL     1      -7.692  14.476  68.309  1.00  0.00    -0.126 C  
BRANCH  47  48
HETATM   48  C   UNL     1      -6.932  13.984  67.076  1.00  0.00     0.657 C  
HETATM   49  C   UNL     1      -5.652  13.255  67.463  1.00  0.00    -0.007 C  
ENDBRANCH  47  48
ENDBRANCH  46  47
ENDBRANCH  45  46
ENDBRANCH  44  45
ENDBRANCH  42  44
ENDBRANCH  41  42
ENDBRANCH  35  41
ENDBRANCH  20  22
ENDBRANCH   1  20
TORSDOF 9
ENDMDL
MODEL      124
REMARK 921   NORMALIZED FREE ENERGY PREDICTED BY IDOCK:    0.15 KCAL/MOL
REMARK 922        TOTAL FREE ENERGY PREDICTED BY IDOCK:   -3.09 KCAL/MOL
REMARK 923 INTER-LIGAND FREE ENERGY PREDICTED BY IDOCK:   -6.51 KCAL/MOL
REMARK 924 INTRA-LIGAND FREE ENERGY PREDICTED BY IDOCK:    3.42 KCAL/MOL
REMARK 927      BINDING AFFINITY PREDICTED BY RF-SCORE:    0.00 PKD
ROOT
HETATM    1  N   UNL     1     -10.296   7.828  67.183  1.00  0.00    -0.290 N  
HETATM    2  C   UNL     1     -10.207   6.456  67.362  1.00  0.00    -0.178 C  
HETATM    3  C   UNL     1     -10.096   7.873  72.286  1.00  0.00    -0.297 A  
HETATM    4  H   UNL     1     -11.182   8.149  66.792  1.00  0.00     0.000 HD 
HETATM    5  C   UNL     1      -7.707   3.933  68.104  1.00  0.00    -0.066 A  
HETATM    6  O   UNL     1     -10.854   5.759  66.537  1.00  0.00    -0.276 OA 
HETATM    7  C   UNL     1      -5.503   4.499  67.294  1.00  0.00    -0.013 A  
HETATM    8  C   UNL     1      -9.496   5.752  68.551  1.00  0.00    -0.123 C  
HETATM    9  O   UNL     1     -10.276   4.536  68.768  1.00  0.00    -0.040 OA 
HETATM   10  C   UNL     1      -8.076   5.298  68.164  1.00  0.00    -0.095 A  
HETATM   11  C   UNL     1      -8.744   6.406  70.910  1.00  0.00    -0.136 A  
HETATM   12  C   UNL     1      -9.679   6.493  69.869  1.00  0.00    -0.176 A  
HETATM   13  C   UNL     1      -7.099   6.242  67.829  1.00  0.00    -0.081 A  
HETATM   14  C   UNL     1     -10.865   7.218  70.108  1.00  0.00    -0.274 A  
HETATM   15  C   UNL     1      -8.952   7.101  72.108  1.00  0.00    -0.142 A  
HETATM   16  H   UNL     1      -9.842   4.105  69.495  1.00  0.00     0.000 HD 
HETATM   17  C   UNL     1      -6.436   3.542  67.668  1.00  0.00    -0.037 A  
HETATM   18  C   UNL     1     -11.062   7.927  71.287  1.00  0.00    -0.278 A  
HETATM   19  C   UNL     1      -5.830   5.851  67.389  1.00  0.00    -0.017 A  
ENDROOT
BRANCH   1  20
HETATM   20  N   UNL     1      -9.358   8.859  67.453  1.00  0.00    -0.134 NA 
HETATM   21  H   UNL     1      -8.544   8.735  68.056  1.00  0.00     0.000 HD 
BRANCH  20  22
HETATM   22  C   UNL     1      -9.644   9.983  66.851  1.00  0.00    -0.175 C  
HETATM   23  C   UNL     1     -11.286  11.643  65.873  1.00  0.00    -0.296 C  
HETATM   24  C   UNL     1     -10.976  12.570  67.070  1.00  0.00    -0.306 C  
HETATM   25  C   UNL     1     -10.142  11.801  68.085  1.00  0.00    -0.196 C  
HETATM   26  C   UNL     1     -10.788  10.364  65.834  1.00  0.00     0.079 C  
HETATM   27  C   UNL     1     -12.139  12.436  64.861  1.00  0.00    -0.470 C  
HETATM   28  C   UNL     1      -8.964  11.233  67.304  1.00  0.00    -0.149 C  
HETATM   29  C   UNL     1     -12.267  12.993  67.803  1.00  0.00    -0.079 C  
HETATM   30  C   UNL     1     -11.695  13.960  64.575  1.00  0.00    -0.430 C  
HETATM   31  C   UNL     1     -10.952  14.755  65.727  1.00  0.00    -0.334 C  
HETATM   32  C   UNL     1     -10.057  16.029  65.304  1.00  0.00    -0.158 C  
HETATM   33  C   UNL     1     -10.934  17.318  65.200  1.00  0.00     0.118 C  
HETATM   34  C   UNL     1     -10.579  18.204  66.414  1.00  0.00    -0.288 C  
HETATM   35  C   UNL     1      -9.920  17.219  67.375  1.00  0.00    -0.278 C  
HETATM   36  C   UNL     1     -10.123  13.736  66.501  1.00  0.00    -0.286 C  
HETATM   37  C   UNL     1      -8.978  16.460  66.397  1.00  0.00    -0.340 C  
HETATM   38  C   UNL     1      -9.227  14.317  67.589  1.00  0.00    -0.194 C  
HETATM   39  C   UNL     1      -8.260  15.283  67.009  1.00  0.00    -0.267 C  
HETATM   40  C   UNL     1      -7.806  17.312  65.836  1.00  0.00    -0.054 C  
BRANCH  35  41
HETATM   41  O   UNL     1      -9.393  17.766  68.594  1.00  0.00    -0.286 OA 
BRANCH  41  42
HETATM   42  C   UNL     1      -8.054  17.484  68.726  1.00  0.00    -0.232 C  
HETATM   43  O   UNL     1      -7.181  18.034  68.060  1.00  0.00    -0.218 OA 
BRANCH  42  44
HETATM   44  C   UNL     1      -7.637  16.422  69.720  1.00  0.00     0.418 C  
BRANCH  44  45
HETATM   45  C   UNL     1      -8.457  15.163  69.963  1.00  0.00     0.375 C  
BRANCH  45  46
HETATM   46  C   UNL     1      -9.646  15.382  70.891  1.00  0.00     1.495 C  
BRANCH  46  47
HETATM   47  C   UNL     1     -11.009  15.288  70.195  1.00  0.00    -0.312 C  
BRANCH  47  48
HETATM   48  C   UNL     1     -12.057  14.514  70.995  1.00  0.00    -0.409 C  
HETATM   49  C   UNL     1     -13.283  15.370  71.285  1.00  0.00    -0.585 C  
ENDBRANCH  47  48
ENDBRANCH  46  47
ENDBRANCH  45  46
ENDBRANCH  44  45
ENDBRANCH  42  44
ENDBRANCH  41  42
ENDBRANCH  35  41
ENDBRANCH  20  22
ENDBRANCH   1  20
TORSDOF 9
ENDMDL
MODEL      125
REMARK 921   NORMALIZED FREE ENERGY PREDICTED BY IDOCK:    0.19 KCAL/MOL
REMARK 922        TOTAL FREE ENERGY PREDICTED BY IDOCK:   -3.02 KCAL/MOL
REMARK 923 INTER-LIGAND FREE ENERGY PREDICTED BY IDOCK:   -5.59 KCAL/MOL
REMARK 924 INTRA-LIGAND FREE ENERGY PREDICTED BY IDOCK:    2.58 KCAL/MOL
REMARK 927      BINDING AFFINITY PREDICTED BY RF-SCORE:    0.00 PKD
ROOT
HETATM    1  N   UNL     1     -11.354  12.100  68.437  1.00  0.00    -0.260 N  
HETATM    2  C   UNL     1     -11.232  13.169  67.564  1.00  0.00    -0.282 C  
HETATM    3  C   UNL     1      -7.486  10.225  65.680  1.00  0.00    -0.149 A  
HETATM    4  H   UNL     1     -12.226  11.577  68.352  1.00  0.00     0.000 HD 
HETATM    5  C   UNL     1      -9.118  16.072  67.045  1.00  0.00    -0.234 A  
HETATM    6  O   UNL     1     -12.311  13.738  67.250  1.00  0.00    -0.337 OA 
HETATM    7  C   UNL     1      -8.181  16.955  69.088  1.00  0.00    -0.066 A  
HETATM    8  C   UNL     1      -9.916  13.615  66.870  1.00  0.00    -0.260 C  
HETATM    9  O   UNL     1     -10.350  14.140  65.577  1.00  0.00    -0.316 OA 
HETATM   10  C   UNL     1      -9.255  14.786  67.619  1.00  0.00    -0.191 A  
HETATM   11  C   UNL     1      -7.646  12.549  66.346  1.00  0.00     0.782 A  
HETATM   12  C   UNL     1      -9.039  12.437  66.461  1.00  0.00    -0.181 A  
HETATM   13  C   UNL     1      -8.787  14.615  68.927  1.00  0.00    -0.136 A  
HETATM   14  C   UNL     1      -9.635  11.214  66.090  1.00  0.00    -0.239 A  
HETATM   15  C   UNL     1      -6.877  11.444  65.964  1.00  0.00     0.237 A  
HETATM   16  H   UNL     1      -9.545  14.412  65.152  1.00  0.00     0.000 HD 
HETATM   17  C   UNL     1      -8.592  17.144  67.776  1.00  0.00    -0.216 A  
HETATM   18  C   UNL     1      -8.871  10.109  65.734  1.00  0.00    -0.177 A  
HETATM   19  C   UNL     1      -8.265  15.686  69.659  1.00  0.00    -0.068 A  
ENDROOT
BRANCH   1  20
HETATM   20  N   UNL     1     -10.465  11.611  69.431  1.00  0.00    -0.436 NA 
HETATM   21  H   UNL     1     -10.570  11.809  70.426  1.00  0.00     0.000 HD 
BRANCH  20  22
HETATM   22  C   UNL     1      -9.499  10.882  68.940  1.00  0.00    -0.172 C  
HETATM   23  C   UNL     1      -7.294   9.656  69.145  1.00  0.00    -0.077 C  
HETATM   24  C   UNL     1      -8.086   8.332  69.078  1.00  0.00    -0.117 C  
HETATM   25  C   UNL     1      -9.572   8.643  69.180  1.00  0.00    -0.163 C  
HETATM   26  C   UNL     1      -7.950  10.859  69.237  1.00  0.00    -0.076 C  
HETATM   27  C   UNL     1      -5.789   9.321  69.050  1.00  0.00    -0.039 C  
HETATM   28  C   UNL     1      -9.849   9.691  68.109  1.00  0.00    -0.172 C  
HETATM   29  C   UNL     1      -7.753   7.415  70.274  1.00  0.00    -0.093 C  
HETATM   30  C   UNL     1      -5.363   8.209  67.963  1.00  0.00    -0.034 C  
HETATM   31  C   UNL     1      -6.415   7.087  67.581  1.00  0.00    -0.051 C  
HETATM   32  C   UNL     1      -6.225   6.328  66.171  1.00  0.00    -0.037 C  
HETATM   33  C   UNL     1      -5.237   5.126  66.313  1.00  0.00    -0.008 C  
HETATM   34  C   UNL     1      -6.082   3.835  66.233  1.00  0.00    -0.028 C  
HETATM   35  C   UNL     1      -7.493   4.331  66.536  1.00  0.00    -0.081 C  
HETATM   36  C   UNL     1      -7.796   7.729  67.676  1.00  0.00    -0.123 C  
HETATM   37  C   UNL     1      -7.543   5.602  65.638  1.00  0.00    -0.086 C  
HETATM   38  C   UNL     1      -8.955   6.847  67.229  1.00  0.00    -0.118 C  
HETATM   39  C   UNL     1      -8.786   6.439  65.811  1.00  0.00    -0.135 C  
HETATM   40  C   UNL     1      -7.541   5.316  64.111  1.00  0.00    -0.071 C  
BRANCH  35  41
HETATM   41  O   UNL     1      -8.546   3.359  66.455  1.00  0.00    -0.106 OA 
BRANCH  41  42
HETATM   42  C   UNL     1      -9.763   3.918  66.765  1.00  0.00    -0.162 C  
HETATM   43  O   UNL     1     -10.653   4.095  65.938  1.00  0.00    -0.061 OA 
BRANCH  42  44
HETATM   44  C   UNL     1     -10.007   4.366  68.190  1.00  0.00    -0.068 C  
BRANCH  44  45
HETATM   45  C   UNL     1      -9.452   3.613  69.389  1.00  0.00    -0.249 C  
BRANCH  45  46
HETATM   46  C   UNL     1      -9.712   4.310  70.719  1.00  0.00    -0.274 C  
BRANCH  46  47
HETATM   47  C   UNL     1      -8.769   3.878  71.848  1.00  0.00    -0.120 C  
BRANCH  47  48
HETATM   48  C   UNL     1      -9.490   3.503  73.144  1.00  0.00    -0.135 C  
HETATM   49  C   UNL     1     -10.202   2.161  73.019  1.00  0.00    -0.206 C  
ENDBRANCH  47  48
ENDBRANCH  46  47
ENDBRANCH  45  46
ENDBRANCH  44  45
ENDBRANCH  42  44
ENDBRANCH  41  42
ENDBRANCH  35  41
ENDBRANCH  20  22
ENDBRANCH   1  20
TORSDOF 9
ENDMDL
MODEL      126
REMARK 921   NORMALIZED FREE ENERGY PREDICTED BY IDOCK:    0.23 KCAL/MOL
REMARK 922        TOTAL FREE ENERGY PREDICTED BY IDOCK:   -2.96 KCAL/MOL
REMARK 923 INTER-LIGAND FREE ENERGY PREDICTED BY IDOCK:   -5.02 KCAL/MOL
REMARK 924 INTRA-LIGAND FREE ENERGY PREDICTED BY IDOCK:    2.06 KCAL/MOL
REMARK 927      BINDING AFFINITY PREDICTED BY RF-SCORE:    0.00 PKD
ROOT
HETATM    1  N   UNL     1     -11.216   5.033  71.028  1.00  0.00     0.447 N  
HETATM    2  C   UNL     1     -10.652   5.380  72.245  1.00  0.00    -0.225 C  
HETATM    3  C   UNL     1     -14.402   8.871  72.128  1.00  0.00    -0.418 A  
HETATM    4  H   UNL     1     -11.654   4.113  71.008  1.00  0.00     0.000 HD 
HETATM    5  C   UNL     1      -8.444   7.899  73.640  1.00  0.00    -0.299 A  
HETATM    6  O   UNL     1     -10.199   4.421  72.925  1.00  0.00    -0.158 OA 
HETATM    7  C   UNL     1      -6.827   8.741  72.056  1.00  0.00    -0.051 A  
HETATM    8  C   UNL     1     -10.659   6.805  72.864  1.00  0.00    -0.250 C  
HETATM    9  O   UNL     1     -10.725   6.572  74.305  1.00  0.00    -0.420 OA 
HETATM   10  C   UNL     1      -9.332   7.538  72.599  1.00  0.00    -0.208 A  
HETATM   11  C   UNL     1     -12.016   8.954  72.547  1.00  0.00    -0.219 A  
HETATM   12  C   UNL     1     -11.959   7.554  72.600  1.00  0.00    -0.155 A  
HETATM   13  C   UNL     1      -8.946   7.850  71.290  1.00  0.00    -0.155 A  
HETATM   14  C   UNL     1     -13.172   6.841  72.496  1.00  0.00     0.506 A  
HETATM   15  C   UNL     1     -13.232   9.605  72.305  1.00  0.00    -0.492 A  
HETATM   16  H   UNL     1     -10.729   7.443  74.684  1.00  0.00     0.000 HD 
HETATM   17  C   UNL     1      -7.204   8.488  73.367  1.00  0.00    -0.050 A  
HETATM   18  C   UNL     1     -14.376   7.484  72.232  1.00  0.00    -0.215 A  
HETATM   19  C   UNL     1      -7.705   8.435  71.017  1.00  0.00    -0.099 A  
ENDROOT
BRANCH   1  20
HETATM   20  N   UNL     1     -11.284   5.749  69.803  1.00  0.00    -0.270 NA 
HETATM   21  H   UNL     1     -12.100   5.740  69.191  1.00  0.00     0.000 HD 
BRANCH  20  22
HETATM   22  C   UNL     1     -10.193   6.419  69.540  1.00  0.00    -0.189 C  
HETATM   23  C   UNL     1      -8.091   6.833  68.192  1.00  0.00    -0.115 C  
HETATM   24  C   UNL     1      -8.786   8.075  67.592  1.00  0.00    -0.125 C  
HETATM   25  C   UNL     1     -10.252   8.064  68.002  1.00  0.00    -0.260 C  
HETATM   26  C   UNL     1      -8.789   5.959  68.989  1.00  0.00    -0.119 C  
HETATM   27  C   UNL     1      -6.609   6.856  67.759  1.00  0.00    -0.055 C  
HETATM   28  C   UNL     1     -10.256   7.911  69.517  1.00  0.00    -0.208 C  
HETATM   29  C   UNL     1      -8.767   8.041  66.049  1.00  0.00    -0.183 C  
HETATM   30  C   UNL     1      -5.857   8.281  67.827  1.00  0.00    -0.043 C  
HETATM   31  C   UNL     1      -6.721   9.597  67.643  1.00  0.00    -0.066 C  
HETATM   32  C   UNL     1      -6.119  10.978  68.220  1.00  0.00    -0.049 C  
HETATM   33  C   UNL     1      -5.168  11.650  67.179  1.00  0.00    -0.096 C  
HETATM   34  C   UNL     1      -5.911  12.884  66.620  1.00  0.00     1.446 C  
HETATM   35  C   UNL     1      -7.367  12.595  66.973  1.00  0.00     0.055 C  
HETATM   36  C   UNL     1      -8.095   9.307  68.239  1.00  0.00    -0.107 C  
HETATM   37  C   UNL     1      -7.209  12.121  68.447  1.00  0.00    -0.097 C  
HETATM   38  C   UNL     1      -9.052  10.493  68.273  1.00  0.00    -0.146 C  
HETATM   39  C   UNL     1      -8.480  11.604  69.075  1.00  0.00     0.158 C  
HETATM   40  C   UNL     1      -6.772  13.232  69.441  1.00  0.00    -0.032 C  
BRANCH  35  41
HETATM   41  O   UNL     1      -8.321  13.618  66.650  1.00  0.00     0.023 OA 
BRANCH  41  42
HETATM   42  C   UNL     1      -9.444  13.083  66.065  1.00  0.00    -0.096 C  
HETATM   43  O   UNL     1      -9.409  12.373  65.064  1.00  0.00     0.113 OA 
BRANCH  42  44
HETATM   44  C   UNL     1     -10.794  13.409  66.667  1.00  0.00    -0.285 C  
BRANCH  44  45
HETATM   45  C   UNL     1     -10.950  14.311  67.882  1.00  0.00    -0.278 C  
BRANCH  45  46
HETATM   46  C   UNL     1     -11.838  13.719  68.969  1.00  0.00    -0.397 C  
BRANCH  46  47
HETATM   47  C   UNL     1     -12.407  14.755  69.946  1.00  0.00    -0.328 C  
BRANCH  47  48
HETATM   48  C   UNL     1     -12.431  14.282  71.401  1.00  0.00    -0.437 C  
HETATM   49  C   UNL     1     -12.823  12.814  71.504  1.00  0.00    -0.369 C  
ENDBRANCH  47  48
ENDBRANCH  46  47
ENDBRANCH  45  46
ENDBRANCH  44  45
ENDBRANCH  42  44
ENDBRANCH  41  42
ENDBRANCH  35  41
ENDBRANCH  20  22
ENDBRANCH   1  20
TORSDOF 9
ENDMDL
MODEL      127
REMARK 921   NORMALIZED FREE ENERGY PREDICTED BY IDOCK:    0.47 KCAL/MOL
REMARK 922        TOTAL FREE ENERGY PREDICTED BY IDOCK:   -2.59 KCAL/MOL
REMARK 923 INTER-LIGAND FREE ENERGY PREDICTED BY IDOCK:   -5.11 KCAL/MOL
REMARK 924 INTRA-LIGAND FREE ENERGY PREDICTED BY IDOCK:    2.52 KCAL/MOL
REMARK 927      BINDING AFFINITY PREDICTED BY RF-SCORE:    0.00 PKD
ROOT
HETATM    1  N   UNL     1      -8.712   6.509  67.737  1.00  0.00    -0.116 N  
HETATM    2  C   UNL     1      -7.410   6.572  68.206  1.00  0.00    -0.087 C  
HETATM    3  C   UNL     1      -7.859   1.476  67.899  1.00  0.00    -0.058 A  
HETATM    4  H   UNL     1      -8.845   6.885  66.798  1.00  0.00     0.000 HD 
HETATM    5  C   UNL     1      -5.580   6.154  71.312  1.00  0.00    -0.022 A  
HETATM    6  O   UNL     1      -6.728   7.542  67.785  1.00  0.00    -0.062 OA 
HETATM    7  C   UNL     1      -6.870   6.726  73.271  1.00  0.00    -0.075 A  
HETATM    8  C   UNL     1      -6.719   5.490  69.083  1.00  0.00    -0.053 C  
HETATM    9  O   UNL     1      -5.317   5.536  68.674  1.00  0.00    -0.003 OA 
HETATM   10  C   UNL     1      -6.754   5.872  70.574  1.00  0.00    -0.052 A  
HETATM   11  C   UNL     1      -7.103   3.014  69.613  1.00  0.00    -0.041 A  
HETATM   12  C   UNL     1      -7.122   4.073  68.694  1.00  0.00    -0.054 A  
HETATM   13  C   UNL     1      -7.975   5.979  71.248  1.00  0.00    -0.113 A  
HETATM   14  C   UNL     1      -7.435   3.775  67.351  1.00  0.00    -0.067 A  
HETATM   15  C   UNL     1      -7.478   1.725  69.214  1.00  0.00    -0.043 A  
HETATM   16  H   UNL     1      -4.895   4.875  69.210  1.00  0.00     0.000 HD 
HETATM   17  C   UNL     1      -5.641   6.581  72.643  1.00  0.00    -0.038 A  
HETATM   18  C   UNL     1      -7.830   2.501  66.960  1.00  0.00    -0.071 A  
HETATM   19  C   UNL     1      -8.038   6.410  72.578  1.00  0.00    -0.102 A  
ENDROOT
BRANCH   1  20
HETATM   20  N   UNL     1      -9.892   6.008  68.347  1.00  0.00    -0.124 NA 
HETATM   21  H   UNL     1     -10.158   5.023  68.334  1.00  0.00     0.000 HD 
BRANCH  20  22
HETATM   22  C   UNL     1     -10.604   6.938  68.927  1.00  0.00    -0.221 C  
HETATM   23  C   UNL     1     -11.545   8.082  70.979  1.00  0.00    -0.303 C  
HETATM   24  C   UNL     1     -10.568   9.247  70.710  1.00  0.00    -0.351 C  
HETATM   25  C   UNL     1      -9.596   8.832  69.615  1.00  0.00    -0.171 C  
HETATM   26  C   UNL     1     -11.470   6.924  70.245  1.00  0.00    -0.373 C  
HETATM   27  C   UNL     1     -12.517   8.518  72.097  1.00  0.00    -0.437 C  
HETATM   28  C   UNL     1     -10.460   8.348  68.458  1.00  0.00    -0.201 C  
HETATM   29  C   UNL     1      -9.710   9.562  71.954  1.00  0.00     0.872 C  
HETATM   30  C   UNL     1     -13.098  10.020  72.007  1.00  0.00    -0.541 C  
HETATM   31  C   UNL     1     -12.214  11.127  71.297  1.00  0.00    -0.328 C  
HETATM   32  C   UNL     1     -12.963  12.441  70.736  1.00  0.00     0.032 C  
HETATM   33  C   UNL     1     -13.118  13.516  71.859  1.00  0.00    -0.475 C  
HETATM   34  C   UNL     1     -12.126  14.654  71.536  1.00  0.00    -0.413 C  
HETATM   35  C   UNL     1     -11.144  13.988  70.574  1.00  0.00     0.451 C  
HETATM   36  C   UNL     1     -11.437  10.424  70.187  1.00  0.00    -0.396 C  
HETATM   37  C   UNL     1     -12.135  13.243  69.633  1.00  0.00    -0.331 C  
HETATM   38  C   UNL     1     -10.608  11.339  69.294  1.00  0.00    -0.187 C  
HETATM   39  C   UNL     1     -11.475  12.340  68.622  1.00  0.00    -0.355 C  
HETATM   40  C   UNL     1     -12.999  14.173  68.738  1.00  0.00     1.573 C  
BRANCH  35  41
HETATM   41  O   UNL     1     -10.123  14.828  70.015  1.00  0.00     0.044 OA 
BRANCH  41  42
HETATM   42  C   UNL     1      -9.915  14.540  68.687  1.00  0.00    -0.237 C  
HETATM   43  O   UNL     1     -10.699  14.860  67.798  1.00  0.00    -0.261 OA 
BRANCH  42  44
HETATM   44  C   UNL     1      -8.674  13.763  68.306  1.00  0.00    -0.179 C  
BRANCH  44  45
HETATM   45  C   UNL     1      -8.438  13.240  66.897  1.00  0.00    -0.074 C  
BRANCH  45  46
HETATM   46  C   UNL     1      -9.363  12.092  66.512  1.00  0.00    -0.229 C  
BRANCH  46  47
HETATM   47  C   UNL     1     -10.056  12.274  65.156  1.00  0.00    -0.284 C  
BRANCH  47  48
HETATM   48  C   UNL     1     -10.136  13.730  64.695  1.00  0.00    -0.193 C  
HETATM   49  C   UNL     1     -11.466  14.366  65.080  1.00  0.00    -0.362 C  
ENDBRANCH  47  48
ENDBRANCH  46  47
ENDBRANCH  45  46
ENDBRANCH  44  45
ENDBRANCH  42  44
ENDBRANCH  41  42
ENDBRANCH  35  41
ENDBRANCH  20  22
ENDBRANCH   1  20
TORSDOF 9
ENDMDL
MODEL      128
REMARK 921   NORMALIZED FREE ENERGY PREDICTED BY IDOCK:    0.54 KCAL/MOL
REMARK 922        TOTAL FREE ENERGY PREDICTED BY IDOCK:   -2.49 KCAL/MOL
REMARK 923 INTER-LIGAND FREE ENERGY PREDICTED BY IDOCK:   -0.57 KCAL/MOL
REMARK 924 INTRA-LIGAND FREE ENERGY PREDICTED BY IDOCK:   -1.92 KCAL/MOL
REMARK 927      BINDING AFFINITY PREDICTED BY RF-SCORE:    0.00 PKD
ROOT
HETATM    1  N   UNL     1      -8.599   6.561  67.728  1.00  0.00    -0.117 N  
HETATM    2  C   UNL     1      -7.334   6.668  68.284  1.00  0.00    -0.090 C  
HETATM    3  C   UNL     1      -8.315   1.804  69.566  1.00  0.00    -0.069 A  
HETATM    4  H   UNL     1      -8.624   6.620  66.710  1.00  0.00     0.000 HD 
HETATM    5  C   UNL     1      -5.784   7.139  71.531  1.00  0.00    -0.036 A  
HETATM    6  O   UNL     1      -6.522   7.390  67.647  1.00  0.00    -0.052 OA 
HETATM    7  C   UNL     1      -7.139   8.421  73.064  1.00  0.00    -0.111 A  
HETATM    8  C   UNL     1      -6.829   5.879  69.523  1.00  0.00    -0.062 C  
HETATM    9  O   UNL     1      -5.405   5.676  69.267  1.00  0.00    -0.003 OA 
HETATM   10  C   UNL     1      -6.927   6.728  70.805  1.00  0.00    -0.067 A  
HETATM   11  C   UNL     1      -7.519   3.751  70.770  1.00  0.00    -0.041 A  
HETATM   12  C   UNL     1      -7.356   4.451  69.566  1.00  0.00    -0.051 A  
HETATM   13  C   UNL     1      -8.174   7.147  71.282  1.00  0.00    -0.108 A  
HETATM   14  C   UNL     1      -7.605   3.757  68.363  1.00  0.00    -0.061 A  
HETATM   15  C   UNL     1      -8.002   2.437  70.766  1.00  0.00    -0.052 A  
HETATM   16  H   UNL     1      -5.097   5.194  70.025  1.00  0.00     0.000 HD 
HETATM   17  C   UNL     1      -5.892   7.981  72.643  1.00  0.00    -0.045 A  
HETATM   18  C   UNL     1      -8.108   2.462  68.358  1.00  0.00    -0.068 A  
HETATM   19  C   UNL     1      -8.283   7.991  72.392  1.00  0.00    -0.193 A  
ENDROOT
BRANCH   1  20
HETATM   20  N   UNL     1      -9.867   6.383  68.342  1.00  0.00    -0.134 NA 
HETATM   21  H   UNL     1     -10.215   5.479  68.662  1.00  0.00     0.000 HD 
BRANCH  20  22
HETATM   22  C   UNL     1     -10.543   7.496  68.454  1.00  0.00    -0.134 C  
HETATM   23  C   UNL     1     -11.678   9.297  69.824  1.00  0.00     0.254 C  
HETATM   24  C   UNL     1     -10.524  10.245  69.432  1.00  0.00    -0.259 C  
HETATM   25  C   UNL     1      -9.435   9.437  68.741  1.00  0.00    -0.150 C  
HETATM   26  C   UNL     1     -11.624   7.963  69.503  1.00  0.00     0.539 C  
HETATM   27  C   UNL     1     -12.767  10.132  70.531  1.00  0.00    -0.269 C  
HETATM   28  C   UNL     1     -10.134   8.670  67.626  1.00  0.00    -0.271 C  
HETATM   29  C   UNL     1      -9.868  10.880  70.677  1.00  0.00     2.276 C  
HETATM   30  C   UNL     1     -13.121  11.563  69.876  1.00  0.00     0.721 C  
HETATM   31  C   UNL     1     -11.987  12.322  69.070  1.00  0.00    -0.300 C  
HETATM   32  C   UNL     1     -12.445  13.437  67.998  1.00  0.00     0.331 C  
HETATM   33  C   UNL     1     -12.656  14.822  68.690  1.00  0.00     0.360 C  
HETATM   34  C   UNL     1     -11.482  15.727  68.258  1.00  0.00    -0.338 C  
HETATM   35  C   UNL     1     -10.440  14.723  67.769  1.00  0.00    -0.254 C  
HETATM   36  C   UNL     1     -11.124  11.251  68.411  1.00  0.00    -0.296 C  
HETATM   37  C   UNL     1     -11.336  13.787  66.906  1.00  0.00    -0.345 C  
HETATM   38  C   UNL     1     -10.035  11.774  67.480  1.00  0.00    -0.204 C  
HETATM   39  C   UNL     1     -10.630  12.565  66.373  1.00  0.00    -0.271 C  
HETATM   40  C   UNL     1     -11.897  14.440  65.613  1.00  0.00    -0.355 C  
BRANCH  35  41
HETATM   41  O   UNL     1      -9.235  15.269  67.212  1.00  0.00    -0.191 OA 
BRANCH  41  42
HETATM   42  C   UNL     1      -8.267  15.420  68.177  1.00  0.00    -0.144 C  
HETATM   43  O   UNL     1      -8.227  14.745  69.202  1.00  0.00    -0.154 OA 
BRANCH  42  44
HETATM   44  C   UNL     1      -7.216  16.491  67.981  1.00  0.00    -0.152 C  
BRANCH  44  45
HETATM   45  C   UNL     1      -5.948  16.555  68.820  1.00  0.00    -0.132 C  
BRANCH  45  46
HETATM   46  C   UNL     1      -6.166  17.155  70.204  1.00  0.00     0.094 C  
BRANCH  46  47
HETATM   47  C   UNL     1      -5.466  16.390  71.334  1.00  0.00     0.264 C  
BRANCH  47  48
HETATM   48  C   UNL     1      -5.131  14.940  70.982  1.00  0.00    -0.137 C  
HETATM   49  C   UNL     1      -6.185  13.978  71.515  1.00  0.00     0.307 C  
ENDBRANCH  47  48
ENDBRANCH  46  47
ENDBRANCH  45  46
ENDBRANCH  44  45
ENDBRANCH  42  44
ENDBRANCH  41  42
ENDBRANCH  35  41
ENDBRANCH  20  22
ENDBRANCH   1  20
TORSDOF 9
ENDMDL
MODEL      129
REMARK 921   NORMALIZED FREE ENERGY PREDICTED BY IDOCK:    0.57 KCAL/MOL
REMARK 922        TOTAL FREE ENERGY PREDICTED BY IDOCK:   -2.44 KCAL/MOL
REMARK 923 INTER-LIGAND FREE ENERGY PREDICTED BY IDOCK:   -3.59 KCAL/MOL
REMARK 924 INTRA-LIGAND FREE ENERGY PREDICTED BY IDOCK:    1.15 KCAL/MOL
REMARK 927      BINDING AFFINITY PREDICTED BY RF-SCORE:    0.00 PKD
ROOT
HETATM    1  N   UNL     1     -10.793   5.355  67.727  1.00  0.00    -0.090 N  
HETATM    2  C   UNL     1      -9.678   4.672  68.186  1.00  0.00    -0.138 C  
HETATM    3  C   UNL     1     -11.427   6.379  72.690  1.00  0.00    -0.234 A  
HETATM    4  H   UNL     1     -11.518   4.763  67.322  1.00  0.00     0.000 HD 
HETATM    5  C   UNL     1      -6.299   5.362  69.316  1.00  0.00    -0.034 A  
HETATM    6  O   UNL     1      -9.392   3.619  67.559  1.00  0.00    -0.175 OA 
HETATM    7  C   UNL     1      -5.328   7.324  68.297  1.00  0.00    -0.021 A  
HETATM    8  C   UNL     1      -8.864   5.036  69.459  1.00  0.00    -0.095 C  
HETATM    9  O   UNL     1      -8.393   3.749  69.966  1.00  0.00    -0.055 OA 
HETATM   10  C   UNL     1      -7.609   5.855  69.106  1.00  0.00    -0.090 A  
HETATM   11  C   UNL     1      -9.269   6.401  71.588  1.00  0.00    -0.144 A  
HETATM   12  C   UNL     1      -9.746   5.528  70.600  1.00  0.00    -0.233 A  
HETATM   13  C   UNL     1      -7.732   7.125  68.532  1.00  0.00    -0.120 A  
HETATM   14  C   UNL     1     -11.058   5.028  70.740  1.00  0.00     0.519 A  
HETATM   15  C   UNL     1     -10.112   6.828  72.622  1.00  0.00    -0.193 A  
HETATM   16  H   UNL     1      -7.895   3.972  70.744  1.00  0.00     0.000 HD 
HETATM   17  C   UNL     1      -5.174   6.088  68.909  1.00  0.00    -0.004 A  
HETATM   18  C   UNL     1     -11.903   5.469  71.752  1.00  0.00     0.355 A  
HETATM   19  C   UNL     1      -6.608   7.850  68.122  1.00  0.00    -0.059 A  
ENDROOT
BRANCH   1  20
HETATM   20  N   UNL     1     -11.093   6.743  67.728  1.00  0.00    -0.540 NA 
HETATM   21  H   UNL     1     -12.016   7.119  67.947  1.00  0.00     0.000 HD 
BRANCH  20  22
HETATM   22  C   UNL     1     -10.066   7.489  67.419  1.00  0.00    -0.216 C  
HETATM   23  C   UNL     1      -8.654   8.779  65.760  1.00  0.00    -0.185 C  
HETATM   24  C   UNL     1      -9.178  10.079  66.409  1.00  0.00    -0.191 C  
HETATM   25  C   UNL     1     -10.301   9.730  67.374  1.00  0.00    -0.297 C  
HETATM   26  C   UNL     1      -9.177   7.561  66.118  1.00  0.00    -0.156 C  
HETATM   27  C   UNL     1      -7.523   9.154  64.778  1.00  0.00    -0.106 C  
HETATM   28  C   UNL     1      -9.737   8.654  68.293  1.00  0.00    -0.171 C  
HETATM   29  C   UNL     1      -9.790  11.027  65.356  1.00  0.00    -0.301 C  
HETATM   30  C   UNL     1      -6.461  10.256  65.285  1.00  0.00    -0.122 C  
HETATM   31  C   UNL     1      -6.945  11.341  66.333  1.00  0.00    -0.052 C  
HETATM   32  C   UNL     1      -5.821  12.080  67.224  1.00  0.00    -0.142 C  
HETATM   33  C   UNL     1      -5.229  13.311  66.467  1.00  0.00     2.284 C  
HETATM   34  C   UNL     1      -5.779  14.576  67.161  1.00  0.00     0.855 C  
HETATM   35  C   UNL     1      -6.991  14.047  67.924  1.00  0.00    -0.161 C  
HETATM   36  C   UNL     1      -7.988  10.664  67.217  1.00  0.00    -0.116 C  
HETATM   37  C   UNL     1      -6.385  12.759  68.554  1.00  0.00    -0.075 C  
HETATM   38  C   UNL     1      -8.500  11.505  68.381  1.00  0.00    -0.159 C  
HETATM   39  C   UNL     1      -7.383  11.891  69.279  1.00  0.00     0.094 C  
HETATM   40  C   UNL     1      -5.309  13.017  69.644  1.00  0.00    -0.086 C  
BRANCH  35  41
HETATM   41  O   UNL     1      -7.687  14.988  68.755  1.00  0.00    -0.123 OA 
BRANCH  41  42
HETATM   42  C   UNL     1      -8.961  15.215  68.288  1.00  0.00    -0.175 C  
HETATM   43  O   UNL     1      -9.412  14.683  67.278  1.00  0.00    -0.209 OA 
BRANCH  42  44
HETATM   44  C   UNL     1      -9.839  16.190  69.041  1.00  0.00    -0.245 C  
BRANCH  44  45
HETATM   45  C   UNL     1     -11.325  15.948  69.264  1.00  0.00    -0.355 C  
BRANCH  45  46
HETATM   46  C   UNL     1     -11.634  15.235  70.574  1.00  0.00    -0.340 C  
BRANCH  46  47
HETATM   47  C   UNL     1     -11.581  16.144  71.809  1.00  0.00    -0.503 C  
BRANCH  47  48
HETATM   48  C   UNL     1     -11.990  15.445  73.106  1.00  0.00    -0.559 C  
HETATM   49  C   UNL     1     -12.835  14.208  72.832  1.00  0.00    -0.433 C  
ENDBRANCH  47  48
ENDBRANCH  46  47
ENDBRANCH  45  46
ENDBRANCH  44  45
ENDBRANCH  42  44
ENDBRANCH  41  42
ENDBRANCH  35  41
ENDBRANCH  20  22
ENDBRANCH   1  20
TORSDOF 9
ENDMDL
MODEL      130
REMARK 921   NORMALIZED FREE ENERGY PREDICTED BY IDOCK:    0.57 KCAL/MOL
REMARK 922        TOTAL FREE ENERGY PREDICTED BY IDOCK:   -2.44 KCAL/MOL
REMARK 923 INTER-LIGAND FREE ENERGY PREDICTED BY IDOCK:   -2.76 KCAL/MOL
REMARK 924 INTRA-LIGAND FREE ENERGY PREDICTED BY IDOCK:    0.32 KCAL/MOL
REMARK 927      BINDING AFFINITY PREDICTED BY RF-SCORE:    0.00 PKD
ROOT
HETATM    1  N   UNL     1      -8.723  16.065  65.993  1.00  0.00    -0.308 N  
HETATM    2  C   UNL     1      -9.563  16.841  66.776  1.00  0.00    -0.249 C  
HETATM    3  C   UNL     1      -5.152  17.831  69.190  1.00  0.00    -0.175 A  
HETATM    4  H   UNL     1      -8.623  16.386  65.030  1.00  0.00     0.000 HD 
HETATM    5  C   UNL     1     -11.219  16.707  70.003  1.00  0.00    -0.020 A  
HETATM    6  O   UNL     1     -10.515  17.394  66.166  1.00  0.00    -0.347 OA 
HETATM    7  C   UNL     1     -11.767  14.464  70.708  1.00  0.00    -0.296 A  
HETATM    8  C   UNL     1      -9.341  17.166  68.279  1.00  0.00    -0.265 C  
HETATM    9  O   UNL     1      -9.899  18.507  68.444  1.00  0.00    -0.332 OA 
HETATM   10  C   UNL     1     -10.167  16.233  69.183  1.00  0.00    -0.266 A  
HETATM   11  C   UNL     1      -7.363  17.142  69.906  1.00  0.00     0.881 A  
HETATM   12  C   UNL     1      -7.873  17.384  68.623  1.00  0.00    -0.274 A  
HETATM   13  C   UNL     1      -9.913  14.857  69.199  1.00  0.00    -0.213 A  
HETATM   14  C   UNL     1      -7.001  17.937  67.661  1.00  0.00    -0.204 A  
HETATM   15  C   UNL     1      -6.007  17.359  70.182  1.00  0.00    -0.113 A  
HETATM   16  H   UNL     1      -9.763  18.706  69.363  1.00  0.00     0.000 HD 
HETATM   17  C   UNL     1     -12.012  15.830  70.750  1.00  0.00    -0.444 A  
HETATM   18  C   UNL     1      -5.650  18.130  67.926  1.00  0.00    -0.156 A  
HETATM   19  C   UNL     1     -10.708  13.978  69.943  1.00  0.00     0.261 A  
ENDROOT
BRANCH   1  20
HETATM   20  N   UNL     1      -7.978  14.899  66.310  1.00  0.00     0.072 NA 
HETATM   21  H   UNL     1      -6.969  14.900  66.462  1.00  0.00     0.000 HD 
BRANCH  20  22
HETATM   22  C   UNL     1      -8.717  13.824  66.386  1.00  0.00     0.244 C  
HETATM   23  C   UNL     1      -9.783  11.765  65.371  1.00  0.00    -0.242 C  
HETATM   24  C   UNL     1      -8.777  10.914  66.176  1.00  0.00    -0.189 C  
HETATM   25  C   UNL     1      -7.737  11.837  66.796  1.00  0.00    -0.086 C  
HETATM   26  C   UNL     1      -9.671  13.133  65.337  1.00  0.00    -0.028 C  
HETATM   27  C   UNL     1     -10.823  10.812  64.743  1.00  0.00    -0.046 C  
HETATM   28  C   UNL     1      -8.526  12.903  67.546  1.00  0.00    -0.186 C  
HETATM   29  C   UNL     1      -8.002   9.942  65.261  1.00  0.00    -0.137 C  
HETATM   30  C   UNL     1     -11.380   9.626  65.683  1.00  0.00     2.920 C  
HETATM   31  C   UNL     1     -10.437   9.070  66.829  1.00  0.00    -0.270 C  
HETATM   32  C   UNL     1     -11.132   8.305  68.068  1.00  0.00     0.318 C  
HETATM   33  C   UNL     1     -11.351   6.793  67.738  1.00  0.00    -0.029 C  
HETATM   34  C   UNL     1     -10.326   5.995  68.572  1.00  0.00    -0.254 C  
HETATM   35  C   UNL     1      -9.289   7.053  68.942  1.00  0.00    -0.139 C  
HETATM   36  C   UNL     1      -9.595  10.246  67.315  1.00  0.00    -0.186 C  
HETATM   37  C   UNL     1     -10.222   8.220  69.376  1.00  0.00    -0.204 C  
HETATM   38  C   UNL     1      -8.696   9.952  68.511  1.00  0.00    -0.121 C  
HETATM   39  C   UNL     1      -9.504   9.513  69.677  1.00  0.00    -0.213 C  
HETATM   40  C   UNL     1     -11.012   7.964  70.688  1.00  0.00    -0.248 C  
BRANCH  35  41
HETATM   41  O   UNL     1      -8.223   6.631  69.806  1.00  0.00    -0.123 OA 
BRANCH  41  42
HETATM   42  C   UNL     1      -8.688   5.804  70.801  1.00  0.00    -0.130 C  
HETATM   43  O   UNL     1      -8.386   5.936  71.984  1.00  0.00    -0.114 OA 
BRANCH  42  44
HETATM   44  C   UNL     1      -9.594   4.654  70.415  1.00  0.00    -0.271 C  
BRANCH  44  45
HETATM   45  C   UNL     1      -9.302   3.215  70.815  1.00  0.00    -0.223 C  
BRANCH  45  46
HETATM   46  C   UNL     1      -9.067   2.290  69.627  1.00  0.00    -0.175 C  
BRANCH  46  47
HETATM   47  C   UNL     1      -7.723   2.507  68.922  1.00  0.00    -0.048 C  
BRANCH  47  48
HETATM   48  C   UNL     1      -7.845   3.187  67.558  1.00  0.00    -0.076 C  
HETATM   49  C   UNL     1      -6.837   4.319  67.405  1.00  0.00    -0.052 C  
ENDBRANCH  47  48
ENDBRANCH  46  47
ENDBRANCH  45  46
ENDBRANCH  44  45
ENDBRANCH  42  44
ENDBRANCH  41  42
ENDBRANCH  35  41
ENDBRANCH  20  22
ENDBRANCH   1  20
TORSDOF 9
ENDMDL
MODEL      131
REMARK 921   NORMALIZED FREE ENERGY PREDICTED BY IDOCK:    0.84 KCAL/MOL
REMARK 922        TOTAL FREE ENERGY PREDICTED BY IDOCK:   -2.03 KCAL/MOL
REMARK 923 INTER-LIGAND FREE ENERGY PREDICTED BY IDOCK:   -1.44 KCAL/MOL
REMARK 924 INTRA-LIGAND FREE ENERGY PREDICTED BY IDOCK:   -0.59 KCAL/MOL
REMARK 927      BINDING AFFINITY PREDICTED BY RF-SCORE:    0.00 PKD
ROOT
HETATM    1  N   UNL     1      -6.273   6.426  70.939  1.00  0.00    -0.038 N  
HETATM    2  C   UNL     1      -6.810   6.647  72.197  1.00  0.00    -0.067 C  
HETATM    3  C   UNL     1      -5.992   1.604  72.597  1.00  0.00    -0.008 A  
HETATM    4  H   UNL     1      -5.369   6.871  70.777  1.00  0.00     0.000 HD 
HETATM    5  C   UNL     1      -9.947   6.208  73.967  1.00  0.00    -0.255 A  
HETATM    6  O   UNL     1      -6.518   7.752  72.725  1.00  0.00    -0.059 OA 
HETATM    7  C   UNL     1     -11.886   6.362  72.536  1.00  0.00    -0.174 A  
HETATM    8  C   UNL     1      -7.611   5.605  73.026  1.00  0.00    -0.100 C  
HETATM    9  O   UNL     1      -7.278   5.915  74.414  1.00  0.00    -0.087 OA 
HETATM   10  C   UNL     1      -9.129   5.820  72.880  1.00  0.00    -0.122 A  
HETATM   11  C   UNL     1      -7.881   3.058  73.034  1.00  0.00    -0.056 A  
HETATM   12  C   UNL     1      -7.069   4.189  72.873  1.00  0.00    -0.063 A  
HETATM   13  C   UNL     1      -9.749   5.661  71.636  1.00  0.00    -0.196 A  
HETATM   14  C   UNL     1      -5.690   3.985  72.657  1.00  0.00    -0.004 A  
HETATM   15  C   UNL     1      -7.342   1.773  72.889  1.00  0.00    -0.032 A  
HETATM   16  H   UNL     1      -7.768   5.278  74.921  1.00  0.00     0.000 HD 
HETATM   17  C   UNL     1     -11.309   6.481  73.793  1.00  0.00     0.733 A  
HETATM   18  C   UNL     1      -5.158   2.712  72.489  1.00  0.00     0.000 A  
HETATM   19  C   UNL     1     -11.109   5.938  71.459  1.00  0.00    -0.314 A  
ENDROOT
BRANCH   1  20
HETATM   20  N   UNL     1      -6.773   5.683  69.837  1.00  0.00    -0.049 NA 
HETATM   21  H   UNL     1      -6.495   4.723  69.633  1.00  0.00     0.000 HD 
BRANCH  20  22
HETATM   22  C   UNL     1      -7.625   6.356  69.110  1.00  0.00    -0.100 C  
HETATM   23  C   UNL     1      -9.875   7.456  68.742  1.00  0.00    -0.164 C  
HETATM   24  C   UNL     1      -9.164   8.822  68.853  1.00  0.00    -0.141 C  
HETATM   25  C   UNL     1      -7.734   8.596  69.324  1.00  0.00    -0.096 C  
HETATM   26  C   UNL     1      -9.198   6.293  69.013  1.00  0.00    -0.127 C  
HETATM   27  C   UNL     1     -11.324   7.706  68.272  1.00  0.00     0.643 C  
HETATM   28  C   UNL     1      -7.144   7.563  68.373  1.00  0.00    -0.081 C  
HETATM   29  C   UNL     1      -9.832   9.722  69.914  1.00  0.00    -0.279 C  
HETATM   30  C   UNL     1     -11.527   8.789  67.095  1.00  0.00     1.830 C  
HETATM   31  C   UNL     1     -10.475   9.968  66.969  1.00  0.00    -0.302 C  
HETATM   32  C   UNL     1     -10.349  10.713  65.543  1.00  0.00    -0.297 C  
HETATM   33  C   UNL     1     -11.405  11.858  65.417  1.00  0.00    -0.334 C  
HETATM   34  C   UNL     1     -10.638  13.193  65.528  1.00  0.00    -0.299 C  
HETATM   35  C   UNL     1      -9.322  12.778  66.179  1.00  0.00    -0.106 C  
HETATM   36  C   UNL     1      -9.129   9.405  67.413  1.00  0.00    -0.141 C  
HETATM   37  C   UNL     1      -8.982  11.511  65.342  1.00  0.00     0.012 C  
HETATM   38  C   UNL     1      -7.944  10.351  67.253  1.00  0.00    -0.110 C  
HETATM   39  C   UNL     1      -7.778  10.745  65.831  1.00  0.00    -0.118 C  
HETATM   40  C   UNL     1      -8.620  11.793  63.858  1.00  0.00     0.998 C  
BRANCH  35  41
HETATM   41  O   UNL     1      -8.336  13.808  66.346  1.00  0.00     0.302 OA 
BRANCH  41  42
HETATM   42  C   UNL     1      -8.159  14.115  67.675  1.00  0.00    -0.180 C  
HETATM   43  O   UNL     1      -8.957  13.796  68.552  1.00  0.00    -0.180 OA 
BRANCH  42  44
HETATM   44  C   UNL     1      -6.936  14.912  68.073  1.00  0.00    -0.150 C  
BRANCH  44  45
HETATM   45  C   UNL     1      -6.390  16.050  67.223  1.00  0.00    -0.181 C  
BRANCH  45  46
HETATM   46  C   UNL     1      -6.470  17.410  67.906  1.00  0.00    -0.164 C  
BRANCH  46  47
HETATM   47  C   UNL     1      -7.751  18.193  67.593  1.00  0.00    -0.223 C  
BRANCH  47  48
HETATM   48  C   UNL     1      -8.554  17.621  66.424  1.00  0.00    -0.269 C  
HETATM   49  C   UNL     1      -9.934  17.156  66.869  1.00  0.00    -0.288 C  
ENDBRANCH  47  48
ENDBRANCH  46  47
ENDBRANCH  45  46
ENDBRANCH  44  45
ENDBRANCH  42  44
ENDBRANCH  41  42
ENDBRANCH  35  41
ENDBRANCH  20  22
ENDBRANCH   1  20
TORSDOF 9
ENDMDL
MODEL      132
REMARK 921   NORMALIZED FREE ENERGY PREDICTED BY IDOCK:    1.49 KCAL/MOL
REMARK 922        TOTAL FREE ENERGY PREDICTED BY IDOCK:   -1.04 KCAL/MOL
REMARK 923 INTER-LIGAND FREE ENERGY PREDICTED BY IDOCK:   -5.68 KCAL/MOL
REMARK 924 INTRA-LIGAND FREE ENERGY PREDICTED BY IDOCK:    4.64 KCAL/MOL
REMARK 927      BINDING AFFINITY PREDICTED BY RF-SCORE:    0.00 PKD
ROOT
HETATM    1  N   UNL     1      -5.387   5.496  65.506  1.00  0.00    -0.012 N  
HETATM    2  C   UNL     1      -6.186   4.364  65.455  1.00  0.00    -0.027 C  
HETATM    3  C   UNL     1      -9.883   7.877  65.953  1.00  0.00     0.302 A  
HETATM    4  H   UNL     1      -4.885   5.701  64.642  1.00  0.00     0.000 HD 
HETATM    5  C   UNL     1      -8.036   2.198  67.702  1.00  0.00    -0.068 A  
HETATM    6  O   UNL     1      -5.775   3.445  64.699  1.00  0.00    -0.010 OA 
HETATM    7  C   UNL     1      -7.074   2.061  69.913  1.00  0.00    -0.033 A  
HETATM    8  C   UNL     1      -7.571   4.212  66.143  1.00  0.00    -0.089 C  
HETATM    9  O   UNL     1      -8.324   3.337  65.247  1.00  0.00    -0.096 OA 
HETATM   10  C   UNL     1      -7.451   3.468  67.485  1.00  0.00    -0.066 A  
HETATM   11  C   UNL     1      -9.359   5.792  67.072  1.00  0.00    -0.122 A  
HETATM   12  C   UNL     1      -8.391   5.496  66.103  1.00  0.00    -0.119 A  
HETATM   13  C   UNL     1      -6.723   4.027  68.541  1.00  0.00    -0.046 A  
HETATM   14  C   UNL     1      -8.255   6.383  65.015  1.00  0.00    -0.125 A  
HETATM   15  C   UNL     1     -10.095   6.982  66.998  1.00  0.00    -0.298 A  
HETATM   16  H   UNL     1      -9.171   3.244  65.667  1.00  0.00     0.000 HD 
HETATM   17  C   UNL     1      -7.843   1.503  68.901  1.00  0.00    -0.050 A  
HETATM   18  C   UNL     1      -8.967   7.575  64.952  1.00  0.00     0.516 A  
HETATM   19  C   UNL     1      -6.525   3.331  69.738  1.00  0.00    -0.033 A  
ENDROOT
BRANCH   1  20
HETATM   20  N   UNL     1      -5.153   6.416  66.561  1.00  0.00    -0.012 NA 
HETATM   21  H   UNL     1      -4.245   6.542  67.007  1.00  0.00     0.000 HD 
BRANCH  20  22
HETATM   22  C   UNL     1      -6.222   7.086  66.903  1.00  0.00    -0.041 C  
HETATM   23  C   UNL     1      -7.678   8.261  68.608  1.00  0.00    -0.114 C  
HETATM   24  C   UNL     1      -7.264   9.599  67.959  1.00  0.00    -0.081 C  
HETATM   25  C   UNL     1      -6.143   9.337  66.963  1.00  0.00    -0.060 C  
HETATM   26  C   UNL     1      -7.080   7.085  68.225  1.00  0.00    -0.082 C  
HETATM   27  C   UNL     1      -8.807   8.548  69.621  1.00  0.00    -0.137 C  
HETATM   28  C   UNL     1      -6.655   8.232  66.047  1.00  0.00    -0.053 C  
HETATM   29  C   UNL     1      -6.692  10.580  69.004  1.00  0.00    -0.063 C  
HETATM   30  C   UNL     1      -9.957   9.576  69.151  1.00  0.00    -0.185 C  
HETATM   31  C   UNL     1      -9.576  10.701  68.102  1.00  0.00    -0.165 C  
HETATM   32  C   UNL     1     -10.772  11.365  67.246  1.00  0.00    -0.283 C  
HETATM   33  C   UNL     1     -11.430  12.546  68.029  1.00  0.00    -0.368 C  
HETATM   34  C   UNL     1     -10.987  13.852  67.334  1.00  0.00    -0.299 C  
HETATM   35  C   UNL     1      -9.761  13.415  66.536  1.00  0.00    -0.282 C  
HETATM   36  C   UNL     1      -8.512  10.105  67.185  1.00  0.00    -0.125 C  
HETATM   37  C   UNL     1     -10.291  12.093  65.909  1.00  0.00    -0.286 C  
HETATM   38  C   UNL     1      -8.090  10.990  66.018  1.00  0.00    -0.110 C  
HETATM   39  C   UNL     1      -9.254  11.302  65.151  1.00  0.00    -0.168 C  
HETATM   40  C   UNL     1     -11.410  12.282  64.848  1.00  0.00    -0.373 C  
BRANCH  35  41
HETATM   41  O   UNL     1      -9.154  14.409  65.697  1.00  0.00     0.150 OA 
BRANCH  41  42
HETATM   42  C   UNL     1      -9.718  15.646  65.906  1.00  0.00    -0.353 C  
HETATM   43  O   UNL     1     -10.652  16.082  65.239  1.00  0.00    -0.407 OA 
BRANCH  42  44
HETATM   44  C   UNL     1      -9.138  16.526  66.992  1.00  0.00    -0.228 C  
BRANCH  44  45
HETATM   45  C   UNL     1      -7.687  16.984  66.985  1.00  0.00    -0.219 C  
BRANCH  45  46
HETATM   46  C   UNL     1      -7.122  17.234  68.378  1.00  0.00    -0.209 C  
BRANCH  46  47
HETATM   47  C   UNL     1      -7.405  18.638  68.926  1.00  0.00    -0.301 C  
BRANCH  47  48
HETATM   48  C   UNL     1      -7.903  19.624  67.868  1.00  0.00    -0.333 C  
HETATM   49  C   UNL     1      -9.237  20.244  68.265  1.00  0.00    -0.112 C  
ENDBRANCH  47  48
ENDBRANCH  46  47
ENDBRANCH  45  46
ENDBRANCH  44  45
ENDBRANCH  42  44
ENDBRANCH  41  42
ENDBRANCH  35  41
ENDBRANCH  20  22
ENDBRANCH   1  20
TORSDOF 9
ENDMDL
MODEL      133
REMARK 921   NORMALIZED FREE ENERGY PREDICTED BY IDOCK:    1.70 KCAL/MOL
REMARK 922        TOTAL FREE ENERGY PREDICTED BY IDOCK:   -0.71 KCAL/MOL
REMARK 923 INTER-LIGAND FREE ENERGY PREDICTED BY IDOCK:   -3.31 KCAL/MOL
REMARK 924 INTRA-LIGAND FREE ENERGY PREDICTED BY IDOCK:    2.60 KCAL/MOL
REMARK 927      BINDING AFFINITY PREDICTED BY RF-SCORE:    0.00 PKD
ROOT
HETATM    1  N   UNL     1      -8.001  12.340  66.459  1.00  0.00    -0.393 N  
HETATM    2  C   UNL     1      -9.071  12.176  67.325  1.00  0.00    -0.181 C  
HETATM    3  C   UNL     1      -5.276  11.908  70.757  1.00  0.00    -0.140 A  
HETATM    4  H   UNL     1      -7.948  13.257  66.016  1.00  0.00     0.000 HD 
HETATM    5  C   UNL     1     -10.784   9.526  69.115  1.00  0.00    -0.228 A  
HETATM    6  O   UNL     1     -10.109  12.826  67.031  1.00  0.00    -0.234 OA 
HETATM    7  C   UNL     1     -10.691   7.391  67.989  1.00  0.00    -0.191 A  
HETATM    8  C   UNL     1      -9.034  11.378  68.657  1.00  0.00    -0.131 C  
HETATM    9  O   UNL     1      -9.966  12.088  69.529  1.00  0.00    -0.121 OA 
HETATM   10  C   UNL     1      -9.598   9.958  68.475  1.00  0.00    -0.159 A  
HETATM   11  C   UNL     1      -7.224  10.552  70.270  1.00  0.00     0.099 A  
HETATM   12  C   UNL     1      -7.713  11.537  69.400  1.00  0.00     0.204 A  
HETATM   13  C   UNL     1      -8.955   9.044  67.633  1.00  0.00    -0.130 A  
HETATM   14  C   UNL     1      -6.991  12.744  69.300  1.00  0.00     0.041 A  
HETATM   15  C   UNL     1      -6.007  10.738  70.937  1.00  0.00     0.017 A  
HETATM   16  H   UNL     1      -9.944  11.600  70.344  1.00  0.00     0.000 HD 
HETATM   17  C   UNL     1     -11.325   8.259  68.867  1.00  0.00     0.631 A  
HETATM   18  C   UNL     1      -5.771  12.921  69.943  1.00  0.00    -0.122 A  
HETATM   19  C   UNL     1      -9.497   7.778  67.382  1.00  0.00    -0.177 A  
ENDROOT
BRANCH   1  20
HETATM   20  N   UNL     1      -6.966  11.442  66.088  1.00  0.00    -0.371 NA 
HETATM   21  H   UNL     1      -5.975  11.633  66.236  1.00  0.00     0.000 HD 
BRANCH  20  22
HETATM   22  C   UNL     1      -7.413  10.344  65.538  1.00  0.00    -0.142 C  
HETATM   23  C   UNL     1      -7.817   8.847  63.538  1.00  0.00    -0.141 C  
HETATM   24  C   UNL     1      -6.714   7.913  64.084  1.00  0.00    -0.061 C  
HETATM   25  C   UNL     1      -6.010   8.606  65.240  1.00  0.00    -0.048 C  
HETATM   26  C   UNL     1      -8.050  10.066  64.123  1.00  0.00    -0.153 C  
HETATM   27  C   UNL     1      -8.514   8.130  62.361  1.00  0.00    -0.099 C  
HETATM   28  C   UNL     1      -7.113   9.038  66.198  1.00  0.00    -0.086 C  
HETATM   29  C   UNL     1      -5.631   7.637  63.019  1.00  0.00    -0.050 C  
HETATM   30  C   UNL     1      -8.844   6.565  62.560  1.00  0.00     0.450 C  
HETATM   31  C   UNL     1      -7.912   5.715  63.519  1.00  0.00    -0.108 C  
HETATM   32  C   UNL     1      -8.512   4.349  64.133  1.00  0.00    -0.116 C  
HETATM   33  C   UNL     1      -8.308   3.156  63.144  1.00  0.00    -0.085 C  
HETATM   34  C   UNL     1      -7.204   2.257  63.742  1.00  0.00    -0.052 C  
HETATM   35  C   UNL     1      -6.511   3.184  64.737  1.00  0.00    -0.031 C  
HETATM   36  C   UNL     1      -7.448   6.655  64.627  1.00  0.00    -0.093 C  
HETATM   37  C   UNL     1      -7.747   3.826  65.432  1.00  0.00    -0.082 C  
HETATM   38  C   UNL     1      -6.629   6.002  65.734  1.00  0.00    -0.047 C  
HETATM   39  C   UNL     1      -7.413   4.932  66.402  1.00  0.00    -0.087 C  
HETATM   40  C   UNL     1      -8.575   2.848  66.310  1.00  0.00    -0.116 C  
BRANCH  35  41
HETATM   41  O   UNL     1      -5.465   2.605  65.533  1.00  0.00    -0.012 OA 
BRANCH  41  42
HETATM   42  C   UNL     1      -5.808   2.585  66.864  1.00  0.00    -0.023 C  
HETATM   43  O   UNL     1      -6.504   1.708  67.368  1.00  0.00    -0.024 OA 
BRANCH  42  44
HETATM   44  C   UNL     1      -5.329   3.717  67.747  1.00  0.00    -0.016 C  
BRANCH  44  45
HETATM   45  C   UNL     1      -5.602   3.757  69.244  1.00  0.00    -0.017 C  
BRANCH  45  46
HETATM   46  C   UNL     1      -6.497   4.916  69.667  1.00  0.00    -0.035 C  
BRANCH  46  47
HETATM   47  C   UNL     1      -7.595   4.526  70.664  1.00  0.00    -0.053 C  
BRANCH  47  48
HETATM   48  C   UNL     1      -8.937   5.211  70.401  1.00  0.00    -0.157 C  
HETATM   49  C   UNL     1      -9.870   4.322  69.589  1.00  0.00    -0.244 C  
ENDBRANCH  47  48
ENDBRANCH  46  47
ENDBRANCH  45  46
ENDBRANCH  44  45
ENDBRANCH  42  44
ENDBRANCH  41  42
ENDBRANCH  35  41
ENDBRANCH  20  22
ENDBRANCH   1  20
TORSDOF 9
ENDMDL
MODEL      134
REMARK 921   NORMALIZED FREE ENERGY PREDICTED BY IDOCK:    2.00 KCAL/MOL
REMARK 922        TOTAL FREE ENERGY PREDICTED BY IDOCK:   -0.26 KCAL/MOL
REMARK 923 INTER-LIGAND FREE ENERGY PREDICTED BY IDOCK:   -5.90 KCAL/MOL
REMARK 924 INTRA-LIGAND FREE ENERGY PREDICTED BY IDOCK:    5.64 KCAL/MOL
REMARK 927      BINDING AFFINITY PREDICTED BY RF-SCORE:    0.00 PKD
ROOT
HETATM    1  N   UNL     1     -11.219   5.068  71.081  1.00  0.00     0.392 N  
HETATM    2  C   UNL     1     -10.668   5.455  72.293  1.00  0.00    -0.231 C  
HETATM    3  C   UNL     1     -14.395   8.959  72.006  1.00  0.00    -0.406 A  
HETATM    4  H   UNL     1     -11.663   4.150  71.089  1.00  0.00     0.000 HD 
HETATM    5  C   UNL     1      -8.462   8.010  73.623  1.00  0.00    -0.317 A  
HETATM    6  O   UNL     1     -10.229   4.518  73.011  1.00  0.00    -0.152 OA 
HETATM    7  C   UNL     1      -6.821   8.786  72.030  1.00  0.00    -0.051 A  
HETATM    8  C   UNL     1     -10.674   6.901  72.861  1.00  0.00    -0.277 C  
HETATM    9  O   UNL     1     -10.758   6.720  74.308  1.00  0.00    -0.401 OA 
HETATM   10  C   UNL     1      -9.339   7.617  72.585  1.00  0.00    -0.225 A  
HETATM   11  C   UNL     1     -12.014   9.045  72.451  1.00  0.00    -0.255 A  
HETATM   12  C   UNL     1     -11.966   7.647  72.554  1.00  0.00    -0.261 A  
HETATM   13  C   UNL     1      -8.936   7.880  71.271  1.00  0.00    -0.155 A  
HETATM   14  C   UNL     1     -13.182   6.938  72.461  1.00  0.00     0.509 A  
HETATM   15  C   UNL     1     -13.224   9.693  72.172  1.00  0.00    -0.535 A  
HETATM   16  H   UNL     1     -10.762   7.604  74.656  1.00  0.00     0.000 HD 
HETATM   17  C   UNL     1      -7.215   8.582  73.345  1.00  0.00    -0.050 A  
HETATM   18  C   UNL     1     -14.379   7.577  72.160  1.00  0.00    -0.336 A  
HETATM   19  C   UNL     1      -7.689   8.448  70.992  1.00  0.00    -0.099 A  
ENDROOT
BRANCH   1  20
HETATM   20  N   UNL     1     -11.268   5.740  69.831  1.00  0.00    -0.272 NA 
HETATM   21  H   UNL     1     -12.073   5.706  69.206  1.00  0.00     0.000 HD 
BRANCH  20  22
HETATM   22  C   UNL     1     -10.176   6.406  69.564  1.00  0.00    -0.189 C  
HETATM   23  C   UNL     1      -8.122   6.864  68.159  1.00  0.00    -0.119 C  
HETATM   24  C   UNL     1      -8.816   8.152  67.663  1.00  0.00    -0.136 C  
HETATM   25  C   UNL     1     -10.264   8.142  68.130  1.00  0.00    -0.253 C  
HETATM   26  C   UNL     1      -8.804   5.957  68.930  1.00  0.00    -0.115 C  
HETATM   27  C   UNL     1      -6.658   6.888  67.668  1.00  0.00    -0.055 C  
HETATM   28  C   UNL     1     -10.211   7.897  69.633  1.00  0.00    -0.207 C  
HETATM   29  C   UNL     1      -8.859   8.210  66.121  1.00  0.00    -0.194 C  
HETATM   30  C   UNL     1      -5.876   8.294  67.790  1.00  0.00    -0.043 C  
HETATM   31  C   UNL     1      -6.721   9.633  67.720  1.00  0.00    -0.066 C  
HETATM   32  C   UNL     1      -6.070  10.966  68.353  1.00  0.00    -0.046 C  
HETATM   33  C   UNL     1      -5.148  11.684  67.316  1.00  0.00    -0.078 C  
HETATM   34  C   UNL     1      -5.888  12.961  66.862  1.00  0.00     0.718 C  
HETATM   35  C   UNL     1      -7.335  12.676  67.256  1.00  0.00    -0.104 C  
HETATM   36  C   UNL     1      -8.076   9.331  68.353  1.00  0.00    -0.106 C  
HETATM   37  C   UNL     1      -7.128  12.111  68.692  1.00  0.00    -0.103 C  
HETATM   38  C   UNL     1      -9.008  10.529  68.497  1.00  0.00    -0.147 C  
HETATM   39  C   UNL     1      -8.382  11.580  69.340  1.00  0.00     0.500 C  
HETATM   40  C   UNL     1      -6.630  13.153  69.731  1.00  0.00     0.063 C  
BRANCH  35  41
HETATM   41  O   UNL     1      -8.281  13.733  67.034  1.00  0.00    -0.144 OA 
BRANCH  41  42
HETATM   42  C   UNL     1      -7.722  14.962  67.295  1.00  0.00    -0.197 C  
HETATM   43  O   UNL     1      -6.510  15.151  67.356  1.00  0.00    -0.275 OA 
BRANCH  42  44
HETATM   44  C   UNL     1      -8.646  16.133  67.549  1.00  0.00    -0.189 C  
BRANCH  44  45
HETATM   45  C   UNL     1      -9.647  16.623  66.514  1.00  0.00    -0.292 C  
BRANCH  45  46
HETATM   46  C   UNL     1     -10.842  15.695  66.338  1.00  0.00    -0.252 C  
BRANCH  46  47
HETATM   47  C   UNL     1     -11.584  15.874  65.007  1.00  0.00     0.039 C  
BRANCH  47  48
HETATM   48  C   UNL     1     -12.167  14.576  64.446  1.00  0.00    -0.480 C  
HETATM   49  C   UNL     1     -11.072  13.574  64.105  1.00  0.00    -0.302 C  
ENDBRANCH  47  48
ENDBRANCH  46  47
ENDBRANCH  45  46
ENDBRANCH  44  45
ENDBRANCH  42  44
ENDBRANCH  41  42
ENDBRANCH  35  41
ENDBRANCH  20  22
ENDBRANCH   1  20
TORSDOF 9
ENDMDL
MODEL      135
REMARK 921   NORMALIZED FREE ENERGY PREDICTED BY IDOCK:    2.08 KCAL/MOL
REMARK 922        TOTAL FREE ENERGY PREDICTED BY IDOCK:   -0.14 KCAL/MOL
REMARK 923 INTER-LIGAND FREE ENERGY PREDICTED BY IDOCK:   -1.14 KCAL/MOL
REMARK 924 INTRA-LIGAND FREE ENERGY PREDICTED BY IDOCK:    1.00 KCAL/MOL
REMARK 927      BINDING AFFINITY PREDICTED BY RF-SCORE:    0.00 PKD
ROOT
HETATM    1  N   UNL     1     -11.280  14.157  66.534  1.00  0.00    -0.322 N  
HETATM    2  C   UNL     1     -10.290  15.040  66.133  1.00  0.00    -0.299 C  
HETATM    3  C   UNL     1      -7.298  11.465  68.260  1.00  0.00    -0.089 A  
HETATM    4  H   UNL     1     -11.790  13.714  65.770  1.00  0.00     0.000 HD 
HETATM    5  C   UNL     1      -8.136  17.591  67.554  1.00  0.00    -0.213 A  
HETATM    6  O   UNL     1     -10.510  15.645  65.051  1.00  0.00    -0.402 OA 
HETATM    7  C   UNL     1      -9.111  18.724  69.450  1.00  0.00     0.247 A  
HETATM    8  C   UNL     1      -8.918  15.228  66.836  1.00  0.00    -0.249 C  
HETATM    9  O   UNL     1      -7.998  15.558  65.749  1.00  0.00     0.520 OA 
HETATM   10  C   UNL     1      -8.934  16.444  67.780  1.00  0.00    -0.198 A  
HETATM   11  C   UNL     1      -7.465  13.875  68.454  1.00  0.00    -0.117 A  
HETATM   12  C   UNL     1      -8.341  13.919  67.360  1.00  0.00    -0.208 A  
HETATM   13  C   UNL     1      -9.777  16.460  68.897  1.00  0.00    -0.257 A  
HETATM   14  C   UNL     1      -8.607  12.712  66.680  1.00  0.00    -0.035 A  
HETATM   15  C   UNL     1      -6.954  12.651  68.903  1.00  0.00    -0.086 A  
HETATM   16  H   UNL     1      -7.159  15.673  66.179  1.00  0.00     0.000 HD 
HETATM   17  C   UNL     1      -8.231  18.718  68.378  1.00  0.00    -0.372 A  
HETATM   18  C   UNL     1      -8.121  11.494  67.139  1.00  0.00    -0.159 A  
HETATM   19  C   UNL     1      -9.875  17.588  69.719  1.00  0.00     0.547 A  
ENDROOT
BRANCH   1  20
HETATM   20  N   UNL     1     -11.701  13.767  67.833  1.00  0.00    -0.340 NA 
HETATM   21  H   UNL     1     -11.896  14.430  68.584  1.00  0.00     0.000 HD 
BRANCH  20  22
HETATM   22  C   UNL     1     -11.814  12.472  67.968  1.00  0.00    -0.325 C  
HETATM   23  C   UNL     1     -11.133  10.097  67.418  1.00  0.00    -0.219 C  
HETATM   24  C   UNL     1     -10.503  10.010  68.826  1.00  0.00    -0.229 C  
HETATM   25  C   UNL     1     -10.500  11.398  69.450  1.00  0.00    -0.040 C  
HETATM   26  C   UNL     1     -11.615  11.291  66.942  1.00  0.00     0.003 C  
HETATM   27  C   UNL     1     -11.119   8.683  66.797  1.00  0.00     0.751 C  
HETATM   28  C   UNL     1     -11.933  11.902  69.343  1.00  0.00    -0.350 C  
HETATM   29  C   UNL     1      -9.027   9.563  68.756  1.00  0.00    -0.133 C  
HETATM   30  C   UNL     1     -11.537   7.463  67.766  1.00  0.00     1.040 C  
HETATM   31  C   UNL     1     -11.268   7.611  69.321  1.00  0.00     0.176 C  
HETATM   32  C   UNL     1     -12.129   6.686  70.323  1.00  0.00    -0.188 C  
HETATM   33  C   UNL     1     -11.459   5.287  70.505  1.00  0.00     1.145 C  
HETATM   34  C   UNL     1     -10.855   5.256  71.926  1.00  0.00    -0.218 C  
HETATM   35  C   UNL     1     -10.771   6.735  72.294  1.00  0.00    -0.220 C  
HETATM   36  C   UNL     1     -11.438   9.090  69.657  1.00  0.00     0.221 C  
HETATM   37  C   UNL     1     -12.174   7.220  71.827  1.00  0.00    -0.368 C  
HETATM   38  C   UNL     1     -11.340   9.435  71.139  1.00  0.00    -0.422 C  
HETATM   39  C   UNL     1     -12.380   8.712  71.915  1.00  0.00    -0.414 C  
HETATM   40  C   UNL     1     -13.361   6.669  72.664  1.00  0.00     0.779 C  
BRANCH  35  41
HETATM   41  O   UNL     1     -10.314   7.042  73.620  1.00  0.00    -0.313 OA 
BRANCH  41  42
HETATM   42  C   UNL     1      -9.361   8.033  73.599  1.00  0.00    -0.148 C  
HETATM   43  O   UNL     1      -9.605   9.196  73.292  1.00  0.00     0.873 OA 
BRANCH  42  44
HETATM   44  C   UNL     1      -7.934   7.665  73.943  1.00  0.00    -0.200 C  
BRANCH  44  45
HETATM   45  C   UNL     1      -6.799   7.764  72.935  1.00  0.00    -0.083 C  
BRANCH  45  46
HETATM   46  C   UNL     1      -6.949   6.812  71.755  1.00  0.00    -0.071 C  
BRANCH  46  47
HETATM   47  C   UNL     1      -6.383   5.409  72.007  1.00  0.00    -0.039 C  
BRANCH  47  48
HETATM   48  C   UNL     1      -6.251   5.055  73.489  1.00  0.00    -0.050 C  
HETATM   49  C   UNL     1      -7.224   3.953  73.889  1.00  0.00    -0.061 C  
ENDBRANCH  47  48
ENDBRANCH  46  47
ENDBRANCH  45  46
ENDBRANCH  44  45
ENDBRANCH  42  44
ENDBRANCH  41  42
ENDBRANCH  35  41
ENDBRANCH  20  22
ENDBRANCH   1  20
TORSDOF 9
ENDMDL
MODEL      136
REMARK 921   NORMALIZED FREE ENERGY PREDICTED BY IDOCK:    2.28 KCAL/MOL
REMARK 922        TOTAL FREE ENERGY PREDICTED BY IDOCK:    0.17 KCAL/MOL
REMARK 923 INTER-LIGAND FREE ENERGY PREDICTED BY IDOCK:   -3.09 KCAL/MOL
REMARK 924 INTRA-LIGAND FREE ENERGY PREDICTED BY IDOCK:    3.26 KCAL/MOL
REMARK 927      BINDING AFFINITY PREDICTED BY RF-SCORE:    0.00 PKD
ROOT
HETATM    1  N   UNL     1      -7.950   6.727  73.151  1.00  0.00    -0.100 N  
HETATM    2  C   UNL     1      -7.122   5.689  72.755  1.00  0.00    -0.089 C  
HETATM    3  C   UNL     1      -7.187   8.325  68.361  1.00  0.00    -0.092 A  
HETATM    4  H   UNL     1      -7.556   7.337  73.867  1.00  0.00     0.000 HD 
HETATM    5  C   UNL     1      -7.286   2.616  70.833  1.00  0.00    -0.033 A  
HETATM    6  O   UNL     1      -6.347   5.245  73.643  1.00  0.00    -0.057 OA 
HETATM    7  C   UNL     1      -9.456   1.557  70.899  1.00  0.00    -0.186 A  
HETATM    8  C   UNL     1      -6.996   5.146  71.305  1.00  0.00    -0.052 C  
HETATM    9  O   UNL     1      -5.602   4.722  71.198  1.00  0.00    -0.010 OA 
HETATM   10  C   UNL     1      -7.854   3.883  71.103  1.00  0.00    -0.063 A  
HETATM   11  C   UNL     1      -7.540   6.002  68.953  1.00  0.00    -0.091 A  
HETATM   12  C   UNL     1      -7.080   6.246  70.255  1.00  0.00    -0.074 A  
HETATM   13  C   UNL     1      -9.248   3.951  71.211  1.00  0.00    -0.197 A  
HETATM   14  C   UNL     1      -6.596   7.538  70.551  1.00  0.00    -0.042 A  
HETATM   15  C   UNL     1      -7.598   7.041  68.016  1.00  0.00    -0.111 A  
HETATM   16  H   UNL     1      -5.525   4.390  70.311  1.00  0.00     0.000 HD 
HETATM   17  C   UNL     1      -8.080   1.467  70.739  1.00  0.00    -0.047 A  
HETATM   18  C   UNL     1      -6.675   8.576  69.630  1.00  0.00    -0.040 A  
HETATM   19  C   UNL     1     -10.042   2.803  71.121  1.00  0.00     0.214 A  
ENDROOT
BRANCH   1  20
HETATM   20  N   UNL     1      -9.257   7.082  72.724  1.00  0.00    -0.134 NA 
HETATM   21  H   UNL     1     -10.093   6.934  73.290  1.00  0.00     0.000 HD 
BRANCH  20  22
HETATM   22  C   UNL     1      -9.279   7.618  71.533  1.00  0.00    -0.135 C  
HETATM   23  C   UNL     1     -10.399   8.094  69.313  1.00  0.00    -0.222 C  
HETATM   24  C   UNL     1     -10.576   9.556  69.779  1.00  0.00    -0.257 C  
HETATM   25  C   UNL     1     -10.208   9.651  71.252  1.00  0.00    -0.087 C  
HETATM   26  C   UNL     1      -9.933   7.137  70.181  1.00  0.00    -0.190 C  
HETATM   27  C   UNL     1     -10.785   8.015  67.820  1.00  0.00    -0.174 C  
HETATM   28  C   UNL     1      -8.822   9.031  71.373  1.00  0.00    -0.220 C  
HETATM   29  C   UNL     1     -12.048  10.007  69.670  1.00  0.00     0.112 C  
HETATM   30  C   UNL     1     -10.255   9.207  66.871  1.00  0.00    -0.336 C  
HETATM   31  C   UNL     1     -10.016  10.633  67.518  1.00  0.00    -0.201 C  
HETATM   32  C   UNL     1      -9.020  11.647  66.755  1.00  0.00    -0.189 C  
HETATM   33  C   UNL     1      -9.779  12.453  65.653  1.00  0.00    -0.183 C  
HETATM   34  C   UNL     1      -9.921  13.901  66.169  1.00  0.00    -0.322 C  
HETATM   35  C   UNL     1      -9.695  13.752  67.671  1.00  0.00    -0.227 C  
HETATM   36  C   UNL     1      -9.561  10.394  68.954  1.00  0.00    -0.197 C  
HETATM   37  C   UNL     1      -8.450  12.819  67.677  1.00  0.00    -0.178 C  
HETATM   38  C   UNL     1      -9.157  11.646  69.726  1.00  0.00     1.667 C  
HETATM   39  C   UNL     1      -8.035  12.341  69.046  1.00  0.00     0.238 C  
HETATM   40  C   UNL     1      -7.147  13.475  67.142  1.00  0.00     0.218 C  
BRANCH  35  41
HETATM   41  O   UNL     1      -9.683  14.964  68.442  1.00  0.00    -0.198 OA 
BRANCH  41  42
HETATM   42  C   UNL     1     -10.037  14.724  69.748  1.00  0.00     0.082 C  
HETATM   43  O   UNL     1      -9.647  15.411  70.688  1.00  0.00     0.437 OA 
BRANCH  42  44
HETATM   44  C   UNL     1     -10.928  13.538  70.046  1.00  0.00     0.394 C  
BRANCH  44  45
HETATM   45  C   UNL     1     -12.446  13.631  70.029  1.00  0.00    -0.267 C  
BRANCH  45  46
HETATM   46  C   UNL     1     -13.110  12.954  71.221  1.00  0.00    -0.253 C  
BRANCH  46  47
HETATM   47  C   UNL     1     -13.026  13.758  72.525  1.00  0.00    -0.431 C  
BRANCH  47  48
HETATM   48  C   UNL     1     -12.794  15.254  72.312  1.00  0.00    -0.447 C  
HETATM   49  C   UNL     1     -13.923  16.085  72.908  1.00  0.00    -0.316 C  
ENDBRANCH  47  48
ENDBRANCH  46  47
ENDBRANCH  45  46
ENDBRANCH  44  45
ENDBRANCH  42  44
ENDBRANCH  41  42
ENDBRANCH  35  41
ENDBRANCH  20  22
ENDBRANCH   1  20
TORSDOF 9
ENDMDL
MODEL      137
REMARK 921   NORMALIZED FREE ENERGY PREDICTED BY IDOCK:    2.85 KCAL/MOL
REMARK 922        TOTAL FREE ENERGY PREDICTED BY IDOCK:    1.03 KCAL/MOL
REMARK 923 INTER-LIGAND FREE ENERGY PREDICTED BY IDOCK:   -1.88 KCAL/MOL
REMARK 924 INTRA-LIGAND FREE ENERGY PREDICTED BY IDOCK:    2.91 KCAL/MOL
REMARK 927      BINDING AFFINITY PREDICTED BY RF-SCORE:    0.00 PKD
ROOT
HETATM    1  N   UNL     1      -7.557   4.213  71.283  1.00  0.00    -0.058 N  
HETATM    2  C   UNL     1      -6.996   4.920  72.335  1.00  0.00    -0.074 C  
HETATM    3  C   UNL     1     -11.936   5.581  73.528  1.00  0.00     1.064 A  
HETATM    4  H   UNL     1      -7.370   3.210  71.296  1.00  0.00     0.000 HD 
HETATM    5  C   UNL     1      -6.370   8.355  73.320  1.00  0.00    -0.115 A  
HETATM    6  O   UNL     1      -5.913   4.458  72.781  1.00  0.00    -0.014 OA 
HETATM    7  C   UNL     1      -6.028   9.843  71.449  1.00  0.00     0.043 A  
HETATM    8  C   UNL     1      -7.658   6.124  73.060  1.00  0.00    -0.097 C  
HETATM    9  O   UNL     1      -7.190   6.015  74.440  1.00  0.00    -0.087 OA 
HETATM   10  C   UNL     1      -7.125   7.464  72.522  1.00  0.00    -0.068 A  
HETATM   11  C   UNL     1     -10.029   7.060  73.309  1.00  0.00    -0.264 A  
HETATM   12  C   UNL     1      -9.164   5.960  73.217  1.00  0.00    -0.132 A  
HETATM   13  C   UNL     1      -7.356   7.833  71.192  1.00  0.00    -0.066 A  
HETATM   14  C   UNL     1      -9.718   4.672  73.373  1.00  0.00    -0.152 A  
HETATM   15  C   UNL     1     -11.408   6.866  73.456  1.00  0.00     0.341 A  
HETATM   16  H   UNL     1      -7.594   6.751  74.884  1.00  0.00     0.000 HD 
HETATM   17  C   UNL     1      -5.824   9.528  72.785  1.00  0.00     0.226 A  
HETATM   18  C   UNL     1     -11.089   4.477  73.495  1.00  0.00    -0.398 A  
HETATM   19  C   UNL     1      -6.807   9.003  70.655  1.00  0.00    -0.071 A  
ENDROOT
BRANCH   1  20
HETATM   20  N   UNL     1      -8.348   4.654  70.190  1.00  0.00    -0.070 NA 
HETATM   21  H   UNL     1      -9.122   4.115  69.801  1.00  0.00     0.000 HD 
BRANCH  20  22
HETATM   22  C   UNL     1      -7.983   5.822  69.731  1.00  0.00    -0.100 C  
HETATM   23  C   UNL     1      -6.974   7.313  67.952  1.00  0.00    -0.076 C  
HETATM   24  C   UNL     1      -8.396   7.846  67.670  1.00  0.00    -0.124 C  
HETATM   25  C   UNL     1      -9.401   6.991  68.428  1.00  0.00    -0.130 C  
HETATM   26  C   UNL     1      -6.782   6.255  68.806  1.00  0.00    -0.061 C  
HETATM   27  C   UNL     1      -5.970   8.186  67.168  1.00  0.00    -0.050 C  
HETATM   28  C   UNL     1      -8.922   6.975  69.874  1.00  0.00    -0.142 C  
HETATM   29  C   UNL     1      -8.760   7.719  66.176  1.00  0.00    -0.177 C  
HETATM   30  C   UNL     1      -6.226   9.778  67.188  1.00  0.00    -0.064 C  
HETATM   31  C   UNL     1      -7.713  10.299  67.357  1.00  0.00    -0.095 C  
HETATM   32  C   UNL     1      -7.925  11.803  67.901  1.00  0.00    -0.141 C  
HETATM   33  C   UNL     1      -7.868  12.834  66.727  1.00  0.00     0.202 C  
HETATM   34  C   UNL     1      -9.311  13.335  66.496  1.00  0.00    -0.221 C  
HETATM   35  C   UNL     1     -10.158  12.258  67.171  1.00  0.00    -0.208 C  
HETATM   36  C   UNL     1      -8.434   9.289  68.243  1.00  0.00    -0.120 C  
HETATM   37  C   UNL     1      -9.376  12.080  68.504  1.00  0.00    -0.127 C  
HETATM   38  C   UNL     1      -9.859   9.667  68.633  1.00  0.00    -0.171 C  
HETATM   39  C   UNL     1      -9.875  10.954  69.374  1.00  0.00    -0.055 C  
HETATM   40  C   UNL     1      -9.446  13.300  69.463  1.00  0.00     1.298 C  
BRANCH  35  41
HETATM   41  O   UNL     1     -11.576  12.482  67.199  1.00  0.00    -0.328 OA 
BRANCH  41  42
HETATM   42  C   UNL     1     -11.933  13.508  66.356  1.00  0.00    -0.414 C  
HETATM   43  O   UNL     1     -12.106  14.662  66.735  1.00  0.00    -0.353 OA 
BRANCH  42  44
HETATM   44  C   UNL     1     -12.153  13.191  64.892  1.00  0.00    -0.448 C  
BRANCH  44  45
HETATM   45  C   UNL     1     -11.002  13.007  63.914  1.00  0.00    -0.375 C  
BRANCH  45  46
HETATM   46  C   UNL     1     -11.309  12.021  62.794  1.00  0.00     0.524 C  
BRANCH  46  47
HETATM   47  C   UNL     1     -10.633  10.654  62.961  1.00  0.00     0.491 C  
BRANCH  47  48
HETATM   48  C   UNL     1      -9.550  10.630  64.041  1.00  0.00    -0.351 C  
HETATM   49  C   UNL     1      -8.160  10.479  63.436  1.00  0.00    -0.076 C  
ENDBRANCH  47  48
ENDBRANCH  46  47
ENDBRANCH  45  46
ENDBRANCH  44  45
ENDBRANCH  42  44
ENDBRANCH  41  42
ENDBRANCH  35  41
ENDBRANCH  20  22
ENDBRANCH   1  20
TORSDOF 9
ENDMDL
MODEL      138
REMARK 921   NORMALIZED FREE ENERGY PREDICTED BY IDOCK:    2.85 KCAL/MOL
REMARK 922        TOTAL FREE ENERGY PREDICTED BY IDOCK:    1.04 KCAL/MOL
REMARK 923 INTER-LIGAND FREE ENERGY PREDICTED BY IDOCK:   -3.30 KCAL/MOL
REMARK 924 INTRA-LIGAND FREE ENERGY PREDICTED BY IDOCK:    4.33 KCAL/MOL
REMARK 927      BINDING AFFINITY PREDICTED BY RF-SCORE:    0.00 PKD
ROOT
HETATM    1  N   UNL     1      -8.797  15.836  66.468  1.00  0.00    -0.282 N  
HETATM    2  C   UNL     1      -9.707  16.125  67.472  1.00  0.00    -0.233 C  
HETATM    3  C   UNL     1      -5.452  16.001  70.324  1.00  0.00    -0.164 A  
HETATM    4  H   UNL     1      -8.678  16.575  65.774  1.00  0.00     0.000 HD 
HETATM    5  C   UNL     1     -11.473  14.440  70.157  1.00  0.00    -0.280 A  
HETATM    6  O   UNL     1     -10.664  16.872  67.136  1.00  0.00    -0.282 OA 
HETATM    7  C   UNL     1     -11.923  12.113  69.697  1.00  0.00    -0.351 A  
HETATM    8  C   UNL     1      -9.560  15.713  68.962  1.00  0.00    -0.243 C  
HETATM    9  O   UNL     1     -10.197  16.801  69.702  1.00  0.00    -0.210 OA 
HETATM   10  C   UNL     1     -10.367  14.440  69.274  1.00  0.00    -0.116 A  
HETATM   11  C   UNL     1      -7.646  14.988  70.503  1.00  0.00     0.876 A  
HETATM   12  C   UNL     1      -8.120  15.790  69.454  1.00  0.00    -0.209 A  
HETATM   13  C   UNL     1     -10.038  13.226  68.659  1.00  0.00    -0.151 A  
HETATM   14  C   UNL     1      -7.244  16.756  68.917  1.00  0.00    -0.225 A  
HETATM   15  C   UNL     1      -6.316  15.092  70.927  1.00  0.00     0.235 A  
HETATM   16  H   UNL     1     -10.107  16.549  70.614  1.00  0.00     0.000 HD 
HETATM   17  C   UNL     1     -12.244  13.290  70.359  1.00  0.00    -0.404 A  
HETATM   18  C   UNL     1      -5.917  16.844  69.320  1.00  0.00    -0.190 A  
HETATM   19  C   UNL     1     -10.810  12.077  68.857  1.00  0.00    -0.252 A  
ENDROOT
BRANCH   1  20
HETATM   20  N   UNL     1      -8.001  14.681  66.246  1.00  0.00     0.246 NA 
HETATM   21  H   UNL     1      -7.023  14.719  65.957  1.00  0.00     0.000 HD 
BRANCH  20  22
HETATM   22  C   UNL     1      -8.650  13.565  66.449  1.00  0.00     0.371 C  
HETATM   23  C   UNL     1      -9.885  11.514  65.629  1.00  0.00    -0.269 C  
HETATM   24  C   UNL     1      -8.663  10.673  66.059  1.00  0.00    -0.186 C  
HETATM   25  C   UNL     1      -7.524  11.614  66.428  1.00  0.00     0.112 C  
HETATM   26  C   UNL     1      -9.835  12.885  65.662  1.00  0.00    -0.185 C  
HETATM   27  C   UNL     1     -11.025  10.544  65.251  1.00  0.00     0.304 C  
HETATM   28  C   UNL     1      -8.106  12.590  67.441  1.00  0.00    -0.180 C  
HETATM   29  C   UNL     1      -8.144   9.799  64.898  1.00  0.00    -0.140 C  
HETATM   30  C   UNL     1     -11.251   9.277  66.224  1.00  0.00     1.647 C  
HETATM   31  C   UNL     1     -10.004   8.708  67.019  1.00  0.00    -0.317 C  
HETATM   32  C   UNL     1     -10.293   7.836  68.345  1.00  0.00    -0.231 C  
HETATM   33  C   UNL     1     -10.543   6.336  67.983  1.00  0.00    -0.326 C  
HETATM   34  C   UNL     1      -9.296   5.548  68.440  1.00  0.00    -0.130 C  
HETATM   35  C   UNL     1      -8.235   6.637  68.579  1.00  0.00    -0.119 C  
HETATM   36  C   UNL     1      -9.102   9.898  67.331  1.00  0.00    -0.147 C  
HETATM   37  C   UNL     1      -9.048   7.725  69.337  1.00  0.00    -0.146 C  
HETATM   38  C   UNL     1      -7.892   9.584  68.205  1.00  0.00    -0.083 C  
HETATM   39  C   UNL     1      -8.322   9.035  69.516  1.00  0.00    -0.117 C  
HETATM   40  C   UNL     1      -9.427   7.351  70.797  1.00  0.00    -0.167 C  
BRANCH  35  41
HETATM   41  O   UNL     1      -6.954   6.225  69.079  1.00  0.00    -0.063 OA 
BRANCH  41  42
HETATM   42  C   UNL     1      -6.976   6.087  70.447  1.00  0.00    -0.059 C  
HETATM   43  O   UNL     1      -7.980   5.762  71.075  1.00  0.00    -0.110 OA 
BRANCH  42  44
HETATM   44  C   UNL     1      -5.708   6.379  71.220  1.00  0.00    -0.027 C  
BRANCH  44  45
HETATM   45  C   UNL     1      -5.163   5.434  72.281  1.00  0.00    -0.016 C  
BRANCH  45  46
HETATM   46  C   UNL     1      -5.137   6.041  73.678  1.00  0.00    -0.024 C  
BRANCH  46  47
HETATM   47  C   UNL     1      -6.493   6.017  74.396  1.00  0.00    -0.075 C  
BRANCH  47  48
HETATM   48  C   UNL     1      -7.124   7.400  74.566  1.00  0.00    -0.122 C  
HETATM   49  C   UNL     1      -8.617   7.374  74.261  1.00  0.00    -0.258 C  
ENDBRANCH  47  48
ENDBRANCH  46  47
ENDBRANCH  45  46
ENDBRANCH  44  45
ENDBRANCH  42  44
ENDBRANCH  41  42
ENDBRANCH  35  41
ENDBRANCH  20  22
ENDBRANCH   1  20
TORSDOF 9
ENDMDL
MODEL      139
REMARK 921   NORMALIZED FREE ENERGY PREDICTED BY IDOCK:    3.00 KCAL/MOL
REMARK 922        TOTAL FREE ENERGY PREDICTED BY IDOCK:    1.27 KCAL/MOL
REMARK 923 INTER-LIGAND FREE ENERGY PREDICTED BY IDOCK:   -7.84 KCAL/MOL
REMARK 924 INTRA-LIGAND FREE ENERGY PREDICTED BY IDOCK:    9.11 KCAL/MOL
REMARK 927      BINDING AFFINITY PREDICTED BY RF-SCORE:    0.00 PKD
ROOT
HETATM    1  N   UNL     1      -9.712   4.251  72.945  1.00  0.00    -0.128 N  
HETATM    2  C   UNL     1      -8.359   4.005  73.116  1.00  0.00    -0.089 C  
HETATM    3  C   UNL     1      -8.020   8.634  70.943  1.00  0.00    -0.137 A  
HETATM    4  H   UNL     1     -10.238   4.358  73.812  1.00  0.00     0.000 HD 
HETATM    5  C   UNL     1      -5.484   2.957  71.166  1.00  0.00    -0.008 A  
HETATM    6  O   UNL     1      -8.052   3.364  74.155  1.00  0.00    -0.069 OA 
HETATM    7  C   UNL     1      -6.051   1.500  69.326  1.00  0.00    -0.024 A  
HETATM    8  C   UNL     1      -7.225   4.563  72.212  1.00  0.00    -0.071 C  
HETATM    9  O   UNL     1      -6.097   4.748  73.121  1.00  0.00    -0.023 OA 
HETATM   10  C   UNL     1      -6.780   3.525  71.166  1.00  0.00    -0.031 A  
HETATM   11  C   UNL     1      -6.966   6.489  70.543  1.00  0.00    -0.064 A  
HETATM   12  C   UNL     1      -7.496   5.987  71.740  1.00  0.00    -0.095 A  
HETATM   13  C   UNL     1      -7.672   3.084  70.183  1.00  0.00    -0.044 A  
HETATM   14  C   UNL     1      -8.220   6.874  72.564  1.00  0.00    -0.110 A  
HETATM   15  C   UNL     1      -7.236   7.805  70.147  1.00  0.00    -0.062 A  
HETATM   16  H   UNL     1      -5.403   5.089  72.569  1.00  0.00     0.000 HD 
HETATM   17  C   UNL     1      -5.129   1.952  70.259  1.00  0.00    -0.004 A  
HETATM   18  C   UNL     1      -8.509   8.172  72.161  1.00  0.00    -0.216 A  
HETATM   19  C   UNL     1      -7.320   2.077  69.278  1.00  0.00    -0.043 A  
ENDROOT
BRANCH   1  20
HETATM   20  N   UNL     1     -10.487   4.378  71.762  1.00  0.00    -0.067 NA 
HETATM   21  H   UNL     1     -11.343   3.850  71.591  1.00  0.00     0.000 HD 
BRANCH  20  22
HETATM   22  C   UNL     1      -9.991   5.241  70.915  1.00  0.00    -0.208 C  
HETATM   23  C   UNL     1      -9.263   5.931  68.591  1.00  0.00    -0.120 C  
HETATM   24  C   UNL     1     -10.497   6.859  68.540  1.00  0.00    -0.229 C  
HETATM   25  C   UNL     1     -11.387   6.560  69.738  1.00  0.00    -0.456 C  
HETATM   26  C   UNL     1      -9.094   5.052  69.632  1.00  0.00    -0.151 C  
HETATM   27  C   UNL     1      -8.378   6.241  67.365  1.00  0.00    -0.109 C  
HETATM   28  C   UNL     1     -10.481   6.651  70.959  1.00  0.00    -0.246 C  
HETATM   29  C   UNL     1     -11.354   6.587  67.285  1.00  0.00    -0.117 C  
HETATM   30  C   UNL     1      -8.170   7.797  66.997  1.00  0.00    -0.117 C  
HETATM   31  C   UNL     1      -9.317   8.821  67.382  1.00  0.00    -0.166 C  
HETATM   32  C   UNL     1      -8.921  10.379  67.513  1.00  0.00    -0.138 C  
HETATM   33  C   UNL     1      -8.977  11.088  66.122  1.00  0.00    -0.203 C  
HETATM   34  C   UNL     1     -10.222  12.003  66.132  1.00  0.00    -0.255 C  
HETATM   35  C   UNL     1     -11.057  11.431  67.274  1.00  0.00    -0.303 C  
HETATM   36  C   UNL     1      -9.950   8.307  68.671  1.00  0.00    -0.203 C  
HETATM   37  C   UNL     1      -9.957  11.247  68.360  1.00  0.00    -0.201 C  
HETATM   38  C   UNL     1     -11.007   9.218  69.286  1.00  0.00    -0.105 C  
HETATM   39  C   UNL     1     -10.427  10.546  69.611  1.00  0.00    -0.257 C  
HETATM   40  C   UNL     1      -9.373  12.573  68.920  1.00  0.00     0.266 C  
BRANCH  35  41
HETATM   41  O   UNL     1     -12.268  12.131  67.596  1.00  0.00    -0.462 OA 
BRANCH  41  42
HETATM   42  C   UNL     1     -12.050  13.081  68.566  1.00  0.00    -0.149 C  
HETATM   43  O   UNL     1     -12.196  12.864  69.766  1.00  0.00    -0.255 OA 
BRANCH  42  44
HETATM   44  C   UNL     1     -11.638  14.471  68.132  1.00  0.00    -0.359 C  
BRANCH  44  45
HETATM   45  C   UNL     1     -11.698  15.670  69.067  1.00  0.00    -0.408 C  
BRANCH  45  46
HETATM   46  C   UNL     1     -10.357  16.371  69.242  1.00  0.00    -0.292 C  
BRANCH  46  47
HETATM   47  C   UNL     1      -9.971  17.285  68.073  1.00  0.00    -0.304 C  
BRANCH  47  48
HETATM   48  C   UNL     1     -10.279  18.763  68.318  1.00  0.00    -0.425 C  
HETATM   49  C   UNL     1     -10.716  19.463  67.038  1.00  0.00    -0.582 C  
ENDBRANCH  47  48
ENDBRANCH  46  47
ENDBRANCH  45  46
ENDBRANCH  44  45
ENDBRANCH  42  44
ENDBRANCH  41  42
ENDBRANCH  35  41
ENDBRANCH  20  22
ENDBRANCH   1  20
TORSDOF 9
ENDMDL
MODEL      140
REMARK 921   NORMALIZED FREE ENERGY PREDICTED BY IDOCK:    3.02 KCAL/MOL
REMARK 922        TOTAL FREE ENERGY PREDICTED BY IDOCK:    1.30 KCAL/MOL
REMARK 923 INTER-LIGAND FREE ENERGY PREDICTED BY IDOCK:   -6.07 KCAL/MOL
REMARK 924 INTRA-LIGAND FREE ENERGY PREDICTED BY IDOCK:    7.38 KCAL/MOL
REMARK 927      BINDING AFFINITY PREDICTED BY RF-SCORE:    0.00 PKD
ROOT
HETATM    1  N   UNL     1     -11.033  12.811  65.692  1.00  0.00    -0.269 N  
HETATM    2  C   UNL     1     -10.612  13.931  66.391  1.00  0.00    -0.280 C  
HETATM    3  C   UNL     1      -7.029  10.642  68.005  1.00  0.00    -0.073 A  
HETATM    4  H   UNL     1     -10.947  12.884  64.679  1.00  0.00     0.000 HD 
HETATM    5  C   UNL     1     -10.767  15.302  69.747  1.00  0.00    -0.295 A  
HETATM    6  O   UNL     1     -10.765  15.030  65.796  1.00  0.00    -0.311 OA 
HETATM    7  C   UNL     1     -12.744  14.638  70.965  1.00  0.00    -0.406 A  
HETATM    8  C   UNL     1      -9.869  13.910  67.755  1.00  0.00    -0.237 C  
HETATM    9  O   UNL     1      -8.985  15.072  67.703  1.00  0.00    -0.172 OA 
HETATM   10  C   UNL     1     -10.841  14.152  68.925  1.00  0.00    -0.276 A  
HETATM   11  C   UNL     1      -8.524  12.200  69.105  1.00  0.00     0.519 A  
HETATM   12  C   UNL     1      -8.880  12.757  67.869  1.00  0.00    -0.186 A  
HETATM   13  C   UNL     1     -11.862  13.235  69.197  1.00  0.00    -0.378 A  
HETATM   14  C   UNL     1      -8.218  12.283  66.717  1.00  0.00    -0.058 A  
HETATM   15  C   UNL     1      -7.607  11.143  69.167  1.00  0.00    -0.098 A  
HETATM   16  H   UNL     1      -8.531  15.060  68.537  1.00  0.00     0.000 HD 
HETATM   17  C   UNL     1     -11.713  15.542  70.750  1.00  0.00    -0.397 A  
HETATM   18  C   UNL     1      -7.327  11.219  66.774  1.00  0.00    -0.146 A  
HETATM   19  C   UNL     1     -12.810  13.476  70.197  1.00  0.00     0.075 A  
ENDROOT
BRANCH   1  20
HETATM   20  N   UNL     1     -11.565  11.578  66.154  1.00  0.00    -0.314 NA 
HETATM   21  H   UNL     1     -12.386  11.131  65.747  1.00  0.00     0.000 HD 
BRANCH  20  22
HETATM   22  C   UNL     1     -10.894  11.075  67.157  1.00  0.00    -0.282 C  
HETATM   23  C   UNL     1     -10.735  10.178  69.518  1.00  0.00    -0.277 C  
HETATM   24  C   UNL     1     -10.539   8.771  68.912  1.00  0.00    -0.178 C  
HETATM   25  C   UNL     1     -10.806   8.838  67.416  1.00  0.00    -0.087 C  
HETATM   26  C   UNL     1     -11.056  11.245  68.716  1.00  0.00    -0.288 C  
HETATM   27  C   UNL     1     -10.469  10.088  71.037  1.00  0.00     0.096 C  
HETATM   28  C   UNL     1      -9.929   9.967  66.890  1.00  0.00    -0.268 C  
HETATM   29  C   UNL     1     -11.555   7.763  69.489  1.00  0.00     0.497 C  
HETATM   30  C   UNL     1      -9.198   9.209  71.498  1.00  0.00    -0.156 C  
HETATM   31  C   UNL     1      -8.743   8.003  70.577  1.00  0.00    -0.135 C  
HETATM   32  C   UNL     1      -7.226   7.477  70.723  1.00  0.00    -0.067 C  
HETATM   33  C   UNL     1      -7.108   6.428  71.876  1.00  0.00    -0.081 C  
HETATM   34  C   UNL     1      -6.908   5.048  71.213  1.00  0.00    -0.040 C  
HETATM   35  C   UNL     1      -7.395   5.281  69.785  1.00  0.00    -0.064 C  
HETATM   36  C   UNL     1      -9.045   8.412  69.138  1.00  0.00    -0.147 C  
HETATM   37  C   UNL     1      -6.702   6.639  69.471  1.00  0.00    -0.050 C  
HETATM   38  C   UNL     1      -8.568   7.433  68.071  1.00  0.00    -0.122 C  
HETATM   39  C   UNL     1      -7.097   7.249  68.149  1.00  0.00    -0.081 C  
HETATM   40  C   UNL     1      -5.154   6.563  69.355  1.00  0.00    -0.013 C  
BRANCH  35  41
HETATM   41  O   UNL     1      -7.258   4.181  68.873  1.00  0.00    -0.053 OA 
BRANCH  41  42
HETATM   42  C   UNL     1      -7.662   3.002  69.453  1.00  0.00    -0.046 C  
HETATM   43  O   UNL     1      -6.960   1.997  69.495  1.00  0.00    -0.033 OA 
BRANCH  42  44
HETATM   44  C   UNL     1      -9.054   2.931  70.044  1.00  0.00    -0.193 C  
BRANCH  44  45
HETATM   45  C   UNL     1     -10.026   4.101  69.988  1.00  0.00    -0.137 C  
BRANCH  45  46
HETATM   46  C   UNL     1     -10.524   4.543  71.358  1.00  0.00    -0.029 C  
BRANCH  46  47
HETATM   47  C   UNL     1     -10.099   3.620  72.507  1.00  0.00    -0.237 C  
BRANCH  47  48
HETATM   48  C   UNL     1      -9.199   4.297  73.541  1.00  0.00    -0.106 C  
HETATM   49  C   UNL     1      -9.788   5.621  74.012  1.00  0.00    -0.190 C  
ENDBRANCH  47  48
ENDBRANCH  46  47
ENDBRANCH  45  46
ENDBRANCH  44  45
ENDBRANCH  42  44
ENDBRANCH  41  42
ENDBRANCH  35  41
ENDBRANCH  20  22
ENDBRANCH   1  20
TORSDOF 9
ENDMDL
MODEL      141
REMARK 921   NORMALIZED FREE ENERGY PREDICTED BY IDOCK:    3.11 KCAL/MOL
REMARK 922        TOTAL FREE ENERGY PREDICTED BY IDOCK:    1.44 KCAL/MOL
REMARK 923 INTER-LIGAND FREE ENERGY PREDICTED BY IDOCK:   -5.29 KCAL/MOL
REMARK 924 INTRA-LIGAND FREE ENERGY PREDICTED BY IDOCK:    6.73 KCAL/MOL
REMARK 927      BINDING AFFINITY PREDICTED BY RF-SCORE:    0.00 PKD
ROOT
HETATM    1  N   UNL     1     -11.186  15.458  66.260  1.00  0.00    -0.230 N  
HETATM    2  C   UNL     1     -10.850  16.216  67.370  1.00  0.00    -0.265 C  
HETATM    3  C   UNL     1      -7.261  12.585  67.818  1.00  0.00    -0.125 A  
HETATM    4  H   UNL     1     -11.039  15.925  65.365  1.00  0.00     0.000 HD 
HETATM    5  C   UNL     1     -11.264  16.154  70.975  1.00  0.00    -0.297 A  
HETATM    6  O   UNL     1     -11.004  17.459  67.244  1.00  0.00    -0.190 OA 
HETATM    7  C   UNL     1     -13.289  15.050  71.689  1.00  0.00    -0.490 A  
HETATM    8  C   UNL     1     -10.194  15.666  68.667  1.00  0.00    -0.212 C  
HETATM    9  O   UNL     1      -9.350  16.761  69.138  1.00  0.00    -0.245 OA 
HETATM   10  C   UNL     1     -11.245  15.420  69.765  1.00  0.00    -0.297 A  
HETATM   11  C   UNL     1      -8.877  13.572  69.331  1.00  0.00     0.975 A  
HETATM   12  C   UNL     1      -9.174  14.569  68.390  1.00  0.00    -0.196 A  
HETATM   13  C   UNL     1     -12.249  14.462  69.581  1.00  0.00    -0.353 A  
HETATM   14  C   UNL     1      -8.425  14.592  67.196  1.00  0.00    -0.234 A  
HETATM   15  C   UNL     1      -7.929  12.583  69.039  1.00  0.00     0.284 A  
HETATM   16  H   UNL     1      -8.949  16.425  69.931  1.00  0.00     0.000 HD 
HETATM   17  C   UNL     1     -12.279  15.973  71.921  1.00  0.00    -0.560 A  
HETATM   18  C   UNL     1      -7.501  13.597  66.894  1.00  0.00     0.525 A  
HETATM   19  C   UNL     1     -13.266  14.283  70.525  1.00  0.00    -0.061 A  
ENDROOT
BRANCH   1  20
HETATM   20  N   UNL     1     -11.702  14.139  66.162  1.00  0.00    -0.378 NA 
HETATM   21  H   UNL     1     -12.529  13.897  65.617  1.00  0.00     0.000 HD 
BRANCH  20  22
HETATM   22  C   UNL     1     -11.008  13.266  66.844  1.00  0.00    -0.283 C  
HETATM   23  C   UNL     1     -10.799  11.441  68.585  1.00  0.00    -0.249 C  
HETATM   24  C   UNL     1     -10.590  10.438  67.429  1.00  0.00    -0.321 C  
HETATM   25  C   UNL     1     -10.882  11.139  66.110  1.00  0.00    -0.247 C  
HETATM   26  C   UNL     1     -11.148  12.743  68.325  1.00  0.00    -0.288 C  
HETATM   27  C   UNL     1     -10.508  10.710  69.913  1.00  0.00    -0.136 C  
HETATM   28  C   UNL     1     -10.030  12.402  66.117  1.00  0.00    -0.267 C  
HETATM   29  C   UNL     1     -11.582   9.259  67.521  1.00  0.00     1.731 C  
HETATM   30  C   UNL     1      -9.217   9.744  69.941  1.00  0.00    -0.263 C  
HETATM   31  C   UNL     1      -8.758   9.064  68.585  1.00  0.00    -0.133 C  
HETATM   32  C   UNL     1      -7.230   8.557  68.478  1.00  0.00    -0.081 C  
HETATM   33  C   UNL     1      -7.078   7.116  69.064  1.00  0.00    -0.084 C  
HETATM   34  C   UNL     1      -6.867   6.162  67.868  1.00  0.00    -0.066 C  
HETATM   35  C   UNL     1      -7.380   6.979  66.685  1.00  0.00    -0.080 C  
HETATM   36  C   UNL     1      -9.087  10.047  67.466  1.00  0.00    -0.144 C  
HETATM   37  C   UNL     1      -6.712   8.353  66.983  1.00  0.00    -0.062 C  
HETATM   38  C   UNL     1      -8.613   9.635  66.077  1.00  0.00    -0.144 C  
HETATM   39  C   UNL     1      -7.138   9.466  66.057  1.00  0.00    -0.091 C  
HETATM   40  C   UNL     1      -5.166   8.367  66.834  1.00  0.00    -0.032 C  
BRANCH  35  41
HETATM   41  O   UNL     1      -7.241   6.384  65.386  1.00  0.00    -0.066 OA 
BRANCH  41  42
HETATM   42  C   UNL     1      -7.757   5.109  65.366  1.00  0.00    -0.087 C  
HETATM   43  O   UNL     1      -7.217   4.174  64.782  1.00  0.00    -0.067 OA 
BRANCH  42  44
HETATM   44  C   UNL     1      -9.069   4.854  66.075  1.00  0.00    -0.139 C  
BRANCH  44  45
HETATM   45  C   UNL     1      -9.244   3.738  67.095  1.00  0.00    -0.205 C  
BRANCH  45  46
HETATM   46  C   UNL     1      -9.528   4.243  68.504  1.00  0.00    -0.216 C  
BRANCH  46  47
HETATM   47  C   UNL     1     -10.042   5.687  68.560  1.00  0.00    -0.236 C  
BRANCH  47  48
HETATM   48  C   UNL     1     -11.050   5.939  69.682  1.00  0.00    -0.414 C  
HETATM   49  C   UNL     1     -10.370   5.981  71.045  1.00  0.00    -0.270 C  
ENDBRANCH  47  48
ENDBRANCH  46  47
ENDBRANCH  45  46
ENDBRANCH  44  45
ENDBRANCH  42  44
ENDBRANCH  41  42
ENDBRANCH  35  41
ENDBRANCH  20  22
ENDBRANCH   1  20
TORSDOF 9
ENDMDL
MODEL      142
REMARK 921   NORMALIZED FREE ENERGY PREDICTED BY IDOCK:    3.78 KCAL/MOL
REMARK 922        TOTAL FREE ENERGY PREDICTED BY IDOCK:    2.46 KCAL/MOL
REMARK 923 INTER-LIGAND FREE ENERGY PREDICTED BY IDOCK:   -5.36 KCAL/MOL
REMARK 924 INTRA-LIGAND FREE ENERGY PREDICTED BY IDOCK:    7.82 KCAL/MOL
REMARK 927      BINDING AFFINITY PREDICTED BY RF-SCORE:    0.00 PKD
ROOT
HETATM    1  N   UNL     1     -11.463  15.202  68.550  1.00  0.00    -0.305 N  
HETATM    2  C   UNL     1     -10.868  15.900  67.511  1.00  0.00    -0.305 C  
HETATM    3  C   UNL     1     -10.709  11.207  65.460  1.00  0.00    -0.251 A  
HETATM    4  H   UNL     1     -12.444  15.432  68.711  1.00  0.00     0.000 HD 
HETATM    5  C   UNL     1      -7.562  16.530  66.155  1.00  0.00     0.007 A  
HETATM    6  O   UNL     1     -11.312  17.062  67.315  1.00  0.00     0.149 OA 
HETATM    7  C   UNL     1      -5.816  16.487  67.822  1.00  0.00    -0.148 A  
HETATM    8  C   UNL     1      -9.821  15.317  66.523  1.00  0.00    -0.266 C  
HETATM    9  O   UNL     1     -10.083  16.014  65.266  1.00  0.00    -0.475 OA 
HETATM   10  C   UNL     1      -8.387  15.691  66.942  1.00  0.00    -0.287 A  
HETATM   11  C   UNL     1      -9.088  12.982  65.766  1.00  0.00     0.385 A  
HETATM   12  C   UNL     1     -10.105  13.867  66.152  1.00  0.00    -0.317 A  
HETATM   13  C   UNL     1      -7.859  15.225  68.150  1.00  0.00    -0.122 A  
HETATM   14  C   UNL     1     -11.437  13.404  66.097  1.00  0.00    -0.354 A  
HETATM   15  C   UNL     1      -9.392  11.658  65.429  1.00  0.00    -0.143 A  
HETATM   16  H   UNL     1      -9.442  15.658  64.662  1.00  0.00     0.000 HD 
HETATM   17  C   UNL     1      -6.295  16.926  66.596  1.00  0.00    -0.214 A  
HETATM   18  C   UNL     1     -11.738  12.084  65.786  1.00  0.00    -0.313 A  
HETATM   19  C   UNL     1      -6.593  15.623  68.594  1.00  0.00    -0.110 A  
ENDROOT
BRANCH   1  20
HETATM   20  N   UNL     1     -10.933  14.220  69.427  1.00  0.00    -0.343 NA 
HETATM   21  H   UNL     1     -11.076  14.231  70.438  1.00  0.00     0.000 HD 
BRANCH  20  22
HETATM   22  C   UNL     1     -10.243  13.299  68.808  1.00  0.00    -0.109 C  
HETATM   23  C   UNL     1      -8.105  12.015  68.377  1.00  0.00    -0.154 C  
HETATM   24  C   UNL     1      -8.756  10.803  69.079  1.00  0.00    -0.136 C  
HETATM   25  C   UNL     1     -10.056  11.251  69.730  1.00  0.00     0.544 C  
HETATM   26  C   UNL     1      -8.727  13.239  68.377  1.00  0.00    -0.126 C  
HETATM   27  C   UNL     1      -6.783  11.544  67.732  1.00  0.00    -0.072 C  
HETATM   28  C   UNL     1     -10.850  11.946  68.630  1.00  0.00    -0.273 C  
HETATM   29  C   UNL     1      -7.864  10.266  70.219  1.00  0.00     0.195 C  
HETATM   30  C   UNL     1      -6.817  10.124  66.968  1.00  0.00    -0.083 C  
HETATM   31  C   UNL     1      -7.853   9.030  67.459  1.00  0.00    -0.100 C  
HETATM   32  C   UNL     1      -8.266   7.867  66.420  1.00  0.00    -0.121 C  
HETATM   33  C   UNL     1      -7.243   6.686  66.470  1.00  0.00    -0.073 C  
HETATM   34  C   UNL     1      -7.948   5.506  67.173  1.00  0.00    -0.102 C  
HETATM   35  C   UNL     1      -9.104   6.186  67.903  1.00  0.00    -0.117 C  
HETATM   36  C   UNL     1      -9.084   9.782  67.955  1.00  0.00    -0.127 C  
HETATM   37  C   UNL     1      -9.632   7.125  66.780  1.00  0.00    -0.230 C  
HETATM   38  C   UNL     1     -10.262   8.905  68.364  1.00  0.00    -0.231 C  
HETATM   39  C   UNL     1     -10.718   8.075  67.220  1.00  0.00    -0.280 C  
HETATM   40  C   UNL     1     -10.295   6.391  65.582  1.00  0.00     1.261 C  
BRANCH  35  41
HETATM   41  O   UNL     1     -10.017   5.325  68.601  1.00  0.00    -0.151 OA 
BRANCH  41  42
HETATM   42  C   UNL     1     -10.241   5.773  69.882  1.00  0.00    -0.236 C  
HETATM   43  O   UNL     1     -11.306   6.260  70.248  1.00  0.00    -0.357 OA 
BRANCH  42  44
HETATM   44  C   UNL     1      -9.107   5.690  70.881  1.00  0.00    -0.160 C  
BRANCH  44  45
HETATM   45  C   UNL     1      -8.717   4.389  71.567  1.00  0.00    -0.140 C  
BRANCH  45  46
HETATM   46  C   UNL     1      -8.215   4.581  72.993  1.00  0.00    -0.099 C  
BRANCH  46  47
HETATM   47  C   UNL     1      -9.175   5.366  73.895  1.00  0.00    -0.122 C  
BRANCH  47  48
HETATM   48  C   UNL     1      -9.074   6.883  73.731  1.00  0.00    -0.196 C  
HETATM   49  C   UNL     1     -10.441   7.549  73.829  1.00  0.00    -0.149 C  
ENDBRANCH  47  48
ENDBRANCH  46  47
ENDBRANCH  45  46
ENDBRANCH  44  45
ENDBRANCH  42  44
ENDBRANCH  41  42
ENDBRANCH  35  41
ENDBRANCH  20  22
ENDBRANCH   1  20
TORSDOF 9
ENDMDL
MODEL      143
REMARK 921   NORMALIZED FREE ENERGY PREDICTED BY IDOCK:    4.06 KCAL/MOL
REMARK 922        TOTAL FREE ENERGY PREDICTED BY IDOCK:    2.88 KCAL/MOL
REMARK 923 INTER-LIGAND FREE ENERGY PREDICTED BY IDOCK:   -5.39 KCAL/MOL
REMARK 924 INTRA-LIGAND FREE ENERGY PREDICTED BY IDOCK:    8.27 KCAL/MOL
REMARK 927      BINDING AFFINITY PREDICTED BY RF-SCORE:    0.00 PKD
ROOT
HETATM    1  N   UNL     1      -8.812   7.410  73.256  1.00  0.00    -0.143 N  
HETATM    2  C   UNL     1      -9.907   6.571  73.383  1.00  0.00    -0.184 C  
HETATM    3  C   UNL     1      -7.983   4.646  69.041  1.00  0.00    -0.071 A  
HETATM    4  H   UNL     1      -8.103   7.298  73.980  1.00  0.00     0.000 HD 
HETATM    5  C   UNL     1     -13.240   6.164  72.006  1.00  0.00     0.500 A  
HETATM    6  O   UNL     1     -10.217   6.260  74.564  1.00  0.00    -0.330 OA 
HETATM    7  C   UNL     1     -14.252   8.243  71.312  1.00  0.00    -0.323 A  
HETATM    8  C   UNL     1     -10.670   5.906  72.205  1.00  0.00    -0.231 C  
HETATM    9  O   UNL     1     -11.120   4.624  72.743  1.00  0.00    -0.200 OA 
HETATM   10  C   UNL     1     -11.939   6.698  71.841  1.00  0.00    -0.386 A  
HETATM   11  C   UNL     1     -10.183   5.379  69.746  1.00  0.00    -0.348 A  
HETATM   12  C   UNL     1      -9.745   5.473  71.074  1.00  0.00    -0.229 A  
HETATM   13  C   UNL     1     -11.841   8.005  71.352  1.00  0.00    -0.326 A  
HETATM   14  C   UNL     1      -8.428   5.059  71.365  1.00  0.00    -0.121 A  
HETATM   15  C   UNL     1      -9.301   4.974  68.736  1.00  0.00    -0.175 A  
HETATM   16  H   UNL     1     -11.586   4.217  72.023  1.00  0.00     0.000 HD 
HETATM   17  C   UNL     1     -14.381   6.932  71.750  1.00  0.00    -0.385 A  
HETATM   18  C   UNL     1      -7.544   4.679  70.361  1.00  0.00    -0.054 A  
HETATM   19  C   UNL     1     -12.981   8.776  71.099  1.00  0.00    -0.130 A  
ENDROOT
BRANCH   1  20
HETATM   20  N   UNL     1      -8.514   8.400  72.282  1.00  0.00    -0.223 NA 
HETATM   21  H   UNL     1      -8.157   9.327  72.513  1.00  0.00     0.000 HD 
BRANCH  20  22
HETATM   22  C   UNL     1      -8.745   8.001  71.059  1.00  0.00    -0.135 C  
HETATM   23  C   UNL     1     -10.038   8.084  68.885  1.00  0.00    -0.209 C  
HETATM   24  C   UNL     1      -8.807   8.760  68.242  1.00  0.00    -0.141 C  
HETATM   25  C   UNL     1      -7.814   9.120  69.338  1.00  0.00    -0.095 C  
HETATM   26  C   UNL     1     -10.084   7.861  70.239  1.00  0.00    -0.196 C  
HETATM   27  C   UNL     1     -11.036   7.735  67.759  1.00  0.00     0.008 C  
HETATM   28  C   UNL     1      -7.588   7.837  70.128  1.00  0.00    -0.085 C  
HETATM   29  C   UNL     1      -9.189  10.087  67.552  1.00  0.00    -0.151 C  
HETATM   30  C   UNL     1     -10.415   7.107  66.410  1.00  0.00     0.149 C  
HETATM   31  C   UNL     1      -8.931   7.496  66.013  1.00  0.00    -0.164 C  
HETATM   32  C   UNL     1      -8.137   6.507  65.016  1.00  0.00    -0.127 C  
HETATM   33  C   UNL     1      -8.453   6.847  63.524  1.00  0.00     0.343 C  
HETATM   34  C   UNL     1      -7.190   7.513  62.935  1.00  0.00    -0.086 C  
HETATM   35  C   UNL     1      -6.425   7.956  64.179  1.00  0.00    -0.061 C  
HETATM   36  C   UNL     1      -8.164   7.691  67.317  1.00  0.00    -0.119 C  
HETATM   37  C   UNL     1      -6.550   6.676  65.056  1.00  0.00    -0.046 C  
HETATM   38  C   UNL     1      -6.670   7.954  67.160  1.00  0.00    -0.068 C  
HETATM   39  C   UNL     1      -6.011   6.825  66.457  1.00  0.00    -0.029 C  
HETATM   40  C   UNL     1      -5.764   5.447  64.523  1.00  0.00    -0.017 C  
BRANCH  35  41
HETATM   41  O   UNL     1      -5.136   8.550  63.963  1.00  0.00    -0.046 OA 
BRANCH  41  42
HETATM   42  C   UNL     1      -5.167   9.904  64.201  1.00  0.00    -0.078 C  
HETATM   43  O   UNL     1      -5.126  10.390  65.328  1.00  0.00    -0.064 OA 
BRANCH  42  44
HETATM   44  C   UNL     1      -5.289  10.840  63.018  1.00  0.00    -0.164 C  
BRANCH  44  45
HETATM   45  C   UNL     1      -6.629  11.192  62.389  1.00  0.00     0.123 C  
BRANCH  45  46
HETATM   46  C   UNL     1      -7.799  11.099  63.360  1.00  0.00     0.583 C  
BRANCH  46  47
HETATM   47  C   UNL     1      -9.168  10.970  62.681  1.00  0.00    -0.363 C  
BRANCH  47  48
HETATM   48  C   UNL     1     -10.333  10.834  63.663  1.00  0.00    -0.265 C  
HETATM   49  C   UNL     1     -11.258  12.042  63.603  1.00  0.00    -0.528 C  
ENDBRANCH  47  48
ENDBRANCH  46  47
ENDBRANCH  45  46
ENDBRANCH  44  45
ENDBRANCH  42  44
ENDBRANCH  41  42
ENDBRANCH  35  41
ENDBRANCH  20  22
ENDBRANCH   1  20
TORSDOF 9
ENDMDL
MODEL      144
REMARK 921   NORMALIZED FREE ENERGY PREDICTED BY IDOCK:    4.18 KCAL/MOL
REMARK 922        TOTAL FREE ENERGY PREDICTED BY IDOCK:    3.07 KCAL/MOL
REMARK 923 INTER-LIGAND FREE ENERGY PREDICTED BY IDOCK:   -3.81 KCAL/MOL
REMARK 924 INTRA-LIGAND FREE ENERGY PREDICTED BY IDOCK:    6.88 KCAL/MOL
REMARK 927      BINDING AFFINITY PREDICTED BY RF-SCORE:    0.00 PKD
ROOT
HETATM    1  N   UNL     1     -10.420   3.722  70.840  1.00  0.00     0.545 N  
HETATM    2  C   UNL     1     -10.159   4.179  72.123  1.00  0.00    -0.178 C  
HETATM    3  C   UNL     1      -9.692   8.630  69.626  1.00  0.00    -0.179 A  
HETATM    4  H   UNL     1     -11.372   3.388  70.693  1.00  0.00     0.000 HD 
HETATM    5  C   UNL     1      -7.327   5.119  74.188  1.00  0.00    -0.083 A  
HETATM    6  O   UNL     1     -10.806   3.611  73.042  1.00  0.00    -0.169 OA 
HETATM    7  C   UNL     1      -5.298   3.934  73.632  1.00  0.00    -0.003 A  
HETATM    8  C   UNL     1      -9.253   5.390  72.477  1.00  0.00    -0.136 C  
HETATM    9  O   UNL     1      -9.864   5.960  73.675  1.00  0.00    -0.158 OA 
HETATM   10  C   UNL     1      -7.839   4.933  72.882  1.00  0.00    -0.094 A  
HETATM   11  C   UNL     1      -8.336   7.439  71.244  1.00  0.00    -0.110 A  
HETATM   12  C   UNL     1      -9.379   6.531  71.476  1.00  0.00    -0.149 A  
HETATM   13  C   UNL     1      -7.015   4.282  71.957  1.00  0.00    -0.046 A  
HETATM   14  C   UNL     1     -10.607   6.758  70.820  1.00  0.00    -0.254 A  
HETATM   15  C   UNL     1      -8.493   8.477  70.318  1.00  0.00    -0.128 A  
HETATM   16  H   UNL     1      -9.310   6.701  73.891  1.00  0.00     0.000 HD 
HETATM   17  C   UNL     1      -6.074   4.619  74.557  1.00  0.00    -0.050 A  
HETATM   18  C   UNL     1     -10.758   7.773  69.883  1.00  0.00    -0.245 A  
HETATM   19  C   UNL     1      -5.763   3.778  72.326  1.00  0.00    -0.008 A  
ENDROOT
BRANCH   1  20
HETATM   20  N   UNL     1      -9.580   3.644  69.698  1.00  0.00    -0.176 NA 
HETATM   21  H   UNL     1      -9.545   2.833  69.080  1.00  0.00     0.000 HD 
BRANCH  20  22
HETATM   22  C   UNL     1      -8.857   4.717  69.520  1.00  0.00    -0.087 C  
HETATM   23  C   UNL     1      -6.633   5.904  69.281  1.00  0.00    -0.051 C  
HETATM   24  C   UNL     1      -6.955   6.088  67.781  1.00  0.00    -0.069 C  
HETATM   25  C   UNL     1      -8.190   5.268  67.439  1.00  0.00    -0.103 C  
HETATM   26  C   UNL     1      -7.441   5.130  70.078  1.00  0.00    -0.063 C  
HETATM   27  C   UNL     1      -5.374   6.735  69.607  1.00  0.00    -0.014 C  
HETATM   28  C   UNL     1      -9.253   5.680  68.449  1.00  0.00    -0.125 C  
HETATM   29  C   UNL     1      -5.816   5.548  66.890  1.00  0.00    -0.018 C  
HETATM   30  C   UNL     1      -5.295   8.213  68.967  1.00  0.00    -0.027 C  
HETATM   31  C   UNL     1      -6.045   8.480  67.597  1.00  0.00    -0.048 C  
HETATM   32  C   UNL     1      -6.422  10.005  67.232  1.00  0.00    -0.068 C  
HETATM   33  C   UNL     1      -5.224  10.723  66.530  1.00  0.00    -0.072 C  
HETATM   34  C   UNL     1      -5.604  10.884  65.042  1.00  0.00     0.024 C  
HETATM   35  C   UNL     1      -6.724   9.862  64.862  1.00  0.00    -0.123 C  
HETATM   36  C   UNL     1      -7.287   7.594  67.596  1.00  0.00    -0.095 C  
HETATM   37  C   UNL     1      -7.572  10.149  66.135  1.00  0.00    -0.114 C  
HETATM   38  C   UNL     1      -8.223   7.787  66.408  1.00  0.00    -0.116 C  
HETATM   39  C   UNL     1      -8.714   9.188  66.352  1.00  0.00    -0.147 C  
HETATM   40  C   UNL     1      -8.289  11.527  66.138  1.00  0.00    -0.018 C  
BRANCH  35  41
HETATM   41  O   UNL     1      -7.358   9.825  63.574  1.00  0.00    -0.114 OA 
BRANCH  41  42
HETATM   42  C   UNL     1      -6.811   8.845  62.780  1.00  0.00    -0.093 C  
HETATM   43  O   UNL     1      -5.660   8.889  62.353  1.00  0.00    -0.082 OA 
BRANCH  42  44
HETATM   44  C   UNL     1      -7.679   7.670  62.387  1.00  0.00    -0.119 C  
BRANCH  44  45
HETATM   45  C   UNL     1      -8.104   6.599  63.381  1.00  0.00    -0.009 C  
BRANCH  45  46
HETATM   46  C   UNL     1      -7.523   5.224  63.076  1.00  0.00    -0.052 C  
BRANCH  46  47
HETATM   47  C   UNL     1      -7.797   4.175  64.162  1.00  0.00    -0.085 C  
BRANCH  47  48
HETATM   48  C   UNL     1      -9.016   3.296  63.877  1.00  0.00    -0.093 C  
HETATM   49  C   UNL     1     -10.265   3.834  64.563  1.00  0.00    -0.209 C  
ENDBRANCH  47  48
ENDBRANCH  46  47
ENDBRANCH  45  46
ENDBRANCH  44  45
ENDBRANCH  42  44
ENDBRANCH  41  42
ENDBRANCH  35  41
ENDBRANCH  20  22
ENDBRANCH   1  20
TORSDOF 9
ENDMDL
MODEL      145
REMARK 921   NORMALIZED FREE ENERGY PREDICTED BY IDOCK:    4.32 KCAL/MOL
REMARK 922        TOTAL FREE ENERGY PREDICTED BY IDOCK:    3.28 KCAL/MOL
REMARK 923 INTER-LIGAND FREE ENERGY PREDICTED BY IDOCK:   -6.11 KCAL/MOL
REMARK 924 INTRA-LIGAND FREE ENERGY PREDICTED BY IDOCK:    9.39 KCAL/MOL
REMARK 927      BINDING AFFINITY PREDICTED BY RF-SCORE:    0.00 PKD
ROOT
HETATM    1  N   UNL     1      -5.381   5.458  65.443  1.00  0.00    -0.012 N  
HETATM    2  C   UNL     1      -6.309   4.463  65.181  1.00  0.00    -0.035 C  
HETATM    3  C   UNL     1      -9.554   8.385  65.768  1.00  0.00    -0.007 A  
HETATM    4  H   UNL     1      -4.767   5.684  64.661  1.00  0.00     0.000 HD 
HETATM    5  C   UNL     1      -8.653   2.346  66.968  1.00  0.00    -0.121 A  
HETATM    6  O   UNL     1      -5.942   3.583  64.359  1.00  0.00    -0.017 OA 
HETATM    7  C   UNL     1      -7.958   1.834  69.223  1.00  0.00    -0.056 A  
HETATM    8  C   UNL     1      -7.767   4.433  65.716  1.00  0.00    -0.090 C  
HETATM    9  O   UNL     1      -8.527   3.776  64.655  1.00  0.00    -0.096 OA 
HETATM   10  C   UNL     1      -7.889   3.537  66.962  1.00  0.00    -0.080 A  
HETATM   11  C   UNL     1      -9.426   6.138  66.666  1.00  0.00    -0.173 A  
HETATM   12  C   UNL     1      -8.406   5.816  65.760  1.00  0.00    -0.134 A  
HETATM   13  C   UNL     1      -7.212   3.870  68.141  1.00  0.00    -0.059 A  
HETATM   14  C   UNL     1      -8.041   6.788  64.805  1.00  0.00    -0.098 A  
HETATM   15  C   UNL     1      -9.990   7.420  66.671  1.00  0.00    -0.261 A  
HETATM   16  H   UNL     1      -9.419   3.757  64.982  1.00  0.00     0.000 HD 
HETATM   17  C   UNL     1      -8.680   1.504  68.085  1.00  0.00    -0.108 A  
HETATM   18  C   UNL     1      -8.582   8.069  64.825  1.00  0.00     0.043 A  
HETATM   19  C   UNL     1      -7.235   3.026  69.257  1.00  0.00    -0.045 A  
ENDROOT
BRANCH   1  20
HETATM   20  N   UNL     1      -5.144   6.216  66.620  1.00  0.00    -0.005 NA 
HETATM   21  H   UNL     1      -4.223   6.322  67.046  1.00  0.00     0.000 HD 
BRANCH  20  22
HETATM   22  C   UNL     1      -6.228   6.764  67.103  1.00  0.00    -0.033 C  
HETATM   23  C   UNL     1      -7.780   7.346  69.017  1.00  0.00    -0.118 C  
HETATM   24  C   UNL     1      -7.317   8.813  68.873  1.00  0.00    -0.078 C  
HETATM   25  C   UNL     1      -6.139   8.865  67.912  1.00  0.00    -0.051 C  
HETATM   26  C   UNL     1      -7.167   6.348  68.300  1.00  0.00    -0.085 C  
HETATM   27  C   UNL     1      -8.969   7.312  70.001  1.00  0.00    -0.142 C  
HETATM   28  C   UNL     1      -6.599   8.139  66.654  1.00  0.00    -0.056 C  
HETATM   29  C   UNL     1      -6.806   9.376  70.216  1.00  0.00    -0.080 C  
HETATM   30  C   UNL     1     -10.080   8.468  69.835  1.00  0.00    -0.195 C  
HETATM   31  C   UNL     1      -9.628   9.866  69.242  1.00  0.00    -0.215 C  
HETATM   32  C   UNL     1     -10.763  10.808  68.588  1.00  0.00    -0.242 C  
HETATM   33  C   UNL     1     -11.461  11.680  69.680  1.00  0.00    -0.359 C  
HETATM   34  C   UNL     1     -10.967  13.130  69.484  1.00  0.00     0.024 C  
HETATM   35  C   UNL     1      -9.697  12.950  68.657  1.00  0.00    -0.040 C  
HETATM   36  C   UNL     1      -8.512   9.579  68.241  1.00  0.00    -0.119 C  
HETATM   37  C   UNL     1     -10.195  11.924  67.598  1.00  0.00    -0.215 C  
HETATM   38  C   UNL     1      -8.012  10.789  67.460  1.00  0.00    -0.110 C  
HETATM   39  C   UNL     1      -9.117  11.402  66.681  1.00  0.00    -0.187 C  
HETATM   40  C   UNL     1     -11.244  12.484  66.598  1.00  0.00    -0.357 C  
BRANCH  35  41
HETATM   41  O   UNL     1      -9.032  14.149  68.232  1.00  0.00    -0.178 OA 
BRANCH  41  42
HETATM   42  C   UNL     1      -9.917  15.196  68.127  1.00  0.00    -0.221 C  
HETATM   43  O   UNL     1     -10.017  16.080  68.973  1.00  0.00    -0.217 OA 
BRANCH  42  44
HETATM   44  C   UNL     1     -10.834  15.245  66.924  1.00  0.00    -0.317 C  
BRANCH  44  45
HETATM   45  C   UNL     1     -10.386  15.792  65.577  1.00  0.00    -0.430 C  
BRANCH  45  46
HETATM   46  C   UNL     1     -11.530  16.334  64.730  1.00  0.00    -0.121 C  
BRANCH  46  47
HETATM   47  C   UNL     1     -12.327  15.253  63.989  1.00  0.00     0.046 C  
BRANCH  47  48
HETATM   48  C   UNL     1     -11.645  13.885  63.976  1.00  0.00    -0.253 C  
HETATM   49  C   UNL     1     -12.628  12.767  64.298  1.00  0.00    -0.405 C  
ENDBRANCH  47  48
ENDBRANCH  46  47
ENDBRANCH  45  46
ENDBRANCH  44  45
ENDBRANCH  42  44
ENDBRANCH  41  42
ENDBRANCH  35  41
ENDBRANCH  20  22
ENDBRANCH   1  20
TORSDOF 9
ENDMDL
MODEL      146
REMARK 921   NORMALIZED FREE ENERGY PREDICTED BY IDOCK:    4.36 KCAL/MOL
REMARK 922        TOTAL FREE ENERGY PREDICTED BY IDOCK:    3.33 KCAL/MOL
REMARK 923 INTER-LIGAND FREE ENERGY PREDICTED BY IDOCK:   -4.83 KCAL/MOL
REMARK 924 INTRA-LIGAND FREE ENERGY PREDICTED BY IDOCK:    8.17 KCAL/MOL
REMARK 927      BINDING AFFINITY PREDICTED BY RF-SCORE:    0.00 PKD
ROOT
HETATM    1  N   UNL     1     -10.899  16.682  68.933  1.00  0.00    -0.325 N  
HETATM    2  C   UNL     1     -10.559  17.383  67.787  1.00  0.00    -0.371 C  
HETATM    3  C   UNL     1     -10.683  12.670  65.780  1.00  0.00    -0.295 A  
HETATM    4  H   UNL     1     -11.831  16.885  69.295  1.00  0.00     0.000 HD 
HETATM    5  C   UNL     1      -7.633  18.094  65.761  1.00  0.00    -0.070 A  
HETATM    6  O   UNL     1     -11.070  18.529  67.681  1.00  0.00    -0.260 OA 
HETATM    7  C   UNL     1      -5.575  18.125  67.024  1.00  0.00    -0.158 A  
HETATM    8  C   UNL     1      -9.724  16.819  66.605  1.00  0.00    -0.269 C  
HETATM    9  O   UNL     1     -10.266  17.491  65.426  1.00  0.00    -0.593 OA 
HETATM   10  C   UNL     1      -8.247  17.241  66.710  1.00  0.00    -0.279 A  
HETATM   11  C   UNL     1      -9.092  14.497  65.726  1.00  0.00     0.322 A  
HETATM   12  C   UNL     1     -10.033  15.356  66.312  1.00  0.00    -0.308 A  
HETATM   13  C   UNL     1      -7.462  16.807  67.783  1.00  0.00    -0.176 A  
HETATM   14  C   UNL     1     -11.331  14.853  66.541  1.00  0.00    -0.319 A  
HETATM   15  C   UNL     1      -9.418  13.159  65.470  1.00  0.00     0.156 A  
HETATM   16  H   UNL     1      -9.755  17.146  64.703  1.00  0.00     0.000 HD 
HETATM   17  C   UNL     1      -6.314  18.533  65.923  1.00  0.00    -0.273 A  
HETATM   18  C   UNL     1     -11.649  13.520  66.310  1.00  0.00    -0.374 A  
HETATM   19  C   UNL     1      -6.145  17.249  67.948  1.00  0.00    -0.148 A  
ENDROOT
BRANCH   1  20
HETATM   20  N   UNL     1     -10.165  15.728  69.686  1.00  0.00    -0.275 NA 
HETATM   21  H   UNL     1     -10.165  15.696  70.705  1.00  0.00     0.000 HD 
BRANCH  20  22
HETATM   22  C   UNL     1      -9.490  14.895  68.938  1.00  0.00    -0.209 C  
HETATM   23  C   UNL     1      -7.355  13.709  68.275  1.00  0.00    -0.119 C  
HETATM   24  C   UNL     1      -7.957  12.414  68.864  1.00  0.00     0.150 C  
HETATM   25  C   UNL     1      -9.234  12.761  69.615  1.00  0.00     1.996 C  
HETATM   26  C   UNL     1      -7.995  14.912  68.439  1.00  0.00    -0.134 C  
HETATM   27  C   UNL     1      -6.057  13.337  67.526  1.00  0.00    -0.098 C  
HETATM   28  C   UNL     1     -10.085  13.559  68.635  1.00  0.00    -0.170 C  
HETATM   29  C   UNL     1      -7.008  11.770  69.897  1.00  0.00     0.310 C  
HETATM   30  C   UNL     1      -6.105  12.011  66.609  1.00  0.00     0.169 C  
HETATM   31  C   UNL     1      -7.102  10.850  67.018  1.00  0.00    -0.109 C  
HETATM   32  C   UNL     1      -7.544   9.802  65.874  1.00  0.00    -0.103 C  
HETATM   33  C   UNL     1      -6.503   8.643  65.747  1.00  0.00    -0.056 C  
HETATM   34  C   UNL     1      -7.160   7.379  66.343  1.00  0.00    -0.074 C  
HETATM   35  C   UNL     1      -8.292   7.950  67.193  1.00  0.00    -0.117 C  
HETATM   36  C   UNL     1      -8.321  11.518  67.647  1.00  0.00    -0.135 C  
HETATM   37  C   UNL     1      -8.882   8.998  66.206  1.00  0.00    -0.180 C  
HETATM   38  C   UNL     1      -9.466  10.578  68.005  1.00  0.00    -0.157 C  
HETATM   39  C   UNL     1      -9.961   9.872  66.796  1.00  0.00    -0.272 C  
HETATM   40  C   UNL     1      -9.587   8.391  64.962  1.00  0.00     0.943 C  
BRANCH  35  41
HETATM   41  O   UNL     1      -9.160   7.000  67.829  1.00  0.00    -0.127 OA 
BRANCH  41  42
HETATM   42  C   UNL     1      -8.786   6.782  69.134  1.00  0.00    -0.134 C  
HETATM   43  O   UNL     1      -7.626   6.867  69.525  1.00  0.00    -0.094 OA 
BRANCH  42  44
HETATM   44  C   UNL     1      -9.854   6.388  70.131  1.00  0.00    -0.191 C  
BRANCH  44  45
HETATM   45  C   UNL     1     -11.037   7.288  70.459  1.00  0.00    -0.290 C  
BRANCH  45  46
HETATM   46  C   UNL     1     -10.734   8.321  71.537  1.00  0.00    -0.295 C  
BRANCH  46  47
HETATM   47  C   UNL     1     -11.972   8.819  72.292  1.00  0.00    -0.415 C  
BRANCH  47  48
HETATM   48  C   UNL     1     -13.066   9.379  71.381  1.00  0.00    -0.419 C  
HETATM   49  C   UNL     1     -12.937  10.888  71.216  1.00  0.00    -0.492 C  
ENDBRANCH  47  48
ENDBRANCH  46  47
ENDBRANCH  45  46
ENDBRANCH  44  45
ENDBRANCH  42  44
ENDBRANCH  41  42
ENDBRANCH  35  41
ENDBRANCH  20  22
ENDBRANCH   1  20
TORSDOF 9
ENDMDL
MODEL      147
REMARK 921   NORMALIZED FREE ENERGY PREDICTED BY IDOCK:    4.77 KCAL/MOL
REMARK 922        TOTAL FREE ENERGY PREDICTED BY IDOCK:    3.97 KCAL/MOL
REMARK 923 INTER-LIGAND FREE ENERGY PREDICTED BY IDOCK:    3.35 KCAL/MOL
REMARK 924 INTRA-LIGAND FREE ENERGY PREDICTED BY IDOCK:    0.62 KCAL/MOL
REMARK 927      BINDING AFFINITY PREDICTED BY RF-SCORE:    0.00 PKD
ROOT
HETATM    1  N   UNL     1      -9.484  19.536  69.108  1.00  0.00    -0.330 N  
HETATM    2  C   UNL     1      -8.252  19.424  69.734  1.00  0.00     0.576 C  
HETATM    3  C   UNL     1      -6.599  20.245  64.953  1.00  0.00    -0.323 A  
HETATM    4  H   UNL     1     -10.030  20.351  69.386  1.00  0.00     0.000 HD 
HETATM    5  C   UNL     1      -5.592  16.993  70.162  1.00  0.00    -0.226 A  
HETATM    6  O   UNL     1      -8.195  19.885  70.904  1.00  0.00     1.324 OA 
HETATM    7  C   UNL     1      -6.366  14.706  70.117  1.00  0.00    -0.173 A  
HETATM    8  C   UNL     1      -6.949  18.906  69.064  1.00  0.00    -0.311 C  
HETATM    9  O   UNL     1      -5.883  19.662  69.717  1.00  0.00    -0.243 OA 
HETATM   10  C   UNL     1      -6.701  17.423  69.394  1.00  0.00    -0.187 A  
HETATM   11  C   UNL     1      -6.089  18.612  66.669  1.00  0.00    -0.177 A  
HETATM   12  C   UNL     1      -6.817  19.351  67.613  1.00  0.00    -0.245 A  
HETATM   13  C   UNL     1      -7.598  16.442  68.958  1.00  0.00    -0.232 A  
HETATM   14  C   UNL     1      -7.356  20.589  67.206  1.00  0.00    -0.373 A  
HETATM   15  C   UNL     1      -5.989  19.057  65.346  1.00  0.00    -0.259 A  
HETATM   16  H   UNL     1      -5.086  19.346  69.308  1.00  0.00     0.000 HD 
HETATM   17  C   UNL     1      -5.433  15.650  70.523  1.00  0.00    -0.144 A  
HETATM   18  C   UNL     1      -7.278  21.020  65.887  1.00  0.00     0.261 A  
HETATM   19  C   UNL     1      -7.442  15.099  69.321  1.00  0.00    -0.193 A  
ENDROOT
BRANCH   1  20
HETATM   20  N   UNL     1     -10.110  18.704  68.143  1.00  0.00    -0.360 NA 
HETATM   21  H   UNL     1     -10.166  18.937  67.151  1.00  0.00     0.000 HD 
BRANCH  20  22
HETATM   22  C   UNL     1     -10.606  17.609  68.655  1.00  0.00    -0.244 C  
HETATM   23  C   UNL     1     -12.527  16.028  69.124  1.00  0.00     0.476 C  
HETATM   24  C   UNL     1     -11.903  15.054  68.100  1.00  0.00    -0.286 C  
HETATM   25  C   UNL     1     -10.772  15.765  67.371  1.00  0.00    -0.317 C  
HETATM   26  C   UNL     1     -12.018  17.293  69.283  1.00  0.00     2.505 C  
HETATM   27  C   UNL     1     -13.676  15.294  69.847  1.00  0.00     1.320 C  
HETATM   28  C   UNL     1      -9.866  16.326  68.460  1.00  0.00    -0.223 C  
HETATM   29  C   UNL     1     -12.924  14.643  67.019  1.00  0.00     1.672 C  
HETATM   30  C   UNL     1     -13.396  13.769  70.290  1.00  0.00     0.602 C  
HETATM   31  C   UNL     1     -12.368  12.915  69.438  1.00  0.00     0.003 C  
HETATM   32  C   UNL     1     -11.691  11.632  70.144  1.00  0.00    -0.381 C  
HETATM   33  C   UNL     1     -12.605  10.372  70.005  1.00  0.00    -0.125 C  
HETATM   34  C   UNL     1     -11.931   9.436  68.978  1.00  0.00     1.168 C  
HETATM   35  C   UNL     1     -10.975  10.370  68.241  1.00  0.00    -0.270 C  
HETATM   36  C   UNL     1     -11.306  13.885  68.930  1.00  0.00    -0.319 C  
HETATM   37  C   UNL     1     -10.347  11.134  69.442  1.00  0.00    -0.090 C  
HETATM   38  C   UNL     1     -10.144  13.242  68.181  1.00  0.00    -0.241 C  
HETATM   39  C   UNL     1      -9.434  12.270  69.050  1.00  0.00     0.345 C  
HETATM   40  C   UNL     1      -9.433  10.270  70.353  1.00  0.00     0.441 C  
BRANCH  35  41
HETATM   41  O   UNL     1     -10.123   9.768  67.254  1.00  0.00    -0.183 OA 
BRANCH  41  42
HETATM   42  C   UNL     1     -10.168  10.464  66.069  1.00  0.00    -0.228 C  
HETATM   43  O   UNL     1     -11.173  11.042  65.665  1.00  0.00    -0.027 OA 
BRANCH  42  44
HETATM   44  C   UNL     1      -8.926  10.493  65.205  1.00  0.00    -0.214 C  
BRANCH  44  45
HETATM   45  C   UNL     1      -8.271   9.227  64.672  1.00  0.00    -0.148 C  
BRANCH  45  46
HETATM   46  C   UNL     1      -6.850   9.445  64.166  1.00  0.00    -0.095 C  
BRANCH  46  47
HETATM   47  C   UNL     1      -5.911  10.085  65.195  1.00  0.00    -0.101 C  
BRANCH  47  48
HETATM   48  C   UNL     1      -5.360   9.097  66.225  1.00  0.00    -0.040 C  
HETATM   49  C   UNL     1      -5.634   7.655  65.819  1.00  0.00    -0.033 C  
ENDBRANCH  47  48
ENDBRANCH  46  47
ENDBRANCH  45  46
ENDBRANCH  44  45
ENDBRANCH  42  44
ENDBRANCH  41  42
ENDBRANCH  35  41
ENDBRANCH  20  22
ENDBRANCH   1  20
TORSDOF 9
ENDMDL
MODEL      148
REMARK 921   NORMALIZED FREE ENERGY PREDICTED BY IDOCK:    4.85 KCAL/MOL
REMARK 922        TOTAL FREE ENERGY PREDICTED BY IDOCK:    4.08 KCAL/MOL
REMARK 923 INTER-LIGAND FREE ENERGY PREDICTED BY IDOCK:    3.19 KCAL/MOL
REMARK 924 INTRA-LIGAND FREE ENERGY PREDICTED BY IDOCK:    0.89 KCAL/MOL
REMARK 927      BINDING AFFINITY PREDICTED BY RF-SCORE:    0.00 PKD
ROOT
HETATM    1  N   UNL     1     -10.553  10.986  71.466  1.00  0.00     3.017 N  
HETATM    2  C   UNL     1     -11.123  11.123  70.210  1.00  0.00     0.092 C  
HETATM    3  C   UNL     1     -14.393   7.689  72.152  1.00  0.00    -0.356 A  
HETATM    4  H   UNL     1     -10.604  11.821  72.049  1.00  0.00     0.000 HD 
HETATM    5  C   UNL     1     -11.259   9.358  67.042  1.00  0.00     0.589 A  
HETATM    6  O   UNL     1     -11.065  12.278  69.711  1.00  0.00    -0.049 OA 
HETATM    7  C   UNL     1      -9.275   8.061  66.579  1.00  0.00    -0.236 A  
HETATM    8  C   UNL     1     -11.916  10.017  69.459  1.00  0.00     0.165 C  
HETATM    9  O   UNL     1     -12.918  10.751  68.690  1.00  0.00     0.289 OA 
HETATM   10  C   UNL     1     -11.026   9.287  68.436  1.00  0.00    -0.038 A  
HETATM   11  C   UNL     1     -13.124   7.850  70.094  1.00  0.00     1.678 A  
HETATM   12  C   UNL     1     -12.778   9.176  70.392  1.00  0.00     0.501 A  
HETATM   13  C   UNL     1      -9.924   8.539  68.864  1.00  0.00    -0.197 A  
HETATM   14  C   UNL     1     -13.335   9.759  71.549  1.00  0.00    -0.468 A  
HETATM   15  C   UNL     1     -13.922   7.112  70.977  1.00  0.00     0.001 A  
HETATM   16  H   UNL     1     -13.403  10.076  68.231  1.00  0.00     0.000 HD 
HETATM   17  C   UNL     1     -10.388   8.756  66.127  1.00  0.00     0.145 A  
HETATM   18  C   UNL     1     -14.108   9.020  72.438  1.00  0.00    -0.478 A  
HETATM   19  C   UNL     1      -9.051   7.940  67.950  1.00  0.00    -0.133 A  
ENDROOT
BRANCH   1  20
HETATM   20  N   UNL     1      -9.911   9.875  72.075  1.00  0.00     1.161 NA 
HETATM   21  H   UNL     1     -10.034   9.623  73.055  1.00  0.00     0.000 HD 
BRANCH  20  22
HETATM   22  C   UNL     1      -9.147   9.210  71.250  1.00  0.00    -0.162 C  
HETATM   23  C   UNL     1      -6.880   8.550  70.338  1.00  0.00    -0.037 C  
HETATM   24  C   UNL     1      -7.085   7.163  70.985  1.00  0.00    -0.069 C  
HETATM   25  C   UNL     1      -8.314   7.214  71.881  1.00  0.00    -0.106 C  
HETATM   26  C   UNL     1      -7.765   9.571  70.581  1.00  0.00    -0.151 C  
HETATM   27  C   UNL     1      -5.625   8.481  69.441  1.00  0.00    -0.031 C  
HETATM   28  C   UNL     1      -9.436   7.765  71.011  1.00  0.00    -0.165 C  
HETATM   29  C   UNL     1      -5.899   6.786  71.898  1.00  0.00    -0.037 C  
HETATM   30  C   UNL     1      -5.458   7.161  68.529  1.00  0.00    -0.021 C  
HETATM   31  C   UNL     1      -6.097   5.806  69.044  1.00  0.00    -0.025 C  
HETATM   32  C   UNL     1      -6.403   4.657  67.953  1.00  0.00    -0.037 C  
HETATM   33  C   UNL     1      -5.138   3.776  67.701  1.00  0.00    -0.008 C  
HETATM   34  C   UNL     1      -5.402   2.406  68.362  1.00  0.00    -0.013 C  
HETATM   35  C   UNL     1      -6.533   2.711  69.340  1.00  0.00    -0.029 C  
HETATM   36  C   UNL     1      -7.360   6.180  69.814  1.00  0.00    -0.079 C  
HETATM   37  C   UNL     1      -7.465   3.567  68.434  1.00  0.00    -0.053 C  
HETATM   38  C   UNL     1      -8.200   5.003  70.297  1.00  0.00    -0.088 C  
HETATM   39  C   UNL     1      -8.646   4.173  69.149  1.00  0.00    -0.112 C  
HETATM   40  C   UNL     1      -8.141   2.781  67.277  1.00  0.00    -0.078 C  
BRANCH  35  41
HETATM   41  O   UNL     1      -7.072   1.596  70.067  1.00  0.00    -0.033 OA 
BRANCH  41  42
HETATM   42  C   UNL     1      -6.731   1.660  71.398  1.00  0.00    -0.023 C  
HETATM   43  O   UNL     1      -5.571   1.721  71.794  1.00  0.00    -0.007 OA 
BRANCH  42  44
HETATM   44  C   UNL     1      -7.841   1.624  72.426  1.00  0.00    -0.044 C  
BRANCH  44  45
HETATM   45  C   UNL     1      -9.307   1.485  72.042  1.00  0.00    -0.139 C  
BRANCH  45  46
HETATM   46  C   UNL     1     -10.022   2.821  71.882  1.00  0.00    -0.210 C  
BRANCH  46  47
HETATM   47  C   UNL     1      -9.875   3.758  73.087  1.00  0.00    -0.180 C  
BRANCH  47  48
HETATM   48  C   UNL     1     -11.091   4.656  73.321  1.00  0.00    -0.403 C  
HETATM   49  C   UNL     1     -10.684   6.016  73.872  1.00  0.00    -0.151 C  
ENDBRANCH  47  48
ENDBRANCH  46  47
ENDBRANCH  45  46
ENDBRANCH  44  45
ENDBRANCH  42  44
ENDBRANCH  41  42
ENDBRANCH  35  41
ENDBRANCH  20  22
ENDBRANCH   1  20
TORSDOF 9
ENDMDL
MODEL      149
REMARK 921   NORMALIZED FREE ENERGY PREDICTED BY IDOCK:    5.20 KCAL/MOL
REMARK 922        TOTAL FREE ENERGY PREDICTED BY IDOCK:    4.62 KCAL/MOL
REMARK 923 INTER-LIGAND FREE ENERGY PREDICTED BY IDOCK:    3.72 KCAL/MOL
REMARK 924 INTRA-LIGAND FREE ENERGY PREDICTED BY IDOCK:    0.91 KCAL/MOL
REMARK 927      BINDING AFFINITY PREDICTED BY RF-SCORE:    0.00 PKD
ROOT
HETATM    1  N   UNL     1     -11.436   7.264  70.525  1.00  0.00    -0.341 N  
HETATM    2  C   UNL     1     -11.567   6.234  69.606  1.00  0.00    -0.217 C  
HETATM    3  C   UNL     1      -8.207   4.004  72.769  1.00  0.00    -0.095 A  
HETATM    4  H   UNL     1     -12.278   7.462  71.064  1.00  0.00     0.000 HD 
HETATM    5  C   UNL     1      -9.767   4.805  66.798  1.00  0.00    -0.203 A  
HETATM    6  O   UNL     1     -12.714   6.095  69.108  1.00  0.00     3.308 OA 
HETATM    7  C   UNL     1      -8.434   6.417  65.591  1.00  0.00    -0.147 A  
HETATM    8  C   UNL     1     -10.465   5.194  69.261  1.00  0.00    -0.123 C  
HETATM    9  O   UNL     1     -11.205   3.973  68.954  1.00  0.00     3.678 OA 
HETATM   10  C   UNL     1      -9.708   5.584  67.978  1.00  0.00    -0.159 A  
HETATM   11  C   UNL     1      -8.324   4.328  70.370  1.00  0.00    -0.081 A  
HETATM   12  C   UNL     1      -9.648   4.778  70.478  1.00  0.00    -0.258 A  
HETATM   13  C   UNL     1      -8.948   6.758  67.934  1.00  0.00    -0.113 A  
HETATM   14  C   UNL     1     -10.253   4.744  71.752  1.00  0.00    -0.258 A  
HETATM   15  C   UNL     1      -7.609   3.951  71.513  1.00  0.00    -0.060 A  
HETATM   16  H   UNL     1     -10.532   3.337  68.743  1.00  0.00     0.000 HD 
HETATM   17  C   UNL     1      -9.141   5.223  65.618  1.00  0.00    -0.158 A  
HETATM   18  C   UNL     1      -9.537   4.393  72.891  1.00  0.00    -0.163 A  
HETATM   19  C   UNL     1      -8.326   7.178  66.754  1.00  0.00    -0.116 A  
ENDROOT
BRANCH   1  20
HETATM   20  N   UNL     1     -10.323   8.087  70.839  1.00  0.00    -0.199 NA 
HETATM   21  H   UNL     1      -9.795   8.012  71.709  1.00  0.00     0.000 HD 
BRANCH  20  22
HETATM   22  C   UNL     1     -10.043   8.951  69.899  1.00  0.00    -0.195 C  
HETATM   23  C   UNL     1     -10.662  10.323  67.864  1.00  0.00    -0.310 C  
HETATM   24  C   UNL     1     -10.647  11.574  68.771  1.00  0.00    -0.241 C  
HETATM   25  C   UNL     1     -10.524  11.128  70.221  1.00  0.00     0.867 C  
HETATM   26  C   UNL     1     -10.533   9.068  68.405  1.00  0.00    -0.234 C  
HETATM   27  C   UNL     1     -10.796  10.794  66.400  1.00  0.00    -0.172 C  
HETATM   28  C   UNL     1      -9.316  10.202  70.268  1.00  0.00     0.144 C  
HETATM   29  C   UNL     1     -11.971  12.359  68.670  1.00  0.00    -0.272 C  
HETATM   30  C   UNL     1      -9.904  12.065  65.963  1.00  0.00    -0.258 C  
HETATM   31  C   UNL     1      -9.523  13.132  67.071  1.00  0.00    -0.242 C  
HETATM   32  C   UNL     1      -8.243  14.075  66.797  1.00  0.00     0.169 C  
HETATM   33  C   UNL     1      -8.644  15.330  65.955  1.00  0.00     0.298 C  
HETATM   34  C   UNL     1      -8.605  16.544  66.909  1.00  0.00    -0.237 C  
HETATM   35  C   UNL     1      -8.670  15.896  68.290  1.00  0.00    -0.174 C  
HETATM   36  C   UNL     1      -9.370  12.369  68.383  1.00  0.00    -0.158 C  
HETATM   37  C   UNL     1      -7.635  14.748  68.110  1.00  0.00    -0.121 C  
HETATM   38  C   UNL     1      -8.883  13.199  69.565  1.00  0.00     1.519 C  
HETATM   39  C   UNL     1      -7.554  13.793  69.275  1.00  0.00     0.198 C  
HETATM   40  C   UNL     1      -6.163  15.221  67.961  1.00  0.00    -0.156 C  
BRANCH  35  41
HETATM   41  O   UNL     1      -8.568  16.779  69.418  1.00  0.00    -0.052 OA 
BRANCH  41  42
HETATM   42  C   UNL     1      -9.024  18.038  69.105  1.00  0.00     0.115 C  
HETATM   43  O   UNL     1     -10.097  18.484  69.502  1.00  0.00    -0.086 OA 
BRANCH  42  44
HETATM   44  C   UNL     1      -8.175  18.906  68.202  1.00  0.00    -0.343 C  
BRANCH  44  45
HETATM   45  C   UNL     1      -6.713  18.599  67.912  1.00  0.00    -0.222 C  
BRANCH  45  46
HETATM   46  C   UNL     1      -5.838  18.578  69.159  1.00  0.00    -0.230 C  
BRANCH  46  47
HETATM   47  C   UNL     1      -5.575  19.963  69.763  1.00  0.00    -0.287 C  
BRANCH  47  48
HETATM   48  C   UNL     1      -6.133  20.134  71.177  1.00  0.00    -0.267 C  
HETATM   49  C   UNL     1      -5.248  19.451  72.213  1.00  0.00     0.372 C  
ENDBRANCH  47  48
ENDBRANCH  46  47
ENDBRANCH  45  46
ENDBRANCH  44  45
ENDBRANCH  42  44
ENDBRANCH  41  42
ENDBRANCH  35  41
ENDBRANCH  20  22
ENDBRANCH   1  20
TORSDOF 9
ENDMDL
MODEL      150
REMARK 921   NORMALIZED FREE ENERGY PREDICTED BY IDOCK:    5.43 KCAL/MOL
REMARK 922        TOTAL FREE ENERGY PREDICTED BY IDOCK:    4.97 KCAL/MOL
REMARK 923 INTER-LIGAND FREE ENERGY PREDICTED BY IDOCK:   -6.53 KCAL/MOL
REMARK 924 INTRA-LIGAND FREE ENERGY PREDICTED BY IDOCK:   11.50 KCAL/MOL
REMARK 927      BINDING AFFINITY PREDICTED BY RF-SCORE:    0.00 PKD
ROOT
HETATM    1  N   UNL     1     -11.386  15.960  68.559  1.00  0.00    -0.362 N  
HETATM    2  C   UNL     1     -10.878  16.780  67.565  1.00  0.00    -0.216 C  
HETATM    3  C   UNL     1     -11.171  12.427  64.878  1.00  0.00    -0.353 A  
HETATM    4  H   UNL     1     -12.331  16.195  68.864  1.00  0.00     0.000 HD 
HETATM    5  C   UNL     1      -7.716  17.493  65.933  1.00  0.00    -0.119 A  
HETATM    6  O   UNL     1     -11.284  17.972  67.585  1.00  0.00    -0.082 OA 
HETATM    7  C   UNL     1      -5.800  17.156  67.364  1.00  0.00    -0.170 A  
HETATM    8  C   UNL     1      -9.975  16.312  66.390  1.00  0.00    -0.300 C  
HETATM    9  O   UNL     1     -10.341  17.190  65.281  1.00  0.00    -0.629 OA 
HETATM   10  C   UNL     1      -8.487  16.577  66.687  1.00  0.00    -0.299 A  
HETATM   11  C   UNL     1      -9.443  14.088  65.236  1.00  0.00     0.342 A  
HETATM   12  C   UNL     1     -10.368  14.940  65.857  1.00  0.00    -0.330 A  
HETATM   13  C   UNL     1      -7.851  15.925  67.749  1.00  0.00    -0.153 A  
HETATM   14  C   UNL     1     -11.718  14.532  65.894  1.00  0.00    -0.345 A  
HETATM   15  C   UNL     1      -9.846  12.835  64.756  1.00  0.00    -0.055 A  
HETATM   16  H   UNL     1      -9.789  16.904  64.563  1.00  0.00     0.000 HD 
HETATM   17  C   UNL     1      -6.390  17.782  66.274  1.00  0.00    -0.269 A  
HETATM   18  C   UNL     1     -12.114  13.280  65.440  1.00  0.00    -0.464 A  
HETATM   19  C   UNL     1      -6.527  16.216  68.093  1.00  0.00    -0.132 A  
ENDROOT
BRANCH   1  20
HETATM   20  N   UNL     1     -10.809  14.845  69.224  1.00  0.00    -0.258 NA 
HETATM   21  H   UNL     1     -11.015  14.599  70.192  1.00  0.00     0.000 HD 
BRANCH  20  22
HETATM   22  C   UNL     1      -9.987  14.167  68.468  1.00  0.00    -0.235 C  
HETATM   23  C   UNL     1      -7.715  13.175  67.961  1.00  0.00    -0.146 C  
HETATM   24  C   UNL     1      -8.321  11.783  68.244  1.00  0.00    -0.159 C  
HETATM   25  C   UNL     1      -9.710  11.962  68.837  1.00  0.00     0.041 C  
HETATM   26  C   UNL     1      -8.439  14.314  68.210  1.00  0.00    -0.167 C  
HETATM   27  C   UNL     1      -6.303  12.973  67.369  1.00  0.00    -0.096 C  
HETATM   28  C   UNL     1     -10.455  12.879  67.875  1.00  0.00    -0.231 C  
HETATM   29  C   UNL     1      -7.496  11.012  69.297  1.00  0.00    -0.100 C  
HETATM   30  C   UNL     1      -6.142  11.811  66.262  1.00  0.00     0.364 C  
HETATM   31  C   UNL     1      -7.120  10.567  66.329  1.00  0.00    -0.132 C  
HETATM   32  C   UNL     1      -7.332   9.703  64.983  1.00  0.00    -0.117 C  
HETATM   33  C   UNL     1      -6.219   8.615  64.838  1.00  0.00    -0.064 C  
HETATM   34  C   UNL     1      -6.882   7.250  65.125  1.00  0.00    -0.047 C  
HETATM   35  C   UNL     1      -8.156   7.639  65.871  1.00  0.00    -0.122 C  
HETATM   36  C   UNL     1      -8.453  11.084  66.863  1.00  0.00    -0.139 C  
HETATM   37  C   UNL     1      -8.656   8.813  64.980  1.00  0.00    -0.196 C  
HETATM   38  C   UNL     1      -9.583  10.061  66.892  1.00  0.00    -0.219 C  
HETATM   39  C   UNL     1      -9.856   9.544  65.528  1.00  0.00    -0.304 C  
HETATM   40  C   UNL     1      -9.138   8.391  63.565  1.00  0.00     0.957 C  
BRANCH  35  41
HETATM   41  O   UNL     1      -9.051   6.570  66.213  1.00  0.00    -0.154 OA 
BRANCH  41  42
HETATM   42  C   UNL     1      -9.925   6.952  67.202  1.00  0.00    -0.183 C  
HETATM   43  O   UNL     1     -11.120   7.155  67.004  1.00  0.00    -0.345 OA 
BRANCH  42  44
HETATM   44  C   UNL     1      -9.383   7.162  68.600  1.00  0.00    -0.134 C  
BRANCH  44  45
HETATM   45  C   UNL     1      -7.891   7.221  68.897  1.00  0.00    -0.118 C  
BRANCH  45  46
HETATM   46  C   UNL     1      -7.525   6.683  70.275  1.00  0.00    -0.094 C  
BRANCH  46  47
HETATM   47  C   UNL     1      -7.515   5.153  70.367  1.00  0.00    -0.067 C  
BRANCH  47  48
HETATM   48  C   UNL     1      -8.325   4.463  69.269  1.00  0.00    -0.083 C  
HETATM   49  C   UNL     1      -7.607   3.231  68.734  1.00  0.00    -0.048 C  
ENDBRANCH  47  48
ENDBRANCH  46  47
ENDBRANCH  45  46
ENDBRANCH  44  45
ENDBRANCH  42  44
ENDBRANCH  41  42
ENDBRANCH  35  41
ENDBRANCH  20  22
ENDBRANCH   1  20
TORSDOF 9
ENDMDL
MODEL      151
REMARK 921   NORMALIZED FREE ENERGY PREDICTED BY IDOCK:    5.54 KCAL/MOL
REMARK 922        TOTAL FREE ENERGY PREDICTED BY IDOCK:    5.14 KCAL/MOL
REMARK 923 INTER-LIGAND FREE ENERGY PREDICTED BY IDOCK:   -4.62 KCAL/MOL
REMARK 924 INTRA-LIGAND FREE ENERGY PREDICTED BY IDOCK:    9.76 KCAL/MOL
REMARK 927      BINDING AFFINITY PREDICTED BY RF-SCORE:    0.00 PKD
ROOT
HETATM    1  N   UNL     1      -7.572   4.182  71.364  1.00  0.00    -0.062 N  
HETATM    2  C   UNL     1      -7.045   5.120  72.238  1.00  0.00    -0.084 C  
HETATM    3  C   UNL     1     -11.959   6.553  72.464  1.00  0.00    -0.106 A  
HETATM    4  H   UNL     1      -7.519   3.218  71.691  1.00  0.00     0.000 HD 
HETATM    5  C   UNL     1      -6.094   8.621  72.274  1.00  0.00    -0.072 A  
HETATM    6  O   UNL     1      -6.087   4.718  72.949  1.00  0.00    -0.023 OA 
HETATM    7  C   UNL     1      -5.357   9.438  70.124  1.00  0.00    -0.028 A  
HETATM    8  C   UNL     1      -7.622   6.541  72.484  1.00  0.00    -0.095 C  
HETATM    9  O   UNL     1      -7.328   6.812  73.889  1.00  0.00    -0.083 OA 
HETATM   10  C   UNL     1      -6.865   7.602  71.665  1.00  0.00    -0.053 A  
HETATM   11  C   UNL     1      -9.865   7.719  72.107  1.00  0.00    -0.242 A  
HETATM   12  C   UNL     1      -9.145   6.569  72.461  1.00  0.00    -0.137 A  
HETATM   13  C   UNL     1      -6.896   7.572  70.266  1.00  0.00    -0.047 A  
HETATM   14  C   UNL     1      -9.875   5.444  72.899  1.00  0.00    -0.180 A  
HETATM   15  C   UNL     1     -11.265   7.704  72.103  1.00  0.00    -0.331 A  
HETATM   16  H   UNL     1      -7.681   7.681  74.039  1.00  0.00     0.000 HD 
HETATM   17  C   UNL     1      -5.345   9.523  71.509  1.00  0.00    -0.069 A  
HETATM   18  C   UNL     1     -11.264   5.419  72.872  1.00  0.00    -0.372 A  
HETATM   19  C   UNL     1      -6.145   8.471  69.501  1.00  0.00    -0.036 A  
ENDROOT
BRANCH   1  20
HETATM   20  N   UNL     1      -8.173   4.343  70.087  1.00  0.00    -0.062 NA 
HETATM   21  H   UNL     1      -8.814   3.663  69.678  1.00  0.00     0.000 HD 
BRANCH  20  22
HETATM   22  C   UNL     1      -7.820   5.450  69.491  1.00  0.00    -0.085 C  
HETATM   23  C   UNL     1      -7.030   6.748  67.466  1.00  0.00    -0.083 C  
HETATM   24  C   UNL     1      -8.446   7.359  67.374  1.00  0.00    -0.119 C  
HETATM   25  C   UNL     1      -9.362   6.627  68.344  1.00  0.00    -0.123 C  
HETATM   26  C   UNL     1      -6.763   5.738  68.356  1.00  0.00    -0.054 C  
HETATM   27  C   UNL     1      -6.118   7.497  66.470  1.00  0.00    -0.044 C  
HETATM   28  C   UNL     1      -8.656   6.671  69.693  1.00  0.00    -0.133 C  
HETATM   29  C   UNL     1      -9.055   7.161  65.970  1.00  0.00    -0.108 C  
HETATM   30  C   UNL     1      -6.275   9.101  66.410  1.00  0.00    -0.065 C  
HETATM   31  C   UNL     1      -7.682   9.733  66.772  1.00  0.00    -0.098 C  
HETATM   32  C   UNL     1      -7.715  11.281  67.228  1.00  0.00    -0.138 C  
HETATM   33  C   UNL     1      -7.790  12.227  65.987  1.00  0.00     1.016 C  
HETATM   34  C   UNL     1      -9.220  12.810  65.950  1.00  0.00     0.102 C  
HETATM   35  C   UNL     1     -10.007  11.841  66.829  1.00  0.00    -0.201 C  
HETATM   36  C   UNL     1      -8.307   8.836  67.836  1.00  0.00    -0.118 C  
HETATM   37  C   UNL     1      -9.030  11.696  68.031  1.00  0.00    -0.176 C  
HETATM   38  C   UNL     1      -9.625   9.336  68.417  1.00  0.00    -0.158 C  
HETATM   39  C   UNL     1      -9.445  10.666  69.052  1.00  0.00    -0.202 C  
HETATM   40  C   UNL     1      -8.872  12.978  68.895  1.00  0.00     0.316 C  
BRANCH  35  41
HETATM   41  O   UNL     1     -11.386  12.164  67.064  1.00  0.00    -0.295 OA 
BRANCH  41  42
HETATM   42  C   UNL     1     -11.826  13.129  66.189  1.00  0.00    -0.401 C  
HETATM   43  O   UNL     1     -12.381  12.870  65.125  1.00  0.00    -0.445 OA 
BRANCH  42  44
HETATM   44  C   UNL     1     -11.587  14.582  66.540  1.00  0.00    -0.379 C  
BRANCH  44  45
HETATM   45  C   UNL     1     -12.386  15.304  67.615  1.00  0.00     0.671 C  
BRANCH  45  46
HETATM   46  C   UNL     1     -11.562  16.305  68.414  1.00  0.00    -0.154 C  
BRANCH  46  47
HETATM   47  C   UNL     1     -11.019  15.754  69.738  1.00  0.00    -0.316 C  
BRANCH  47  48
HETATM   48  C   UNL     1     -11.569  14.375  70.104  1.00  0.00    -0.327 C  
HETATM   49  C   UNL     1     -12.551  14.455  71.266  1.00  0.00    -0.421 C  
ENDBRANCH  47  48
ENDBRANCH  46  47
ENDBRANCH  45  46
ENDBRANCH  44  45
ENDBRANCH  42  44
ENDBRANCH  41  42
ENDBRANCH  35  41
ENDBRANCH  20  22
ENDBRANCH   1  20
TORSDOF 9
ENDMDL
MODEL      152
REMARK 921   NORMALIZED FREE ENERGY PREDICTED BY IDOCK:    6.04 KCAL/MOL
REMARK 922        TOTAL FREE ENERGY PREDICTED BY IDOCK:    5.91 KCAL/MOL
REMARK 923 INTER-LIGAND FREE ENERGY PREDICTED BY IDOCK:   -2.38 KCAL/MOL
REMARK 924 INTRA-LIGAND FREE ENERGY PREDICTED BY IDOCK:    8.29 KCAL/MOL
REMARK 927      BINDING AFFINITY PREDICTED BY RF-SCORE:    0.00 PKD
ROOT
HETATM    1  N   UNL     1     -11.058   4.317  70.649  1.00  0.00     1.846 N  
HETATM    2  C   UNL     1     -10.815   4.555  71.992  1.00  0.00     0.145 C  
HETATM    3  C   UNL     1     -10.232   9.342  70.257  1.00  0.00    -0.270 A  
HETATM    4  H   UNL     1     -12.012   4.028  70.434  1.00  0.00     0.000 HD 
HETATM    5  C   UNL     1      -8.009   5.097  74.228  1.00  0.00    -0.096 A  
HETATM    6  O   UNL     1     -11.488   3.858  72.796  1.00  0.00     0.164 OA 
HETATM    7  C   UNL     1      -5.988   3.981  73.520  1.00  0.00    -0.011 A  
HETATM    8  C   UNL     1      -9.897   5.676  72.552  1.00  0.00    -0.163 C  
HETATM    9  O   UNL     1     -10.522   6.057  73.817  1.00  0.00    -0.243 OA 
HETATM   10  C   UNL     1      -8.499   5.134  72.901  1.00  0.00    -0.116 A  
HETATM   11  C   UNL     1      -8.925   7.881  71.683  1.00  0.00    -0.173 A  
HETATM   12  C   UNL     1      -9.987   6.967  71.747  1.00  0.00    -0.183 A  
HETATM   13  C   UNL     1      -7.667   4.626  71.896  1.00  0.00    -0.097 A  
HETATM   14  C   UNL     1     -11.199   7.319  71.118  1.00  0.00    -0.284 A  
HETATM   15  C   UNL     1      -9.050   9.058  70.934  1.00  0.00    -0.309 A  
HETATM   16  H   UNL     1      -9.961   6.742  74.160  1.00  0.00     0.000 HD 
HETATM   17  C   UNL     1      -6.770   4.522  74.531  1.00  0.00    -0.065 A  
HETATM   18  C   UNL     1     -11.316   8.475  70.355  1.00  0.00    -0.193 A  
HETATM   19  C   UNL     1      -6.430   4.047  72.199  1.00  0.00    -0.021 A  
ENDROOT
BRANCH   1  20
HETATM   20  N   UNL     1     -10.199   4.409  69.522  1.00  0.00     0.011 NA 
HETATM   21  H   UNL     1     -10.216   3.748  68.745  1.00  0.00     0.000 HD 
BRANCH  20  22
HETATM   22  C   UNL     1      -9.382   5.427  69.583  1.00  0.00    -0.135 C  
HETATM   23  C   UNL     1      -7.060   6.433  69.656  1.00  0.00    -0.073 C  
HETATM   24  C   UNL     1      -7.292   6.933  68.213  1.00  0.00    -0.097 C  
HETATM   25  C   UNL     1      -8.572   6.310  67.675  1.00  0.00    -0.114 C  
HETATM   26  C   UNL     1      -7.966   5.595  70.257  1.00  0.00    -0.103 C  
HETATM   27  C   UNL     1      -5.754   7.068  70.180  1.00  0.00    -0.023 C  
HETATM   28  C   UNL     1      -9.646   6.612  68.713  1.00  0.00    -0.131 C  
HETATM   29  C   UNL     1      -6.159   6.477  67.269  1.00  0.00    -0.028 C  
HETATM   30  C   UNL     1      -5.524   8.630  69.849  1.00  0.00    -0.029 C  
HETATM   31  C   UNL     1      -6.182   9.224  68.535  1.00  0.00    -0.049 C  
HETATM   32  C   UNL     1      -6.415  10.819  68.467  1.00  0.00    -0.054 C  
HETATM   33  C   UNL     1      -5.129  11.549  67.960  1.00  0.00    -0.044 C  
HETATM   34  C   UNL     1      -5.421  12.031  66.522  1.00  0.00     0.260 C  
HETATM   35  C   UNL     1      -6.610  11.168  66.107  1.00  0.00    -0.022 C  
HETATM   36  C   UNL     1      -7.491   8.470  68.319  1.00  0.00    -0.096 C  
HETATM   37  C   UNL     1      -7.494  11.276  67.384  1.00  0.00    -0.116 C  
HETATM   38  C   UNL     1      -8.348   8.975  67.163  1.00  0.00    -0.110 C  
HETATM   39  C   UNL     1      -8.720  10.397  67.370  1.00  0.00    -0.125 C  
HETATM   40  C   UNL     1      -8.095  12.686  67.637  1.00  0.00    -0.173 C  
BRANCH  35  41
HETATM   41  O   UNL     1      -7.182  11.439  64.819  1.00  0.00     0.976 OA 
BRANCH  41  42
HETATM   42  C   UNL     1      -6.899  10.429  63.928  1.00  0.00     0.014 C  
HETATM   43  O   UNL     1      -5.916   9.701  64.026  1.00  0.00    -0.088 OA 
BRANCH  42  44
HETATM   44  C   UNL     1      -7.830  10.226  62.753  1.00  0.00    -0.155 C  
BRANCH  44  45
HETATM   45  C   UNL     1      -9.343  10.186  62.906  1.00  0.00    -0.320 C  
BRANCH  45  46
HETATM   46  C   UNL     1      -9.982  11.566  62.990  1.00  0.00    -0.352 C  
BRANCH  46  47
HETATM   47  C   UNL     1      -9.997  12.165  64.402  1.00  0.00    -0.240 C  
BRANCH  47  48
HETATM   48  C   UNL     1     -11.339  12.786  64.793  1.00  0.00    -0.346 C  
HETATM   49  C   UNL     1     -12.118  13.250  63.570  1.00  0.00    -0.550 C  
ENDBRANCH  47  48
ENDBRANCH  46  47
ENDBRANCH  45  46
ENDBRANCH  44  45
ENDBRANCH  42  44
ENDBRANCH  41  42
ENDBRANCH  35  41
ENDBRANCH  20  22
ENDBRANCH   1  20
TORSDOF 9
ENDMDL
MODEL      153
REMARK 921   NORMALIZED FREE ENERGY PREDICTED BY IDOCK:    6.16 KCAL/MOL
REMARK 922        TOTAL FREE ENERGY PREDICTED BY IDOCK:    6.09 KCAL/MOL
REMARK 923 INTER-LIGAND FREE ENERGY PREDICTED BY IDOCK:   -4.94 KCAL/MOL
REMARK 924 INTRA-LIGAND FREE ENERGY PREDICTED BY IDOCK:   11.03 KCAL/MOL
REMARK 927      BINDING AFFINITY PREDICTED BY RF-SCORE:    0.00 PKD
ROOT
HETATM    1  N   UNL     1     -11.215   5.260  71.283  1.00  0.00     0.099 N  
HETATM    2  C   UNL     1     -10.612   5.712  72.446  1.00  0.00    -0.224 C  
HETATM    3  C   UNL     1     -14.305   9.247  72.085  1.00  0.00    -0.179 A  
HETATM    4  H   UNL     1     -11.669   4.351  71.364  1.00  0.00     0.000 HD 
HETATM    5  C   UNL     1      -8.325   8.313  73.531  1.00  0.00    -0.259 A  
HETATM    6  O   UNL     1     -10.157   4.816  73.204  1.00  0.00    -0.152 OA 
HETATM    7  C   UNL     1      -6.738   8.966  71.831  1.00  0.00    -0.025 A  
HETATM    8  C   UNL     1     -10.579   7.191  72.923  1.00  0.00    -0.281 C  
HETATM    9  O   UNL     1     -10.609   7.100  74.381  1.00  0.00    -0.505 OA 
HETATM   10  C   UNL     1      -9.247   7.869  72.553  1.00  0.00    -0.250 A  
HETATM   11  C   UNL     1     -11.908   9.324  72.433  1.00  0.00     0.023 A  
HETATM   12  C   UNL     1     -11.873   7.935  72.620  1.00  0.00    -0.352 A  
HETATM   13  C   UNL     1      -8.892   8.045  71.211  1.00  0.00    -0.163 A  
HETATM   14  C   UNL     1     -13.100   7.239  72.618  1.00  0.00     0.649 A  
HETATM   15  C   UNL     1     -13.119   9.972  72.160  1.00  0.00    -0.482 A  
HETATM   16  H   UNL     1     -10.588   8.004  74.673  1.00  0.00     0.000 HD 
HETATM   17  C   UNL     1      -7.084   8.849  73.170  1.00  0.00     0.257 A  
HETATM   18  C   UNL     1     -14.300   7.876  72.323  1.00  0.00    -0.320 A  
HETATM   19  C   UNL     1      -7.650   8.577  70.850  1.00  0.00    -0.080 A  
ENDROOT
BRANCH   1  20
HETATM   20  N   UNL     1     -11.304   5.854  69.996  1.00  0.00    -0.287 NA 
HETATM   21  H   UNL     1     -12.139   5.807  69.411  1.00  0.00     0.000 HD 
BRANCH  20  22
HETATM   22  C   UNL     1     -10.208   6.469  69.638  1.00  0.00    -0.187 C  
HETATM   23  C   UNL     1      -8.287   6.868  68.039  1.00  0.00    -0.121 C  
HETATM   24  C   UNL     1      -8.950   8.212  67.665  1.00  0.00    -0.135 C  
HETATM   25  C   UNL     1     -10.340   8.264  68.283  1.00  0.00    -0.242 C  
HETATM   26  C   UNL     1      -8.939   5.969  68.846  1.00  0.00    -0.123 C  
HETATM   27  C   UNL     1      -6.884   6.830  67.396  1.00  0.00    -0.073 C  
HETATM   28  C   UNL     1     -10.145   7.955  69.763  1.00  0.00    -0.199 C  
HETATM   29  C   UNL     1      -9.150   8.337  66.140  1.00  0.00    -0.238 C  
HETATM   30  C   UNL     1      -6.010   8.183  67.482  1.00  0.00    -0.047 C  
HETATM   31  C   UNL     1      -6.775   9.569  67.550  1.00  0.00    -0.067 C  
HETATM   32  C   UNL     1      -5.982  10.836  68.157  1.00  0.00    -0.049 C  
HETATM   33  C   UNL     1      -5.132  11.543  67.053  1.00  0.00    -0.094 C  
HETATM   34  C   UNL     1      -5.837  12.877  66.726  1.00  0.00     1.060 C  
HETATM   35  C   UNL     1      -7.249  12.658  67.262  1.00  0.00    -0.103 C  
HETATM   36  C   UNL     1      -8.073   9.318  68.313  1.00  0.00    -0.107 C  
HETATM   37  C   UNL     1      -6.928  12.024  68.647  1.00  0.00    -0.096 C  
HETATM   38  C   UNL     1      -8.910  10.560  68.598  1.00  0.00    -0.147 C  
HETATM   39  C   UNL     1      -8.138  11.538  69.405  1.00  0.00     0.394 C  
HETATM   40  C   UNL     1      -6.262  12.992  69.663  1.00  0.00    -0.113 C  
BRANCH  35  41
HETATM   41  O   UNL     1      -8.147  13.775  67.180  1.00  0.00    -0.157 OA 
BRANCH  41  42
HETATM   42  C   UNL     1      -8.231  14.435  68.383  1.00  0.00    -0.145 C  
HETATM   43  O   UNL     1      -9.294  14.787  68.886  1.00  0.00    -0.199 OA 
BRANCH  42  44
HETATM   44  C   UNL     1      -6.947  14.771  69.110  1.00  0.00    -0.138 C  
BRANCH  44  45
HETATM   45  C   UNL     1      -5.829  15.577  68.464  1.00  0.00    -0.099 C  
BRANCH  45  46
HETATM   46  C   UNL     1      -6.318  16.838  67.762  1.00  0.00    -0.164 C  
BRANCH  46  47
HETATM   47  C   UNL     1      -5.947  18.140  68.482  1.00  0.00    -0.190 C  
BRANCH  47  48
HETATM   48  C   UNL     1      -7.122  19.102  68.662  1.00  0.00    -0.353 C  
HETATM   49  C   UNL     1      -7.659  19.584  67.320  1.00  0.00    -0.275 C  
ENDBRANCH  47  48
ENDBRANCH  46  47
ENDBRANCH  45  46
ENDBRANCH  44  45
ENDBRANCH  42  44
ENDBRANCH  41  42
ENDBRANCH  35  41
ENDBRANCH  20  22
ENDBRANCH   1  20
TORSDOF 9
ENDMDL
MODEL      154
REMARK 921   NORMALIZED FREE ENERGY PREDICTED BY IDOCK:    6.28 KCAL/MOL
REMARK 922        TOTAL FREE ENERGY PREDICTED BY IDOCK:    6.27 KCAL/MOL
REMARK 923 INTER-LIGAND FREE ENERGY PREDICTED BY IDOCK:    4.96 KCAL/MOL
REMARK 924 INTRA-LIGAND FREE ENERGY PREDICTED BY IDOCK:    1.32 KCAL/MOL
REMARK 927      BINDING AFFINITY PREDICTED BY RF-SCORE:    0.00 PKD
ROOT
HETATM    1  N   UNL     1     -10.164  12.701  68.163  1.00  0.00    -0.233 N  
HETATM    2  C   UNL     1      -9.402  13.278  69.167  1.00  0.00     0.593 C  
HETATM    3  C   UNL     1     -12.505  17.241  68.201  1.00  0.00     3.359 A  
HETATM    4  H   UNL     1     -10.749  11.923  68.467  1.00  0.00     0.000 HD 
HETATM    5  C   UNL     1      -6.649  15.613  69.538  1.00  0.00    -0.179 A  
HETATM    6  O   UNL     1      -9.034  12.498  70.084  1.00  0.00     3.232 OA 
HETATM    7  C   UNL     1      -5.127  15.607  67.663  1.00  0.00    -0.075 A  
HETATM    8  C   UNL     1      -9.096  14.795  69.301  1.00  0.00    -0.027 C  
HETATM    9  O   UNL     1      -9.017  15.022  70.742  1.00  0.00     0.609 OA 
HETATM   10  C   UNL     1      -7.709  15.139  68.727  1.00  0.00    -0.143 A  
HETATM   11  C   UNL     1     -10.105  16.974  68.411  1.00  0.00    -0.302 A  
HETATM   12  C   UNL     1     -10.276  15.672  68.901  1.00  0.00    -0.214 A  
HETATM   13  C   UNL     1      -7.444  14.963  67.365  1.00  0.00    -0.228 A  
HETATM   14  C   UNL     1     -11.593  15.214  69.111  1.00  0.00    -0.343 A  
HETATM   15  C   UNL     1     -11.217  17.749  68.057  1.00  0.00     0.292 A  
HETATM   16  H   UNL     1      -8.829  15.950  70.824  1.00  0.00     0.000 HD 
HETATM   17  C   UNL     1      -5.373  15.837  69.010  1.00  0.00    -0.103 A  
HETATM   18  C   UNL     1     -12.697  15.972  68.738  1.00  0.00     1.364 A  
HETATM   19  C   UNL     1      -6.167  15.183  66.837  1.00  0.00     1.023 A  
ENDROOT
BRANCH   1  20
HETATM   20  N   UNL     1     -10.266  13.016  66.783  1.00  0.00    -0.243 NA 
HETATM   21  H   UNL     1     -10.489  13.948  66.433  1.00  0.00     0.000 HD 
BRANCH  20  22
HETATM   22  C   UNL     1     -10.044  11.990  66.005  1.00  0.00    -0.230 C  
HETATM   23  C   UNL     1      -8.896  10.873  64.045  1.00  0.00    -0.055 C  
HETATM   24  C   UNL     1      -8.075  10.053  65.064  1.00  0.00    -0.145 C  
HETATM   25  C   UNL     1      -8.318  10.614  66.458  1.00  0.00    -0.143 C  
HETATM   26  C   UNL     1      -9.712  11.893  64.467  1.00  0.00    -0.132 C  
HETATM   27  C   UNL     1      -8.630  10.296  62.638  1.00  0.00    -0.208 C  
HETATM   28  C   UNL     1      -9.831  10.650  66.630  1.00  0.00    -0.245 C  
HETATM   29  C   UNL     1      -6.559  10.185  64.803  1.00  0.00    -0.124 C  
HETATM   30  C   UNL     1      -8.603   8.689  62.507  1.00  0.00    -0.140 C  
HETATM   31  C   UNL     1      -8.165   7.839  63.771  1.00  0.00     0.020 C  
HETATM   32  C   UNL     1      -8.630   6.296  63.836  1.00  0.00     0.338 C  
HETATM   33  C   UNL     1      -7.625   5.376  63.070  1.00  0.00    -0.068 C  
HETATM   34  C   UNL     1      -6.840   4.580  64.135  1.00  0.00    -0.045 C  
HETATM   35  C   UNL     1      -7.063   5.396  65.406  1.00  0.00    -0.066 C  
HETATM   36  C   UNL     1      -8.636   8.606  65.002  1.00  0.00    -0.185 C  
HETATM   37  C   UNL     1      -8.593   5.664  65.301  1.00  0.00    -0.141 C  
HETATM   38  C   UNL     1      -8.419   7.896  66.334  1.00  0.00    -0.139 C  
HETATM   39  C   UNL     1      -9.136   6.596  66.356  1.00  0.00    -0.172 C  
HETATM   40  C   UNL     1      -9.484   4.404  65.477  1.00  0.00    -0.175 C  
BRANCH  35  41
HETATM   41  O   UNL     1      -6.514   4.859  66.619  1.00  0.00    -0.039 OA 
BRANCH  41  42
HETATM   42  C   UNL     1      -6.911   5.594  67.711  1.00  0.00    -0.060 C  
HETATM   43  O   UNL     1      -6.504   6.729  67.943  1.00  0.00    -0.045 OA 
BRANCH  42  44
HETATM   44  C   UNL     1      -7.873   4.960  68.693  1.00  0.00    -0.077 C  
BRANCH  44  45
HETATM   45  C   UNL     1      -9.197   5.607  69.071  1.00  0.00    -0.141 C  
BRANCH  45  46
HETATM   46  C   UNL     1      -9.058   7.052  69.531  1.00  0.00    -0.146 C  
BRANCH  46  47
HETATM   47  C   UNL     1     -10.379   7.831  69.559  1.00  0.00    -0.219 C  
BRANCH  47  48
HETATM   48  C   UNL     1     -10.228   9.287  70.002  1.00  0.00    -0.244 C  
HETATM   49  C   UNL     1     -11.497   9.802  70.668  1.00  0.00    -0.397 C  
ENDBRANCH  47  48
ENDBRANCH  46  47
ENDBRANCH  45  46
ENDBRANCH  44  45
ENDBRANCH  42  44
ENDBRANCH  41  42
ENDBRANCH  35  41
ENDBRANCH  20  22
ENDBRANCH   1  20
TORSDOF 9
ENDMDL
MODEL      155
REMARK 921   NORMALIZED FREE ENERGY PREDICTED BY IDOCK:    6.30 KCAL/MOL
REMARK 922        TOTAL FREE ENERGY PREDICTED BY IDOCK:    6.30 KCAL/MOL
REMARK 923 INTER-LIGAND FREE ENERGY PREDICTED BY IDOCK:    4.03 KCAL/MOL
REMARK 924 INTRA-LIGAND FREE ENERGY PREDICTED BY IDOCK:    2.27 KCAL/MOL
REMARK 927      BINDING AFFINITY PREDICTED BY RF-SCORE:    0.00 PKD
ROOT
HETATM    1  N   UNL     1     -10.649  16.898  68.795  1.00  0.00    -0.343 N  
HETATM    2  C   UNL     1      -9.693  17.818  69.197  1.00  0.00    -0.088 C  
HETATM    3  C   UNL     1     -11.842  20.555  65.435  1.00  0.00     2.897 A  
HETATM    4  H   UNL     1     -11.374  16.708  69.487  1.00  0.00     0.000 HD 
HETATM    5  C   UNL     1      -6.446  19.052  68.146  1.00  0.00    -0.242 A  
HETATM    6  O   UNL     1      -9.445  17.837  70.431  1.00  0.00     2.075 OA 
HETATM    7  C   UNL     1      -5.127  17.404  66.974  1.00  0.00    -0.170 A  
HETATM    8  C   UNL     1      -9.027  18.879  68.278  1.00  0.00    -0.328 C  
HETATM    9  O   UNL     1      -8.780  20.017  69.161  1.00  0.00     0.020 OA 
HETATM   10  C   UNL     1      -7.650  18.404  67.780  1.00  0.00    -0.238 A  
HETATM   11  C   UNL     1      -9.564  19.978  66.028  1.00  0.00    -0.420 A  
HETATM   12  C   UNL     1      -9.996  19.466  67.259  1.00  0.00    -0.470 A  
HETATM   13  C   UNL     1      -7.546  17.278  66.955  1.00  0.00    -0.228 A  
HETATM   14  C   UNL     1     -11.363  19.596  67.583  1.00  0.00     0.346 A  
HETATM   15  C   UNL     1     -10.487  20.513  65.120  1.00  0.00     0.636 A  
HETATM   16  H   UNL     1      -8.373  20.666  68.599  1.00  0.00     0.000 HD 
HETATM   17  C   UNL     1      -5.201  18.551  67.751  1.00  0.00    -0.164 A  
HETATM   18  C   UNL     1     -12.283  20.104  66.674  1.00  0.00     3.397 A  
HETATM   19  C   UNL     1      -6.301  16.774  66.563  1.00  0.00    -0.056 A  
ENDROOT
BRANCH   1  20
HETATM   20  N   UNL     1     -10.786  16.178  67.579  1.00  0.00    -0.315 NA 
HETATM   21  H   UNL     1     -11.563  16.310  66.931  1.00  0.00     0.000 HD 
BRANCH  20  22
HETATM   22  C   UNL     1      -9.815  15.328  67.375  1.00  0.00    -0.217 C  
HETATM   23  C   UNL     1      -7.791  14.016  68.142  1.00  0.00    -0.144 C  
HETATM   24  C   UNL     1      -8.670  12.746  68.109  1.00  0.00    -0.193 C  
HETATM   25  C   UNL     1     -10.119  13.157  67.894  1.00  0.00    -0.232 C  
HETATM   26  C   UNL     1      -8.348  15.256  67.950  1.00  0.00    -0.152 C  
HETATM   27  C   UNL     1      -6.327  13.581  68.369  1.00  0.00    -0.093 C  
HETATM   28  C   UNL     1     -10.117  14.051  66.661  1.00  0.00    -0.276 C  
HETATM   29  C   UNL     1      -8.627  11.996  69.457  1.00  0.00     1.282 C  
HETATM   30  C   UNL     1      -5.815  12.298  67.537  1.00  0.00    -0.131 C  
HETATM   31  C   UNL     1      -6.877  11.197  67.123  1.00  0.00    -0.107 C  
HETATM   32  C   UNL     1      -6.513  10.229  65.886  1.00  0.00    -0.111 C  
HETATM   33  C   UNL     1      -5.670   9.003  66.365  1.00  0.00    -0.050 C  
HETATM   34  C   UNL     1      -6.595   7.768  66.305  1.00  0.00    -0.050 C  
HETATM   35  C   UNL     1      -7.990   8.387  66.276  1.00  0.00    -0.099 C  
HETATM   36  C   UNL     1      -8.194  11.928  66.877  1.00  0.00    -0.157 C  
HETATM   37  C   UNL     1      -7.776   9.513  65.223  1.00  0.00    -0.111 C  
HETATM   38  C   UNL     1      -9.330  11.060  66.347  1.00  0.00    -0.204 C  
HETATM   39  C   UNL     1      -8.954  10.439  65.052  1.00  0.00    -0.221 C  
HETATM   40  C   UNL     1      -7.535   9.006  63.774  1.00  0.00    -0.107 C  
BRANCH  35  41
HETATM   41  O   UNL     1      -9.093   7.478  66.135  1.00  0.00    -0.172 OA 
BRANCH  41  42
HETATM   42  C   UNL     1      -9.281   6.745  67.283  1.00  0.00    -0.133 C  
HETATM   43  O   UNL     1     -10.318   6.776  67.940  1.00  0.00    -0.165 OA 
BRANCH  42  44
HETATM   44  C   UNL     1      -8.143   5.878  67.777  1.00  0.00    -0.105 C  
BRANCH  44  45
HETATM   45  C   UNL     1      -7.498   4.805  66.913  1.00  0.00    -0.086 C  
BRANCH  45  46
HETATM   46  C   UNL     1      -7.980   3.396  67.233  1.00  0.00    -0.078 C  
BRANCH  46  47
HETATM   47  C   UNL     1      -8.349   3.180  68.706  1.00  0.00    -0.085 C  
BRANCH  47  48
HETATM   48  C   UNL     1      -7.499   2.117  69.405  1.00  0.00    -0.043 C  
HETATM   49  C   UNL     1      -7.366   2.399  70.895  1.00  0.00    -0.033 C  
ENDBRANCH  47  48
ENDBRANCH  46  47
ENDBRANCH  45  46
ENDBRANCH  44  45
ENDBRANCH  42  44
ENDBRANCH  41  42
ENDBRANCH  35  41
ENDBRANCH  20  22
ENDBRANCH   1  20
TORSDOF 9
ENDMDL
MODEL      156
REMARK 921   NORMALIZED FREE ENERGY PREDICTED BY IDOCK:    6.52 KCAL/MOL
REMARK 922        TOTAL FREE ENERGY PREDICTED BY IDOCK:    6.64 KCAL/MOL
REMARK 923 INTER-LIGAND FREE ENERGY PREDICTED BY IDOCK:   -6.18 KCAL/MOL
REMARK 924 INTRA-LIGAND FREE ENERGY PREDICTED BY IDOCK:   12.82 KCAL/MOL
REMARK 927      BINDING AFFINITY PREDICTED BY RF-SCORE:    0.00 PKD
ROOT
HETATM    1  N   UNL     1     -11.824   5.453  72.499  1.00  0.00    -0.223 N  
HETATM    2  C   UNL     1     -10.782   5.986  73.241  1.00  0.00    -0.262 C  
HETATM    3  C   UNL     1     -12.716  10.360  71.401  1.00  0.00    -0.551 A  
HETATM    4  H   UNL     1     -12.554   5.004  73.052  1.00  0.00     0.000 HD 
HETATM    5  C   UNL     1      -7.449   7.329  72.736  1.00  0.00    -0.082 A  
HETATM    6  O   UNL     1     -10.517   5.383  74.314  1.00  0.00    -0.276 OA 
HETATM    7  C   UNL     1      -6.303   6.367  70.841  1.00  0.00    -0.047 A  
HETATM    8  C   UNL     1     -10.032   7.307  72.914  1.00  0.00    -0.213 C  
HETATM    9  O   UNL     1      -9.669   7.849  74.221  1.00  0.00    -0.140 OA 
HETATM   10  C   UNL     1      -8.712   7.033  72.171  1.00  0.00    -0.133 A  
HETATM   11  C   UNL     1     -10.494   9.399  71.510  1.00  0.00    -0.299 A  
HETATM   12  C   UNL     1     -10.956   8.386  72.363  1.00  0.00    -0.425 A  
HETATM   13  C   UNL     1      -8.724   6.447  70.900  1.00  0.00    -0.136 A  
HETATM   14  C   UNL     1     -12.300   8.443  72.786  1.00  0.00    -0.137 A  
HETATM   15  C   UNL     1     -11.375  10.375  71.029  1.00  0.00    -0.208 A  
HETATM   16  H   UNL     1      -9.211   8.657  74.022  1.00  0.00     0.000 HD 
HETATM   17  C   UNL     1      -6.260   6.992  72.079  1.00  0.00    -0.041 A  
HETATM   18  C   UNL     1     -13.182   9.397  72.290  1.00  0.00    -0.528 A  
HETATM   19  C   UNL     1      -7.536   6.107  70.244  1.00  0.00    -0.096 A  
ENDROOT
BRANCH   1  20
HETATM   20  N   UNL     1     -12.043   5.428  71.096  1.00  0.00     1.415 NA 
HETATM   21  H   UNL     1     -12.969   5.364  70.672  1.00  0.00     0.000 HD 
BRANCH  20  22
HETATM   22  C   UNL     1     -10.937   5.495  70.404  1.00  0.00    -0.129 C  
HETATM   23  C   UNL     1      -9.422   4.728  68.526  1.00  0.00    -0.200 C  
HETATM   24  C   UNL     1      -9.748   6.051  67.797  1.00  0.00    -0.119 C  
HETATM   25  C   UNL     1     -10.876   6.755  68.537  1.00  0.00    -0.280 C  
HETATM   26  C   UNL     1     -10.089   4.383  69.675  1.00  0.00    -0.082 C  
HETATM   27  C   UNL     1      -8.283   4.025  67.757  1.00  0.00    -0.093 C  
HETATM   28  C   UNL     1     -10.429   6.837  69.991  1.00  0.00    -0.241 C  
HETATM   29  C   UNL     1     -10.264   5.792  66.366  1.00  0.00    -0.192 C  
HETATM   30  C   UNL     1      -7.069   4.956  67.249  1.00  0.00    -0.066 C  
HETATM   31  C   UNL     1      -7.372   6.478  66.928  1.00  0.00    -0.079 C  
HETATM   32  C   UNL     1      -6.133   7.510  66.943  1.00  0.00    -0.047 C  
HETATM   33  C   UNL     1      -5.407   7.531  65.559  1.00  0.00    -0.029 C  
HETATM   34  C   UNL     1      -5.763   8.872  64.882  1.00  0.00    -0.058 C  
HETATM   35  C   UNL     1      -7.009   9.319  65.643  1.00  0.00    -0.082 C  
HETATM   36  C   UNL     1      -8.465   6.922  67.895  1.00  0.00    -0.120 C  
HETATM   37  C   UNL     1      -6.558   9.039  67.106  1.00  0.00    -0.061 C  
HETATM   38  C   UNL     1      -8.825   8.402  67.836  1.00  0.00    -0.138 C  
HETATM   39  C   UNL     1      -7.638   9.241  68.141  1.00  0.00    -0.084 C  
HETATM   40  C   UNL     1      -5.424   9.967  67.622  1.00  0.00    -0.035 C  
BRANCH  35  41
HETATM   41  O   UNL     1      -7.548  10.603  65.295  1.00  0.00    -0.111 OA 
BRANCH  41  42
HETATM   42  C   UNL     1      -8.106  11.220  66.390  1.00  0.00    -0.138 C  
HETATM   43  O   UNL     1      -9.275  11.062  66.729  1.00  0.00    -0.157 OA 
BRANCH  42  44
HETATM   44  C   UNL     1      -7.245  12.165  67.200  1.00  0.00    -0.117 C  
BRANCH  44  45
HETATM   45  C   UNL     1      -7.669  13.592  67.513  1.00  0.00    -0.183 C  
BRANCH  45  46
HETATM   46  C   UNL     1      -8.718  14.139  66.552  1.00  0.00     0.019 C  
BRANCH  46  47
HETATM   47  C   UNL     1      -9.431  15.400  67.055  1.00  0.00    -0.232 C  
BRANCH  47  48
HETATM   48  C   UNL     1     -10.847  15.570  66.503  1.00  0.00    -0.284 C  
HETATM   49  C   UNL     1     -10.837  15.788  64.995  1.00  0.00    -0.461 C  
ENDBRANCH  47  48
ENDBRANCH  46  47
ENDBRANCH  45  46
ENDBRANCH  44  45
ENDBRANCH  42  44
ENDBRANCH  41  42
ENDBRANCH  35  41
ENDBRANCH  20  22
ENDBRANCH   1  20
TORSDOF 9
ENDMDL
MODEL      157
REMARK 921   NORMALIZED FREE ENERGY PREDICTED BY IDOCK:    6.89 KCAL/MOL
REMARK 922        TOTAL FREE ENERGY PREDICTED BY IDOCK:    7.20 KCAL/MOL
REMARK 923 INTER-LIGAND FREE ENERGY PREDICTED BY IDOCK:   -2.02 KCAL/MOL
REMARK 924 INTRA-LIGAND FREE ENERGY PREDICTED BY IDOCK:    9.21 KCAL/MOL
REMARK 927      BINDING AFFINITY PREDICTED BY RF-SCORE:    0.00 PKD
ROOT
HETATM    1  N   UNL     1      -9.934   4.634  66.871  1.00  0.00    -0.212 N  
HETATM    2  C   UNL     1      -8.926   4.449  67.804  1.00  0.00    -0.118 C  
HETATM    3  C   UNL     1     -12.209   7.058  70.749  1.00  0.00    -0.343 A  
HETATM    4  H   UNL     1     -10.403   3.779  66.575  1.00  0.00     0.000 HD 
HETATM    5  C   UNL     1      -6.200   6.304  69.319  1.00  0.00    -0.033 A  
HETATM    6  O   UNL     1      -8.308   3.355  67.723  1.00  0.00    -0.083 OA 
HETATM    7  C   UNL     1      -5.265   7.993  67.868  1.00  0.00    -0.033 A  
HETATM    8  C   UNL     1      -8.607   5.408  68.983  1.00  0.00    -0.102 C  
HETATM    9  O   UNL     1      -8.129   4.527  70.047  1.00  0.00    -0.066 OA 
HETATM   10  C   UNL     1      -7.440   6.352  68.638  1.00  0.00    -0.088 A  
HETATM   11  C   UNL     1      -9.845   7.256  70.254  1.00  0.00    -0.179 A  
HETATM   12  C   UNL     1      -9.860   6.013  69.605  1.00  0.00    -0.205 A  
HETATM   13  C   UNL     1      -7.567   7.283  67.602  1.00  0.00    -0.110 A  
HETATM   14  C   UNL     1     -11.061   5.274  69.623  1.00  0.00     0.562 A  
HETATM   15  C   UNL     1     -11.018   7.775  70.815  1.00  0.00    -0.259 A  
HETATM   16  H   UNL     1      -7.934   5.114  70.768  1.00  0.00     0.000 HD 
HETATM   17  C   UNL     1      -5.125   7.112  68.932  1.00  0.00    -0.014 A  
HETATM   18  C   UNL     1     -12.232   5.798  70.158  1.00  0.00     2.229 A  
HETATM   19  C   UNL     1      -6.492   8.089  67.211  1.00  0.00    -0.057 A  
ENDROOT
BRANCH   1  20
HETATM   20  N   UNL     1     -10.422   5.820  66.260  1.00  0.00    -0.462 NA 
HETATM   21  H   UNL     1     -11.355   5.901  65.856  1.00  0.00     0.000 HD 
BRANCH  20  22
HETATM   22  C   UNL     1      -9.553   6.796  66.269  1.00  0.00    -0.031 C  
HETATM   23  C   UNL     1      -8.154   8.558  65.110  1.00  0.00    -0.142 C  
HETATM   24  C   UNL     1      -9.091   9.624  65.720  1.00  0.00    -0.230 C  
HETATM   25  C   UNL     1     -10.284   8.925  66.355  1.00  0.00    -0.273 C  
HETATM   26  C   UNL     1      -8.446   7.222  65.230  1.00  0.00    -0.067 C  
HETATM   27  C   UNL     1      -6.956   9.285  64.463  1.00  0.00    -0.093 C  
HETATM   28  C   UNL     1      -9.698   7.876  67.291  1.00  0.00    -0.230 C  
HETATM   29  C   UNL     1      -9.664  10.558  64.633  1.00  0.00    -0.369 C  
HETATM   30  C   UNL     1      -6.311  10.505  65.299  1.00  0.00    -0.080 C  
HETATM   31  C   UNL     1      -7.248  11.317  66.286  1.00  0.00     0.007 C  
HETATM   32  C   UNL     1      -6.544  12.144  67.479  1.00  0.00    -0.132 C  
HETATM   33  C   UNL     1      -6.102  13.561  66.990  1.00  0.00     0.935 C  
HETATM   34  C   UNL     1      -7.066  14.581  67.634  1.00  0.00    -0.202 C  
HETATM   35  C   UNL     1      -8.258  13.717  68.039  1.00  0.00    -0.164 C  
HETATM   36  C   UNL     1      -8.270  10.327  66.836  1.00  0.00    -0.123 C  
HETATM   37  C   UNL     1      -7.521  12.509  68.686  1.00  0.00    -0.090 C  
HETATM   38  C   UNL     1      -9.202  10.882  67.908  1.00  0.00    -0.152 C  
HETATM   39  C   UNL     1      -8.424  11.365  69.077  1.00  0.00     0.051 C  
HETATM   40  C   UNL     1      -6.795  12.833  70.020  1.00  0.00     0.523 C  
BRANCH  35  41
HETATM   41  O   UNL     1      -9.315  14.376  68.753  1.00  0.00    -0.200 OA 
BRANCH  41  42
HETATM   42  C   UNL     1     -10.504  13.699  68.614  1.00  0.00    -0.234 C  
HETATM   43  O   UNL     1     -11.042  13.499  67.529  1.00  0.00    -0.262 OA 
BRANCH  42  44
HETATM   44  C   UNL     1     -11.200  13.203  69.863  1.00  0.00     0.067 C  
BRANCH  44  45
HETATM   45  C   UNL     1     -12.323  12.177  69.820  1.00  0.00    -0.091 C  
BRANCH  45  46
HETATM   46  C   UNL     1     -12.242  11.142  70.935  1.00  0.00    -0.468 C  
BRANCH  46  47
HETATM   47  C   UNL     1     -13.521  11.024  71.774  1.00  0.00    -0.260 C  
BRANCH  47  48
HETATM   48  C   UNL     1     -13.916   9.582  72.097  1.00  0.00    -0.287 C  
HETATM   49  C   UNL     1     -14.295   8.811  70.839  1.00  0.00     0.152 C  
ENDBRANCH  47  48
ENDBRANCH  46  47
ENDBRANCH  45  46
ENDBRANCH  44  45
ENDBRANCH  42  44
ENDBRANCH  41  42
ENDBRANCH  35  41
ENDBRANCH  20  22
ENDBRANCH   1  20
TORSDOF 9
ENDMDL
MODEL      158
REMARK 921   NORMALIZED FREE ENERGY PREDICTED BY IDOCK:    6.97 KCAL/MOL
REMARK 922        TOTAL FREE ENERGY PREDICTED BY IDOCK:    7.33 KCAL/MOL
REMARK 923 INTER-LIGAND FREE ENERGY PREDICTED BY IDOCK:   -4.25 KCAL/MOL
REMARK 924 INTRA-LIGAND FREE ENERGY PREDICTED BY IDOCK:   11.58 KCAL/MOL
REMARK 927      BINDING AFFINITY PREDICTED BY RF-SCORE:    0.00 PKD
ROOT
HETATM    1  N   UNL     1      -9.842  10.449  65.927  1.00  0.00    -0.221 N  
HETATM    2  C   UNL     1      -8.472  10.594  66.081  1.00  0.00    -0.159 C  
HETATM    3  C   UNL     1      -8.601   5.553  65.173  1.00  0.00    -0.141 A  
HETATM    4  H   UNL     1     -10.230  10.917  65.108  1.00  0.00     0.000 HD 
HETATM    5  C   UNL     1      -5.906  10.009  68.579  1.00  0.00    -0.041 A  
HETATM    6  O   UNL     1      -7.990  11.676  65.652  1.00  0.00     0.324 OA 
HETATM    7  C   UNL     1      -6.711  10.204  70.847  1.00  0.00     0.129 A  
HETATM    8  C   UNL     1      -7.507   9.497  66.609  1.00  0.00    -0.093 C  
HETATM    9  O   UNL     1      -6.257   9.740  65.893  1.00  0.00    -0.066 OA 
HETATM   10  C   UNL     1      -7.201   9.693  68.105  1.00  0.00    -0.080 A  
HETATM   11  C   UNL     1      -7.563   6.948  66.861  1.00  0.00    -0.094 A  
HETATM   12  C   UNL     1      -7.887   8.101  66.131  1.00  0.00    -0.092 A  
HETATM   13  C   UNL     1      -8.223   9.588  69.056  1.00  0.00    -0.113 A  
HETATM   14  C   UNL     1      -8.498   7.932  64.871  1.00  0.00    -0.045 A  
HETATM   15  C   UNL     1      -7.926   5.683  66.384  1.00  0.00    -0.101 A  
HETATM   16  H   UNL     1      -5.667   9.069  66.216  1.00  0.00     0.000 HD 
HETATM   17  C   UNL     1      -5.668  10.267  69.934  1.00  0.00    -0.047 A  
HETATM   18  C   UNL     1      -8.881   6.679  64.408  1.00  0.00     0.640 A  
HETATM   19  C   UNL     1      -7.987   9.850  70.410  1.00  0.00    -0.044 A  
ENDROOT
BRANCH   1  20
HETATM   20  N   UNL     1     -10.793   9.756  66.720  1.00  0.00    -0.077 NA 
HETATM   21  H   UNL     1     -11.746   9.558  66.412  1.00  0.00     0.000 HD 
BRANCH  20  22
HETATM   22  C   UNL     1     -10.325   9.398  67.886  1.00  0.00    -0.225 C  
HETATM   23  C   UNL     1     -10.583   8.976  70.369  1.00  0.00    -0.258 C  
HETATM   24  C   UNL     1     -10.488   7.464  70.065  1.00  0.00    -0.233 C  
HETATM   25  C   UNL     1     -10.551   7.260  68.559  1.00  0.00    -0.207 C  
HETATM   26  C   UNL     1     -10.663   9.889  69.346  1.00  0.00    -0.255 C  
HETATM   27  C   UNL     1     -10.527   9.163  71.900  1.00  0.00    -0.280 C  
HETATM   28  C   UNL     1      -9.479   8.170  67.973  1.00  0.00    -0.155 C  
HETATM   29  C   UNL     1     -11.688   6.694  70.657  1.00  0.00    -0.452 C  
HETATM   30  C   UNL     1      -9.446   8.272  72.699  1.00  0.00    -0.354 C  
HETATM   31  C   UNL     1      -9.031   6.869  72.091  1.00  0.00    -0.138 C  
HETATM   32  C   UNL     1      -7.622   6.235  72.557  1.00  0.00    -0.101 C  
HETATM   33  C   UNL     1      -7.785   5.429  73.886  1.00  0.00    -0.098 C  
HETATM   34  C   UNL     1      -7.676   3.932  73.523  1.00  0.00    -0.079 C  
HETATM   35  C   UNL     1      -7.943   3.925  72.020  1.00  0.00    -0.076 C  
HETATM   36  C   UNL     1      -9.092   7.012  70.574  1.00  0.00    -0.156 C  
HETATM   37  C   UNL     1      -7.051   5.118  71.571  1.00  0.00    -0.062 C  
HETATM   38  C   UNL     1      -8.609   5.799  69.786  1.00  0.00    -0.127 C  
HETATM   39  C   UNL     1      -7.194   5.491  70.116  1.00  0.00    -0.067 C  
HETATM   40  C   UNL     1      -5.524   4.870  71.703  1.00  0.00    -0.004 C  
BRANCH  35  41
HETATM   41  O   UNL     1      -7.830   2.658  71.354  1.00  0.00    -0.043 OA 
BRANCH  41  42
HETATM   42  C   UNL     1      -8.775   2.531  70.364  1.00  0.00    -0.070 C  
HETATM   43  O   UNL     1      -9.946   2.875  70.502  1.00  0.00     0.028 OA 
BRANCH  42  44
HETATM   44  C   UNL     1      -8.360   1.910  69.048  1.00  0.00    -0.072 C  
BRANCH  44  45
HETATM   45  C   UNL     1      -9.369   1.470  67.997  1.00  0.00    -0.213 C  
BRANCH  45  46
HETATM   46  C   UNL     1      -8.853   1.598  66.569  1.00  0.00    -0.124 C  
BRANCH  46  47
HETATM   47  C   UNL     1      -7.486   2.283  66.456  1.00  0.00    -0.066 C  
BRANCH  47  48
HETATM   48  C   UNL     1      -6.674   1.841  65.237  1.00  0.00    -0.031 C  
HETATM   49  C   UNL     1      -5.304   2.506  65.208  1.00  0.00    -0.009 C  
ENDBRANCH  47  48
ENDBRANCH  46  47
ENDBRANCH  45  46
ENDBRANCH  44  45
ENDBRANCH  42  44
ENDBRANCH  41  42
ENDBRANCH  35  41
ENDBRANCH  20  22
ENDBRANCH   1  20
TORSDOF 9
ENDMDL
MODEL      159
REMARK 921   NORMALIZED FREE ENERGY PREDICTED BY IDOCK:    6.98 KCAL/MOL
REMARK 922        TOTAL FREE ENERGY PREDICTED BY IDOCK:    7.33 KCAL/MOL
REMARK 923 INTER-LIGAND FREE ENERGY PREDICTED BY IDOCK:    4.53 KCAL/MOL
REMARK 924 INTRA-LIGAND FREE ENERGY PREDICTED BY IDOCK:    2.80 KCAL/MOL
REMARK 927      BINDING AFFINITY PREDICTED BY RF-SCORE:    0.00 PKD
ROOT
HETATM    1  N   UNL     1      -7.939  17.850  69.133  1.00  0.00    -0.041 N  
HETATM    2  C   UNL     1      -8.815  18.070  68.082  1.00  0.00    -0.273 C  
HETATM    3  C   UNL     1     -12.248  16.848  71.685  1.00  0.00     1.544 A  
HETATM    4  H   UNL     1      -7.442  18.681  69.454  1.00  0.00     0.000 HD 
HETATM    5  C   UNL     1     -10.764  16.172  65.680  1.00  0.00    -0.321 A  
HETATM    6  O   UNL     1      -8.486  18.987  67.285  1.00  0.00    -0.272 OA 
HETATM    7  C   UNL     1      -9.767  14.052  65.096  1.00  0.00     0.015 A  
HETATM    8  C   UNL     1     -10.192  17.374  67.902  1.00  0.00    -0.348 C  
HETATM    9  O   UNL     1     -11.023  18.382  67.248  1.00  0.00    -0.337 OA 
HETATM   10  C   UNL     1     -10.097  16.185  66.928  1.00  0.00    -0.273 A  
HETATM   11  C   UNL     1     -11.847  16.126  69.407  1.00  0.00    -0.154 A  
HETATM   12  C   UNL     1     -10.922  17.163  69.223  1.00  0.00     0.107 A  
HETATM   13  C   UNL     1      -9.309  15.073  67.245  1.00  0.00    -0.209 A  
HETATM   14  C   UNL     1     -10.748  18.085  70.276  1.00  0.00     1.657 A  
HETATM   15  C   UNL     1     -12.499  15.969  70.636  1.00  0.00    -0.086 A  
HETATM   16  H   UNL     1     -11.865  17.957  67.138  1.00  0.00     0.000 HD 
HETATM   17  C   UNL     1     -10.594  15.119  64.774  1.00  0.00    -0.305 A  
HETATM   18  C   UNL     1     -11.376  17.917  71.505  1.00  0.00     3.083 A  
HETATM   19  C   UNL     1      -9.135  14.022  66.339  1.00  0.00    -0.120 A  
ENDROOT
BRANCH   1  20
HETATM   20  N   UNL     1      -7.619  16.660  69.838  1.00  0.00     0.601 NA 
HETATM   21  H   UNL     1      -7.532  16.613  70.853  1.00  0.00     0.000 HD 
BRANCH  20  22
HETATM   22  C   UNL     1      -7.448  15.630  69.052  1.00  0.00    -0.181 C  
HETATM   23  C   UNL     1      -5.994  13.888  67.929  1.00  0.00    -0.143 C  
HETATM   24  C   UNL     1      -6.617  12.838  68.875  1.00  0.00    -0.095 C  
HETATM   25  C   UNL     1      -7.441  13.556  69.934  1.00  0.00     0.944 C  
HETATM   26  C   UNL     1      -6.257  15.225  68.101  1.00  0.00    -0.138 C  
HETATM   27  C   UNL     1      -5.156  13.143  66.869  1.00  0.00     0.864 C  
HETATM   28  C   UNL     1      -8.387  14.474  69.170  1.00  0.00    -0.001 C  
HETATM   29  C   UNL     1      -5.530  12.048  69.634  1.00  0.00    -0.078 C  
HETATM   30  C   UNL     1      -5.809  11.811  66.235  1.00  0.00     0.333 C  
HETATM   31  C   UNL     1      -6.827  10.979  67.119  1.00  0.00    -0.098 C  
HETATM   32  C   UNL     1      -7.858  10.000  66.357  1.00  0.00    -0.113 C  
HETATM   33  C   UNL     1      -7.207   8.606  66.083  1.00  0.00    -0.085 C  
HETATM   34  C   UNL     1      -7.870   7.600  67.049  1.00  0.00    -0.112 C  
HETATM   35  C   UNL     1      -8.479   8.504  68.119  1.00  0.00    -0.134 C  
HETATM   36  C   UNL     1      -7.570  11.982  67.996  1.00  0.00    -0.120 C  
HETATM   37  C   UNL     1      -9.135   9.595  67.224  1.00  0.00    -0.150 C  
HETATM   38  C   UNL     1      -8.692  11.397  68.846  1.00  0.00    -0.012 C  
HETATM   39  C   UNL     1      -9.720  10.757  67.987  1.00  0.00    -0.174 C  
HETATM   40  C   UNL     1     -10.346   9.101  66.385  1.00  0.00    -0.235 C  
BRANCH  35  41
HETATM   41  O   UNL     1      -9.253   7.857  69.140  1.00  0.00    -0.145 OA 
BRANCH  41  42
HETATM   42  C   UNL     1     -10.064   6.883  68.606  1.00  0.00    -0.162 C  
HETATM   43  O   UNL     1     -11.189   7.108  68.170  1.00  0.00    -0.007 OA 
BRANCH  42  44
HETATM   44  C   UNL     1      -9.556   5.457  68.583  1.00  0.00    -0.173 C  
BRANCH  44  45
HETATM   45  C   UNL     1     -10.418   4.276  69.002  1.00  0.00     0.825 C  
BRANCH  45  46
HETATM   46  C   UNL     1      -9.613   3.038  69.376  1.00  0.00    -0.076 C  
BRANCH  46  47
HETATM   47  C   UNL     1      -8.111   3.159  69.093  1.00  0.00    -0.069 C  
BRANCH  47  48
HETATM   48  C   UNL     1      -7.690   2.585  67.739  1.00  0.00    -0.060 C  
HETATM   49  C   UNL     1      -8.793   1.729  67.129  1.00  0.00    -0.143 C  
ENDBRANCH  47  48
ENDBRANCH  46  47
ENDBRANCH  45  46
ENDBRANCH  44  45
ENDBRANCH  42  44
ENDBRANCH  41  42
ENDBRANCH  35  41
ENDBRANCH  20  22
ENDBRANCH   1  20
TORSDOF 9
ENDMDL
MODEL      160
REMARK 921   NORMALIZED FREE ENERGY PREDICTED BY IDOCK:    7.00 KCAL/MOL
REMARK 922        TOTAL FREE ENERGY PREDICTED BY IDOCK:    7.37 KCAL/MOL
REMARK 923 INTER-LIGAND FREE ENERGY PREDICTED BY IDOCK:    3.46 KCAL/MOL
REMARK 924 INTRA-LIGAND FREE ENERGY PREDICTED BY IDOCK:    3.91 KCAL/MOL
REMARK 927      BINDING AFFINITY PREDICTED BY RF-SCORE:    0.00 PKD
ROOT
HETATM    1  N   UNL     1      -6.311   6.511  71.910  1.00  0.00    -0.045 N  
HETATM    2  C   UNL     1      -7.331   6.426  72.845  1.00  0.00    -0.094 C  
HETATM    3  C   UNL     1      -7.144   1.490  71.482  1.00  0.00    -0.031 A  
HETATM    4  H   UNL     1      -5.399   6.756  72.295  1.00  0.00     0.000 HD 
HETATM    5  C   UNL     1     -10.950   6.187  72.958  1.00  0.00    -0.278 A  
HETATM    6  O   UNL     1      -7.221   7.195  73.836  1.00  0.00    -0.086 OA 
HETATM    7  C   UNL     1     -12.042   7.257  71.088  1.00  0.00    -0.376 A  
HETATM    8  C   UNL     1      -8.489   5.391  72.818  1.00  0.00    -0.116 C  
HETATM    9  O   UNL     1      -8.781   5.141  74.227  1.00  0.00    -0.113 OA 
HETATM   10  C   UNL     1      -9.766   5.995  72.206  1.00  0.00    -0.172 A  
HETATM   11  C   UNL     1      -8.920   3.123  71.709  1.00  0.00    -0.145 A  
HETATM   12  C   UNL     1      -8.040   4.019  72.333  1.00  0.00    -0.086 A  
HETATM   13  C   UNL     1      -9.784   6.405  70.868  1.00  0.00    -0.193 A  
HETATM   14  C   UNL     1      -6.726   3.576  72.595  1.00  0.00    -0.029 A  
HETATM   15  C   UNL     1      -8.468   1.869  71.281  1.00  0.00    -0.079 A  
HETATM   16  H   UNL     1      -9.490   4.508  74.211  1.00  0.00     0.000 HD 
HETATM   17  C   UNL     1     -12.070   6.816  72.404  1.00  0.00    -0.120 A  
HETATM   18  C   UNL     1      -6.270   2.341  72.150  1.00  0.00    -0.014 A  
HETATM   19  C   UNL     1     -10.902   7.038  70.315  1.00  0.00    -0.283 A  
ENDROOT
BRANCH   1  20
HETATM   20  N   UNL     1      -6.327   6.311  70.504  1.00  0.00    -0.038 NA 
HETATM   21  H   UNL     1      -5.922   5.494  70.047  1.00  0.00     0.000 HD 
BRANCH  20  22
HETATM   22  C   UNL     1      -6.912   7.283  69.855  1.00  0.00    -0.057 C  
HETATM   23  C   UNL     1      -8.885   8.803  69.403  1.00  0.00    -0.143 C  
HETATM   24  C   UNL     1      -8.072   9.954  70.036  1.00  0.00    -0.193 C  
HETATM   25  C   UNL     1      -6.822   9.376  70.683  1.00  0.00    -0.104 C  
HETATM   26  C   UNL     1      -8.418   7.513  69.449  1.00  0.00    -0.133 C  
HETATM   27  C   UNL     1     -10.152   9.407  68.761  1.00  0.00    -0.208 C  
HETATM   28  C   UNL     1      -6.147   8.540  69.603  1.00  0.00    -0.032 C  
HETATM   29  C   UNL     1      -8.863  10.648  71.165  1.00  0.00     4.292 C  
HETATM   30  C   UNL     1      -9.961  10.776  67.931  1.00  0.00    -0.196 C  
HETATM   31  C   UNL     1      -8.786  11.753  68.351  1.00  0.00    -0.161 C  
HETATM   32  C   UNL     1      -8.258  12.809  67.252  1.00  0.00    -0.181 C  
HETATM   33  C   UNL     1      -9.125  14.108  67.265  1.00  0.00    -0.218 C  
HETATM   34  C   UNL     1      -8.263  15.221  67.899  1.00  0.00    -0.151 C  
HETATM   35  C   UNL     1      -7.183  14.436  68.639  1.00  0.00    -0.123 C  
HETATM   36  C   UNL     1      -7.646  10.875  68.860  1.00  0.00    -0.128 C  
HETATM   37  C   UNL     1      -6.802  13.389  67.552  1.00  0.00    -0.154 C  
HETATM   38  C   UNL     1      -6.360  11.616  69.206  1.00  0.00    -0.098 C  
HETATM   39  C   UNL     1      -5.832  12.332  68.016  1.00  0.00    -0.064 C  
HETATM   40  C   UNL     1      -6.082  13.981  66.309  1.00  0.00     4.849 C  
BRANCH  35  41
HETATM   41  O   UNL     1      -6.155  15.206  69.280  1.00  0.00    -0.102 OA 
BRANCH  41  42
HETATM   42  C   UNL     1      -6.608  16.461  69.610  1.00  0.00    -0.180 C  
HETATM   43  O   UNL     1      -7.732  16.676  70.054  1.00  0.00     0.707 OA 
BRANCH  42  44
HETATM   44  C   UNL     1      -5.686  17.641  69.385  1.00  0.00    -0.217 C  
BRANCH  44  45
HETATM   45  C   UNL     1      -6.177  18.965  68.819  1.00  0.00    -0.249 C  
BRANCH  45  46
HETATM   46  C   UNL     1      -7.322  18.814  67.825  1.00  0.00    -0.250 C  
BRANCH  46  47
HETATM   47  C   UNL     1      -7.243  19.769  66.629  1.00  0.00    -0.250 C  
BRANCH  47  48
HETATM   48  C   UNL     1      -6.740  19.108  65.344  1.00  0.00    -0.279 C  
HETATM   49  C   UNL     1      -5.493  18.271  65.598  1.00  0.00    -0.222 C  
ENDBRANCH  47  48
ENDBRANCH  46  47
ENDBRANCH  45  46
ENDBRANCH  44  45
ENDBRANCH  42  44
ENDBRANCH  41  42
ENDBRANCH  35  41
ENDBRANCH  20  22
ENDBRANCH   1  20
TORSDOF 9
ENDMDL
MODEL      161
REMARK 921   NORMALIZED FREE ENERGY PREDICTED BY IDOCK:    7.76 KCAL/MOL
REMARK 922        TOTAL FREE ENERGY PREDICTED BY IDOCK:    8.53 KCAL/MOL
REMARK 923 INTER-LIGAND FREE ENERGY PREDICTED BY IDOCK:   -0.51 KCAL/MOL
REMARK 924 INTRA-LIGAND FREE ENERGY PREDICTED BY IDOCK:    9.04 KCAL/MOL
REMARK 927      BINDING AFFINITY PREDICTED BY RF-SCORE:    0.00 PKD
ROOT
HETATM    1  N   UNL     1     -10.255  10.987  70.893  1.00  0.00     1.775 N  
HETATM    2  C   UNL     1     -10.970  11.269  69.739  1.00  0.00    -0.103 C  
HETATM    3  C   UNL     1     -12.063   6.276  70.107  1.00  0.00     0.308 A  
HETATM    4  H   UNL     1     -10.610  11.440  71.735  1.00  0.00     0.000 HD 
HETATM    5  C   UNL     1     -10.666  10.867  66.146  1.00  0.00    -0.225 A  
HETATM    6  O   UNL     1     -11.503  12.408  69.697  1.00  0.00    -0.254 OA 
HETATM    7  C   UNL     1      -8.380  10.897  65.366  1.00  0.00    -0.051 A  
HETATM    8  C   UNL     1     -11.256  10.259  68.593  1.00  0.00    -0.208 C  
HETATM    9  O   UNL     1     -12.567  10.656  68.083  1.00  0.00     0.118 OA 
HETATM   10  C   UNL     1     -10.262  10.434  67.431  1.00  0.00    -0.259 A  
HETATM   11  C   UNL     1     -11.262   7.712  68.328  1.00  0.00     0.415 A  
HETATM   12  C   UNL     1     -11.524   8.849  69.105  1.00  0.00     0.547 A  
HETATM   13  C   UNL     1      -8.897  10.190  67.626  1.00  0.00    -0.125 A  
HETATM   14  C   UNL     1     -12.142   8.662  70.358  1.00  0.00     0.246 A  
HETATM   15  C   UNL     1     -11.525   6.433  68.833  1.00  0.00    -0.148 A  
HETATM   16  H   UNL     1     -12.742  10.040  67.382  1.00  0.00     0.000 HD 
HETATM   17  C   UNL     1      -9.733  11.100  65.130  1.00  0.00    -0.296 A  
HETATM   18  C   UNL     1     -12.382   7.393  70.872  1.00  0.00    -0.236 A  
HETATM   19  C   UNL     1      -7.963  10.427  66.612  1.00  0.00    -0.120 A  
ENDROOT
BRANCH   1  20
HETATM   20  N   UNL     1      -9.111  10.171  71.097  1.00  0.00     0.413 NA 
HETATM   21  H   UNL     1      -8.821   9.827  72.012  1.00  0.00     0.000 HD 
BRANCH  20  22
HETATM   22  C   UNL     1      -8.467   9.907  69.991  1.00  0.00    -0.165 C  
HETATM   23  C   UNL     1      -6.338   9.667  68.644  1.00  0.00    -0.047 C  
HETATM   24  C   UNL     1      -6.559   8.138  68.670  1.00  0.00    -0.058 C  
HETATM   25  C   UNL     1      -7.692   7.821  69.635  1.00  0.00    -0.101 C  
HETATM   26  C   UNL     1      -7.137  10.500  69.387  1.00  0.00    -0.110 C  
HETATM   27  C   UNL     1      -5.179   9.968  67.668  1.00  0.00    -0.034 C  
HETATM   28  C   UNL     1      -8.859   8.700  69.203  1.00  0.00    -0.137 C  
HETATM   29  C   UNL     1      -5.315   7.398  69.206  1.00  0.00    -0.015 C  
HETATM   30  C   UNL     1      -5.175   9.153  66.276  1.00  0.00    -0.036 C  
HETATM   31  C   UNL     1      -5.838   7.715  66.244  1.00  0.00    -0.037 C  
HETATM   32  C   UNL     1      -6.311   7.136  64.814  1.00  0.00    -0.037 C  
HETATM   33  C   UNL     1      -5.127   6.430  64.079  1.00  0.00    -0.021 C  
HETATM   34  C   UNL     1      -5.404   4.911  64.132  1.00  0.00    -0.013 C  
HETATM   35  C   UNL     1      -6.418   4.789  65.266  1.00  0.00    -0.036 C  
HETATM   36  C   UNL     1      -6.999   7.744  67.234  1.00  0.00    -0.078 C  
HETATM   37  C   UNL     1      -7.382   5.957  64.908  1.00  0.00    -0.073 C  
HETATM   38  C   UNL     1      -7.855   6.482  67.270  1.00  0.00    -0.105 C  
HETATM   39  C   UNL     1      -8.454   6.219  65.937  1.00  0.00    -0.146 C  
HETATM   40  C   UNL     1      -8.208   5.741  63.611  1.00  0.00    -0.072 C  
BRANCH  35  41
HETATM   41  O   UNL     1      -6.948   3.478  65.515  1.00  0.00    -0.055 OA 
BRANCH  41  42
HETATM   42  C   UNL     1      -6.830   3.138  66.842  1.00  0.00    -0.052 C  
HETATM   43  O   UNL     1      -5.946   3.575  67.573  1.00  0.00    -0.026 OA 
BRANCH  42  44
HETATM   44  C   UNL     1      -7.821   2.154  67.423  1.00  0.00    -0.064 C  
BRANCH  44  45
HETATM   45  C   UNL     1      -9.045   2.596  68.213  1.00  0.00    -0.228 C  
BRANCH  45  46
HETATM   46  C   UNL     1      -8.761   2.830  69.691  1.00  0.00    -0.131 C  
BRANCH  46  47
HETATM   47  C   UNL     1      -9.516   4.022  70.292  1.00  0.00    -0.255 C  
BRANCH  47  48
HETATM   48  C   UNL     1      -8.657   4.899  71.205  1.00  0.00    -0.131 C  
HETATM   49  C   UNL     1      -7.247   4.342  71.350  1.00  0.00    -0.043 C  
ENDBRANCH  47  48
ENDBRANCH  46  47
ENDBRANCH  45  46
ENDBRANCH  44  45
ENDBRANCH  42  44
ENDBRANCH  41  42
ENDBRANCH  35  41
ENDBRANCH  20  22
ENDBRANCH   1  20
TORSDOF 9
ENDMDL
MODEL      162
REMARK 921   NORMALIZED FREE ENERGY PREDICTED BY IDOCK:    8.89 KCAL/MOL
REMARK 922        TOTAL FREE ENERGY PREDICTED BY IDOCK:   10.26 KCAL/MOL
REMARK 923 INTER-LIGAND FREE ENERGY PREDICTED BY IDOCK:   -5.26 KCAL/MOL
REMARK 924 INTRA-LIGAND FREE ENERGY PREDICTED BY IDOCK:   15.52 KCAL/MOL
REMARK 927      BINDING AFFINITY PREDICTED BY RF-SCORE:    0.00 PKD
ROOT
HETATM    1  N   UNL     1     -10.238   3.021  70.932  1.00  0.00     0.409 N  
HETATM    2  C   UNL     1      -9.762   3.261  72.211  1.00  0.00    -0.153 C  
HETATM    3  C   UNL     1     -12.269   7.673  71.499  1.00  0.00    -0.351 A  
HETATM    4  H   UNL     1     -10.922   2.267  70.866  1.00  0.00     0.000 HD 
HETATM    5  C   UNL     1      -7.112   5.113  73.860  1.00  0.00    -0.082 A  
HETATM    6  O   UNL     1      -9.704   2.254  72.965  1.00  0.00    -0.093 OA 
HETATM    7  C   UNL     1      -5.126   5.357  72.508  1.00  0.00    -0.016 A  
HETATM    8  C   UNL     1      -9.431   4.661  72.797  1.00  0.00    -0.132 C  
HETATM    9  O   UNL     1      -9.750   4.542  74.218  1.00  0.00    -0.124 OA 
HETATM   10  C   UNL     1      -7.923   4.963  72.710  1.00  0.00    -0.098 A  
HETATM   11  C   UNL     1     -10.041   7.088  72.252  1.00  0.00    -0.195 A  
HETATM   12  C   UNL     1     -10.406   5.737  72.337  1.00  0.00    -0.238 A  
HETATM   13  C   UNL     1      -7.295   5.072  71.465  1.00  0.00    -0.081 A  
HETATM   14  C   UNL     1     -11.750   5.401  72.074  1.00  0.00     0.158 A  
HETATM   15  C   UNL     1     -10.969   8.047  71.828  1.00  0.00    -0.305 A  
HETATM   16  H   UNL     1      -9.547   5.398  74.577  1.00  0.00     0.000 HD 
HETATM   17  C   UNL     1      -5.730   5.301  73.757  1.00  0.00    -0.023 A  
HETATM   18  C   UNL     1     -12.666   6.347  71.630  1.00  0.00    -0.012 A  
HETATM   19  C   UNL     1      -5.912   5.257  71.360  1.00  0.00    -0.028 A  
ENDROOT
BRANCH   1  20
HETATM   20  N   UNL     1      -9.932   3.653  69.697  1.00  0.00     0.106 NA 
HETATM   21  H   UNL     1      -9.896   3.158  68.806  1.00  0.00     0.000 HD 
BRANCH  20  22
HETATM   22  C   UNL     1      -9.700   4.933  69.820  1.00  0.00    -0.192 C  
HETATM   23  C   UNL     1      -8.172   6.896  70.288  1.00  0.00    -0.129 C  
HETATM   24  C   UNL     1      -8.236   7.233  68.782  1.00  0.00    -0.129 C  
HETATM   25  C   UNL     1      -8.923   6.090  68.050  1.00  0.00    -0.112 C  
HETATM   26  C   UNL     1      -8.726   5.734  70.766  1.00  0.00    -0.131 C  
HETATM   27  C   UNL     1      -7.465   8.062  71.012  1.00  0.00    -0.071 C  
HETATM   28  C   UNL     1     -10.239   5.862  68.783  1.00  0.00    -0.243 C  
HETATM   29  C   UNL     1      -6.824   7.352  68.171  1.00  0.00    -0.063 C  
HETATM   30  C   UNL     1      -7.882   9.553  70.562  1.00  0.00    -0.182 C  
HETATM   31  C   UNL     1      -8.386   9.778  69.077  1.00  0.00    -0.127 C  
HETATM   32  C   UNL     1      -9.281  11.086  68.777  1.00  0.00    -0.167 C  
HETATM   33  C   UNL     1      -8.377  12.326  68.486  1.00  0.00    -0.084 C  
HETATM   34  C   UNL     1      -8.485  12.619  66.974  1.00  0.00    -0.150 C  
HETATM   35  C   UNL     1      -9.018  11.305  66.408  1.00  0.00    -0.188 C  
HETATM   36  C   UNL     1      -9.120   8.505  68.665  1.00  0.00    -0.139 C  
HETATM   37  C   UNL     1     -10.143  10.993  67.437  1.00  0.00    -0.216 C  
HETATM   38  C   UNL     1      -9.795   8.557  67.298  1.00  0.00    -0.259 C  
HETATM   39  C   UNL     1     -10.801   9.648  67.253  1.00  0.00    -0.212 C  
HETATM   40  C   UNL     1     -11.353  11.967  67.388  1.00  0.00    -0.389 C  
BRANCH  35  41
HETATM   41  O   UNL     1      -9.309  11.282  65.003  1.00  0.00    -0.221 OA 
BRANCH  41  42
HETATM   42  C   UNL     1      -8.491  10.397  64.341  1.00  0.00    -0.163 C  
HETATM   43  O   UNL     1      -7.397  10.708  63.879  1.00  0.00     0.045 OA 
BRANCH  42  44
HETATM   44  C   UNL     1      -8.977   8.977  64.146  1.00  0.00     0.032 C  
BRANCH  44  45
HETATM   45  C   UNL     1      -8.025   7.809  63.936  1.00  0.00    -0.103 C  
BRANCH  45  46
HETATM   46  C   UNL     1      -8.066   6.782  65.061  1.00  0.00    -0.126 C  
BRANCH  46  47
HETATM   47  C   UNL     1      -7.186   5.550  64.816  1.00  0.00    -0.062 C  
BRANCH  47  48
HETATM   48  C   UNL     1      -7.978   4.273  64.531  1.00  0.00    -0.090 C  
HETATM   49  C   UNL     1      -8.978   4.476  63.401  1.00  0.00    -0.131 C  
ENDBRANCH  47  48
ENDBRANCH  46  47
ENDBRANCH  45  46
ENDBRANCH  44  45
ENDBRANCH  42  44
ENDBRANCH  41  42
ENDBRANCH  35  41
ENDBRANCH  20  22
ENDBRANCH   1  20
TORSDOF 9
ENDMDL
MODEL      163
REMARK 921   NORMALIZED FREE ENERGY PREDICTED BY IDOCK:    9.04 KCAL/MOL
REMARK 922        TOTAL FREE ENERGY PREDICTED BY IDOCK:   10.48 KCAL/MOL
REMARK 923 INTER-LIGAND FREE ENERGY PREDICTED BY IDOCK:    9.06 KCAL/MOL
REMARK 924 INTRA-LIGAND FREE ENERGY PREDICTED BY IDOCK:    1.42 KCAL/MOL
REMARK 927      BINDING AFFINITY PREDICTED BY RF-SCORE:    0.00 PKD
ROOT
HETATM    1  N   UNL     1      -9.772  17.860  69.333  1.00  0.00     0.047 N  
HETATM    2  C   UNL     1      -8.839  18.868  69.147  1.00  0.00    -0.025 C  
HETATM    3  C   UNL     1     -12.392  20.509  65.839  1.00  0.00     4.928 A  
HETATM    4  H   UNL     1     -10.201  17.842  70.258  1.00  0.00     0.000 HD 
HETATM    5  C   UNL     1      -6.276  19.844  66.771  1.00  0.00    -0.196 A  
HETATM    6  O   UNL     1      -8.197  19.209  70.176  1.00  0.00     0.932 OA 
HETATM    7  C   UNL     1      -5.256  17.972  65.636  1.00  0.00    -0.220 A  
HETATM    8  C   UNL     1      -8.632  19.668  67.831  1.00  0.00    -0.317 C  
HETATM    9  O   UNL     1      -8.226  20.999  68.278  1.00  0.00     0.477 OA 
HETATM   10  C   UNL     1      -7.458  19.103  67.011  1.00  0.00    -0.228 A  
HETATM   11  C   UNL     1     -10.000  20.142  65.718  1.00  0.00    -0.329 A  
HETATM   12  C   UNL     1      -9.941  19.957  67.107  1.00  0.00    -0.557 A  
HETATM   13  C   UNL     1      -7.517  17.805  66.493  1.00  0.00    -0.284 A  
HETATM   14  C   UNL     1     -11.127  20.143  67.847  1.00  0.00     0.386 A  
HETATM   15  C   UNL     1     -11.223  20.409  65.091  1.00  0.00     0.837 A  
HETATM   16  H   UNL     1      -8.099  21.488  67.473  1.00  0.00     0.000 HD 
HETATM   17  C   UNL     1      -5.187  19.279  66.096  1.00  0.00    -0.165 A  
HETATM   18  C   UNL     1     -12.346  20.384  67.224  1.00  0.00     4.137 A  
HETATM   19  C   UNL     1      -6.428  17.238  65.821  1.00  0.00     0.245 A  
ENDROOT
BRANCH   1  20
HETATM   20  N   UNL     1     -10.229  16.849  68.447  1.00  0.00    -0.301 NA 
HETATM   21  H   UNL     1     -11.172  16.827  68.057  1.00  0.00     0.000 HD 
BRANCH  20  22
HETATM   22  C   UNL     1      -9.320  15.949  68.183  1.00  0.00    -0.198 C  
HETATM   23  C   UNL     1      -7.004  14.962  68.450  1.00  0.00    -0.110 C  
HETATM   24  C   UNL     1      -7.646  13.817  69.263  1.00  0.00     0.198 C  
HETATM   25  C   UNL     1      -9.099  14.168  69.546  1.00  0.00     0.670 C  
HETATM   26  C   UNL     1      -7.750  16.049  68.067  1.00  0.00    -0.140 C  
HETATM   27  C   UNL     1      -5.529  14.593  68.181  1.00  0.00    -0.123 C  
HETATM   28  C   UNL     1      -9.712  14.508  68.193  1.00  0.00    -0.219 C  
HETATM   29  C   UNL     1      -6.965  13.653  70.639  1.00  0.00     1.206 C  
HETATM   30  C   UNL     1      -5.231  13.067  67.752  1.00  0.00    -0.100 C  
HETATM   31  C   UNL     1      -6.215  11.936  68.265  1.00  0.00    -0.050 C  
HETATM   32  C   UNL     1      -6.255  10.547  67.446  1.00  0.00    -0.057 C  
HETATM   33  C   UNL     1      -5.137   9.574  67.941  1.00  0.00    -0.036 C  
HETATM   34  C   UNL     1      -5.835   8.452  68.739  1.00  0.00    -0.043 C  
HETATM   35  C   UNL     1      -7.193   9.065  69.074  1.00  0.00    -0.072 C  
HETATM   36  C   UNL     1      -7.603  12.563  68.347  1.00  0.00    -0.129 C  
HETATM   37  C   UNL     1      -7.571   9.679  67.695  1.00  0.00    -0.091 C  
HETATM   38  C   UNL     1      -8.731  11.604  68.709  1.00  0.00    -0.015 C  
HETATM   39  C   UNL     1      -8.829  10.511  67.708  1.00  0.00    -0.125 C  
HETATM   40  C   UNL     1      -7.870   8.637  66.583  1.00  0.00    -0.097 C  
BRANCH  35  41
HETATM   41  O   UNL     1      -8.128   8.218  69.759  1.00  0.00    -0.113 OA 
BRANCH  41  42
HETATM   42  C   UNL     1      -7.488   7.400  70.661  1.00  0.00    -0.078 C  
HETATM   43  O   UNL     1      -6.921   7.820  71.666  1.00  0.00    -0.059 OA 
BRANCH  42  44
HETATM   44  C   UNL     1      -7.456   5.912  70.386  1.00  0.00    -0.089 C  
BRANCH  44  45
HETATM   45  C   UNL     1      -6.383   5.264  69.524  1.00  0.00    -0.034 C  
BRANCH  45  46
HETATM   46  C   UNL     1      -6.904   4.761  68.183  1.00  0.00    -0.056 C  
BRANCH  46  47
HETATM   47  C   UNL     1      -7.446   3.327  68.221  1.00  0.00    -0.053 C  
BRANCH  47  48
HETATM   48  C   UNL     1      -8.369   2.986  67.050  1.00  0.00    -0.092 C  
HETATM   49  C   UNL     1      -9.394   4.086  66.808  1.00  0.00    -0.199 C  
ENDBRANCH  47  48
ENDBRANCH  46  47
ENDBRANCH  45  46
ENDBRANCH  44  45
ENDBRANCH  42  44
ENDBRANCH  41  42
ENDBRANCH  35  41
ENDBRANCH  20  22
ENDBRANCH   1  20
TORSDOF 9
ENDMDL
MODEL      164
REMARK 921   NORMALIZED FREE ENERGY PREDICTED BY IDOCK:    9.79 KCAL/MOL
REMARK 922        TOTAL FREE ENERGY PREDICTED BY IDOCK:   11.63 KCAL/MOL
REMARK 923 INTER-LIGAND FREE ENERGY PREDICTED BY IDOCK:    7.38 KCAL/MOL
REMARK 924 INTRA-LIGAND FREE ENERGY PREDICTED BY IDOCK:    4.24 KCAL/MOL
REMARK 927      BINDING AFFINITY PREDICTED BY RF-SCORE:    0.00 PKD
ROOT
HETATM    1  N   UNL     1     -11.245  15.038  65.808  1.00  0.00    -0.337 N  
HETATM    2  C   UNL     1     -12.150  14.670  66.791  1.00  0.00    -0.200 C  
HETATM    3  C   UNL     1      -8.320  16.208  69.828  1.00  0.00     0.438 A  
HETATM    4  H   UNL     1     -11.529  15.839  65.246  1.00  0.00     0.000 HD 
HETATM    5  C   UNL     1     -12.767  11.921  69.078  1.00  0.00     1.008 A  
HETATM    6  O   UNL     1     -13.361  14.888  66.521  1.00  0.00     1.574 OA 
HETATM    7  C   UNL     1     -12.012   9.786  68.239  1.00  0.00     1.611 A  
HETATM    8  C   UNL     1     -11.776  14.149  68.206  1.00  0.00    -0.348 C  
HETATM    9  O   UNL     1     -12.849  14.642  69.068  1.00  0.00    -0.310 OA 
HETATM   10  C   UNL     1     -11.833  12.612  68.271  1.00  0.00    -0.354 A  
HETATM   11  C   UNL     1      -9.713  14.228  69.722  1.00  0.00     0.681 A  
HETATM   12  C   UNL     1     -10.552  14.848  68.785  1.00  0.00    -0.247 A  
HETATM   13  C   UNL     1     -10.961  11.839  67.495  1.00  0.00    -0.310 A  
HETATM   14  C   UNL     1     -10.289  16.194  68.455  1.00  0.00    -0.257 A  
HETATM   15  C   UNL     1      -8.599  14.906  70.233  1.00  0.00     0.957 A  
HETATM   16  H   UNL     1     -12.620  14.323  69.933  1.00  0.00     0.000 HD 
HETATM   17  C   UNL     1     -12.857  10.525  69.055  1.00  0.00     1.519 A  
HETATM   18  C   UNL     1      -9.171  16.860  68.942  1.00  0.00    -0.229 A  
HETATM   19  C   UNL     1     -11.053  10.444  67.469  1.00  0.00    -0.336 A  
ENDROOT
BRANCH   1  20
HETATM   20  N   UNL     1      -9.987  14.482  65.456  1.00  0.00    -0.436 NA 
HETATM   21  H   UNL     1      -9.158  15.045  65.261  1.00  0.00     0.000 HD 
BRANCH  20  22
HETATM   22  C   UNL     1      -9.998  13.176  65.406  1.00  0.00    -0.188 C  
HETATM   23  C   UNL     1      -9.724  10.981  64.178  1.00  0.00    -0.332 C  
HETATM   24  C   UNL     1      -8.420  10.761  64.975  1.00  0.00    -0.080 C  
HETATM   25  C   UNL     1      -8.078  12.041  65.723  1.00  0.00     0.841 C  
HETATM   26  C   UNL     1     -10.395  12.176  64.254  1.00  0.00    -0.363 C  
HETATM   27  C   UNL     1     -10.049   9.676  63.419  1.00  0.00     1.619 C  
HETATM   28  C   UNL     1      -9.334  12.411  66.503  1.00  0.00    -0.233 C  
HETATM   29  C   UNL     1      -7.227  10.476  64.038  1.00  0.00     0.122 C  
HETATM   30  C   UNL     1      -9.854   8.297  64.233  1.00  0.00     3.285 C  
HETATM   31  C   UNL     1      -8.770   8.253  65.388  1.00  0.00    -0.147 C  
HETATM   32  C   UNL     1      -8.927   7.116  66.522  1.00  0.00    -0.172 C  
HETATM   33  C   UNL     1      -8.261   5.778  66.066  1.00  0.00    -0.114 C  
HETATM   34  C   UNL     1      -6.971   5.609  66.898  1.00  0.00    -0.065 C  
HETATM   35  C   UNL     1      -6.705   7.023  67.407  1.00  0.00    -0.067 C  
HETATM   36  C   UNL     1      -8.733   9.645  66.010  1.00  0.00    -0.155 C  
HETATM   37  C   UNL     1      -8.135   7.427  67.872  1.00  0.00    -0.119 C  
HETATM   38  C   UNL     1      -7.832   9.788  67.232  1.00  0.00    -0.098 C  
HETATM   39  C   UNL     1      -8.265   8.864  68.311  1.00  0.00    -0.121 C  
HETATM   40  C   UNL     1      -8.656   6.650  69.112  1.00  0.00    -0.130 C  
BRANCH  35  41
HETATM   41  O   UNL     1      -5.592   7.185  68.300  1.00  0.00    -0.020 OA 
BRANCH  41  42
HETATM   42  C   UNL     1      -5.444   6.086  69.113  1.00  0.00    -0.004 C  
HETATM   43  O   UNL     1      -5.338   4.941  68.684  1.00  0.00    -0.006 OA 
BRANCH  42  44
HETATM   44  C   UNL     1      -5.442   6.296  70.612  1.00  0.00    -0.018 C  
BRANCH  44  45
HETATM   45  C   UNL     1      -5.969   5.251  71.584  1.00  0.00    -0.025 C  
BRANCH  45  46
HETATM   46  C   UNL     1      -6.728   5.845  72.764  1.00  0.00    -0.073 C  
BRANCH  46  47
HETATM   47  C   UNL     1      -7.668   4.858  73.465  1.00  0.00    -0.096 C  
BRANCH  47  48
HETATM   48  C   UNL     1      -8.908   5.514  74.074  1.00  0.00    -0.119 C  
HETATM   49  C   UNL     1      -9.450   6.621  73.180  1.00  0.00    -0.160 C  
ENDBRANCH  47  48
ENDBRANCH  46  47
ENDBRANCH  45  46
ENDBRANCH  44  45
ENDBRANCH  42  44
ENDBRANCH  41  42
ENDBRANCH  35  41
ENDBRANCH  20  22
ENDBRANCH   1  20
TORSDOF 9
ENDMDL
MODEL      165
REMARK 921   NORMALIZED FREE ENERGY PREDICTED BY IDOCK:    9.87 KCAL/MOL
REMARK 922        TOTAL FREE ENERGY PREDICTED BY IDOCK:   11.75 KCAL/MOL
REMARK 923 INTER-LIGAND FREE ENERGY PREDICTED BY IDOCK:   11.68 KCAL/MOL
REMARK 924 INTRA-LIGAND FREE ENERGY PREDICTED BY IDOCK:    0.07 KCAL/MOL
REMARK 927      BINDING AFFINITY PREDICTED BY RF-SCORE:    0.00 PKD
ROOT
HETATM    1  N   UNL     1      -8.710  19.344  70.592  1.00  0.00     2.014 N  
HETATM    2  C   UNL     1      -7.399  18.957  70.824  1.00  0.00     2.352 C  
HETATM    3  C   UNL     1      -6.996  20.037  65.831  1.00  0.00    -0.305 A  
HETATM    4  H   UNL     1      -8.992  20.200  71.068  1.00  0.00     0.000 HD 
HETATM    5  C   UNL     1      -5.244  16.084  70.306  1.00  0.00    -0.155 A  
HETATM    6  O   UNL     1      -6.936  19.264  71.954  1.00  0.00     1.798 OA 
HETATM    7  C   UNL     1      -6.425  13.978  70.344  1.00  0.00     0.001 A  
HETATM    8  C   UNL     1      -6.455  18.310  69.773  1.00  0.00    -0.059 C  
HETATM    9  O   UNL     1      -5.126  18.798  70.133  1.00  0.00    -0.180 OA 
HETATM   10  C   UNL     1      -6.416  16.778  69.923  1.00  0.00    -0.009 A  
HETATM   11  C   UNL     1      -6.359  18.155  67.218  1.00  0.00    -0.187 A  
HETATM   12  C   UNL     1      -6.644  18.891  68.377  1.00  0.00    -0.260 A  
HETATM   13  C   UNL     1      -7.569  16.017  69.706  1.00  0.00     0.189 A  
HETATM   14  C   UNL     1      -7.025  20.240  68.223  1.00  0.00    -0.295 A  
HETATM   15  C   UNL     1      -6.542  18.726  65.953  1.00  0.00    -0.282 A  
HETATM   16  H   UNL     1      -4.549  18.403  69.491  1.00  0.00     0.000 HD 
HETATM   17  C   UNL     1      -5.253  14.701  70.519  1.00  0.00    -0.116 A  
HETATM   18  C   UNL     1      -7.231  20.802  66.968  1.00  0.00    -0.369 A  
HETATM   19  C   UNL     1      -7.581  14.635  69.922  1.00  0.00     0.179 A  
ENDROOT
BRANCH   1  20
HETATM   20  N   UNL     1      -9.725  18.744  69.800  1.00  0.00     0.320 NA 
HETATM   21  H   UNL     1     -10.059  19.138  68.920  1.00  0.00     0.000 HD 
BRANCH  20  22
HETATM   22  C   UNL     1     -10.187  17.635  70.314  1.00  0.00     1.248 C  
HETATM   23  C   UNL     1     -12.020  16.261  71.391  1.00  0.00    -0.326 C  
HETATM   24  C   UNL     1     -12.147  15.488  70.060  1.00  0.00    -0.391 C  
HETATM   25  C   UNL     1     -11.315  16.194  68.999  1.00  0.00    -0.340 C  
HETATM   26  C   UNL     1     -11.216  17.370  71.479  1.00  0.00     1.654 C  
HETATM   27  C   UNL     1     -12.877  15.535  72.451  1.00  0.00    -0.495 C  
HETATM   28  C   UNL     1      -9.924  16.350  69.600  1.00  0.00    -0.087 C  
HETATM   29  C   UNL     1     -13.601  15.491  69.542  1.00  0.00     2.014 C  
HETATM   30  C   UNL     1     -12.792  13.925  72.472  1.00  0.00    -0.371 C  
HETATM   31  C   UNL     1     -12.465  13.172  71.117  1.00  0.00    -0.378 C  
HETATM   32  C   UNL     1     -11.866  11.677  71.214  1.00  0.00     0.566 C  
HETATM   33  C   UNL     1     -13.012  10.623  71.335  1.00  0.00    -0.545 C  
HETATM   34  C   UNL     1     -13.088   9.880  69.983  1.00  0.00     0.572 C  
HETATM   35  C   UNL     1     -12.360  10.827  69.032  1.00  0.00     0.197 C  
HETATM   36  C   UNL     1     -11.537  14.083  70.320  1.00  0.00    -0.240 C  
HETATM   37  C   UNL     1     -11.115  11.188  69.893  1.00  0.00    -0.234 C  
HETATM   38  C   UNL     1     -10.999  13.490  69.022  1.00  0.00    -0.264 C  
HETATM   39  C   UNL     1     -10.229  12.250  69.293  1.00  0.00     0.321 C  
HETATM   40  C   UNL     1     -10.124  10.014  70.120  1.00  0.00    -0.266 C  
BRANCH  35  41
HETATM   41  O   UNL     1     -12.187  10.372  67.682  1.00  0.00     0.828 OA 
BRANCH  41  42
HETATM   42  C   UNL     1     -12.123  11.430  66.806  1.00  0.00     1.076 C  
HETATM   43  O   UNL     1     -13.112  12.047  66.421  1.00  0.00     2.241 OA 
BRANCH  42  44
HETATM   44  C   UNL     1     -10.768  11.835  66.266  1.00  0.00    -0.312 C  
BRANCH  44  45
HETATM   45  C   UNL     1     -10.591  12.980  65.280  1.00  0.00    -0.320 C  
BRANCH  45  46
HETATM   46  C   UNL     1      -9.165  13.512  65.216  1.00  0.00     0.804 C  
BRANCH  46  47
HETATM   47  C   UNL     1      -8.761  14.367  66.424  1.00  0.00     0.077 C  
BRANCH  47  48
HETATM   48  C   UNL     1      -7.467  13.909  67.098  1.00  0.00     0.094 C  
HETATM   49  C   UNL     1      -7.344  12.391  67.099  1.00  0.00    -0.081 C  
ENDBRANCH  47  48
ENDBRANCH  46  47
ENDBRANCH  45  46
ENDBRANCH  44  45
ENDBRANCH  42  44
ENDBRANCH  41  42
ENDBRANCH  35  41
ENDBRANCH  20  22
ENDBRANCH   1  20
TORSDOF 9
ENDMDL
MODEL      166
REMARK 921   NORMALIZED FREE ENERGY PREDICTED BY IDOCK:   10.19 KCAL/MOL
REMARK 922        TOTAL FREE ENERGY PREDICTED BY IDOCK:   12.24 KCAL/MOL
REMARK 923 INTER-LIGAND FREE ENERGY PREDICTED BY IDOCK:   -2.79 KCAL/MOL
REMARK 924 INTRA-LIGAND FREE ENERGY PREDICTED BY IDOCK:   15.03 KCAL/MOL
REMARK 927      BINDING AFFINITY PREDICTED BY RF-SCORE:    0.00 PKD
ROOT
HETATM    1  N   UNL     1      -8.929   9.732  64.338  1.00  0.00    -0.230 N  
HETATM    2  C   UNL     1      -9.140  10.924  65.013  1.00  0.00    -0.190 C  
HETATM    3  C   UNL     1      -5.127   9.225  67.710  1.00  0.00    -0.033 A  
HETATM    4  H   UNL     1      -8.624   9.838  63.371  1.00  0.00     0.000 HD 
HETATM    5  C   UNL     1     -10.625  12.114  68.102  1.00  0.00    -0.236 A  
HETATM    6  O   UNL     1      -9.531  11.887  64.302  1.00  0.00    -0.068 OA 
HETATM    7  C   UNL     1     -12.458  10.744  68.876  1.00  0.00     0.462 A  
HETATM    8  C   UNL     1      -8.810  11.177  66.510  1.00  0.00    -0.171 C  
HETATM    9  O   UNL     1      -8.432  12.588  66.562  1.00  0.00    -0.401 OA 
HETATM   10  C   UNL     1     -10.062  11.026  67.392  1.00  0.00    -0.216 A  
HETATM   11  C   UNL     1      -7.315  10.095  68.286  1.00  0.00    -0.081 A  
HETATM   12  C   UNL     1      -7.529  10.483  66.955  1.00  0.00    -0.100 A  
HETATM   13  C   UNL     1     -10.708   9.789  67.498  1.00  0.00    -0.327 A  
HETATM   14  C   UNL     1      -6.473  10.302  66.038  1.00  0.00    -0.107 A  
HETATM   15  C   UNL     1      -6.122   9.463  68.655  1.00  0.00    -0.044 A  
HETATM   16  H   UNL     1      -8.230  12.743  67.477  1.00  0.00     0.000 HD 
HETATM   17  C   UNL     1     -11.812  11.972  68.829  1.00  0.00    -0.358 A  
HETATM   18  C   UNL     1      -5.297   9.653  66.398  1.00  0.00    -0.044 A  
HETATM   19  C   UNL     1     -11.897   9.648  68.222  1.00  0.00     1.344 A  
ENDROOT
BRANCH   1  20
HETATM   20  N   UNL     1      -9.068   8.387  64.771  1.00  0.00    -0.332 NA 
HETATM   21  H   UNL     1      -8.876   7.581  64.175  1.00  0.00     0.000 HD 
BRANCH  20  22
HETATM   22  C   UNL     1      -9.467   8.287  66.011  1.00  0.00    -0.119 C  
HETATM   23  C   UNL     1     -10.901   7.256  67.825  1.00  0.00    -0.214 C  
HETATM   24  C   UNL     1      -9.627   6.572  68.367  1.00  0.00    -0.122 C  
HETATM   25  C   UNL     1      -8.498   6.768  67.365  1.00  0.00    -0.121 C  
HETATM   26  C   UNL     1     -10.873   7.938  66.634  1.00  0.00     0.321 C  
HETATM   27  C   UNL     1     -12.035   7.039  68.850  1.00  0.00     1.143 C  
HETATM   28  C   UNL     1      -8.441   8.266  67.096  1.00  0.00    -0.123 C  
HETATM   29  C   UNL     1      -9.821   5.047  68.507  1.00  0.00    -0.216 C  
HETATM   30  C   UNL     1     -11.651   7.223  70.405  1.00  0.00    -0.253 C  
HETATM   31  C   UNL     1     -10.160   6.928  70.852  1.00  0.00    -0.207 C  
HETATM   32  C   UNL     1      -9.641   7.595  72.225  1.00  0.00    -0.215 C  
HETATM   33  C   UNL     1     -10.014   6.705  73.454  1.00  0.00    -0.231 C  
HETATM   34  C   UNL     1      -8.706   6.055  73.955  1.00  0.00    -0.119 C  
HETATM   35  C   UNL     1      -7.774   6.195  72.755  1.00  0.00    -0.105 C  
HETATM   36  C   UNL     1      -9.265   7.319  69.680  1.00  0.00    -0.143 C  
HETATM   37  C   UNL     1      -8.052   7.673  72.354  1.00  0.00    -0.132 C  
HETATM   38  C   UNL     1      -7.766   7.226  69.947  1.00  0.00    -0.103 C  
HETATM   39  C   UNL     1      -7.380   8.110  71.076  1.00  0.00    -0.058 C  
HETATM   40  C   UNL     1      -7.545   8.727  73.376  1.00  0.00     0.186 C  
BRANCH  35  41
HETATM   41  O   UNL     1      -6.422   5.747  72.936  1.00  0.00    -0.059 OA 
BRANCH  41  42
HETATM   42  C   UNL     1      -6.355   4.375  72.976  1.00  0.00    -0.036 C  
HETATM   43  O   UNL     1      -5.461   3.760  73.552  1.00  0.00     0.000 OA 
BRANCH  42  44
HETATM   44  C   UNL     1      -7.419   3.581  72.248  1.00  0.00    -0.057 C  
BRANCH  44  45
HETATM   45  C   UNL     1      -7.350   3.300  70.755  1.00  0.00    -0.037 C  
BRANCH  45  46
HETATM   46  C   UNL     1      -8.718   3.163  70.098  1.00  0.00    -0.127 C  
BRANCH  46  47
HETATM   47  C   UNL     1      -9.879   3.032  71.092  1.00  0.00    -0.106 C  
BRANCH  47  48
HETATM   48  C   UNL     1      -9.463   2.477  72.455  1.00  0.00    -0.155 C  
HETATM   49  C   UNL     1     -10.631   2.463  73.433  1.00  0.00    -0.248 C  
ENDBRANCH  47  48
ENDBRANCH  46  47
ENDBRANCH  45  46
ENDBRANCH  44  45
ENDBRANCH  42  44
ENDBRANCH  41  42
ENDBRANCH  35  41
ENDBRANCH  20  22
ENDBRANCH   1  20
TORSDOF 9
ENDMDL
MODEL      167
REMARK 921   NORMALIZED FREE ENERGY PREDICTED BY IDOCK:   10.92 KCAL/MOL
REMARK 922        TOTAL FREE ENERGY PREDICTED BY IDOCK:   13.35 KCAL/MOL
REMARK 923 INTER-LIGAND FREE ENERGY PREDICTED BY IDOCK:    1.69 KCAL/MOL
REMARK 924 INTRA-LIGAND FREE ENERGY PREDICTED BY IDOCK:   11.66 KCAL/MOL
REMARK 927      BINDING AFFINITY PREDICTED BY RF-SCORE:    0.00 PKD
ROOT
HETATM    1  N   UNL     1     -11.615  15.768  66.951  1.00  0.00     0.163 N  
HETATM    2  C   UNL     1     -10.289  15.718  66.551  1.00  0.00    -0.294 C  
HETATM    3  C   UNL     1     -12.245  12.485  63.089  1.00  0.00    -0.341 A  
HETATM    4  H   UNL     1     -12.067  16.672  66.814  1.00  0.00     0.000 HD 
HETATM    5  C   UNL     1      -7.404  13.538  66.853  1.00  0.00     0.591 A  
HETATM    6  O   UNL     1      -9.649  16.796  66.662  1.00  0.00    -0.236 OA 
HETATM    7  C   UNL     1      -7.384  12.249  68.895  1.00  0.00    -0.041 A  
HETATM    8  C   UNL     1      -9.601  14.499  65.876  1.00  0.00    -0.247 C  
HETATM    9  O   UNL     1      -8.615  15.093  64.977  1.00  0.00     1.844 OA 
HETATM   10  C   UNL     1      -8.813  13.663  66.900  1.00  0.00    -0.201 A  
HETATM   11  C   UNL     1     -10.367  12.403  64.618  1.00  0.00    -0.332 A  
HETATM   12  C   UNL     1     -10.521  13.767  64.907  1.00  0.00    -0.437 A  
HETATM   13  C   UNL     1      -9.479  13.011  67.944  1.00  0.00    -0.219 A  
HETATM   14  C   UNL     1     -11.505  14.484  64.195  1.00  0.00    -0.072 A  
HETATM   15  C   UNL     1     -11.231  11.768  63.718  1.00  0.00    -0.518 A  
HETATM   16  H   UNL     1      -8.194  14.348  64.564  1.00  0.00     0.000 HD 
HETATM   17  C   UNL     1      -6.700  12.844  67.844  1.00  0.00    -0.123 A  
HETATM   18  C   UNL     1     -12.380  13.850  63.320  1.00  0.00     0.225 A  
HETATM   19  C   UNL     1      -8.776  12.320  68.937  1.00  0.00     0.264 A  
ENDROOT
BRANCH   1  20
HETATM   20  N   UNL     1     -12.449  14.768  67.518  1.00  0.00    -0.355 NA 
HETATM   21  H   UNL     1     -13.468  14.813  67.507  1.00  0.00     0.000 HD 
BRANCH  20  22
HETATM   22  C   UNL     1     -11.777  13.786  68.056  1.00  0.00    -0.355 C  
HETATM   23  C   UNL     1     -11.377  12.087  69.890  1.00  0.00    -0.144 C  
HETATM   24  C   UNL     1     -11.840  10.994  68.903  1.00  0.00    -0.378 C  
HETATM   25  C   UNL     1     -12.419  11.662  67.664  1.00  0.00     1.409 C  
HETATM   26  C   UNL     1     -11.487  13.416  69.562  1.00  0.00    -0.308 C  
HETATM   27  C   UNL     1     -10.801  11.391  71.142  1.00  0.00     2.974 C  
HETATM   28  C   UNL     1     -11.356  12.645  67.189  1.00  0.00    -0.373 C  
HETATM   29  C   UNL     1     -12.974  10.136  69.502  1.00  0.00     1.140 C  
HETATM   30  C   UNL     1      -9.849  10.115  70.888  1.00  0.00     0.734 C  
HETATM   31  C   UNL     1     -10.083   9.251  69.580  1.00  0.00    -0.208 C  
HETATM   32  C   UNL     1      -8.859   8.343  69.051  1.00  0.00    -0.146 C  
HETATM   33  C   UNL     1      -8.841   6.956  69.770  1.00  0.00    -0.141 C  
HETATM   34  C   UNL     1      -9.305   5.906  68.736  1.00  0.00    -0.133 C  
HETATM   35  C   UNL     1     -10.008   6.754  67.680  1.00  0.00    -0.137 C  
HETATM   36  C   UNL     1     -10.559  10.214  68.497  1.00  0.00    -0.245 C  
HETATM   37  C   UNL     1      -8.981   7.912  67.520  1.00  0.00    -0.131 C  
HETATM   38  C   UNL     1     -10.729   9.600  67.111  1.00  0.00    -0.258 C  
HETATM   39  C   UNL     1      -9.443   9.037  66.627  1.00  0.00    -0.251 C  
HETATM   40  C   UNL     1      -7.635   7.497  66.864  1.00  0.00    -0.102 C  
BRANCH  35  41
HETATM   41  O   UNL     1     -10.491   6.062  66.519  1.00  0.00    -0.211 OA 
BRANCH  41  42
HETATM   42  C   UNL     1      -9.471   5.400  65.876  1.00  0.00    -0.122 C  
HETATM   43  O   UNL     1      -8.941   5.815  64.850  1.00  0.00    -0.009 OA 
BRANCH  42  44
HETATM   44  C   UNL     1      -9.000   4.079  66.445  1.00  0.00    -0.128 C  
BRANCH  44  45
HETATM   45  C   UNL     1      -7.933   3.232  65.767  1.00  0.00    -0.086 C  
BRANCH  45  46
HETATM   46  C   UNL     1      -8.438   1.867  65.316  1.00  0.00    -0.095 C  
BRANCH  46  47
HETATM   47  C   UNL     1      -8.896   1.821  63.853  1.00  0.00    -0.091 C  
BRANCH  47  48
HETATM   48  C   UNL     1     -10.416   1.803  63.683  1.00  0.00    -0.083 C  
HETATM   49  C   UNL     1     -10.970   3.205  63.467  1.00  0.00    -0.106 C  
ENDBRANCH  47  48
ENDBRANCH  46  47
ENDBRANCH  45  46
ENDBRANCH  44  45
ENDBRANCH  42  44
ENDBRANCH  41  42
ENDBRANCH  35  41
ENDBRANCH  20  22
ENDBRANCH   1  20
TORSDOF 9
ENDMDL
MODEL      168
REMARK 921   NORMALIZED FREE ENERGY PREDICTED BY IDOCK:   11.40 KCAL/MOL
REMARK 922        TOTAL FREE ENERGY PREDICTED BY IDOCK:   14.08 KCAL/MOL
REMARK 923 INTER-LIGAND FREE ENERGY PREDICTED BY IDOCK:   13.58 KCAL/MOL
REMARK 924 INTRA-LIGAND FREE ENERGY PREDICTED BY IDOCK:    0.50 KCAL/MOL
REMARK 927      BINDING AFFINITY PREDICTED BY RF-SCORE:    0.00 PKD
ROOT
HETATM    1  N   UNL     1      -9.286  17.035  69.975  1.00  0.00     1.228 N  
HETATM    2  C   UNL     1      -8.241  17.935  69.835  1.00  0.00     1.630 C  
HETATM    3  C   UNL     1     -11.978  20.788  67.795  1.00  0.00     4.383 A  
HETATM    4  H   UNL     1      -9.548  16.833  70.940  1.00  0.00     0.000 HD 
HETATM    5  C   UNL     1      -5.993  19.168  67.268  1.00  0.00    -0.178 A  
HETATM    6  O   UNL     1      -7.386  17.921  70.760  1.00  0.00     2.771 OA 
HETATM    7  C   UNL     1      -5.512  17.539  65.551  1.00  0.00     0.219 A  
HETATM    8  C   UNL     1      -8.130  19.014  68.723  1.00  0.00    -0.337 C  
HETATM    9  O   UNL     1      -7.435  20.127  69.367  1.00  0.00    -0.064 OA 
HETATM   10  C   UNL     1      -7.224  18.540  67.572  1.00  0.00    -0.214 A  
HETATM   11  C   UNL     1      -9.738  20.176  67.103  1.00  0.00    -0.576 A  
HETATM   12  C   UNL     1      -9.475  19.636  68.370  1.00  0.00    -0.452 A  
HETATM   13  C   UNL     1      -7.589  17.435  66.795  1.00  0.00    -0.263 A  
HETATM   14  C   UNL     1     -10.470  19.769  69.361  1.00  0.00     0.174 A  
HETATM   15  C   UNL     1     -10.987  20.742  66.819  1.00  0.00     1.648 A  
HETATM   16  H   UNL     1      -7.367  20.786  68.687  1.00  0.00     0.000 HD 
HETATM   17  C   UNL     1      -5.146  18.667  66.273  1.00  0.00    -0.164 A  
HETATM   18  C   UNL     1     -11.718  20.308  69.075  1.00  0.00     3.555 A  
HETATM   19  C   UNL     1      -6.742  16.931  65.802  1.00  0.00     0.863 A  
ENDROOT
BRANCH   1  20
HETATM   20  N   UNL     1     -10.051  16.347  68.996  1.00  0.00    -0.248 NA 
HETATM   21  H   UNL     1     -10.988  16.634  68.712  1.00  0.00     0.000 HD 
BRANCH  20  22
HETATM   22  C   UNL     1      -9.432  15.310  68.498  1.00  0.00    -0.200 C  
HETATM   23  C   UNL     1      -7.348  13.939  68.071  1.00  0.00    -0.141 C  
HETATM   24  C   UNL     1      -7.887  12.906  69.085  1.00  0.00     0.388 C  
HETATM   25  C   UNL     1      -9.100  13.495  69.790  1.00  0.00     1.940 C  
HETATM   26  C   UNL     1      -7.984  15.144  67.898  1.00  0.00    -0.143 C  
HETATM   27  C   UNL     1      -6.113  13.328  67.373  1.00  0.00     0.014 C  
HETATM   28  C   UNL     1     -10.037  13.957  68.682  1.00  0.00    -0.203 C  
HETATM   29  C   UNL     1      -6.849  12.605  70.188  1.00  0.00     0.720 C  
HETATM   30  C   UNL     1      -6.224  11.782  66.930  1.00  0.00    -0.134 C  
HETATM   31  C   UNL     1      -7.173  10.826  67.764  1.00  0.00    -0.088 C  
HETATM   32  C   UNL     1      -7.697   9.478  67.050  1.00  0.00    -0.091 C  
HETATM   33  C   UNL     1      -6.660   8.321  67.210  1.00  0.00    -0.058 C  
HETATM   34  C   UNL     1      -7.252   7.320  68.227  1.00  0.00    -0.094 C  
HETATM   35  C   UNL     1      -8.315   8.150  68.942  1.00  0.00    -0.125 C  
HETATM   36  C   UNL     1      -8.341  11.679  68.248  1.00  0.00    -0.159 C  
HETATM   37  C   UNL     1      -8.996   8.843  67.726  1.00  0.00    -0.140 C  
HETATM   38  C   UNL     1      -9.444  10.920  68.977  1.00  0.00    -0.160 C  
HETATM   39  C   UNL     1     -10.030   9.877  68.096  1.00  0.00    -0.175 C  
HETATM   40  C   UNL     1      -9.795   7.886  66.800  1.00  0.00    -0.318 C  
BRANCH  35  41
HETATM   41  O   UNL     1      -9.118   7.463  69.914  1.00  0.00    -0.142 OA 
BRANCH  41  42
HETATM   42  C   UNL     1      -8.387   6.502  70.572  1.00  0.00    -0.133 C  
HETATM   43  O   UNL     1      -7.429   6.762  71.294  1.00  0.00    -0.081 OA 
BRANCH  42  44
HETATM   44  C   UNL     1      -8.765   5.050  70.374  1.00  0.00    -0.128 C  
BRANCH  44  45
HETATM   45  C   UNL     1      -9.130   4.135  71.534  1.00  0.00    -0.175 C  
BRANCH  45  46
HETATM   46  C   UNL     1      -8.199   2.937  71.678  1.00  0.00    -0.064 C  
BRANCH  46  47
HETATM   47  C   UNL     1      -8.924   1.589  71.765  1.00  0.00    -0.106 C  
BRANCH  47  48
HETATM   48  C   UNL     1     -10.393   1.703  72.177  1.00  0.00    -0.214 C  
HETATM   49  C   UNL     1     -10.559   1.591  73.687  1.00  0.00    -0.186 C  
ENDBRANCH  47  48
ENDBRANCH  46  47
ENDBRANCH  45  46
ENDBRANCH  44  45
ENDBRANCH  42  44
ENDBRANCH  41  42
ENDBRANCH  35  41
ENDBRANCH  20  22
ENDBRANCH   1  20
TORSDOF 9
ENDMDL
MODEL      169
REMARK 921   NORMALIZED FREE ENERGY PREDICTED BY IDOCK:   11.53 KCAL/MOL
REMARK 922        TOTAL FREE ENERGY PREDICTED BY IDOCK:   14.28 KCAL/MOL
REMARK 923 INTER-LIGAND FREE ENERGY PREDICTED BY IDOCK:   -2.48 KCAL/MOL
REMARK 924 INTRA-LIGAND FREE ENERGY PREDICTED BY IDOCK:   16.75 KCAL/MOL
REMARK 927      BINDING AFFINITY PREDICTED BY RF-SCORE:    0.00 PKD
ROOT
HETATM    1  N   UNL     1      -7.077   4.804  69.765  1.00  0.00    -0.052 N  
HETATM    2  C   UNL     1      -7.461   4.783  71.097  1.00  0.00    -0.072 C  
HETATM    3  C   UNL     1     -11.739   6.782  69.106  1.00  0.00     0.146 A  
HETATM    4  H   UNL     1      -6.945   3.884  69.346  1.00  0.00     0.000 HD 
HETATM    5  C   UNL     1      -7.788   7.058  73.904  1.00  0.00    -0.123 A  
HETATM    6  O   UNL     1      -7.032   3.809  71.769  1.00  0.00    -0.026 OA 
HETATM    7  C   UNL     1      -6.216   8.891  73.843  1.00  0.00    -0.037 A  
HETATM    8  C   UNL     1      -8.459   5.774  71.758  1.00  0.00    -0.131 C  
HETATM    9  O   UNL     1      -9.134   4.977  72.780  1.00  0.00    -0.129 OA 
HETATM   10  C   UNL     1      -7.719   6.902  72.500  1.00  0.00    -0.095 A  
HETATM   11  C   UNL     1     -10.285   7.377  70.951  1.00  0.00    -0.195 A  
HETATM   12  C   UNL     1      -9.609   6.155  70.834  1.00  0.00    -0.193 A  
HETATM   13  C   UNL     1      -6.919   7.807  71.793  1.00  0.00    -0.064 A  
HETATM   14  C   UNL     1     -10.087   5.225  69.888  1.00  0.00    -0.333 A  
HETATM   15  C   UNL     1     -11.340   7.688  70.084  1.00  0.00    -0.147 A  
HETATM   16  H   UNL     1      -9.744   5.583  73.185  1.00  0.00     0.000 HD 
HETATM   17  C   UNL     1      -7.039   8.038  74.566  1.00  0.00    -0.193 A  
HETATM   18  C   UNL     1     -11.118   5.541  69.010  1.00  0.00     0.178 A  
HETATM   19  C   UNL     1      -6.167   8.784  72.453  1.00  0.00    -0.059 A  
ENDROOT
BRANCH   1  20
HETATM   20  N   UNL     1      -6.836   5.895  68.889  1.00  0.00    -0.064 NA 
HETATM   21  H   UNL     1      -6.055   5.929  68.234  1.00  0.00     0.000 HD 
BRANCH  20  22
HETATM   22  C   UNL     1      -7.718   6.852  69.009  1.00  0.00    -0.110 C  
HETATM   23  C   UNL     1      -8.607   8.952  70.107  1.00  0.00    -0.161 C  
HETATM   24  C   UNL     1      -8.206   9.723  68.830  1.00  0.00    -0.108 C  
HETATM   25  C   UNL     1      -7.379   8.806  67.940  1.00  0.00    -0.088 C  
HETATM   26  C   UNL     1      -8.246   7.638  70.270  1.00  0.00    -0.123 C  
HETATM   27  C   UNL     1      -9.436   9.900  71.000  1.00  0.00     0.602 C  
HETATM   28  C   UNL     1      -8.205   7.537  67.774  1.00  0.00    -0.119 C  
HETATM   29  C   UNL     1      -7.307  10.933  69.160  1.00  0.00    -0.126 C  
HETATM   30  C   UNL     1     -10.542  10.811  70.258  1.00  0.00     0.181 C  
HETATM   31  C   UNL     1     -10.289  11.219  68.748  1.00  0.00    -0.223 C  
HETATM   32  C   UNL     1     -11.567  11.647  67.861  1.00  0.00    -0.369 C  
HETATM   33  C   UNL     1     -11.894  13.163  68.049  1.00  0.00    -0.398 C  
HETATM   34  C   UNL     1     -11.481  13.879  66.744  1.00  0.00    -0.369 C  
HETATM   35  C   UNL     1     -10.526  12.880  66.095  1.00  0.00    -0.269 C  
HETATM   36  C   UNL     1      -9.535  10.063  68.100  1.00  0.00    -0.148 C  
HETATM   37  C   UNL     1     -11.327  11.560  66.286  1.00  0.00    -0.222 C  
HETATM   38  C   UNL     1      -9.295  10.201  66.600  1.00  0.00    -0.195 C  
HETATM   39  C   UNL     1     -10.585  10.314  65.873  1.00  0.00    -0.083 C  
HETATM   40  C   UNL     1     -12.631  11.467  65.446  1.00  0.00     2.080 C  
BRANCH  35  41
HETATM   41  O   UNL     1     -10.020  13.227  64.797  1.00  0.00    -0.243 OA 
BRANCH  41  42
HETATM   42  C   UNL     1     -10.574  14.402  64.346  1.00  0.00     0.051 C  
HETATM   43  O   UNL     1     -11.636  14.455  63.733  1.00  0.00     0.014 OA 
BRANCH  42  44
HETATM   44  C   UNL     1      -9.821  15.692  64.592  1.00  0.00     1.162 C  
BRANCH  44  45
HETATM   45  C   UNL     1     -10.015  16.523  65.852  1.00  0.00    -0.342 C  
BRANCH  45  46
HETATM   46  C   UNL     1      -8.857  16.412  66.837  1.00  0.00    -0.232 C  
BRANCH  46  47
HETATM   47  C   UNL     1      -8.591  17.692  67.638  1.00  0.00    -0.224 C  
BRANCH  47  48
HETATM   48  C   UNL     1      -8.530  18.956  66.778  1.00  0.00    -0.304 C  
HETATM   49  C   UNL     1      -9.787  19.801  66.936  1.00  0.00    -0.520 C  
ENDBRANCH  47  48
ENDBRANCH  46  47
ENDBRANCH  45  46
ENDBRANCH  44  45
ENDBRANCH  42  44
ENDBRANCH  41  42
ENDBRANCH  35  41
ENDBRANCH  20  22
ENDBRANCH   1  20
TORSDOF 9
ENDMDL
MODEL      170
REMARK 921   NORMALIZED FREE ENERGY PREDICTED BY IDOCK:   11.83 KCAL/MOL
REMARK 922        TOTAL FREE ENERGY PREDICTED BY IDOCK:   14.74 KCAL/MOL
REMARK 923 INTER-LIGAND FREE ENERGY PREDICTED BY IDOCK:    7.57 KCAL/MOL
REMARK 924 INTRA-LIGAND FREE ENERGY PREDICTED BY IDOCK:    7.17 KCAL/MOL
REMARK 927      BINDING AFFINITY PREDICTED BY RF-SCORE:    0.00 PKD
ROOT
HETATM    1  N   UNL     1      -8.726  19.014  70.867  1.00  0.00     3.559 N  
HETATM    2  C   UNL     1      -7.418  18.596  71.061  1.00  0.00     3.904 C  
HETATM    3  C   UNL     1      -6.921  20.458  66.313  1.00  0.00    -0.291 A  
HETATM    4  H   UNL     1      -9.020  19.784  71.468  1.00  0.00     0.000 HD 
HETATM    5  C   UNL     1      -5.242  15.844  70.135  1.00  0.00    -0.144 A  
HETATM    6  O   UNL     1      -6.979  18.719  72.234  1.00  0.00     3.262 OA 
HETATM    7  C   UNL     1      -6.415  13.759  69.813  1.00  0.00    -0.079 A  
HETATM    8  C   UNL     1      -6.452  18.126  69.939  1.00  0.00     0.031 C  
HETATM    9  O   UNL     1      -5.132  18.551  70.400  1.00  0.00    -0.202 OA 
HETATM   10  C   UNL     1      -6.409  16.590  69.844  1.00  0.00    -0.111 A  
HETATM   11  C   UNL     1      -6.304  18.380  67.395  1.00  0.00    -0.189 A  
HETATM   12  C   UNL     1      -6.615  18.921  68.651  1.00  0.00    -0.287 A  
HETATM   13  C   UNL     1      -7.555  15.872  69.485  1.00  0.00    -0.143 A  
HETATM   14  C   UNL     1      -6.998  20.278  68.706  1.00  0.00    -0.188 A  
HETATM   15  C   UNL     1      -6.465  19.146  66.234  1.00  0.00    -0.213 A  
HETATM   16  H   UNL     1      -4.540  18.263  69.714  1.00  0.00     0.000 HD 
HETATM   17  C   UNL     1      -5.250  14.445  70.125  1.00  0.00    -0.092 A  
HETATM   18  C   UNL     1      -7.182  21.032  67.553  1.00  0.00    -0.320 A  
HETATM   19  C   UNL     1      -7.566  14.473  69.479  1.00  0.00     0.016 A  
ENDROOT
BRANCH   1  20
HETATM   20  N   UNL     1      -9.722  18.548  69.970  1.00  0.00     0.835 NA 
HETATM   21  H   UNL     1     -10.294  19.165  69.393  1.00  0.00     0.000 HD 
BRANCH  20  22
HETATM   22  C   UNL     1      -9.833  17.246  69.959  1.00  0.00     0.965 C  
HETATM   23  C   UNL     1     -11.176  15.112  70.182  1.00  0.00    -0.299 C  
HETATM   24  C   UNL     1     -11.046  14.935  68.653  1.00  0.00    -0.272 C  
HETATM   25  C   UNL     1     -10.454  16.206  68.059  1.00  0.00    -0.281 C  
HETATM   26  C   UNL     1     -10.747  16.265  70.790  1.00  0.00     0.216 C  
HETATM   27  C   UNL     1     -11.785  13.818  70.764  1.00  0.00    -0.081 C  
HETATM   28  C   UNL     1      -9.184  16.480  68.854  1.00  0.00    -0.258 C  
HETATM   29  C   UNL     1     -12.426  14.748  67.987  1.00  0.00     0.352 C  
HETATM   30  C   UNL     1     -11.217  12.425  70.184  1.00  0.00     0.351 C  
HETATM   31  C   UNL     1     -10.659  12.399  68.701  1.00  0.00    -0.243 C  
HETATM   32  C   UNL     1      -9.636  11.217  68.304  1.00  0.00    -0.193 C  
HETATM   33  C   UNL     1     -10.410   9.933  67.863  1.00  0.00    -0.256 C  
HETATM   34  C   UNL     1     -10.240   9.806  66.334  1.00  0.00    -0.288 C  
HETATM   35  C   UNL     1      -9.822  11.214  65.918  1.00  0.00    -0.232 C  
HETATM   36  C   UNL     1     -10.041  13.769  68.440  1.00  0.00    -0.241 C  
HETATM   37  C   UNL     1      -8.756  11.524  67.008  1.00  0.00    -0.169 C  
HETATM   38  C   UNL     1      -9.333  13.918  67.098  1.00  0.00    -0.244 C  
HETATM   39  C   UNL     1      -8.226  12.936  66.979  1.00  0.00    -0.086 C  
HETATM   40  C   UNL     1      -7.458  10.677  66.903  1.00  0.00    -0.115 C  
BRANCH  35  41
HETATM   41  O   UNL     1      -9.502  11.405  64.531  1.00  0.00    -0.213 OA 
BRANCH  41  42
HETATM   42  C   UNL     1      -8.535  10.519  64.119  1.00  0.00    -0.122 C  
HETATM   43  O   UNL     1      -7.353  10.824  63.990  1.00  0.00     0.158 OA 
BRANCH  42  44
HETATM   44  C   UNL     1      -8.954   9.105  63.777  1.00  0.00     0.006 C  
BRANCH  44  45
HETATM   45  C   UNL     1      -7.989   8.088  63.185  1.00  0.00    -0.143 C  
BRANCH  45  46
HETATM   46  C   UNL     1      -8.237   6.664  63.666  1.00  0.00     0.088 C  
BRANCH  46  47
HETATM   47  C   UNL     1      -7.590   6.339  65.019  1.00  0.00    -0.090 C  
BRANCH  47  48
HETATM   48  C   UNL     1      -8.599   6.066  66.135  1.00  0.00    -0.142 C  
HETATM   49  C   UNL     1      -9.754   7.058  66.099  1.00  0.00     0.048 C  
ENDBRANCH  47  48
ENDBRANCH  46  47
ENDBRANCH  45  46
ENDBRANCH  44  45
ENDBRANCH  42  44
ENDBRANCH  41  42
ENDBRANCH  35  41
ENDBRANCH  20  22
ENDBRANCH   1  20
TORSDOF 9
ENDMDL
MODEL      171
REMARK 921   NORMALIZED FREE ENERGY PREDICTED BY IDOCK:   13.53 KCAL/MOL
REMARK 922        TOTAL FREE ENERGY PREDICTED BY IDOCK:   17.34 KCAL/MOL
REMARK 923 INTER-LIGAND FREE ENERGY PREDICTED BY IDOCK:    6.14 KCAL/MOL
REMARK 924 INTRA-LIGAND FREE ENERGY PREDICTED BY IDOCK:   11.20 KCAL/MOL
REMARK 927      BINDING AFFINITY PREDICTED BY RF-SCORE:    0.00 PKD
ROOT
HETATM    1  N   UNL     1     -11.648  15.701  67.034  1.00  0.00     0.039 N  
HETATM    2  C   UNL     1     -10.294  15.655  66.737  1.00  0.00    -0.287 C  
HETATM    3  C   UNL     1     -11.934  12.207  63.320  1.00  0.00    -0.489 A  
HETATM    4  H   UNL     1     -12.101  16.588  66.815  1.00  0.00     0.000 HD 
HETATM    5  C   UNL     1      -7.407  13.551  67.372  1.00  0.00    -0.124 A  
HETATM    6  O   UNL     1      -9.681  16.750  66.837  1.00  0.00    -0.241 OA 
HETATM    7  C   UNL     1      -7.522  12.372  69.476  1.00  0.00     0.556 A  
HETATM    8  C   UNL     1      -9.539  14.416  66.183  1.00  0.00    -0.283 C  
HETATM    9  O   UNL     1      -8.497  14.981  65.329  1.00  0.00     1.563 OA 
HETATM   10  C   UNL     1      -8.817  13.650  67.307  1.00  0.00    -0.227 A  
HETATM   11  C   UNL     1     -10.176  12.242  64.986  1.00  0.00    -0.312 A  
HETATM   12  C   UNL     1     -10.372  13.616  65.189  1.00  0.00    -0.381 A  
HETATM   13  C   UNL     1      -9.551  13.042  68.332  1.00  0.00    -0.178 A  
HETATM   14  C   UNL     1     -11.311  14.275  64.368  1.00  0.00    -0.284 A  
HETATM   15  C   UNL     1     -10.960  11.544  64.060  1.00  0.00    -0.454 A  
HETATM   16  H   UNL     1      -8.035  14.223  64.989  1.00  0.00     0.000 HD 
HETATM   17  C   UNL     1      -6.770  12.923  68.449  1.00  0.00    -0.092 A  
HETATM   18  C   UNL     1     -12.107  13.579  63.466  1.00  0.00    -0.425 A  
HETATM   19  C   UNL     1      -8.915  12.418  69.411  1.00  0.00     1.226 A  
ENDROOT
BRANCH   1  20
HETATM   20  N   UNL     1     -12.506  14.717  67.591  1.00  0.00    -0.362 NA 
HETATM   21  H   UNL     1     -13.513  14.690  67.426  1.00  0.00     0.000 HD 
BRANCH  20  22
HETATM   22  C   UNL     1     -11.875  13.850  68.337  1.00  0.00    -0.374 C  
HETATM   23  C   UNL     1     -11.657  12.429  70.421  1.00  0.00     0.068 C  
HETATM   24  C   UNL     1     -11.950  11.193  69.542  1.00  0.00    -0.425 C  
HETATM   25  C   UNL     1     -12.388  11.663  68.162  1.00  0.00     0.571 C  
HETATM   26  C   UNL     1     -11.770  13.696  69.903  1.00  0.00    -0.346 C  
HETATM   27  C   UNL     1     -11.224  11.934  71.818  1.00  0.00     4.799 C  
HETATM   28  C   UNL     1     -11.307  12.628  67.692  1.00  0.00    -0.362 C  
HETATM   29  C   UNL     1     -13.121  10.364  70.109  1.00  0.00     0.094 C  
HETATM   30  C   UNL     1     -10.202  10.687  71.859  1.00  0.00     5.730 C  
HETATM   31  C   UNL     1     -10.235   9.648  70.663  1.00  0.00    -0.346 C  
HETATM   32  C   UNL     1      -8.922   8.743  70.417  1.00  0.00    -0.188 C  
HETATM   33  C   UNL     1      -8.949   7.465  71.315  1.00  0.00    -0.140 C  
HETATM   34  C   UNL     1      -9.239   6.266  70.386  1.00  0.00    -0.160 C  
HETATM   35  C   UNL     1      -9.829   6.931  69.145  1.00  0.00    -0.156 C  
HETATM   36  C   UNL     1     -10.601  10.434  69.408  1.00  0.00    -0.267 C  
HETATM   37  C   UNL     1      -8.831   8.109  68.956  1.00  0.00    -0.144 C  
HETATM   38  C   UNL     1     -10.570   9.637  68.108  1.00  0.00    -0.273 C  
HETATM   39  C   UNL     1      -9.213   9.082  67.868  1.00  0.00    -0.151 C  
HETATM   40  C   UNL     1      -7.398   7.682  68.534  1.00  0.00    -0.095 C  
BRANCH  35  41
HETATM   41  O   UNL     1     -10.134   6.068  68.038  1.00  0.00    -0.136 OA 
BRANCH  41  42
HETATM   42  C   UNL     1      -9.033   5.334  67.664  1.00  0.00    -0.109 C  
HETATM   43  O   UNL     1      -8.173   5.755  66.895  1.00  0.00    -0.102 OA 
BRANCH  42  44
HETATM   44  C   UNL     1      -8.889   3.927  68.203  1.00  0.00    -0.140 C  
BRANCH  44  45
HETATM   45  C   UNL     1      -7.604   3.425  68.845  1.00  0.00    -0.052 C  
BRANCH  45  46
HETATM   46  C   UNL     1      -7.418   3.899  70.281  1.00  0.00    -0.045 C  
BRANCH  46  47
HETATM   47  C   UNL     1      -7.506   2.780  71.326  1.00  0.00    -0.036 C  
BRANCH  47  48
HETATM   48  C   UNL     1      -8.860   2.702  72.033  1.00  0.00    -0.112 C  
HETATM   49  C   UNL     1      -9.756   1.640  71.407  1.00  0.00    -0.212 C  
ENDBRANCH  47  48
ENDBRANCH  46  47
ENDBRANCH  45  46
ENDBRANCH  44  45
ENDBRANCH  42  44
ENDBRANCH  41  42
ENDBRANCH  35  41
ENDBRANCH  20  22
ENDBRANCH   1  20
TORSDOF 9
ENDMDL
MODEL      172
REMARK 921   NORMALIZED FREE ENERGY PREDICTED BY IDOCK:   13.61 KCAL/MOL
REMARK 922        TOTAL FREE ENERGY PREDICTED BY IDOCK:   17.46 KCAL/MOL
REMARK 923 INTER-LIGAND FREE ENERGY PREDICTED BY IDOCK:   -1.88 KCAL/MOL
REMARK 924 INTRA-LIGAND FREE ENERGY PREDICTED BY IDOCK:   19.34 KCAL/MOL
REMARK 927      BINDING AFFINITY PREDICTED BY RF-SCORE:    0.00 PKD
ROOT
HETATM    1  N   UNL     1      -9.603   3.424  70.975  1.00  0.00    -0.164 N  
HETATM    2  C   UNL     1      -9.202   3.750  72.261  1.00  0.00    -0.117 C  
HETATM    3  C   UNL     1     -12.655   7.475  71.580  1.00  0.00    -0.376 A  
HETATM    4  H   UNL     1     -10.094   2.534  70.895  1.00  0.00     0.000 HD 
HETATM    5  C   UNL     1      -7.060   6.139  73.955  1.00  0.00    -0.083 A  
HETATM    6  O   UNL     1      -8.918   2.773  73.003  1.00  0.00    -0.084 OA 
HETATM    7  C   UNL     1      -5.177   6.853  72.624  1.00  0.00    -0.037 A  
HETATM    8  C   UNL     1      -9.206   5.181  72.867  1.00  0.00    -0.134 C  
HETATM    9  O   UNL     1      -9.497   4.972  74.283  1.00  0.00    -0.121 OA 
HETATM   10  C   UNL     1      -7.808   5.823  72.796  1.00  0.00    -0.101 A  
HETATM   11  C   UNL     1     -10.356   7.409  72.346  1.00  0.00    -0.263 A  
HETATM   12  C   UNL     1     -10.401   6.009  72.411  1.00  0.00    -0.224 A  
HETATM   13  C   UNL     1      -7.215   6.091  71.558  1.00  0.00    -0.083 A  
HETATM   14  C   UNL     1     -11.630   5.375  72.133  1.00  0.00    -0.026 A  
HETATM   15  C   UNL     1     -11.478   8.134  71.925  1.00  0.00    -0.357 A  
HETATM   16  H   UNL     1      -9.499   5.847  74.654  1.00  0.00     0.000 HD 
HETATM   17  C   UNL     1      -5.758   6.643  73.866  1.00  0.00    -0.055 A  
HETATM   18  C   UNL     1     -12.737   6.091  71.692  1.00  0.00     0.610 A  
HETATM   19  C   UNL     1      -5.911   6.591  71.468  1.00  0.00    -0.036 A  
ENDROOT
BRANCH   1  20
HETATM   20  N   UNL     1      -9.444   4.126  69.751  1.00  0.00    -0.178 NA 
HETATM   21  H   UNL     1      -9.279   3.666  68.856  1.00  0.00     0.000 HD 
BRANCH  20  22
HETATM   22  C   UNL     1      -9.529   5.423  69.889  1.00  0.00    -0.159 C  
HETATM   23  C   UNL     1      -8.573   7.671  70.550  1.00  0.00    -0.137 C  
HETATM   24  C   UNL     1      -8.488   8.015  69.047  1.00  0.00    -0.130 C  
HETATM   25  C   UNL     1      -8.783   6.761  68.237  1.00  0.00    -0.123 C  
HETATM   26  C   UNL     1      -8.913   6.405  70.958  1.00  0.00    -0.146 C  
HETATM   27  C   UNL     1      -8.263   8.952  71.354  1.00  0.00    -0.175 C  
HETATM   28  C   UNL     1     -10.106   6.226  68.770  1.00  0.00    -0.191 C  
HETATM   29  C   UNL     1      -7.065   8.463  68.650  1.00  0.00    -0.072 C  
HETATM   30  C   UNL     1      -8.937  10.319  70.827  1.00  0.00     1.420 C  
HETATM   31  C   UNL     1      -9.254  10.453  69.281  1.00  0.00    -0.198 C  
HETATM   32  C   UNL     1     -10.368  11.530  68.833  1.00  0.00    -0.191 C  
HETATM   33  C   UNL     1      -9.736  12.949  68.662  1.00  0.00    -0.047 C  
HETATM   34  C   UNL     1      -9.683  13.240  67.146  1.00  0.00    -0.236 C  
HETATM   35  C   UNL     1      -9.815  11.851  66.527  1.00  0.00    -0.206 C  
HETATM   36  C   UNL     1      -9.611   9.056  68.782  1.00  0.00    -0.155 C  
HETATM   37  C   UNL     1     -10.979  11.272  67.382  1.00  0.00    -0.337 C  
HETATM   38  C   UNL     1     -10.071   8.982  67.330  1.00  0.00    -0.291 C  
HETATM   39  C   UNL     1     -11.280   9.817  67.121  1.00  0.00     0.283 C  
HETATM   40  C   UNL     1     -12.357  11.947  67.140  1.00  0.00     0.942 C  
BRANCH  35  41
HETATM   41  O   UNL     1      -9.883  11.792  65.094  1.00  0.00    -0.243 OA 
BRANCH  41  42
HETATM   42  C   UNL     1     -10.605  12.846  64.587  1.00  0.00    -0.363 C  
HETATM   43  O   UNL     1     -11.811  12.792  64.365  1.00  0.00    -0.342 OA 
BRANCH  42  44
HETATM   44  C   UNL     1      -9.870  14.128  64.258  1.00  0.00     1.432 C  
BRANCH  44  45
HETATM   45  C   UNL     1     -10.515  15.499  64.400  1.00  0.00     0.640 C  
BRANCH  45  46
HETATM   46  C   UNL     1     -10.796  15.891  65.845  1.00  0.00    -0.237 C  
BRANCH  46  47
HETATM   47  C   UNL     1     -10.524  17.368  66.157  1.00  0.00    -0.284 C  
BRANCH  47  48
HETATM   48  C   UNL     1      -9.278  17.598  67.013  1.00  0.00    -0.254 C  
HETATM   49  C   UNL     1      -8.277  16.461  66.860  1.00  0.00    -0.253 C  
ENDBRANCH  47  48
ENDBRANCH  46  47
ENDBRANCH  45  46
ENDBRANCH  44  45
ENDBRANCH  42  44
ENDBRANCH  41  42
ENDBRANCH  35  41
ENDBRANCH  20  22
ENDBRANCH   1  20
TORSDOF 9
ENDMDL
MODEL      173
REMARK 921   NORMALIZED FREE ENERGY PREDICTED BY IDOCK:   14.14 KCAL/MOL
REMARK 922        TOTAL FREE ENERGY PREDICTED BY IDOCK:   18.26 KCAL/MOL
REMARK 923 INTER-LIGAND FREE ENERGY PREDICTED BY IDOCK:    9.89 KCAL/MOL
REMARK 924 INTRA-LIGAND FREE ENERGY PREDICTED BY IDOCK:    8.37 KCAL/MOL
REMARK 927      BINDING AFFINITY PREDICTED BY RF-SCORE:    0.00 PKD
ROOT
HETATM    1  N   UNL     1     -11.993  15.081  69.770  1.00  0.00    -0.312 N  
HETATM    2  C   UNL     1     -11.666  16.178  68.989  1.00  0.00    -0.254 C  
HETATM    3  C   UNL     1      -9.479  12.534  66.126  1.00  0.00    -0.184 A  
HETATM    4  H   UNL     1     -12.991  14.874  69.817  1.00  0.00     0.000 HD 
HETATM    5  C   UNL     1      -8.819  18.323  68.310  1.00  0.00    -0.301 A  
HETATM    6  O   UNL     1     -12.529  17.094  68.953  1.00  0.00     1.745 OA 
HETATM    7  C   UNL     1      -7.320  18.552  70.189  1.00  0.00     1.185 A  
HETATM    8  C   UNL     1     -10.409  16.291  68.083  1.00  0.00    -0.277 C  
HETATM    9  O   UNL     1     -10.848  17.114  66.958  1.00  0.00    -0.200 OA 
HETATM   10  C   UNL     1      -9.282  17.072  68.783  1.00  0.00    -0.252 A  
HETATM   11  C   UNL     1      -8.743  14.664  67.015  1.00  0.00    -0.258 A  
HETATM   12  C   UNL     1     -10.055  14.975  67.401  1.00  0.00    -0.228 A  
HETATM   13  C   UNL     1      -8.690  16.568  69.947  1.00  0.00     1.032 A  
HETATM   14  C   UNL     1     -11.077  14.068  67.051  1.00  0.00    -0.312 A  
HETATM   15  C   UNL     1      -8.460  13.445  66.387  1.00  0.00     0.467 A  
HETATM   16  H   UNL     1     -10.079  17.183  66.404  1.00  0.00     0.000 HD 
HETATM   17  C   UNL     1      -7.853  19.054  69.011  1.00  0.00    -0.268 A  
HETATM   18  C   UNL     1     -10.795  12.847  66.450  1.00  0.00    -0.293 A  
HETATM   19  C   UNL     1      -7.728  17.301  70.650  1.00  0.00     4.051 A  
ENDROOT
BRANCH   1  20
HETATM   20  N   UNL     1     -11.169  14.196  70.514  1.00  0.00    -0.482 NA 
HETATM   21  H   UNL     1     -11.240  14.076  71.524  1.00  0.00     0.000 HD 
BRANCH  20  22
HETATM   22  C   UNL     1     -10.308  13.551  69.771  1.00  0.00     0.883 C  
HETATM   23  C   UNL     1      -8.045  12.488  69.379  1.00  0.00     0.913 C  
HETATM   24  C   UNL     1      -8.739  11.111  69.457  1.00  0.00     0.472 C  
HETATM   25  C   UNL     1     -10.171  11.308  69.933  1.00  0.00     0.638 C  
HETATM   26  C   UNL     1      -8.736  13.636  69.676  1.00  0.00     1.423 C  
HETATM   27  C   UNL     1      -6.592  12.268  68.903  1.00  0.00    -0.094 C  
HETATM   28  C   UNL     1     -10.774  12.356  69.006  1.00  0.00    -0.140 C  
HETATM   29  C   UNL     1      -8.059  10.195  70.497  1.00  0.00     0.486 C  
HETATM   30  C   UNL     1      -6.376  11.215  67.701  1.00  0.00    -0.054 C  
HETATM   31  C   UNL     1      -7.413  10.026  67.547  1.00  0.00    -0.090 C  
HETATM   32  C   UNL     1      -7.530   9.313  66.104  1.00  0.00    -0.096 C  
HETATM   33  C   UNL     1      -6.460   8.185  65.951  1.00  0.00    -0.045 C  
HETATM   34  C   UNL     1      -7.210   6.838  66.031  1.00  0.00    -0.067 C  
HETATM   35  C   UNL     1      -8.532   7.221  66.691  1.00  0.00    -0.124 C  
HETATM   36  C   UNL     1      -8.767  10.562  68.004  1.00  0.00    -0.128 C  
HETATM   37  C   UNL     1      -8.887   8.503  65.884  1.00  0.00    -0.219 C  
HETATM   38  C   UNL     1      -9.940   9.605  67.821  1.00  0.00    -0.211 C  
HETATM   39  C   UNL     1     -10.101   9.242  66.391  1.00  0.00    -0.337 C  
HETATM   40  C   UNL     1      -9.246   8.252  64.394  1.00  0.00     1.006 C  
BRANCH  35  41
HETATM   41  O   UNL     1      -9.505   6.175  66.834  1.00  0.00    -0.127 OA 
BRANCH  41  42
HETATM   42  C   UNL     1     -10.775   6.690  66.948  1.00  0.00    -0.331 C  
HETATM   43  O   UNL     1     -11.495   6.924  65.981  1.00  0.00     1.909 OA 
BRANCH  42  44
HETATM   44  C   UNL     1     -11.299   7.014  68.330  1.00  0.00     0.152 C  
BRANCH  44  45
HETATM   45  C   UNL     1     -10.378   7.239  69.521  1.00  0.00    -0.230 C  
BRANCH  45  46
HETATM   46  C   UNL     1     -11.123   7.460  70.831  1.00  0.00    -0.283 C  
BRANCH  46  47
HETATM   47  C   UNL     1     -10.411   6.885  72.061  1.00  0.00    -0.220 C  
BRANCH  47  48
HETATM   48  C   UNL     1     -11.364   6.363  73.138  1.00  0.00    -0.016 C  
HETATM   49  C   UNL     1     -10.610   5.924  74.387  1.00  0.00    -0.039 C  
ENDBRANCH  47  48
ENDBRANCH  46  47
ENDBRANCH  45  46
ENDBRANCH  44  45
ENDBRANCH  42  44
ENDBRANCH  41  42
ENDBRANCH  35  41
ENDBRANCH  20  22
ENDBRANCH   1  20
TORSDOF 9
ENDMDL
MODEL      174
REMARK 921   NORMALIZED FREE ENERGY PREDICTED BY IDOCK:   14.86 KCAL/MOL
REMARK 922        TOTAL FREE ENERGY PREDICTED BY IDOCK:   19.37 KCAL/MOL
REMARK 923 INTER-LIGAND FREE ENERGY PREDICTED BY IDOCK:    1.50 KCAL/MOL
REMARK 924 INTRA-LIGAND FREE ENERGY PREDICTED BY IDOCK:   17.87 KCAL/MOL
REMARK 927      BINDING AFFINITY PREDICTED BY RF-SCORE:    0.00 PKD
ROOT
HETATM    1  N   UNL     1      -8.313  19.301  67.064  1.00  0.00    -0.271 N  
HETATM    2  C   UNL     1      -9.492  18.936  66.433  1.00  0.00    -0.336 C  
HETATM    3  C   UNL     1     -10.875  17.928  71.263  1.00  0.00     2.505 A  
HETATM    4  H   UNL     1      -8.091  20.295  67.011  1.00  0.00     0.000 HD 
HETATM    5  C   UNL     1     -11.236  15.934  65.379  1.00  0.00    -0.100 A  
HETATM    6  O   UNL     1      -9.804  19.627  65.427  1.00  0.00    -0.210 OA 
HETATM    7  C   UNL     1      -9.755  14.112  64.814  1.00  0.00     0.408 A  
HETATM    8  C   UNL     1     -10.486  17.857  66.943  1.00  0.00    -0.329 C  
HETATM    9  O   UNL     1     -11.796  18.342  66.517  1.00  0.00     1.959 OA 
HETATM   10  C   UNL     1     -10.264  16.510  66.231  1.00  0.00    -0.343 A  
HETATM   11  C   UNL     1     -10.978  16.701  69.175  1.00  0.00    -0.276 A  
HETATM   12  C   UNL     1     -10.622  17.853  68.461  1.00  0.00    -0.221 A  
HETATM   13  C   UNL     1      -9.059  15.816  66.390  1.00  0.00    -0.357 A  
HETATM   14  C   UNL     1     -10.483  19.058  69.181  1.00  0.00     0.244 A  
HETATM   15  C   UNL     1     -11.096  16.740  70.570  1.00  0.00     0.195 A  
HETATM   16  H   UNL     1     -12.404  17.682  66.829  1.00  0.00     0.000 HD 
HETATM   17  C   UNL     1     -10.979  14.752  64.675  1.00  0.00    -0.332 A  
HETATM   18  C   UNL     1     -10.576  19.095  70.568  1.00  0.00     2.028 A  
HETATM   19  C   UNL     1      -8.799  14.637  65.684  1.00  0.00     1.028 A  
ENDROOT
BRANCH   1  20
HETATM   20  N   UNL     1      -7.363  18.519  67.772  1.00  0.00    -0.226 NA 
HETATM   21  H   UNL     1      -6.646  18.918  68.379  1.00  0.00     0.000 HD 
BRANCH  20  22
HETATM   22  C   UNL     1      -7.501  17.236  67.567  1.00  0.00    -0.170 C  
HETATM   23  C   UNL     1      -6.650  14.853  67.644  1.00  0.00    -0.189 C  
HETATM   24  C   UNL     1      -7.643  14.595  68.799  1.00  0.00    -0.138 C  
HETATM   25  C   UNL     1      -8.239  15.923  69.243  1.00  0.00    -0.227 C  
HETATM   26  C   UNL     1      -6.461  16.123  67.159  1.00  0.00    -0.184 C  
HETATM   27  C   UNL     1      -6.050  13.497  67.214  1.00  0.00     0.313 C  
HETATM   28  C   UNL     1      -8.777  16.577  67.977  1.00  0.00    -0.189 C  
HETATM   29  C   UNL     1      -6.929  14.006  70.035  1.00  0.00     0.211 C  
HETATM   30  C   UNL     1      -7.073  12.255  67.102  1.00  0.00    -0.102 C  
HETATM   31  C   UNL     1      -8.360  12.255  68.026  1.00  0.00    -0.165 C  
HETATM   32  C   UNL     1      -9.614  11.349  67.568  1.00  0.00    -0.176 C  
HETATM   33  C   UNL     1      -9.451   9.878  68.071  1.00  0.00    -0.147 C  
HETATM   34  C   UNL     1     -10.468   9.677  69.215  1.00  0.00    -0.232 C  
HETATM   35  C   UNL     1     -10.801  11.107  69.632  1.00  0.00    -0.142 C  
HETATM   36  C   UNL     1      -8.775  13.713  68.203  1.00  0.00    -0.177 C  
HETATM   37  C   UNL     1     -11.001  11.767  68.237  1.00  0.00    -0.274 C  
HETATM   38  C   UNL     1     -10.075  13.932  68.967  1.00  0.00    -0.030 C  
HETATM   39  C   UNL     1     -11.207  13.261  68.278  1.00  0.00    -0.309 C  
HETATM   40  C   UNL     1     -12.256  11.277  67.464  1.00  0.00     0.869 C  
BRANCH  35  41
HETATM   41  O   UNL     1     -11.804  11.263  70.647  1.00  0.00    -0.340 OA 
BRANCH  41  42
HETATM   42  C   UNL     1     -12.371  10.054  70.974  1.00  0.00    -0.360 C  
HETATM   43  O   UNL     1     -13.537   9.766  70.718  1.00  0.00    -0.227 OA 
BRANCH  42  44
HETATM   44  C   UNL     1     -11.525   9.039  71.712  1.00  0.00    -0.442 C  
BRANCH  44  45
HETATM   45  C   UNL     1     -12.133   7.897  72.514  1.00  0.00    -0.298 C  
BRANCH  45  46
HETATM   46  C   UNL     1     -11.217   6.686  72.635  1.00  0.00    -0.285 C  
BRANCH  46  47
HETATM   47  C   UNL     1      -9.797   6.918  72.105  1.00  0.00    -0.159 C  
BRANCH  47  48
HETATM   48  C   UNL     1      -8.781   7.262  73.195  1.00  0.00    -0.169 C  
HETATM   49  C   UNL     1      -7.504   7.845  72.604  1.00  0.00    -0.127 C  
ENDBRANCH  47  48
ENDBRANCH  46  47
ENDBRANCH  45  46
ENDBRANCH  44  45
ENDBRANCH  42  44
ENDBRANCH  41  42
ENDBRANCH  35  41
ENDBRANCH  20  22
ENDBRANCH   1  20
TORSDOF 9
ENDMDL
MODEL      175
REMARK 921   NORMALIZED FREE ENERGY PREDICTED BY IDOCK:   14.89 KCAL/MOL
REMARK 922        TOTAL FREE ENERGY PREDICTED BY IDOCK:   19.42 KCAL/MOL
REMARK 923 INTER-LIGAND FREE ENERGY PREDICTED BY IDOCK:   -1.35 KCAL/MOL
REMARK 924 INTRA-LIGAND FREE ENERGY PREDICTED BY IDOCK:   20.77 KCAL/MOL
REMARK 927      BINDING AFFINITY PREDICTED BY RF-SCORE:    0.00 PKD
ROOT
HETATM    1  N   UNL     1     -10.980   6.458  69.091  1.00  0.00    -0.325 N  
HETATM    2  C   UNL     1     -10.130   6.595  70.177  1.00  0.00    -0.178 C  
HETATM    3  C   UNL     1     -12.973  10.795  70.909  1.00  0.00    -0.385 A  
HETATM    4  H   UNL     1     -11.605   5.654  69.139  1.00  0.00     0.000 HD 
HETATM    5  C   UNL     1      -7.197   8.495  71.153  1.00  0.00    -0.076 A  
HETATM    6  O   UNL     1      -9.776   5.519  70.727  1.00  0.00    -0.164 OA 
HETATM    7  C   UNL     1      -5.772   9.084  69.295  1.00  0.00    -0.035 A  
HETATM    8  C   UNL     1      -9.705   7.945  70.819  1.00  0.00    -0.172 C  
HETATM    9  O   UNL     1      -9.540   7.634  72.237  1.00  0.00    -0.152 OA 
HETATM   10  C   UNL     1      -8.326   8.399  70.306  1.00  0.00    -0.124 A  
HETATM   11  C   UNL     1     -10.593  10.347  70.836  1.00  0.00     0.494 A  
HETATM   12  C   UNL     1     -10.835   8.966  70.842  1.00  0.00    -0.308 A  
HETATM   13  C   UNL     1      -8.142   8.711  68.955  1.00  0.00    -0.118 A  
HETATM   14  C   UNL     1     -12.171   8.533  70.970  1.00  0.00    -0.190 A  
HETATM   15  C   UNL     1     -11.660  11.253  70.862  1.00  0.00     0.201 A  
HETATM   16  H   UNL     1      -9.280   8.459  72.629  1.00  0.00     0.000 HD 
HETATM   17  C   UNL     1      -5.934   8.828  70.649  1.00  0.00    -0.033 A  
HETATM   18  C   UNL     1     -13.233   9.430  70.972  1.00  0.00    -0.200 A  
HETATM   19  C   UNL     1      -6.879   9.040  68.449  1.00  0.00    -0.064 A  
ENDROOT
BRANCH   1  20
HETATM   20  N   UNL     1     -11.125   7.253  67.924  1.00  0.00    -0.505 NA 
HETATM   21  H   UNL     1     -11.932   7.197  67.301  1.00  0.00     0.000 HD 
BRANCH  20  22
HETATM   22  C   UNL     1     -10.120   8.064  67.728  1.00  0.00    -0.195 C  
HETATM   23  C   UNL     1      -8.784   9.669  66.297  1.00  0.00    -0.156 C  
HETATM   24  C   UNL     1      -9.302  10.814  67.194  1.00  0.00    -0.171 C  
HETATM   25  C   UNL     1     -10.387  10.268  68.111  1.00  0.00    -0.208 C  
HETATM   26  C   UNL     1      -9.277   8.395  66.437  1.00  0.00    -0.253 C  
HETATM   27  C   UNL     1      -7.692  10.243  65.368  1.00  0.00    -0.146 C  
HETATM   28  C   UNL     1      -9.776   9.051  68.795  1.00  0.00    -0.165 C  
HETATM   29  C   UNL     1      -9.964  11.930  66.358  1.00  0.00    -0.237 C  
HETATM   30  C   UNL     1      -6.628  11.252  66.039  1.00  0.00     0.115 C  
HETATM   31  C   UNL     1      -7.091  12.112  67.286  1.00  0.00    -0.144 C  
HETATM   32  C   UNL     1      -5.947  12.693  68.265  1.00  0.00    -0.068 C  
HETATM   33  C   UNL     1      -5.398  14.056  67.733  1.00  0.00    -0.016 C  
HETATM   34  C   UNL     1      -5.941  15.157  68.669  1.00  0.00    -0.087 C  
HETATM   35  C   UNL     1      -7.118  14.471  69.357  1.00  0.00    -0.140 C  
HETATM   36  C   UNL     1      -8.093  11.261  68.060  1.00  0.00    -0.128 C  
HETATM   37  C   UNL     1      -6.473  13.100  69.715  1.00  0.00    -0.009 C  
HETATM   38  C   UNL     1      -8.576  11.860  69.376  1.00  0.00     0.894 C  
HETATM   39  C   UNL     1      -7.434  12.092  70.296  1.00  0.00     2.348 C  
HETATM   40  C   UNL     1      -5.364  13.170  70.800  1.00  0.00    -0.160 C  
BRANCH  35  41
HETATM   41  O   UNL     1      -7.798  15.226  70.371  1.00  0.00     0.363 OA 
BRANCH  41  42
HETATM   42  C   UNL     1      -8.762  16.039  69.822  1.00  0.00     0.296 C  
HETATM   43  O   UNL     1      -8.520  16.892  68.973  1.00  0.00    -0.231 OA 
BRANCH  42  44
HETATM   44  C   UNL     1     -10.187  15.895  70.311  1.00  0.00     0.005 C  
BRANCH  44  45
HETATM   45  C   UNL     1     -11.277  15.248  69.470  1.00  0.00    -0.289 C  
BRANCH  45  46
HETATM   46  C   UNL     1     -11.516  15.950  68.139  1.00  0.00    -0.281 C  
BRANCH  46  47
HETATM   47  C   UNL     1     -11.492  17.481  68.226  1.00  0.00     0.741 C  
BRANCH  47  48
HETATM   48  C   UNL     1     -10.341  18.124  67.452  1.00  0.00    -0.402 C  
HETATM   49  C   UNL     1      -9.625  17.110  66.569  1.00  0.00    -0.294 C  
ENDBRANCH  47  48
ENDBRANCH  46  47
ENDBRANCH  45  46
ENDBRANCH  44  45
ENDBRANCH  42  44
ENDBRANCH  41  42
ENDBRANCH  35  41
ENDBRANCH  20  22
ENDBRANCH   1  20
TORSDOF 9
ENDMDL
MODEL      176
REMARK 921   NORMALIZED FREE ENERGY PREDICTED BY IDOCK:   15.70 KCAL/MOL
REMARK 922        TOTAL FREE ENERGY PREDICTED BY IDOCK:   20.65 KCAL/MOL
REMARK 923 INTER-LIGAND FREE ENERGY PREDICTED BY IDOCK:    7.50 KCAL/MOL
REMARK 924 INTRA-LIGAND FREE ENERGY PREDICTED BY IDOCK:   13.15 KCAL/MOL
REMARK 927      BINDING AFFINITY PREDICTED BY RF-SCORE:    0.00 PKD
ROOT
HETATM    1  N   UNL     1     -11.084  11.561  70.464  1.00  0.00    -0.024 N  
HETATM    2  C   UNL     1     -11.850  11.684  69.316  1.00  0.00    -0.331 C  
HETATM    3  C   UNL     1     -11.541   6.571  69.475  1.00  0.00    -0.298 A  
HETATM    4  H   UNL     1     -11.547  11.866  71.320  1.00  0.00     0.000 HD 
HETATM    5  C   UNL     1     -11.455  11.527  65.712  1.00  0.00    -0.076 A  
HETATM    6  O   UNL     1     -12.674  12.636  69.314  1.00  0.00     0.422 OA 
HETATM    7  C   UNL     1      -9.266  12.211  64.956  1.00  0.00     0.335 A  
HETATM    8  C   UNL     1     -11.853  10.683  68.128  1.00  0.00     0.166 C  
HETATM    9  O   UNL     1     -13.223  10.728  67.621  1.00  0.00     4.834 OA 
HETATM   10  C   UNL     1     -10.946  11.169  66.983  1.00  0.00    -0.348 A  
HETATM   11  C   UNL     1     -11.164   8.243  67.761  1.00  0.00     0.603 A  
HETATM   12  C   UNL     1     -11.725   9.233  68.580  1.00  0.00     1.042 A  
HETATM   13  C   UNL     1      -9.567  11.298  67.180  1.00  0.00    -0.194 A  
HETATM   14  C   UNL     1     -12.267   8.834  69.820  1.00  0.00     1.201 A  
HETATM   15  C   UNL     1     -11.068   6.921  68.213  1.00  0.00    -0.152 A  
HETATM   16  H   UNL     1     -13.225  10.116  66.895  1.00  0.00     0.000 HD 
HETATM   17  C   UNL     1     -10.623  12.047  64.714  1.00  0.00    -0.340 A  
HETATM   18  C   UNL     1     -12.151   7.527  70.280  1.00  0.00     0.183 A  
HETATM   19  C   UNL     1      -8.734  11.822  66.185  1.00  0.00    -0.057 A  
ENDROOT
BRANCH   1  20
HETATM   20  N   UNL     1      -9.760  11.080  70.646  1.00  0.00     1.590 NA 
HETATM   21  H   UNL     1      -9.383  10.800  71.551  1.00  0.00     0.000 HD 
BRANCH  20  22
HETATM   22  C   UNL     1      -9.075  11.035  69.534  1.00  0.00     0.377 C  
HETATM   23  C   UNL     1      -6.931  11.296  68.214  1.00  0.00    -0.071 C  
HETATM   24  C   UNL     1      -6.877   9.756  68.101  1.00  0.00    -0.069 C  
HETATM   25  C   UNL     1      -7.941   9.159  69.011  1.00  0.00    -0.101 C  
HETATM   26  C   UNL     1      -7.868  11.905  69.011  1.00  0.00     0.099 C  
HETATM   27  C   UNL     1      -5.840  11.883  67.292  1.00  0.00    -0.130 C  
HETATM   28  C   UNL     1      -9.244   9.854  68.635  1.00  0.00    -0.139 C  
HETATM   29  C   UNL     1      -5.524   9.202  68.595  1.00  0.00    -0.041 C  
HETATM   30  C   UNL     1      -5.685  11.211  65.834  1.00  0.00    -0.059 C  
HETATM   31  C   UNL     1      -6.083   9.687  65.663  1.00  0.00    -0.066 C  
HETATM   32  C   UNL     1      -6.439   9.166  64.178  1.00  0.00    -0.084 C  
HETATM   33  C   UNL     1      -5.145   8.749  63.408  1.00  0.00    -0.062 C  
HETATM   34  C   UNL     1      -5.150   7.207  63.321  1.00  0.00    -0.033 C  
HETATM   35  C   UNL     1      -6.131   6.805  64.419  1.00  0.00    -0.035 C  
HETATM   36  C   UNL     1      -7.235   9.422  66.627  1.00  0.00    -0.086 C  
HETATM   37  C   UNL     1      -7.285   7.813  64.146  1.00  0.00    -0.080 C  
HETATM   38  C   UNL     1      -7.854   8.031  66.534  1.00  0.00    -0.097 C  
HETATM   39  C   UNL     1      -8.391   7.788  65.172  1.00  0.00    -0.113 C  
HETATM   40  C   UNL     1      -8.054   7.572  62.818  1.00  0.00    -0.091 C  
BRANCH  35  41
HETATM   41  O   UNL     1      -6.421   5.404  64.540  1.00  0.00    -0.036 OA 
BRANCH  41  42
HETATM   42  C   UNL     1      -6.668   5.060  65.848  1.00  0.00    -0.053 C  
HETATM   43  O   UNL     1      -7.120   5.845  66.677  1.00  0.00    -0.066 OA 
BRANCH  42  44
HETATM   44  C   UNL     1      -6.338   3.653  66.296  1.00  0.00    -0.033 C  
BRANCH  44  45
HETATM   45  C   UNL     1      -7.358   2.753  66.979  1.00  0.00    -0.065 C  
BRANCH  45  46
HETATM   46  C   UNL     1      -8.617   2.524  66.151  1.00  0.00    -0.113 C  
BRANCH  46  47
HETATM   47  C   UNL     1      -9.831   3.334  66.623  1.00  0.00     0.264 C  
BRANCH  47  48
HETATM   48  C   UNL     1      -9.956   4.704  65.954  1.00  0.00    -0.256 C  
HETATM   49  C   UNL     1     -10.924   4.666  64.779  1.00  0.00     0.182 C  
ENDBRANCH  47  48
ENDBRANCH  46  47
ENDBRANCH  45  46
ENDBRANCH  44  45
ENDBRANCH  42  44
ENDBRANCH  41  42
ENDBRANCH  35  41
ENDBRANCH  20  22
ENDBRANCH   1  20
TORSDOF 9
ENDMDL
MODEL      177
REMARK 921   NORMALIZED FREE ENERGY PREDICTED BY IDOCK:   16.74 KCAL/MOL
REMARK 922        TOTAL FREE ENERGY PREDICTED BY IDOCK:   22.23 KCAL/MOL
REMARK 923 INTER-LIGAND FREE ENERGY PREDICTED BY IDOCK:   21.22 KCAL/MOL
REMARK 924 INTRA-LIGAND FREE ENERGY PREDICTED BY IDOCK:    1.02 KCAL/MOL
REMARK 927      BINDING AFFINITY PREDICTED BY RF-SCORE:    0.00 PKD
ROOT
HETATM    1  N   UNL     1      -7.368  14.001  66.823  1.00  0.00     0.150 N  
HETATM    2  C   UNL     1      -7.937  15.152  67.345  1.00  0.00    -0.190 C  
HETATM    3  C   UNL     1     -11.329  11.753  69.133  1.00  0.00    -0.340 A  
HETATM    4  H   UNL     1      -6.458  13.760  67.215  1.00  0.00     0.000 HD 
HETATM    5  C   UNL     1     -10.681  17.424  66.655  1.00  0.00    -0.084 A  
HETATM    6  O   UNL     1      -7.123  16.040  67.711  1.00  0.00    -0.123 OA 
HETATM    7  C   UNL     1     -11.221  17.592  64.308  1.00  0.00     2.977 A  
HETATM    8  C   UNL     1      -9.452  15.358  67.620  1.00  0.00    -0.205 C  
HETATM    9  O   UNL     1      -9.490  16.230  68.792  1.00  0.00    -0.217 OA 
HETATM   10  C   UNL     1     -10.129  16.133  66.475  1.00  0.00    -0.301 A  
HETATM   11  C   UNL     1     -11.499  13.851  67.933  1.00  0.00    -0.350 A  
HETATM   12  C   UNL     1     -10.133  14.097  68.135  1.00  0.00    -0.239 A  
HETATM   13  C   UNL     1     -10.194  15.583  65.190  1.00  0.00    -0.334 A  
HETATM   14  C   UNL     1      -9.409  13.179  68.923  1.00  0.00     0.261 A  
HETATM   15  C   UNL     1     -12.088  12.681  68.426  1.00  0.00    -0.135 A  
HETATM   16  H   UNL     1     -10.417  16.357  68.960  1.00  0.00     0.000 HD 
HETATM   17  C   UNL     1     -11.214  18.145  65.581  1.00  0.00     0.851 A  
HETATM   18  C   UNL     1      -9.986  12.005  69.392  1.00  0.00     0.594 A  
HETATM   19  C   UNL     1     -10.724  16.304  64.114  1.00  0.00     1.313 A  
ENDROOT
BRANCH   1  20
HETATM   20  N   UNL     1      -7.843  13.102  65.832  1.00  0.00     1.504 NA 
HETATM   21  H   UNL     1      -8.356  13.399  65.001  1.00  0.00     0.000 HD 
BRANCH  20  22
HETATM   22  C   UNL     1      -7.557  11.854  66.093  1.00  0.00     0.519 C  
HETATM   23  C   UNL     1      -7.172   9.934  67.697  1.00  0.00    -0.089 C  
HETATM   24  C   UNL     1      -8.517   9.340  67.223  1.00  0.00    -0.125 C  
HETATM   25  C   UNL     1      -9.230  10.368  66.357  1.00  0.00    -0.187 C  
HETATM   26  C   UNL     1      -6.781  11.186  67.292  1.00  0.00    -0.091 C  
HETATM   27  C   UNL     1      -6.467   8.882  68.580  1.00  0.00    -0.054 C  
HETATM   28  C   UNL     1      -8.223  10.783  65.292  1.00  0.00    -0.052 C  
HETATM   29  C   UNL     1      -9.455   9.050  68.413  1.00  0.00    -0.154 C  
HETATM   30  C   UNL     1      -6.508   7.356  68.060  1.00  0.00    -0.049 C  
HETATM   31  C   UNL     1      -7.734   6.897  67.168  1.00  0.00    -0.108 C  
HETATM   32  C   UNL     1      -7.537   5.601  66.229  1.00  0.00    -0.091 C  
HETATM   33  C   UNL     1      -7.832   4.287  67.023  1.00  0.00    -0.097 C  
HETATM   34  C   UNL     1      -9.179   3.738  66.504  1.00  0.00    -0.178 C  
HETATM   35  C   UNL     1      -9.808   4.956  65.832  1.00  0.00    -0.191 C  
HETATM   36  C   UNL     1      -8.157   8.110  66.345  1.00  0.00    -0.106 C  
HETATM   37  C   UNL     1      -8.587   5.496  65.032  1.00  0.00    -0.128 C  
HETATM   38  C   UNL     1      -9.256   7.851  65.321  1.00  0.00     0.375 C  
HETATM   39  C   UNL     1      -8.827   6.817  64.344  1.00  0.00     0.674 C  
HETATM   40  C   UNL     1      -8.129   4.587  63.859  1.00  0.00    -0.098 C  
BRANCH  35  41
HETATM   41  O   UNL     1     -11.061   4.745  65.165  1.00  0.00    -0.079 OA 
BRANCH  41  42
HETATM   42  C   UNL     1     -12.119   5.038  65.994  1.00  0.00     3.837 C  
HETATM   43  O   UNL     1     -13.270   5.179  65.591  1.00  0.00     5.887 OA 
BRANCH  42  44
HETATM   44  C   UNL     1     -11.846   5.225  67.470  1.00  0.00     4.236 C  
BRANCH  44  45
HETATM   45  C   UNL     1     -11.343   6.540  68.048  1.00  0.00    -0.102 C  
BRANCH  45  46
HETATM   46  C   UNL     1     -10.847   6.422  69.484  1.00  0.00    -0.381 C  
BRANCH  46  47
HETATM   47  C   UNL     1     -10.579   7.770  70.166  1.00  0.00    -0.237 C  
BRANCH  47  48
HETATM   48  C   UNL     1     -11.579   8.863  69.785  1.00  0.00     0.296 C  
HETATM   49  C   UNL     1     -13.012   8.347  69.821  1.00  0.00     2.856 C  
ENDBRANCH  47  48
ENDBRANCH  46  47
ENDBRANCH  45  46
ENDBRANCH  44  45
ENDBRANCH  42  44
ENDBRANCH  41  42
ENDBRANCH  35  41
ENDBRANCH  20  22
ENDBRANCH   1  20
TORSDOF 9
ENDMDL
MODEL      178
REMARK 921   NORMALIZED FREE ENERGY PREDICTED BY IDOCK:   16.92 KCAL/MOL
REMARK 922        TOTAL FREE ENERGY PREDICTED BY IDOCK:   22.50 KCAL/MOL
REMARK 923 INTER-LIGAND FREE ENERGY PREDICTED BY IDOCK:    7.32 KCAL/MOL
REMARK 924 INTRA-LIGAND FREE ENERGY PREDICTED BY IDOCK:   15.18 KCAL/MOL
REMARK 927      BINDING AFFINITY PREDICTED BY RF-SCORE:    0.00 PKD
ROOT
HETATM    1  N   UNL     1     -11.255  15.935  65.846  1.00  0.00    -0.034 N  
HETATM    2  C   UNL     1      -9.894  15.993  66.102  1.00  0.00    -0.325 C  
HETATM    3  C   UNL     1     -10.083  11.281  64.097  1.00  0.00    -0.373 A  
HETATM    4  H   UNL     1     -11.583  16.584  65.131  1.00  0.00     0.000 HD 
HETATM    5  C   UNL     1      -7.498  14.784  68.543  1.00  0.00    -0.117 A  
HETATM    6  O   UNL     1      -9.363  17.124  65.948  1.00  0.00    -0.504 OA 
HETATM    7  C   UNL     1      -8.434  14.505  70.751  1.00  0.00     2.737 A  
HETATM    8  C   UNL     1      -8.989  14.773  66.425  1.00  0.00    -0.188 C  
HETATM    9  O   UNL     1      -7.693  15.123  65.849  1.00  0.00     0.859 OA 
HETATM   10  C   UNL     1      -8.769  14.625  67.942  1.00  0.00    -0.169 A  
HETATM   11  C   UNL     1      -9.117  12.235  66.104  1.00  0.00    -0.076 A  
HETATM   12  C   UNL     1      -9.370  13.531  65.631  1.00  0.00     0.237 A  
HETATM   13  C   UNL     1      -9.848  14.351  68.790  1.00  0.00    -0.214 A  
HETATM   14  C   UNL     1      -9.909  13.664  64.334  1.00  0.00     0.487 A  
HETATM   15  C   UNL     1      -9.480  11.119  65.341  1.00  0.00    -0.253 A  
HETATM   16  H   UNL     1      -7.139  14.377  66.047  1.00  0.00     0.000 HD 
HETATM   17  C   UNL     1      -7.336  14.730  69.932  1.00  0.00     0.005 A  
HETATM   18  C   UNL     1     -10.292  12.557  63.585  1.00  0.00    -0.382 A  
HETATM   19  C   UNL     1      -9.689  14.301  70.179  1.00  0.00     1.323 A  
ENDROOT
BRANCH   1  20
HETATM   20  N   UNL     1     -12.269  15.119  66.414  1.00  0.00     0.164 NA 
HETATM   21  H   UNL     1     -13.244  15.141  66.113  1.00  0.00     0.000 HD 
BRANCH  20  22
HETATM   22  C   UNL     1     -11.825  14.337  67.362  1.00  0.00    -0.409 C  
HETATM   23  C   UNL     1     -12.066  13.165  69.593  1.00  0.00    -0.317 C  
HETATM   24  C   UNL     1     -12.223  11.839  68.817  1.00  0.00    -0.024 C  
HETATM   25  C   UNL     1     -12.367  12.150  67.334  1.00  0.00     0.714 C  
HETATM   26  C   UNL     1     -12.033  14.364  68.925  1.00  0.00    -0.337 C  
HETATM   27  C   UNL     1     -11.931  12.830  71.094  1.00  0.00     0.364 C  
HETATM   28  C   UNL     1     -11.184  13.042  66.983  1.00  0.00    -0.325 C  
HETATM   29  C   UNL     1     -13.510  11.093  69.230  1.00  0.00     3.060 C  
HETATM   30  C   UNL     1     -10.980  11.585  71.475  1.00  0.00     4.283 C  
HETATM   31  C   UNL     1     -10.813  10.415  70.420  1.00  0.00    -0.257 C  
HETATM   32  C   UNL     1      -9.509   9.473  70.541  1.00  0.00    -0.306 C  
HETATM   33  C   UNL     1      -9.754   8.308  71.553  1.00  0.00    -0.251 C  
HETATM   34  C   UNL     1      -9.897   7.013  70.724  1.00  0.00    -0.190 C  
HETATM   35  C   UNL     1     -10.211   7.535  69.325  1.00  0.00    -0.201 C  
HETATM   36  C   UNL     1     -10.901  11.054  69.037  1.00  0.00    -0.274 C  
HETATM   37  C   UNL     1      -9.156   8.673  69.207  1.00  0.00    -0.149 C  
HETATM   38  C   UNL     1     -10.643  10.111  67.867  1.00  0.00    -0.294 C  
HETATM   39  C   UNL     1      -9.285   9.517  67.963  1.00  0.00    -0.136 C  
HETATM   40  C   UNL     1      -7.683   8.184  69.127  1.00  0.00    -0.098 C  
BRANCH  35  41
HETATM   41  O   UNL     1     -10.322   6.554  68.283  1.00  0.00    -0.158 OA 
BRANCH  41  42
HETATM   42  C   UNL     1      -9.137   5.878  68.109  1.00  0.00    -0.117 C  
HETATM   43  O   UNL     1      -8.362   6.105  67.184  1.00  0.00    -0.106 OA 
BRANCH  42  44
HETATM   44  C   UNL     1      -8.785   4.780  69.089  1.00  0.00    -0.109 C  
BRANCH  44  45
HETATM   45  C   UNL     1      -8.287   3.414  68.641  1.00  0.00    -0.090 C  
BRANCH  45  46
HETATM   46  C   UNL     1      -6.771   3.333  68.509  1.00  0.00    -0.045 C  
BRANCH  46  47
HETATM   47  C   UNL     1      -6.261   3.445  67.068  1.00  0.00    -0.032 C  
BRANCH  47  48
HETATM   48  C   UNL     1      -6.555   2.212  66.212  1.00  0.00    -0.031 C  
HETATM   49  C   UNL     1      -6.533   2.545  64.726  1.00  0.00    -0.023 C  
ENDBRANCH  47  48
ENDBRANCH  46  47
ENDBRANCH  45  46
ENDBRANCH  44  45
ENDBRANCH  42  44
ENDBRANCH  41  42
ENDBRANCH  35  41
ENDBRANCH  20  22
ENDBRANCH   1  20
TORSDOF 9
ENDMDL
MODEL      179
REMARK 921   NORMALIZED FREE ENERGY PREDICTED BY IDOCK:   17.93 KCAL/MOL
REMARK 922        TOTAL FREE ENERGY PREDICTED BY IDOCK:   24.05 KCAL/MOL
REMARK 923 INTER-LIGAND FREE ENERGY PREDICTED BY IDOCK:    0.88 KCAL/MOL
REMARK 924 INTRA-LIGAND FREE ENERGY PREDICTED BY IDOCK:   23.17 KCAL/MOL
REMARK 927      BINDING AFFINITY PREDICTED BY RF-SCORE:    0.00 PKD
ROOT
HETATM    1  N   UNL     1     -12.517  15.953  66.228  1.00  0.00     1.627 N  
HETATM    2  C   UNL     1     -12.382  15.940  67.608  1.00  0.00     1.286 C  
HETATM    3  C   UNL     1      -7.422  15.623  66.358  1.00  0.00     0.611 A  
HETATM    4  H   UNL     1     -12.874  16.828  65.844  1.00  0.00     0.000 HD 
HETATM    5  C   UNL     1     -11.785  13.574  70.293  1.00  0.00    -0.244 A  
HETATM    6  O   UNL     1     -13.210  16.647  68.240  1.00  0.00     2.820 OA 
HETATM    7  C   UNL     1     -12.636  11.362  69.830  1.00  0.00    -0.091 A  
HETATM    8  C   UNL     1     -11.235  15.242  68.390  1.00  0.00    -0.309 C  
HETATM    9  O   UNL     1     -11.034  16.087  69.565  1.00  0.00    -0.276 OA 
HETATM   10  C   UNL     1     -11.673  13.862  68.912  1.00  0.00    -0.373 A  
HETATM   11  C   UNL     1      -8.878  14.395  67.856  1.00  0.00    -0.179 A  
HETATM   12  C   UNL     1      -9.890  15.349  67.682  1.00  0.00    -0.220 A  
HETATM   13  C   UNL     1     -12.005  12.840  68.016  1.00  0.00    -0.315 A  
HETATM   14  C   UNL     1      -9.598  16.484  66.897  1.00  0.00    -0.253 A  
HETATM   15  C   UNL     1      -7.654  14.531  67.189  1.00  0.00    -0.045 A  
HETATM   16  H   UNL     1     -10.333  15.660  70.043  1.00  0.00     0.000 HD 
HETATM   17  C   UNL     1     -12.267  12.340  70.743  1.00  0.00    -0.354 A  
HETATM   18  C   UNL     1      -8.393  16.610  66.216  1.00  0.00    -0.360 A  
HETATM   19  C   UNL     1     -12.491  11.607  68.465  1.00  0.00     0.669 A  
ENDROOT
BRANCH   1  20
HETATM   20  N   UNL     1     -12.241  14.950  65.262  1.00  0.00    -0.143 NA 
HETATM   21  H   UNL     1     -12.795  14.815  64.417  1.00  0.00     0.000 HD 
BRANCH  20  22
HETATM   22  C   UNL     1     -11.203  14.217  65.568  1.00  0.00    -0.320 C  
HETATM   23  C   UNL     1     -10.023  12.493  66.996  1.00  0.00    -0.217 C  
HETATM   24  C   UNL     1     -10.147  11.508  65.813  1.00  0.00    -0.278 C  
HETATM   25  C   UNL     1     -11.053  12.121  64.755  1.00  0.00    -0.364 C  
HETATM   26  C   UNL     1     -10.648  13.715  66.955  1.00  0.00    -0.274 C  
HETATM   27  C   UNL     1      -9.108  11.851  68.062  1.00  0.00    -0.189 C  
HETATM   28  C   UNL     1     -10.481  13.504  64.472  1.00  0.00    -0.426 C  
HETATM   29  C   UNL     1     -10.818  10.188  66.246  1.00  0.00     0.050 C  
HETATM   30  C   UNL     1      -7.783  11.105  67.524  1.00  0.00    -0.116 C  
HETATM   31  C   UNL     1      -7.812  10.475  66.070  1.00  0.00    -0.147 C  
HETATM   32  C   UNL     1      -6.400  10.217  65.335  1.00  0.00    -0.124 C  
HETATM   33  C   UNL     1      -5.800   8.834  65.747  1.00  0.00    -0.051 C  
HETATM   34  C   UNL     1      -5.945   7.897  64.528  1.00  0.00    -0.048 C  
HETATM   35  C   UNL     1      -7.014   8.592  63.689  1.00  0.00    -0.088 C  
HETATM   36  C   UNL     1      -8.717  11.365  65.223  1.00  0.00     0.136 C  
HETATM   37  C   UNL     1      -6.508  10.062  63.750  1.00  0.00    -0.131 C  
HETATM   38  C   UNL     1      -8.787  11.000  63.744  1.00  0.00    -0.003 C  
HETATM   39  C   UNL     1      -7.440  11.070  63.124  1.00  0.00     0.439 C  
HETATM   40  C   UNL     1      -5.177  10.321  62.991  1.00  0.00    -0.123 C  
BRANCH  35  41
HETATM   41  O   UNL     1      -7.322   7.995  62.420  1.00  0.00    -0.092 OA 
BRANCH  41  42
HETATM   42  C   UNL     1      -7.696   6.680  62.568  1.00  0.00    -0.099 C  
HETATM   43  O   UNL     1      -8.857   6.295  62.462  1.00  0.00     0.146 OA 
BRANCH  42  44
HETATM   44  C   UNL     1      -6.628   5.663  62.906  1.00  0.00    -0.025 C  
BRANCH  44  45
HETATM   45  C   UNL     1      -6.960   4.279  63.444  1.00  0.00    -0.044 C  
BRANCH  45  46
HETATM   46  C   UNL     1      -8.046   4.287  64.513  1.00  0.00    -0.095 C  
BRANCH  46  47
HETATM   47  C   UNL     1      -9.165   3.265  64.277  1.00  0.00    -0.130 C  
BRANCH  47  48
HETATM   48  C   UNL     1     -10.417   3.860  63.630  1.00  0.00    -0.212 C  
HETATM   49  C   UNL     1     -10.976   2.944  62.549  1.00  0.00    -0.141 C  
ENDBRANCH  47  48
ENDBRANCH  46  47
ENDBRANCH  45  46
ENDBRANCH  44  45
ENDBRANCH  42  44
ENDBRANCH  41  42
ENDBRANCH  35  41
ENDBRANCH  20  22
ENDBRANCH   1  20
TORSDOF 9
ENDMDL
MODEL      180
REMARK 921   NORMALIZED FREE ENERGY PREDICTED BY IDOCK:   18.68 KCAL/MOL
REMARK 922        TOTAL FREE ENERGY PREDICTED BY IDOCK:   25.19 KCAL/MOL
REMARK 923 INTER-LIGAND FREE ENERGY PREDICTED BY IDOCK:   21.80 KCAL/MOL
REMARK 924 INTRA-LIGAND FREE ENERGY PREDICTED BY IDOCK:    3.40 KCAL/MOL
REMARK 927      BINDING AFFINITY PREDICTED BY RF-SCORE:    0.00 PKD
ROOT
HETATM    1  N   UNL     1      -5.886  12.787  67.947  1.00  0.00    -0.103 N  
HETATM    2  C   UNL     1      -7.069  13.392  68.343  1.00  0.00    -0.108 C  
HETATM    3  C   UNL     1      -5.688  11.398  72.857  1.00  0.00     1.708 A  
HETATM    4  H   UNL     1      -5.152  13.435  67.661  1.00  0.00     0.000 HD 
HETATM    5  C   UNL     1     -10.507  12.497  69.078  1.00  0.00    -0.024 A  
HETATM    6  O   UNL     1      -7.338  14.481  67.772  1.00  0.00    -0.139 OA 
HETATM    7  C   UNL     1     -11.291  10.588  67.824  1.00  0.00    -0.267 A  
HETATM    8  C   UNL     1      -7.984  12.901  69.498  1.00  0.00     1.099 C  
HETATM    9  O   UNL     1      -8.557  14.126  70.051  1.00  0.00     0.461 OA 
HETATM   10  C   UNL     1      -9.163  12.068  68.963  1.00  0.00     0.324 A  
HETATM   11  C   UNL     1      -7.727  11.387  71.548  1.00  0.00     7.792 A  
HETATM   12  C   UNL     1      -7.195  12.351  70.680  1.00  0.00     3.116 A  
HETATM   13  C   UNL     1      -8.932  10.852  68.310  1.00  0.00    -0.150 A  
HETATM   14  C   UNL     1      -5.926  12.884  70.987  1.00  0.00     0.256 A  
HETATM   15  C   UNL     1      -6.971  10.910  72.626  1.00  0.00     5.974 A  
HETATM   16  H   UNL     1      -9.117  13.825  70.757  1.00  0.00     0.000 HD 
HETATM   17  C   UNL     1     -11.556  11.766  68.508  1.00  0.00    -0.380 A  
HETATM   18  C   UNL     1      -5.164  12.396  72.042  1.00  0.00     0.171 A  
HETATM   19  C   UNL     1      -9.979  10.123  67.737  1.00  0.00    -0.198 A  
ENDROOT
BRANCH   1  20
HETATM   20  N   UNL     1      -5.529  11.415  67.873  1.00  0.00    -0.043 NA 
HETATM   21  H   UNL     1      -4.711  11.021  68.339  1.00  0.00     0.000 HD 
BRANCH  20  22
HETATM   22  C   UNL     1      -6.354  10.709  67.147  1.00  0.00    -0.070 C  
HETATM   23  C   UNL     1      -7.159   9.787  64.931  1.00  0.00    -0.125 C  
HETATM   24  C   UNL     1      -6.656   8.400  65.388  1.00  0.00    -0.056 C  
HETATM   25  C   UNL     1      -5.848   8.566  66.667  1.00  0.00    -0.048 C  
HETATM   26  C   UNL     1      -6.888  10.907  65.676  1.00  0.00     0.054 C  
HETATM   27  C   UNL     1      -7.968   9.599  63.629  1.00  0.00    -0.142 C  
HETATM   28  C   UNL     1      -6.742   9.347  67.622  1.00  0.00    -0.068 C  
HETATM   29  C   UNL     1      -5.699   7.778  64.350  1.00  0.00    -0.041 C  
HETATM   30  C   UNL     1      -8.981   8.345  63.580  1.00  0.00     0.664 C  
HETATM   31  C   UNL     1      -8.637   7.066  64.450  1.00  0.00     0.364 C  
HETATM   32  C   UNL     1      -9.845   6.066  64.827  1.00  0.00     1.670 C  
HETATM   33  C   UNL     1     -10.086   5.027  63.686  1.00  0.00     0.955 C  
HETATM   34  C   UNL     1      -9.572   3.664  64.200  1.00  0.00    -0.160 C  
HETATM   35  C   UNL     1      -8.652   4.060  65.352  1.00  0.00    -0.114 C  
HETATM   36  C   UNL     1      -7.927   7.565  65.705  1.00  0.00    -0.117 C  
HETATM   37  C   UNL     1      -9.541   5.115  66.071  1.00  0.00    -0.176 C  
HETATM   38  C   UNL     1      -7.613   6.495  66.744  1.00  0.00    -0.091 C  
HETATM   39  C   UNL     1      -8.859   5.835  67.208  1.00  0.00    -0.106 C  
HETATM   40  C   UNL     1     -10.809   4.534  66.756  1.00  0.00     0.786 C  
BRANCH  35  41
HETATM   41  O   UNL     1      -8.069   2.985  66.105  1.00  0.00    -0.084 OA 
BRANCH  41  42
HETATM   42  C   UNL     1      -8.448   3.042  67.426  1.00  0.00    -0.093 C  
HETATM   43  O   UNL     1      -9.497   2.562  67.846  1.00  0.00    -0.209 OA 
BRANCH  42  44
HETATM   44  C   UNL     1      -7.542   3.757  68.404  1.00  0.00    -0.061 C  
BRANCH  44  45
HETATM   45  C   UNL     1      -8.069   4.749  69.431  1.00  0.00    -0.070 C  
BRANCH  45  46
HETATM   46  C   UNL     1      -7.000   5.253  70.393  1.00  0.00    -0.056 C  
BRANCH  46  47
HETATM   47  C   UNL     1      -7.521   5.556  71.804  1.00  0.00    -0.093 C  
BRANCH  47  48
HETATM   48  C   UNL     1      -7.583   7.049  72.130  1.00  0.00    -0.091 C  
HETATM   49  C   UNL     1      -8.448   7.803  71.128  1.00  0.00    -0.115 C  
ENDBRANCH  47  48
ENDBRANCH  46  47
ENDBRANCH  45  46
ENDBRANCH  44  45
ENDBRANCH  42  44
ENDBRANCH  41  42
ENDBRANCH  35  41
ENDBRANCH  20  22
ENDBRANCH   1  20
TORSDOF 9
ENDMDL
MODEL      181
REMARK 921   NORMALIZED FREE ENERGY PREDICTED BY IDOCK:   19.33 KCAL/MOL
REMARK 922        TOTAL FREE ENERGY PREDICTED BY IDOCK:   26.19 KCAL/MOL
REMARK 923 INTER-LIGAND FREE ENERGY PREDICTED BY IDOCK:    6.55 KCAL/MOL
REMARK 924 INTRA-LIGAND FREE ENERGY PREDICTED BY IDOCK:   19.64 KCAL/MOL
REMARK 927      BINDING AFFINITY PREDICTED BY RF-SCORE:    0.00 PKD
ROOT
HETATM    1  N   UNL     1     -11.412  10.195  71.678  1.00  0.00    -0.054 N  
HETATM    2  C   UNL     1     -12.114   9.917  70.516  1.00  0.00    -0.207 C  
HETATM    3  C   UNL     1     -10.380   5.197  71.499  1.00  0.00    -0.278 A  
HETATM    4  H   UNL     1     -11.991  10.479  72.468  1.00  0.00     0.000 HD 
HETATM    5  C   UNL     1     -11.484   9.340  66.989  1.00  0.00     1.679 A  
HETATM    6  O   UNL     1     -13.173  10.579  70.351  1.00  0.00    -0.235 OA 
HETATM    7  C   UNL     1      -9.539  10.504  66.159  1.00  0.00    -0.237 A  
HETATM    8  C   UNL     1     -11.765   8.790  69.505  1.00  0.00     0.728 C  
HETATM    9  O   UNL     1     -13.060   8.362  68.981  1.00  0.00     4.700 OA 
HETATM   10  C   UNL     1     -10.968   9.340  68.307  1.00  0.00    -0.047 A  
HETATM   11  C   UNL     1     -10.394   6.628  69.543  1.00  0.00    -0.232 A  
HETATM   12  C   UNL     1     -11.258   7.526  70.186  1.00  0.00    -0.213 A  
HETATM   13  C   UNL     1      -9.696   9.890  68.497  1.00  0.00    -0.163 A  
HETATM   14  C   UNL     1     -11.735   7.178  71.467  1.00  0.00    -0.324 A  
HETATM   15  C   UNL     1      -9.954   5.474  70.203  1.00  0.00    -0.287 A  
HETATM   16  H   UNL     1     -12.847   7.673  68.363  1.00  0.00     0.000 HD 
HETATM   17  C   UNL     1     -10.778   9.922  65.931  1.00  0.00     0.220 A  
HETATM   18  C   UNL     1     -11.281   6.046  72.133  1.00  0.00    -0.341 A  
HETATM   19  C   UNL     1      -8.990  10.476  67.441  1.00  0.00    -0.139 A  
ENDROOT
BRANCH   1  20
HETATM   20  N   UNL     1     -10.019  10.150  71.950  1.00  0.00     1.692 NA 
HETATM   21  H   UNL     1      -9.627  10.204  72.890  1.00  0.00     0.000 HD 
BRANCH  20  22
HETATM   22  C   UNL     1      -9.290  10.033  70.872  1.00  0.00     0.853 C  
HETATM   23  C   UNL     1      -7.084  10.158  69.637  1.00  0.00    -0.115 C  
HETATM   24  C   UNL     1      -7.086   8.615  69.589  1.00  0.00    -0.055 C  
HETATM   25  C   UNL     1      -8.210   8.096  70.474  1.00  0.00    -0.117 C  
HETATM   26  C   UNL     1      -8.030  10.835  70.368  1.00  0.00     1.415 C  
HETATM   27  C   UNL     1      -5.934  10.665  68.741  1.00  0.00    -0.040 C  
HETATM   28  C   UNL     1      -9.467   8.822  70.015  1.00  0.00    -0.176 C  
HETATM   29  C   UNL     1      -5.778   8.031  70.163  1.00  0.00    -0.022 C  
HETATM   30  C   UNL     1      -5.745   9.928  67.319  1.00  0.00    -0.046 C  
HETATM   31  C   UNL     1      -6.194   8.414  67.191  1.00  0.00    -0.056 C  
HETATM   32  C   UNL     1      -6.508   7.845  65.715  1.00  0.00    -0.042 C  
HETATM   33  C   UNL     1      -5.200   7.348  65.019  1.00  0.00    -0.029 C  
HETATM   34  C   UNL     1      -5.261   5.805  64.994  1.00  0.00    -0.010 C  
HETATM   35  C   UNL     1      -6.302   5.487  66.064  1.00  0.00    -0.035 C  
HETATM   36  C   UNL     1      -7.395   8.232  68.115  1.00  0.00    -0.096 C  
HETATM   37  C   UNL     1      -7.403   6.525  65.701  1.00  0.00    -0.076 C  
HETATM   38  C   UNL     1      -8.063   6.863  68.051  1.00  0.00    -0.115 C  
HETATM   39  C   UNL     1      -8.552   6.583  66.677  1.00  0.00    -0.118 C  
HETATM   40  C   UNL     1      -8.125   6.257  64.351  1.00  0.00    -0.091 C  
BRANCH  35  41
HETATM   41  O   UNL     1      -6.651   4.104  66.228  1.00  0.00    -0.040 OA 
BRANCH  41  42
HETATM   42  C   UNL     1      -7.107   3.855  67.501  1.00  0.00    -0.056 C  
HETATM   43  O   UNL     1      -6.645   4.399  68.500  1.00  0.00    -0.043 OA 
BRANCH  42  44
HETATM   44  C   UNL     1      -8.214   2.839  67.683  1.00  0.00    -0.087 C  
BRANCH  44  45
HETATM   45  C   UNL     1      -9.601   3.026  67.085  1.00  0.00    -0.002 C  
BRANCH  45  46
HETATM   46  C   UNL     1      -9.623   3.964  65.884  1.00  0.00    -0.185 C  
BRANCH  46  47
HETATM   47  C   UNL     1      -8.859   3.436  64.664  1.00  0.00    -0.116 C  
BRANCH  47  48
HETATM   48  C   UNL     1      -9.347   2.072  64.173  1.00  0.00    -0.126 C  
HETATM   49  C   UNL     1      -9.773   2.124  62.711  1.00  0.00    -0.089 C  
ENDBRANCH  47  48
ENDBRANCH  46  47
ENDBRANCH  45  46
ENDBRANCH  44  45
ENDBRANCH  42  44
ENDBRANCH  41  42
ENDBRANCH  35  41
ENDBRANCH  20  22
ENDBRANCH   1  20
TORSDOF 9
ENDMDL
MODEL      182
REMARK 921   NORMALIZED FREE ENERGY PREDICTED BY IDOCK:   19.33 KCAL/MOL
REMARK 922        TOTAL FREE ENERGY PREDICTED BY IDOCK:   26.20 KCAL/MOL
REMARK 923 INTER-LIGAND FREE ENERGY PREDICTED BY IDOCK:    9.66 KCAL/MOL
REMARK 924 INTRA-LIGAND FREE ENERGY PREDICTED BY IDOCK:   16.54 KCAL/MOL
REMARK 927      BINDING AFFINITY PREDICTED BY RF-SCORE:    0.00 PKD
ROOT
HETATM    1  N   UNL     1     -10.234  16.369  65.769  1.00  0.00    -0.356 N  
HETATM    2  C   UNL     1      -8.921  16.167  66.166  1.00  0.00    -0.337 C  
HETATM    3  C   UNL     1      -9.971  11.410  64.577  1.00  0.00    -0.318 A  
HETATM    4  H   UNL     1     -10.345  16.991  64.968  1.00  0.00     0.000 HD 
HETATM    5  C   UNL     1      -7.075  14.755  68.952  1.00  0.00    -0.118 A  
HETATM    6  O   UNL     1      -8.142  17.137  65.973  1.00  0.00    -0.465 OA 
HETATM    7  C   UNL     1      -8.240  14.925  71.061  1.00  0.00     2.698 A  
HETATM    8  C   UNL     1      -8.340  14.827  66.694  1.00  0.00     0.032 C  
HETATM    9  O   UNL     1      -6.953  14.829  66.234  1.00  0.00     1.016 OA 
HETATM   10  C   UNL     1      -8.292  14.804  68.232  1.00  0.00    -0.148 A  
HETATM   11  C   UNL     1      -8.998  12.354  66.586  1.00  0.00    -0.184 A  
HETATM   12  C   UNL     1      -8.915  13.613  65.975  1.00  0.00     0.368 A  
HETATM   13  C   UNL     1      -9.475  14.859  68.977  1.00  0.00    -0.196 A  
HETATM   14  C   UNL     1      -9.295  13.714  64.620  1.00  0.00     1.414 A  
HETATM   15  C   UNL     1      -9.530  11.262  65.889  1.00  0.00    -0.247 A  
HETATM   16  H   UNL     1      -6.597  14.009  66.557  1.00  0.00     0.000 HD 
HETATM   17  C   UNL     1      -7.052  14.822  70.350  1.00  0.00     0.300 A  
HETATM   18  C   UNL     1      -9.846  12.637  63.934  1.00  0.00     0.031 A  
HETATM   19  C   UNL     1      -9.454  14.929  70.375  1.00  0.00     0.902 A  
ENDROOT
BRANCH   1  20
HETATM   20  N   UNL     1     -11.448  15.853  66.292  1.00  0.00     0.232 NA 
HETATM   21  H   UNL     1     -12.367  16.074  65.906  1.00  0.00     0.000 HD 
BRANCH  20  22
HETATM   22  C   UNL     1     -11.270  15.067  67.321  1.00  0.00    -0.338 C  
HETATM   23  C   UNL     1     -11.961  14.130  69.568  1.00  0.00    -0.389 C  
HETATM   24  C   UNL     1     -12.316  12.811  68.847  1.00  0.00     0.180 C  
HETATM   25  C   UNL     1     -12.251  13.039  67.344  1.00  0.00    -0.155 C  
HETATM   26  C   UNL     1     -11.615  15.247  68.849  1.00  0.00    -0.365 C  
HETATM   27  C   UNL     1     -12.042  13.882  71.090  1.00  0.00    -0.320 C  
HETATM   28  C   UNL     1     -10.879  13.646  67.078  1.00  0.00    -0.291 C  
HETATM   29  C   UNL     1     -13.764  12.373  69.156  1.00  0.00     5.944 C  
HETATM   30  C   UNL     1     -11.412  12.501  71.633  1.00  0.00     3.237 C  
HETATM   31  C   UNL     1     -11.394  11.249  70.662  1.00  0.00     0.260 C  
HETATM   32  C   UNL     1     -10.332  10.074  70.970  1.00  0.00     0.203 C  
HETATM   33  C   UNL     1     -10.910   9.057  72.006  1.00  0.00    -0.342 C  
HETATM   34  C   UNL     1     -11.239   7.762  71.232  1.00  0.00    -0.280 C  
HETATM   35  C   UNL     1     -11.303   8.237  69.783  1.00  0.00     0.142 C  
HETATM   36  C   UNL     1     -11.214  11.793  69.248  1.00  0.00    -0.318 C  
HETATM   37  C   UNL     1     -10.027   9.126  69.723  1.00  0.00    -0.204 C  
HETATM   38  C   UNL     1     -11.048  10.737  68.161  1.00  0.00    -0.337 C  
HETATM   39  C   UNL     1      -9.859   9.889  68.432  1.00  0.00    -0.166 C  
HETATM   40  C   UNL     1      -8.689   8.345  69.826  1.00  0.00    -0.133 C  
BRANCH  35  41
HETATM   41  O   UNL     1     -11.517   7.227  68.786  1.00  0.00     0.244 OA 
BRANCH  41  42
HETATM   42  C   UNL     1     -10.484   6.320  68.768  1.00  0.00    -0.233 C  
HETATM   43  O   UNL     1      -9.851   6.039  67.754  1.00  0.00    -0.112 OA 
BRANCH  42  44
HETATM   44  C   UNL     1     -10.127   5.611  70.057  1.00  0.00    -0.295 C  
BRANCH  44  45
HETATM   45  C   UNL     1     -10.022   4.096  70.155  1.00  0.00    -0.149 C  
BRANCH  45  46
HETATM   46  C   UNL     1      -9.290   3.617  71.402  1.00  0.00    -0.211 C  
BRANCH  46  47
HETATM   47  C   UNL     1      -9.894   4.125  72.717  1.00  0.00    -0.197 C  
BRANCH  47  48
HETATM   48  C   UNL     1     -10.503   3.021  73.582  1.00  0.00    -0.246 C  
HETATM   49  C   UNL     1      -9.439   2.054  74.086  1.00  0.00    -0.095 C  
ENDBRANCH  47  48
ENDBRANCH  46  47
ENDBRANCH  45  46
ENDBRANCH  44  45
ENDBRANCH  42  44
ENDBRANCH  41  42
ENDBRANCH  35  41
ENDBRANCH  20  22
ENDBRANCH   1  20
TORSDOF 9
ENDMDL
MODEL      183
REMARK 921   NORMALIZED FREE ENERGY PREDICTED BY IDOCK:   21.39 KCAL/MOL
REMARK 922        TOTAL FREE ENERGY PREDICTED BY IDOCK:   29.33 KCAL/MOL
REMARK 923 INTER-LIGAND FREE ENERGY PREDICTED BY IDOCK:   18.87 KCAL/MOL
REMARK 924 INTRA-LIGAND FREE ENERGY PREDICTED BY IDOCK:   10.47 KCAL/MOL
REMARK 927      BINDING AFFINITY PREDICTED BY RF-SCORE:    0.00 PKD
ROOT
HETATM    1  N   UNL     1     -12.588  15.529  64.776  1.00  0.00     0.285 N  
HETATM    2  C   UNL     1     -11.750  16.623  64.625  1.00  0.00     0.548 C  
HETATM    3  C   UNL     1      -8.224  13.146  65.945  1.00  0.00     1.796 A  
HETATM    4  H   UNL     1     -13.027  15.207  63.914  1.00  0.00     0.000 HD 
HETATM    5  C   UNL     1     -10.012  19.062  66.673  1.00  0.00    -0.428 A  
HETATM    6  O   UNL     1     -12.068  17.427  63.709  1.00  0.00     2.216 OA 
HETATM    7  C   UNL     1     -11.141  19.551  68.751  1.00  0.00     1.260 A  
HETATM    8  C   UNL     1     -10.420  16.847  65.396  1.00  0.00    -0.154 C  
HETATM    9  O   UNL     1      -9.569  17.561  64.446  1.00  0.00     3.636 OA 
HETATM   10  C   UNL     1     -10.620  17.787  66.598  1.00  0.00    -0.224 A  
HETATM   11  C   UNL     1      -8.765  15.386  66.695  1.00  0.00    -0.332 A  
HETATM   12  C   UNL     1      -9.643  15.555  65.615  1.00  0.00    -0.328 A  
HETATM   13  C   UNL     1     -11.448  17.409  67.661  1.00  0.00     0.649 A  
HETATM   14  C   UNL     1      -9.722  14.517  64.663  1.00  0.00     0.831 A  
HETATM   15  C   UNL     1      -8.066  14.184  66.859  1.00  0.00     0.079 A  
HETATM   16  H   UNL     1      -8.755  17.698  64.917  1.00  0.00     0.000 HD 
HETATM   17  C   UNL     1     -10.276  19.934  67.736  1.00  0.00    -0.567 A  
HETATM   18  C   UNL     1      -9.048  13.314  64.837  1.00  0.00     1.477 A  
HETATM   19  C   UNL     1     -11.717  18.281  68.721  1.00  0.00     3.105 A  
ENDROOT
BRANCH   1  20
HETATM   20  N   UNL     1     -12.935  14.783  65.933  1.00  0.00     0.002 NA 
HETATM   21  H   UNL     1     -13.407  15.187  66.742  1.00  0.00     0.000 HD 
BRANCH  20  22
HETATM   22  C   UNL     1     -12.589  13.525  65.854  1.00  0.00    -0.396 C  
HETATM   23  C   UNL     1     -11.145  11.654  64.948  1.00  0.00    -0.317 C  
HETATM   24  C   UNL     1     -10.483  11.565  66.341  1.00  0.00    -0.292 C  
HETATM   25  C   UNL     1     -10.941  12.749  67.180  1.00  0.00    -0.295 C  
HETATM   26  C   UNL     1     -12.025  12.667  64.658  1.00  0.00    -0.463 C  
HETATM   27  C   UNL     1     -10.662  10.451  64.109  1.00  0.00     0.668 C  
HETATM   28  C   UNL     1     -12.463  12.736  67.116  1.00  0.00     0.523 C  
HETATM   29  C   UNL     1      -8.946  11.674  66.241  1.00  0.00    -0.194 C  
HETATM   30  C   UNL     1     -10.603   9.023  64.857  1.00  0.00     3.613 C  
HETATM   31  C   UNL     1     -10.356   9.004  66.422  1.00  0.00    -0.219 C  
HETATM   32  C   UNL     1     -10.813   7.690  67.238  1.00  0.00    -0.263 C  
HETATM   33  C   UNL     1      -9.695   6.598  67.211  1.00  0.00    -0.166 C  
HETATM   34  C   UNL     1      -9.075   6.551  68.624  1.00  0.00    -0.128 C  
HETATM   35  C   UNL     1      -9.497   7.888  69.227  1.00  0.00    -0.152 C  
HETATM   36  C   UNL     1     -11.016  10.257  66.987  1.00  0.00    -0.189 C  
HETATM   37  C   UNL     1     -10.995   7.926  68.806  1.00  0.00     0.127 C  
HETATM   38  C   UNL     1     -10.999  10.372  68.507  1.00  0.00    -0.302 C  
HETATM   39  C   UNL     1     -11.701   9.220  69.127  1.00  0.00     0.701 C  
HETATM   40  C   UNL     1     -11.892   6.871  69.510  1.00  0.00     0.100 C  
BRANCH  35  41
HETATM   41  O   UNL     1      -9.135   8.117  70.598  1.00  0.00    -0.145 OA 
BRANCH  41  42
HETATM   42  C   UNL     1      -8.726   9.415  70.793  1.00  0.00    -0.157 C  
HETATM   43  O   UNL     1      -9.455  10.289  71.252  1.00  0.00     1.122 OA 
BRANCH  42  44
HETATM   44  C   UNL     1      -7.315   9.791  70.394  1.00  0.00    -0.151 C  
BRANCH  44  45
HETATM   45  C   UNL     1      -6.949  10.199  68.974  1.00  0.00    -0.058 C  
BRANCH  45  46
HETATM   46  C   UNL     1      -5.514  10.691  68.835  1.00  0.00    -0.041 C  
BRANCH  46  47
HETATM   47  C   UNL     1      -5.257  12.063  69.469  1.00  0.00    -0.066 C  
BRANCH  47  48
HETATM   48  C   UNL     1      -6.406  12.561  70.348  1.00  0.00     0.268 C  
HETATM   49  C   UNL     1      -6.078  12.421  71.829  1.00  0.00     1.887 C  
ENDBRANCH  47  48
ENDBRANCH  46  47
ENDBRANCH  45  46
ENDBRANCH  44  45
ENDBRANCH  42  44
ENDBRANCH  41  42
ENDBRANCH  35  41
ENDBRANCH  20  22
ENDBRANCH   1  20
TORSDOF 9
ENDMDL
MODEL      184
REMARK 921   NORMALIZED FREE ENERGY PREDICTED BY IDOCK:   21.85 KCAL/MOL
REMARK 922        TOTAL FREE ENERGY PREDICTED BY IDOCK:   30.04 KCAL/MOL
REMARK 923 INTER-LIGAND FREE ENERGY PREDICTED BY IDOCK:   28.94 KCAL/MOL
REMARK 924 INTRA-LIGAND FREE ENERGY PREDICTED BY IDOCK:    1.10 KCAL/MOL
REMARK 927      BINDING AFFINITY PREDICTED BY RF-SCORE:    0.00 PKD
ROOT
HETATM    1  N   UNL     1      -9.479  17.051  70.111  1.00  0.00     1.330 N  
HETATM    2  C   UNL     1      -8.388  17.767  69.644  1.00  0.00     0.985 C  
HETATM    3  C   UNL     1     -12.085  21.041  68.275  1.00  0.00     5.374 A  
HETATM    4  H   UNL     1      -9.520  16.950  71.125  1.00  0.00     0.000 HD 
HETATM    5  C   UNL     1      -6.696  18.476  66.514  1.00  0.00    -0.225 A  
HETATM    6  O   UNL     1      -7.342  17.674  70.338  1.00  0.00     1.660 OA 
HETATM    7  C   UNL     1      -6.881  16.693  64.896  1.00  0.00     6.010 A  
HETATM    8  C   UNL     1      -8.408  18.746  68.438  1.00  0.00    -0.342 C  
HETATM    9  O   UNL     1      -7.430  19.773  68.791  1.00  0.00    -0.332 OA 
HETATM   10  C   UNL     1      -7.888  18.068  67.157  1.00  0.00    -0.231 A  
HETATM   11  C   UNL     1     -10.190  20.046  67.137  1.00  0.00    -0.580 A  
HETATM   12  C   UNL     1      -9.700  19.548  68.353  1.00  0.00    -0.498 A  
HETATM   13  C   UNL     1      -8.581  16.989  66.598  1.00  0.00    -0.285 A  
HETATM   14  C   UNL     1     -10.391  19.894  69.533  1.00  0.00     0.070 A  
HETATM   15  C   UNL     1     -11.381  20.782  67.102  1.00  0.00     2.662 A  
HETATM   16  H   UNL     1      -7.441  20.372  68.054  1.00  0.00     0.000 HD 
HETATM   17  C   UNL     1      -6.198  17.790  65.400  1.00  0.00     0.056 A  
HETATM   18  C   UNL     1     -11.586  20.604  69.497  1.00  0.00     3.137 A  
HETATM   19  C   UNL     1      -8.083  16.300  65.487  1.00  0.00     1.748 A  
ENDROOT
BRANCH   1  20
HETATM   20  N   UNL     1     -10.549  16.434  69.411  1.00  0.00    -0.298 NA 
HETATM   21  H   UNL     1     -11.502  16.798  69.405  1.00  0.00     0.000 HD 
BRANCH  20  22
HETATM   22  C   UNL     1     -10.188  15.352  68.774  1.00  0.00    -0.217 C  
HETATM   23  C   UNL     1      -8.440  13.717  67.951  1.00  0.00    -0.177 C  
HETATM   24  C   UNL     1      -8.967  12.711  68.997  1.00  0.00     0.500 C  
HETATM   25  C   UNL     1      -9.946  13.426  69.918  1.00  0.00     1.741 C  
HETATM   26  C   UNL     1      -8.897  15.011  67.935  1.00  0.00    -0.171 C  
HETATM   27  C   UNL     1      -7.443  12.977  67.033  1.00  0.00     0.131 C  
HETATM   28  C   UNL     1     -10.962  14.095  69.000  1.00  0.00    -0.286 C  
HETATM   29  C   UNL     1      -7.829  12.187  69.899  1.00  0.00     1.775 C  
HETATM   30  C   UNL     1      -7.864  11.497  66.551  1.00  0.00    -0.071 C  
HETATM   31  C   UNL     1      -8.808  10.639  67.491  1.00  0.00    -0.132 C  
HETATM   32  C   UNL     1      -9.645   9.435  66.819  1.00  0.00    -0.234 C  
HETATM   33  C   UNL     1      -8.790   8.128  66.758  1.00  0.00    -0.156 C  
HETATM   34  C   UNL     1      -9.365   7.162  67.816  1.00  0.00    -0.131 C  
HETATM   35  C   UNL     1     -10.158   8.092  68.732  1.00  0.00    -0.195 C  
HETATM   36  C   UNL     1      -9.736  11.624  68.197  1.00  0.00    -0.189 C  
HETATM   37  C   UNL     1     -10.904   8.957  67.676  1.00  0.00    -0.112 C  
HETATM   38  C   UNL     1     -10.816  10.990  69.067  1.00  0.00    -0.274 C  
HETATM   39  C   UNL     1     -11.691  10.107  68.255  1.00  0.00     0.305 C  
HETATM   40  C   UNL     1     -11.980   8.193  66.857  1.00  0.00     5.089 C  
BRANCH  35  41
HETATM   41  O   UNL     1     -10.895   7.469  69.795  1.00  0.00    -0.248 OA 
BRANCH  41  42
HETATM   42  C   UNL     1     -10.117   6.560  70.473  1.00  0.00    -0.185 C  
HETATM   43  O   UNL     1      -8.988   6.813  70.882  1.00  0.00    -0.148 OA 
BRANCH  42  44
HETATM   44  C   UNL     1     -10.669   5.169  70.700  1.00  0.00    -0.133 C  
BRANCH  44  45
HETATM   45  C   UNL     1     -10.285   3.985  69.825  1.00  0.00     0.440 C  
BRANCH  45  46
HETATM   46  C   UNL     1      -8.923   4.138  69.159  1.00  0.00    -0.164 C  
BRANCH  46  47
HETATM   47  C   UNL     1      -8.871   3.624  67.716  1.00  0.00    -0.141 C  
BRANCH  47  48
HETATM   48  C   UNL     1     -10.235   3.217  67.156  1.00  0.00     1.419 C  
HETATM   49  C   UNL     1     -10.413   3.689  65.719  1.00  0.00     0.661 C  
ENDBRANCH  47  48
ENDBRANCH  46  47
ENDBRANCH  45  46
ENDBRANCH  44  45
ENDBRANCH  42  44
ENDBRANCH  41  42
ENDBRANCH  35  41
ENDBRANCH  20  22
ENDBRANCH   1  20
TORSDOF 9
ENDMDL
MODEL      185
REMARK 921   NORMALIZED FREE ENERGY PREDICTED BY IDOCK:   21.91 KCAL/MOL
REMARK 922        TOTAL FREE ENERGY PREDICTED BY IDOCK:   30.12 KCAL/MOL
REMARK 923 INTER-LIGAND FREE ENERGY PREDICTED BY IDOCK:   30.19 KCAL/MOL
REMARK 924 INTRA-LIGAND FREE ENERGY PREDICTED BY IDOCK:   -0.07 KCAL/MOL
REMARK 927      BINDING AFFINITY PREDICTED BY RF-SCORE:    0.00 PKD
ROOT
HETATM    1  N   UNL     1     -11.054  14.644  68.597  1.00  0.00    -0.251 N  
HETATM    2  C   UNL     1     -10.400  15.834  68.874  1.00  0.00    -0.224 C  
HETATM    3  C   UNL     1      -6.954  12.597  70.851  1.00  0.00     3.025 A  
HETATM    4  H   UNL     1     -11.142  14.428  67.604  1.00  0.00     0.000 HD 
HETATM    5  C   UNL     1      -9.810  18.064  71.676  1.00  0.00     6.365 A  
HETATM    6  O   UNL     1     -10.540  16.742  68.014  1.00  0.00    -0.321 OA 
HETATM    7  C   UNL     1     -11.598  18.059  73.299  1.00  0.00     1.799 A  
HETATM    8  C   UNL     1      -9.433  16.069  70.067  1.00  0.00     0.406 C  
HETATM    9  O   UNL     1      -8.455  17.026  69.556  1.00  0.00     0.168 OA 
HETATM   10  C   UNL     1     -10.150  16.760  71.242  1.00  0.00     3.269 A  
HETATM   11  C   UNL     1      -8.057  14.601  71.652  1.00  0.00     4.512 A  
HETATM   12  C   UNL     1      -8.567  14.853  70.371  1.00  0.00     1.225 A  
HETATM   13  C   UNL     1     -11.198  16.115  71.909  1.00  0.00     0.046 A  
HETATM   14  C   UNL     1      -8.174  13.992  69.324  1.00  0.00     0.336 A  
HETATM   15  C   UNL     1      -7.261  13.473  71.888  1.00  0.00     5.450 A  
HETATM   16  H   UNL     1      -7.863  17.170  70.286  1.00  0.00     0.000 HD 
HETATM   17  C   UNL     1     -10.532  18.705  72.688  1.00  0.00     3.835 A  
HETATM   18  C   UNL     1      -7.404  12.859  69.562  1.00  0.00     0.486 A  
HETATM   19  C   UNL     1     -11.922  16.757  72.919  1.00  0.00    -0.177 A  
ENDROOT
BRANCH   1  20
HETATM   20  N   UNL     1     -11.622  13.676  69.467  1.00  0.00    -0.298 NA 
HETATM   21  H   UNL     1     -12.525  13.794  69.927  1.00  0.00     0.000 HD 
BRANCH  20  22
HETATM   22  C   UNL     1     -10.870  12.619  69.618  1.00  0.00     0.330 C  
HETATM   23  C   UNL     1     -10.486  10.234  70.376  1.00  0.00    -0.141 C  
HETATM   24  C   UNL     1     -10.455   9.824  68.887  1.00  0.00    -0.233 C  
HETATM   25  C   UNL     1     -10.896  11.010  68.041  1.00  0.00    -0.278 C  
HETATM   26  C   UNL     1     -10.832  11.512  70.740  1.00  0.00     2.019 C  
HETATM   27  C   UNL     1     -10.045   9.018  71.218  1.00  0.00    -0.384 C  
HETATM   28  C   UNL     1     -10.017  12.176  68.474  1.00  0.00    -0.180 C  
HETATM   29  C   UNL     1     -11.458   8.687  68.595  1.00  0.00     0.932 C  
HETATM   30  C   UNL     1      -8.788   8.172  70.667  1.00  0.00    -0.143 C  
HETATM   31  C   UNL     1      -8.526   8.147  69.104  1.00  0.00    -0.135 C  
HETATM   32  C   UNL     1      -7.039   7.781  68.598  1.00  0.00    -0.076 C  
HETATM   33  C   UNL     1      -6.851   6.233  68.491  1.00  0.00    -0.074 C  
HETATM   34  C   UNL     1      -6.822   5.884  66.987  1.00  0.00    -0.063 C  
HETATM   35  C   UNL     1      -7.461   7.110  66.340  1.00  0.00    -0.087 C  
HETATM   36  C   UNL     1      -8.971   9.501  68.562  1.00  0.00    -0.128 C  
HETATM   37  C   UNL     1      -6.725   8.247  67.104  1.00  0.00    -0.063 C  
HETATM   38  C   UNL     1      -8.691   9.733  67.081  1.00  0.00    -0.137 C  
HETATM   39  C   UNL     1      -7.236   9.634  66.803  1.00  0.00    -0.090 C  
HETATM   40  C   UNL     1      -5.211   8.371  66.779  1.00  0.00    -0.032 C  
BRANCH  35  41
HETATM   41  O   UNL     1      -7.507   7.127  64.905  1.00  0.00    -0.081 OA 
BRANCH  41  42
HETATM   42  C   UNL     1      -7.947   5.923  64.408  1.00  0.00    -0.129 C  
HETATM   43  O   UNL     1      -8.753   5.207  64.994  1.00  0.00    -0.148 OA 
BRANCH  42  44
HETATM   44  C   UNL     1      -7.388   5.443  63.086  1.00  0.00    -0.050 C  
BRANCH  44  45
HETATM   45  C   UNL     1      -5.899   5.460  62.774  1.00  0.00    -0.014 C  
BRANCH  45  46
HETATM   46  C   UNL     1      -5.351   4.104  62.349  1.00  0.00    -0.009 C  
BRANCH  46  47
HETATM   47  C   UNL     1      -6.009   2.913  63.057  1.00  0.00    -0.010 C  
BRANCH  47  48
HETATM   48  C   UNL     1      -5.707   2.843  64.555  1.00  0.00    -0.010 C  
HETATM   49  C   UNL     1      -6.974   2.617  65.371  1.00  0.00    -0.052 C  
ENDBRANCH  47  48
ENDBRANCH  46  47
ENDBRANCH  45  46
ENDBRANCH  44  45
ENDBRANCH  42  44
ENDBRANCH  41  42
ENDBRANCH  35  41
ENDBRANCH  20  22
ENDBRANCH   1  20
TORSDOF 9
ENDMDL
MODEL      186
REMARK 921   NORMALIZED FREE ENERGY PREDICTED BY IDOCK:   25.31 KCAL/MOL
REMARK 922        TOTAL FREE ENERGY PREDICTED BY IDOCK:   35.31 KCAL/MOL
REMARK 923 INTER-LIGAND FREE ENERGY PREDICTED BY IDOCK:    9.08 KCAL/MOL
REMARK 924 INTRA-LIGAND FREE ENERGY PREDICTED BY IDOCK:   26.22 KCAL/MOL
REMARK 927      BINDING AFFINITY PREDICTED BY RF-SCORE:    0.00 PKD
ROOT
HETATM    1  N   UNL     1     -10.024  17.132  64.661  1.00  0.00     2.162 N  
HETATM    2  C   UNL     1      -9.998  17.736  65.908  1.00  0.00    -0.120 C  
HETATM    3  C   UNL     1      -5.637  15.070  66.270  1.00  0.00     4.247 A  
HETATM    4  H   UNL     1      -9.925  17.774  63.875  1.00  0.00     0.000 HD 
HETATM    5  C   UNL     1     -10.699  16.927  69.375  1.00  0.00    -0.258 A  
HETATM    6  O   UNL     1     -10.461  18.906  65.952  1.00  0.00    -0.486 OA 
HETATM    7  C   UNL     1     -12.419  15.253  69.641  1.00  0.00    -0.174 A  
HETATM    8  C   UNL     1      -9.339  17.138  67.182  1.00  0.00    -0.245 C  
HETATM    9  O   UNL     1      -8.856  18.303  67.920  1.00  0.00    -0.260 OA 
HETATM   10  C   UNL     1     -10.381  16.450  68.081  1.00  0.00    -0.283 A  
HETATM   11  C   UNL     1      -7.582  15.344  67.689  1.00  0.00    -0.188 A  
HETATM   12  C   UNL     1      -8.046  16.391  66.879  1.00  0.00    -0.262 A  
HETATM   13  C   UNL     1     -11.078  15.326  67.624  1.00  0.00    -0.323 A  
HETATM   14  C   UNL     1      -7.226  16.810  65.811  1.00  0.00     0.815 A  
HETATM   15  C   UNL     1      -6.386  14.685  67.378  1.00  0.00     0.103 A  
HETATM   16  H   UNL     1      -8.454  17.938  68.698  1.00  0.00     0.000 HD 
HETATM   17  C   UNL     1     -11.711  16.337  70.141  1.00  0.00    -0.065 A  
HETATM   18  C   UNL     1      -6.051  16.142  65.487  1.00  0.00     4.913 A  
HETATM   19  C   UNL     1     -12.092  14.737  68.387  1.00  0.00    -0.202 A  
ENDROOT
BRANCH   1  20
HETATM   20  N   UNL     1     -10.164  15.766  64.298  1.00  0.00     0.060 NA 
HETATM   21  H   UNL     1     -10.633  15.456  63.447  1.00  0.00     0.000 HD 
BRANCH  20  22
HETATM   22  C   UNL     1      -9.632  14.948  65.167  1.00  0.00     0.204 C  
HETATM   23  C   UNL     1      -9.641  13.716  67.378  1.00  0.00    -0.226 C  
HETATM   24  C   UNL     1      -9.918  12.417  66.590  1.00  0.00    -0.236 C  
HETATM   25  C   UNL     1     -10.225  12.774  65.144  1.00  0.00    -0.297 C  
HETATM   26  C   UNL     1      -9.657  14.933  66.743  1.00  0.00    -0.265 C  
HETATM   27  C   UNL     1      -9.340  13.335  68.844  1.00  0.00     0.240 C  
HETATM   28  C   UNL     1      -9.069  13.653  64.681  1.00  0.00     2.380 C  
HETATM   29  C   UNL     1     -11.165  11.686  67.130  1.00  0.00    -0.371 C  
HETATM   30  C   UNL     1      -8.381  12.060  69.078  1.00  0.00     0.279 C  
HETATM   31  C   UNL     1      -8.366  10.918  67.979  1.00  0.00    -0.122 C  
HETATM   32  C   UNL     1      -7.079   9.947  67.923  1.00  0.00    -0.086 C  
HETATM   33  C   UNL     1      -7.232   8.758  68.924  1.00  0.00    -0.074 C  
HETATM   34  C   UNL     1      -7.500   7.491  68.083  1.00  0.00    -0.105 C  
HETATM   35  C   UNL     1      -7.962   8.061  66.744  1.00  0.00    -0.103 C  
HETATM   36  C   UNL     1      -8.597  11.599  66.634  1.00  0.00    -0.179 C  
HETATM   37  C   UNL     1      -6.901   9.180  66.535  1.00  0.00    -0.080 C  
HETATM   38  C   UNL     1      -8.499  10.686  65.417  1.00  0.00    -0.162 C  
HETATM   39  C   UNL     1      -7.153  10.063  65.339  1.00  0.00    -0.138 C  
HETATM   40  C   UNL     1      -5.459   8.663  66.271  1.00  0.00    -0.034 C  
BRANCH  35  41
HETATM   41  O   UNL     1      -8.216   7.113  65.697  1.00  0.00    -0.125 OA 
BRANCH  41  42
HETATM   42  C   UNL     1      -8.452   5.858  66.209  1.00  0.00    -0.128 C  
HETATM   43  O   UNL     1      -7.564   5.130  66.642  1.00  0.00    -0.086 OA 
BRANCH  42  44
HETATM   44  C   UNL     1      -9.873   5.338  66.211  1.00  0.00    -0.202 C  
BRANCH  44  45
HETATM   45  C   UNL     1     -10.357   4.289  67.202  1.00  0.00     0.256 C  
BRANCH  45  46
HETATM   46  C   UNL     1      -9.393   4.055  68.358  1.00  0.00    -0.218 C  
BRANCH  46  47
HETATM   47  C   UNL     1      -9.627   4.973  69.564  1.00  0.00    -0.237 C  
BRANCH  47  48
HETATM   48  C   UNL     1      -8.338   5.478  70.213  1.00  0.00    -0.110 C  
HETATM   49  C   UNL     1      -7.949   6.854  69.688  1.00  0.00    -0.125 C  
ENDBRANCH  47  48
ENDBRANCH  46  47
ENDBRANCH  45  46
ENDBRANCH  44  45
ENDBRANCH  42  44
ENDBRANCH  41  42
ENDBRANCH  35  41
ENDBRANCH  20  22
ENDBRANCH   1  20
TORSDOF 9
ENDMDL
MODEL      187
REMARK 921   NORMALIZED FREE ENERGY PREDICTED BY IDOCK:   27.09 KCAL/MOL
REMARK 922        TOTAL FREE ENERGY PREDICTED BY IDOCK:   38.04 KCAL/MOL
REMARK 923 INTER-LIGAND FREE ENERGY PREDICTED BY IDOCK:   37.89 KCAL/MOL
REMARK 924 INTRA-LIGAND FREE ENERGY PREDICTED BY IDOCK:    0.14 KCAL/MOL
REMARK 927      BINDING AFFINITY PREDICTED BY RF-SCORE:    0.00 PKD
ROOT
HETATM    1  N   UNL     1     -10.296   9.260  66.498  1.00  0.00    -0.238 N  
HETATM    2  C   UNL     1     -10.398  10.555  66.982  1.00  0.00    -0.237 C  
HETATM    3  C   UNL     1      -8.197  11.605  62.476  1.00  0.00     0.535 A  
HETATM    4  H   UNL     1     -11.189   8.807  66.304  1.00  0.00     0.000 HD 
HETATM    5  C   UNL     1      -8.309  13.093  68.517  1.00  0.00    -0.063 A  
HETATM    6  O   UNL     1     -11.422  10.795  67.675  1.00  0.00    -0.477 OA 
HETATM    7  C   UNL     1      -6.504  12.182  69.838  1.00  0.00    -0.009 A  
HETATM    8  C   UNL     1      -9.436  11.723  66.631  1.00  0.00    -0.205 C  
HETATM    9  O   UNL     1     -10.286  12.911  66.656  1.00  0.00    -0.246 OA 
HETATM   10  C   UNL     1      -8.373  11.921  67.726  1.00  0.00    -0.149 A  
HETATM   11  C   UNL     1      -7.750  12.237  64.772  1.00  0.00     4.002 A  
HETATM   12  C   UNL     1      -8.974  11.687  65.179  1.00  0.00     0.177 A  
HETATM   13  C   UNL     1      -7.437  10.916  67.994  1.00  0.00    -0.090 A  
HETATM   14  C   UNL     1      -9.831  11.176  64.182  1.00  0.00    -0.340 A  
HETATM   15  C   UNL     1      -7.364  12.187  63.427  1.00  0.00     4.482 A  
HETATM   16  H   UNL     1      -9.698  13.625  66.441  1.00  0.00     0.000 HD 
HETATM   17  C   UNL     1      -7.388  13.216  69.563  1.00  0.00     0.456 A  
HETATM   18  C   UNL     1      -9.439  11.104  62.850  1.00  0.00    -0.382 A  
HETATM   19  C   UNL     1      -6.519  11.036  69.043  1.00  0.00    -0.056 A  
ENDROOT
BRANCH   1  20
HETATM   20  N   UNL     1      -9.154   8.462  66.227  1.00  0.00    -0.182 NA 
HETATM   21  H   UNL     1      -8.388   8.761  65.623  1.00  0.00     0.000 HD 
BRANCH  20  22
HETATM   22  C   UNL     1      -9.184   7.303  66.832  1.00  0.00    -0.152 C  
HETATM   23  C   UNL     1      -8.062   5.226  67.745  1.00  0.00    -0.099 C  
HETATM   24  C   UNL     1      -8.329   5.773  69.165  1.00  0.00    -0.105 C  
HETATM   25  C   UNL     1      -8.826   7.207  69.054  1.00  0.00    -0.131 C  
HETATM   26  C   UNL     1      -8.317   6.000  66.640  1.00  0.00    -0.111 C  
HETATM   27  C   UNL     1      -7.551   3.775  67.878  1.00  0.00    -0.066 C  
HETATM   28  C   UNL     1      -9.995   7.165  68.078  1.00  0.00    -0.184 C  
HETATM   29  C   UNL     1      -7.033   5.827  70.000  1.00  0.00    -0.065 C  
HETATM   30  C   UNL     1      -8.308   2.835  68.947  1.00  0.00    -0.087 C  
HETATM   31  C   UNL     1      -8.978   3.521  70.209  1.00  0.00    -0.173 C  
HETATM   32  C   UNL     1     -10.149   2.713  70.969  1.00  0.00     0.283 C  
HETATM   33  C   UNL     1      -9.552   1.727  72.024  1.00  0.00    -0.180 C  
HETATM   34  C   UNL     1      -9.854   2.320  73.418  1.00  0.00    -0.150 C  
HETATM   35  C   UNL     1     -10.150   3.785  73.109  1.00  0.00    -0.143 C  
HETATM   36  C   UNL     1      -9.465   4.894  69.756  1.00  0.00    -0.223 C  
HETATM   37  C   UNL     1     -11.089   3.628  71.878  1.00  0.00     1.147 C  
HETATM   38  C   UNL     1     -10.255   5.680  70.797  1.00  0.00    -0.291 C  
HETATM   39  C   UNL     1     -11.467   4.927  71.211  1.00  0.00     1.227 C  
HETATM   40  C   UNL     1     -12.474   3.001  72.197  1.00  0.00     4.572 C  
BRANCH  35  41
HETATM   41  O   UNL     1     -10.555   4.605  74.215  1.00  0.00    -0.263 OA 
BRANCH  41  42
HETATM   42  C   UNL     1     -10.790   5.899  73.814  1.00  0.00    -0.104 C  
HETATM   43  O   UNL     1      -9.916   6.633  73.361  1.00  0.00    -0.175 OA 
BRANCH  42  44
HETATM   44  C   UNL     1     -12.188   6.457  73.966  1.00  0.00     4.659 C  
BRANCH  44  45
HETATM   45  C   UNL     1     -12.457   7.936  74.199  1.00  0.00     6.635 C  
BRANCH  45  46
HETATM   46  C   UNL     1     -12.580   8.742  72.912  1.00  0.00     0.114 C  
BRANCH  46  47
HETATM   47  C   UNL     1     -11.961  10.143  72.987  1.00  0.00     4.002 C  
BRANCH  47  48
HETATM   48  C   UNL     1     -12.907  11.205  73.549  1.00  0.00     7.870 C  
HETATM   49  C   UNL     1     -12.528  12.600  73.069  1.00  0.00     3.109 C  
ENDBRANCH  47  48
ENDBRANCH  46  47
ENDBRANCH  45  46
ENDBRANCH  44  45
ENDBRANCH  42  44
ENDBRANCH  41  42
ENDBRANCH  35  41
ENDBRANCH  20  22
ENDBRANCH   1  20
TORSDOF 9
ENDMDL
MODEL      188
REMARK 921   NORMALIZED FREE ENERGY PREDICTED BY IDOCK:   27.27 KCAL/MOL
REMARK 922        TOTAL FREE ENERGY PREDICTED BY IDOCK:   38.31 KCAL/MOL
REMARK 923 INTER-LIGAND FREE ENERGY PREDICTED BY IDOCK:    5.31 KCAL/MOL
REMARK 924 INTRA-LIGAND FREE ENERGY PREDICTED BY IDOCK:   32.99 KCAL/MOL
REMARK 927      BINDING AFFINITY PREDICTED BY RF-SCORE:    0.00 PKD
ROOT
HETATM    1  N   UNL     1     -10.959   6.600  69.088  1.00  0.00    -0.358 N  
HETATM    2  C   UNL     1      -9.688   6.934  69.528  1.00  0.00    -0.158 C  
HETATM    3  C   UNL     1     -12.175  11.105  71.165  1.00  0.00    -0.387 A  
HETATM    4  H   UNL     1     -11.373   5.794  69.555  1.00  0.00     0.000 HD 
HETATM    5  C   UNL     1      -6.908   9.056  68.561  1.00  0.00    -0.064 A  
HETATM    6  O   UNL     1      -8.982   5.970  69.926  1.00  0.00    -0.138 OA 
HETATM    7  C   UNL     1      -6.739   9.389  66.175  1.00  0.00    -0.077 A  
HETATM    8  C   UNL     1      -9.143   8.381  69.682  1.00  0.00    -0.153 C  
HETATM    9  O   UNL     1      -8.228   8.303  70.819  1.00  0.00    -0.103 OA 
HETATM   10  C   UNL     1      -8.295   8.792  68.464  1.00  0.00    -0.129 A  
HETATM   11  C   UNL     1     -10.150  10.727  69.888  1.00  0.00     0.176 A  
HETATM   12  C   UNL     1     -10.199   9.357  70.184  1.00  0.00    -0.271 A  
HETATM   13  C   UNL     1      -8.879   8.892  67.197  1.00  0.00    -0.133 A  
HETATM   14  C   UNL     1     -11.214   8.907  71.054  1.00  0.00    -0.342 A  
HETATM   15  C   UNL     1     -11.139  11.592  70.373  1.00  0.00     0.525 A  
HETATM   16  H   UNL     1      -7.895   9.188  70.913  1.00  0.00     0.000 HD 
HETATM   17  C   UNL     1      -6.141   9.345  67.427  1.00  0.00    -0.050 A  
HETATM   18  C   UNL     1     -12.210   9.759  71.516  1.00  0.00    -0.493 A  
HETATM   19  C   UNL     1      -8.113   9.177  66.062  1.00  0.00    -0.110 A  
ENDROOT
BRANCH   1  20
HETATM   20  N   UNL     1     -11.779   7.196  68.094  1.00  0.00     0.294 NA 
HETATM   21  H   UNL     1     -12.696   6.834  67.830  1.00  0.00     0.000 HD 
BRANCH  20  22
HETATM   22  C   UNL     1     -11.239   8.255  67.551  1.00  0.00     0.709 C  
HETATM   23  C   UNL     1     -11.337  10.311  66.078  1.00  0.00     1.013 C  
HETATM   24  C   UNL     1     -11.290  11.166  67.364  1.00  0.00    -0.329 C  
HETATM   25  C   UNL     1     -11.459  10.252  68.569  1.00  0.00    -0.169 C  
HETATM   26  C   UNL     1     -11.469   8.947  66.152  1.00  0.00     3.875 C  
HETATM   27  C   UNL     1     -11.173  11.255  64.867  1.00  0.00    -0.107 C  
HETATM   28  C   UNL     1     -10.413   9.157  68.406  1.00  0.00    -0.241 C  
HETATM   29  C   UNL     1     -12.461  12.171  67.415  1.00  0.00     1.172 C  
HETATM   30  C   UNL     1     -10.057  12.412  64.996  1.00  0.00    -0.269 C  
HETATM   31  C   UNL     1      -9.710  12.964  66.440  1.00  0.00    -0.263 C  
HETATM   32  C   UNL     1      -8.285  13.693  66.644  1.00  0.00     0.358 C  
HETATM   33  C   UNL     1      -8.372  15.205  66.262  1.00  0.00     0.255 C  
HETATM   34  C   UNL     1      -8.315  16.008  67.581  1.00  0.00    -0.164 C  
HETATM   35  C   UNL     1      -8.684  14.964  68.632  1.00  0.00    -0.177 C  
HETATM   36  C   UNL     1      -9.871  11.796  67.408  1.00  0.00    -0.189 C  
HETATM   37  C   UNL     1      -7.802  13.770  68.163  1.00  0.00    -0.149 C  
HETATM   38  C   UNL     1      -9.465  12.085  68.849  1.00  0.00     0.132 C  
HETATM   39  C   UNL     1      -8.037  12.486  68.920  1.00  0.00     0.200 C  
HETATM   40  C   UNL     1      -6.274  13.986  68.337  1.00  0.00    -0.102 C  
BRANCH  35  41
HETATM   41  O   UNL     1      -8.639  15.390  70.002  1.00  0.00    -0.022 OA 
BRANCH  41  42
HETATM   42  C   UNL     1      -9.842  15.928  70.394  1.00  0.00     0.574 C  
HETATM   43  O   UNL     1     -10.098  17.126  70.323  1.00  0.00     0.617 OA 
BRANCH  42  44
HETATM   44  C   UNL     1     -10.891  15.001  70.970  1.00  0.00    -0.040 C  
BRANCH  44  45
HETATM   45  C   UNL     1     -12.069  14.493  70.152  1.00  0.00    -0.394 C  
BRANCH  45  46
HETATM   46  C   UNL     1     -13.408  14.630  70.866  1.00  0.00    -0.350 C  
BRANCH  46  47
HETATM   47  C   UNL     1     -13.361  14.274  72.357  1.00  0.00    -0.568 C  
BRANCH  47  48
HETATM   48  C   UNL     1     -13.774  15.423  73.279  1.00  0.00    -0.187 C  
HETATM   49  C   UNL     1     -14.327  16.602  72.488  1.00  0.00     2.100 C  
ENDBRANCH  47  48
ENDBRANCH  46  47
ENDBRANCH  45  46
ENDBRANCH  44  45
ENDBRANCH  42  44
ENDBRANCH  41  42
ENDBRANCH  35  41
ENDBRANCH  20  22
ENDBRANCH   1  20
TORSDOF 9
ENDMDL
MODEL      189
REMARK 921   NORMALIZED FREE ENERGY PREDICTED BY IDOCK:   28.08 KCAL/MOL
REMARK 922        TOTAL FREE ENERGY PREDICTED BY IDOCK:   39.54 KCAL/MOL
REMARK 923 INTER-LIGAND FREE ENERGY PREDICTED BY IDOCK:    5.96 KCAL/MOL
REMARK 924 INTRA-LIGAND FREE ENERGY PREDICTED BY IDOCK:   33.58 KCAL/MOL
REMARK 927      BINDING AFFINITY PREDICTED BY RF-SCORE:    0.00 PKD
ROOT
HETATM    1  N   UNL     1     -13.880   7.083  71.568  1.00  0.00    -0.300 N  
HETATM    2  C   UNL     1     -13.127   7.770  72.508  1.00  0.00     0.229 C  
HETATM    3  C   UNL     1     -12.378  10.889  68.512  1.00  0.00     0.470 A  
HETATM    4  H   UNL     1     -14.882   7.064  71.757  1.00  0.00     0.000 HD 
HETATM    5  C   UNL     1      -9.652   8.241  73.439  1.00  0.00    -0.052 A  
HETATM    6  O   UNL     1     -13.574   7.742  73.685  1.00  0.00     2.205 OA 
HETATM    7  C   UNL     1      -8.258   6.332  72.945  1.00  0.00    -0.115 A  
HETATM    8  C   UNL     1     -11.886   8.649  72.193  1.00  0.00    -0.377 C  
HETATM    9  O   UNL     1     -11.931   9.710  73.197  1.00  0.00     1.682 OA 
HETATM   10  C   UNL     1     -10.576   7.875  72.432  1.00  0.00    -0.359 A  
HETATM   11  C   UNL     1     -10.923   9.824  70.130  1.00  0.00    -0.339 A  
HETATM   12  C   UNL     1     -12.032   9.429  70.893  1.00  0.00    -0.351 A  
HETATM   13  C   UNL     1     -10.270   6.748  71.661  1.00  0.00    -0.208 A  
HETATM   14  C   UNL     1     -13.307   9.862  70.473  1.00  0.00     0.055 A  
HETATM   15  C   UNL     1     -11.100  10.544  68.943  1.00  0.00    -0.312 A  
HETATM   16  H   UNL     1     -11.172  10.247  73.005  1.00  0.00     0.000 HD 
HETATM   17  C   UNL     1      -8.510   7.473  73.694  1.00  0.00    -0.229 A  
HETATM   18  C   UNL     1     -13.487  10.556  69.282  1.00  0.00     2.846 A  
HETATM   19  C   UNL     1      -9.131   5.977  71.917  1.00  0.00    -0.143 A  
ENDROOT
BRANCH   1  20
HETATM   20  N   UNL     1     -13.487   6.402  70.386  1.00  0.00     1.713 NA 
HETATM   21  H   UNL     1     -14.140   5.911  69.775  1.00  0.00     0.000 HD 
BRANCH  20  22
HETATM   22  C   UNL     1     -12.201   6.470  70.159  1.00  0.00     0.232 C  
HETATM   23  C   UNL     1     -10.159   6.073  68.718  1.00  0.00    -0.210 C  
HETATM   24  C   UNL     1     -10.100   7.598  68.478  1.00  0.00    -0.205 C  
HETATM   25  C   UNL     1     -11.370   8.232  69.028  1.00  0.00     0.563 C  
HETATM   26  C   UNL     1     -11.224   5.511  69.377  1.00  0.00     0.365 C  
HETATM   27  C   UNL     1      -8.869   5.447  68.146  1.00  0.00    -0.105 C  
HETATM   28  C   UNL     1     -11.485   7.743  70.467  1.00  0.00    -0.219 C  
HETATM   29  C   UNL     1     -10.069   7.929  66.971  1.00  0.00    -0.347 C  
HETATM   30  C   UNL     1      -7.491   6.231  68.439  1.00  0.00    -0.088 C  
HETATM   31  C   UNL     1      -7.548   7.803  68.636  1.00  0.00    -0.105 C  
HETATM   32  C   UNL     1      -6.332   8.505  69.431  1.00  0.00    -0.037 C  
HETATM   33  C   UNL     1      -5.148   8.831  68.465  1.00  0.00    -0.030 C  
HETATM   34  C   UNL     1      -5.136  10.363  68.267  1.00  0.00    -0.034 C  
HETATM   35  C   UNL     1      -6.539  10.775  68.702  1.00  0.00    -0.056 C  
HETATM   36  C   UNL     1      -8.887   8.115  69.298  1.00  0.00    -0.144 C  
HETATM   37  C   UNL     1      -6.680   9.949  70.014  1.00  0.00    -0.100 C  
HETATM   38  C   UNL     1      -9.095   9.573  69.689  1.00  0.00    -0.207 C  
HETATM   39  C   UNL     1      -8.048  10.012  70.647  1.00  0.00     0.463 C  
HETATM   40  C   UNL     1      -5.754  10.410  71.172  1.00  0.00    -0.017 C  
BRANCH  35  41
HETATM   41  O   UNL     1      -6.821  12.182  68.712  1.00  0.00    -0.083 OA 
BRANCH  41  42
HETATM   42  C   UNL     1      -8.011  12.454  68.079  1.00  0.00    -0.155 C  
HETATM   43  O   UNL     1      -8.105  12.632  66.868  1.00  0.00    -0.123 OA 
BRANCH  42  44
HETATM   44  C   UNL     1      -9.263  12.569  68.922  1.00  0.00     0.287 C  
BRANCH  44  45
HETATM   45  C   UNL     1     -10.303  13.657  68.696  1.00  0.00    -0.223 C  
BRANCH  45  46
HETATM   46  C   UNL     1      -9.729  14.928  68.083  1.00  0.00    -0.214 C  
BRANCH  46  47
HETATM   47  C   UNL     1     -10.083  15.126  66.604  1.00  0.00    -0.271 C  
BRANCH  47  48
HETATM   48  C   UNL     1      -8.863  15.248  65.690  1.00  0.00     0.662 C  
HETATM   49  C   UNL     1      -7.749  16.053  66.348  1.00  0.00    -0.049 C  
ENDBRANCH  47  48
ENDBRANCH  46  47
ENDBRANCH  45  46
ENDBRANCH  44  45
ENDBRANCH  42  44
ENDBRANCH  41  42
ENDBRANCH  35  41
ENDBRANCH  20  22
ENDBRANCH   1  20
TORSDOF 9
ENDMDL
MODEL      190
REMARK 921   NORMALIZED FREE ENERGY PREDICTED BY IDOCK:   28.64 KCAL/MOL
REMARK 922        TOTAL FREE ENERGY PREDICTED BY IDOCK:   40.40 KCAL/MOL
REMARK 923 INTER-LIGAND FREE ENERGY PREDICTED BY IDOCK:   22.63 KCAL/MOL
REMARK 924 INTRA-LIGAND FREE ENERGY PREDICTED BY IDOCK:   17.77 KCAL/MOL
REMARK 927      BINDING AFFINITY PREDICTED BY RF-SCORE:    0.00 PKD
ROOT
HETATM    1  N   UNL     1      -7.916   5.075  71.409  1.00  0.00    -0.108 N  
HETATM    2  C   UNL     1      -8.219   5.920  72.465  1.00  0.00    -0.116 C  
HETATM    3  C   UNL     1     -12.417   6.711  69.634  1.00  0.00     1.397 A  
HETATM    4  H   UNL     1      -7.892   4.084  71.649  1.00  0.00     0.000 HD 
HETATM    5  C   UNL     1      -8.172   9.460  73.259  1.00  0.00     2.316 A  
HETATM    6  O   UNL     1      -7.837   5.528  73.599  1.00  0.00    -0.104 OA 
HETATM    7  C   UNL     1      -6.451  10.684  72.088  1.00  0.00     2.299 A  
HETATM    8  C   UNL     1      -9.083   7.207  72.364  1.00  0.00    -0.131 C  
HETATM    9  O   UNL     1      -9.763   7.287  73.655  1.00  0.00    -0.235 OA 
HETATM   10  C   UNL     1      -8.203   8.465  72.253  1.00  0.00    -0.202 A  
HETATM   11  C   UNL     1     -10.806   8.157  70.725  1.00  0.00    -0.247 A  
HETATM   12  C   UNL     1     -10.249   7.058  71.395  1.00  0.00    -0.208 A  
HETATM   13  C   UNL     1      -7.371   8.651  71.143  1.00  0.00    -0.092 A  
HETATM   14  C   UNL     1     -10.864   5.801  71.223  1.00  0.00    -0.313 A  
HETATM   15  C   UNL     1     -11.881   7.978  69.844  1.00  0.00     0.526 A  
HETATM   16  H   UNL     1     -10.291   8.075  73.594  1.00  0.00     0.000 HD 
HETATM   17  C   UNL     1      -7.301  10.552  73.177  1.00  0.00     6.495 A  
HETATM   18  C   UNL     1     -11.914   5.617  70.332  1.00  0.00     1.563 A  
HETATM   19  C   UNL     1      -6.497   9.740  71.062  1.00  0.00    -0.017 A  
ENDROOT
BRANCH   1  20
HETATM   20  N   UNL     1      -7.633   5.361  70.047  1.00  0.00    -0.068 NA 
HETATM   21  H   UNL     1      -7.617   4.651  69.314  1.00  0.00     0.000 HD 
BRANCH  20  22
HETATM   22  C   UNL     1      -7.397   6.628  69.828  1.00  0.00    -0.086 C  
HETATM   23  C   UNL     1      -6.476   8.522  68.425  1.00  0.00    -0.055 C  
HETATM   24  C   UNL     1      -7.934   8.924  68.109  1.00  0.00    -0.102 C  
HETATM   25  C   UNL     1      -8.866   7.833  68.617  1.00  0.00    -0.131 C  
HETATM   26  C   UNL     1      -6.204   7.359  69.102  1.00  0.00    -0.031 C  
HETATM   27  C   UNL     1      -5.546   9.635  67.895  1.00  0.00    -0.040 C  
HETATM   28  C   UNL     1      -8.489   7.615  70.077  1.00  0.00    -0.136 C  
HETATM   29  C   UNL     1      -8.174   9.024  66.588  1.00  0.00    -0.118 C  
HETATM   30  C   UNL     1      -6.013  11.156  68.160  1.00  0.00    -0.045 C  
HETATM   31  C   UNL     1      -7.564  11.457  68.278  1.00  0.00    -0.113 C  
HETATM   32  C   UNL     1      -8.012  12.803  69.047  1.00  0.00     0.308 C  
HETATM   33  C   UNL     1      -8.013  14.027  68.075  1.00  0.00    -0.152 C  
HETATM   34  C   UNL     1      -9.490  14.385  67.802  1.00  0.00    -0.211 C  
HETATM   35  C   UNL     1     -10.230  13.112  68.205  1.00  0.00    -0.239 C  
HETATM   36  C   UNL     1      -8.204  10.226  68.912  1.00  0.00    -0.130 C  
HETATM   37  C   UNL     1      -9.524  12.792  69.554  1.00  0.00     1.476 C  
HETATM   38  C   UNL     1      -9.689  10.355  69.229  1.00  0.00    -0.231 C  
HETATM   39  C   UNL     1      -9.928  11.477  70.172  1.00  0.00     1.902 C  
HETATM   40  C   UNL     1      -9.822  13.803  70.696  1.00  0.00     3.812 C  
BRANCH  35  41
HETATM   41  O   UNL     1     -11.664  13.157  68.141  1.00  0.00    -0.315 OA 
BRANCH  41  42
HETATM   42  C   UNL     1     -12.152  12.204  67.278  1.00  0.00     0.116 C  
HETATM   43  O   UNL     1     -12.454  11.067  67.631  1.00  0.00     0.506 OA 
BRANCH  42  44
HETATM   44  C   UNL     1     -12.296  12.564  65.816  1.00  0.00    -0.227 C  
BRANCH  44  45
HETATM   45  C   UNL     1     -13.643  12.592  65.110  1.00  0.00     1.994 C  
BRANCH  45  46
HETATM   46  C   UNL     1     -13.573  13.134  63.688  1.00  0.00     2.679 C  
BRANCH  46  47
HETATM   47  C   UNL     1     -12.165  13.553  63.246  1.00  0.00    -0.214 C  
BRANCH  47  48
HETATM   48  C   UNL     1     -11.372  14.285  64.330  1.00  0.00    -0.199 C  
HETATM   49  C   UNL     1     -11.802  15.741  64.451  1.00  0.00    -0.148 C  
ENDBRANCH  47  48
ENDBRANCH  46  47
ENDBRANCH  45  46
ENDBRANCH  44  45
ENDBRANCH  42  44
ENDBRANCH  41  42
ENDBRANCH  35  41
ENDBRANCH  20  22
ENDBRANCH   1  20
TORSDOF 9
ENDMDL
MODEL      191
REMARK 921   NORMALIZED FREE ENERGY PREDICTED BY IDOCK:   33.47 KCAL/MOL
REMARK 922        TOTAL FREE ENERGY PREDICTED BY IDOCK:   47.77 KCAL/MOL
REMARK 923 INTER-LIGAND FREE ENERGY PREDICTED BY IDOCK:   36.28 KCAL/MOL
REMARK 924 INTRA-LIGAND FREE ENERGY PREDICTED BY IDOCK:   11.49 KCAL/MOL
REMARK 927      BINDING AFFINITY PREDICTED BY RF-SCORE:    0.00 PKD
ROOT
HETATM    1  N   UNL     1      -8.637  14.999  69.085  1.00  0.00    -0.269 N  
HETATM    2  C   UNL     1      -8.642  14.222  67.936  1.00  0.00    -0.171 C  
HETATM    3  C   UNL     1     -10.532  18.545  65.935  1.00  0.00    -0.379 A  
HETATM    4  H   UNL     1      -7.709  15.211  69.451  1.00  0.00     0.000 HD 
HETATM    5  C   UNL     1     -10.979  12.338  65.898  1.00  0.00    -0.338 A  
HETATM    6  O   UNL     1      -7.691  13.404  67.831  1.00  0.00    -0.122 OA 
HETATM    7  C   UNL     1     -12.831  11.429  67.152  1.00  0.00     4.607 A  
HETATM    8  C   UNL     1      -9.634  14.380  66.751  1.00  0.00    -0.268 C  
HETATM    9  O   UNL     1      -8.853  14.007  65.575  1.00  0.00     0.245 OA 
HETATM   10  C   UNL     1     -10.790  13.368  66.850  1.00  0.00    -0.282 A  
HETATM   11  C   UNL     1     -11.192  16.214  65.873  1.00  0.00     0.176 A  
HETATM   12  C   UNL     1      -9.977  15.836  66.462  1.00  0.00    -0.283 A  
HETATM   13  C   UNL     1     -11.689  13.424  67.920  1.00  0.00    -0.396 A  
HETATM   14  C   UNL     1      -9.018  16.844  66.697  1.00  0.00    -0.279 A  
HETATM   15  C   UNL     1     -11.467  17.563  65.619  1.00  0.00     1.436 A  
HETATM   16  H   UNL     1      -9.459  14.103  64.850  1.00  0.00     0.000 HD 
HETATM   17  C   UNL     1     -11.985  11.378  66.053  1.00  0.00     0.863 A  
HETATM   18  C   UNL     1      -9.298  18.186  66.468  1.00  0.00    -0.301 A  
HETATM   19  C   UNL     1     -12.693  12.462  68.079  1.00  0.00     1.846 A  
ENDROOT
BRANCH   1  20
HETATM   20  N   UNL     1      -9.710  15.547  69.835  1.00  0.00    -0.379 NA 
HETATM   21  H   UNL     1     -10.017  16.516  69.753  1.00  0.00     0.000 HD 
BRANCH  20  22
HETATM   22  C   UNL     1     -10.265  14.682  70.643  1.00  0.00     0.923 C  
HETATM   23  C   UNL     1     -12.261  13.731  71.876  1.00  0.00     0.069 C  
HETATM   24  C   UNL     1     -12.216  12.529  70.907  1.00  0.00    -0.277 C  
HETATM   25  C   UNL     1     -11.229  12.833  69.790  1.00  0.00     0.010 C  
HETATM   26  C   UNL     1     -11.452  14.822  71.671  1.00  0.00    -0.167 C  
HETATM   27  C   UNL     1     -13.273  13.408  72.996  1.00  0.00     0.339 C  
HETATM   28  C   UNL     1      -9.933  13.235  70.483  1.00  0.00     4.265 C  
HETATM   29  C   UNL     1     -13.583  12.303  70.227  1.00  0.00     2.311 C  
HETATM   30  C   UNL     1     -13.228  11.916  73.605  1.00  0.00     7.874 C  
HETATM   31  C   UNL     1     -12.731  10.737  72.670  1.00  0.00     1.528 C  
HETATM   32  C   UNL     1     -12.184   9.395  73.379  1.00  0.00     3.421 C  
HETATM   33  C   UNL     1     -13.360   8.420  73.710  1.00  0.00     3.591 C  
HETATM   34  C   UNL     1     -13.261   7.241  72.719  1.00  0.00     0.970 C  
HETATM   35  C   UNL     1     -12.387   7.805  71.602  1.00  0.00    -0.321 C  
HETATM   36  C   UNL     1     -11.680  11.330  71.736  1.00  0.00     1.675 C  
HETATM   37  C   UNL     1     -11.267   8.488  72.440  1.00  0.00    -0.399 C  
HETATM   38  C   UNL     1     -10.979  10.328  70.826  1.00  0.00    -0.213 C  
HETATM   39  C   UNL     1     -10.282   9.291  71.628  1.00  0.00    -0.271 C  
HETATM   40  C   UNL     1     -10.343   7.503  73.209  1.00  0.00    -0.412 C  
BRANCH  35  41
HETATM   41  O   UNL     1     -12.036   6.902  70.543  1.00  0.00    -0.355 OA 
BRANCH  41  42
HETATM   42  C   UNL     1     -10.792   7.194  70.033  1.00  0.00    -0.254 C  
HETATM   43  O   UNL     1      -9.824   7.470  70.736  1.00  0.00    -0.179 OA 
BRANCH  42  44
HETATM   44  C   UNL     1     -10.616   7.205  68.530  1.00  0.00    -0.219 C  
BRANCH  44  45
HETATM   45  C   UNL     1      -9.315   7.629  67.864  1.00  0.00    -0.146 C  
BRANCH  45  46
HETATM   46  C   UNL     1      -9.490   8.757  66.854  1.00  0.00    -0.231 C  
BRANCH  46  47
HETATM   47  C   UNL     1      -8.547   8.670  65.648  1.00  0.00    -0.191 C  
BRANCH  47  48
HETATM   48  C   UNL     1      -9.271   8.513  64.310  1.00  0.00     0.826 C  
HETATM   49  C   UNL     1     -10.750   8.859  64.431  1.00  0.00     6.404 C  
ENDBRANCH  47  48
ENDBRANCH  46  47
ENDBRANCH  45  46
ENDBRANCH  44  45
ENDBRANCH  42  44
ENDBRANCH  41  42
ENDBRANCH  35  41
ENDBRANCH  20  22
ENDBRANCH   1  20
TORSDOF 9
ENDMDL
MODEL      192
REMARK 921   NORMALIZED FREE ENERGY PREDICTED BY IDOCK:   33.99 KCAL/MOL
REMARK 922        TOTAL FREE ENERGY PREDICTED BY IDOCK:   48.56 KCAL/MOL
REMARK 923 INTER-LIGAND FREE ENERGY PREDICTED BY IDOCK:    2.49 KCAL/MOL
REMARK 924 INTRA-LIGAND FREE ENERGY PREDICTED BY IDOCK:   46.08 KCAL/MOL
REMARK 927      BINDING AFFINITY PREDICTED BY RF-SCORE:    0.00 PKD
ROOT
HETATM    1  N   UNL     1      -6.637   5.475  71.837  1.00  0.00    -0.054 N  
HETATM    2  C   UNL     1      -6.408   6.390  72.852  1.00  0.00    -0.059 C  
HETATM    3  C   UNL     1     -11.472   7.026  72.393  1.00  0.00    -0.300 A  
HETATM    4  H   UNL     1      -6.474   4.502  72.095  1.00  0.00     0.000 HD 
HETATM    5  C   UNL     1      -6.068   9.974  73.303  1.00  0.00     1.059 A  
HETATM    6  O   UNL     1      -5.511   6.071  73.676  1.00  0.00    -0.037 OA 
HETATM    7  C   UNL     1      -5.171  11.105  71.367  1.00  0.00    -0.027 A  
HETATM    8  C   UNL     1      -7.243   7.675  73.108  1.00  0.00    -0.085 C  
HETATM    9  O   UNL     1      -7.208   7.845  74.559  1.00  0.00    -0.130 OA 
HETATM   10  C   UNL     1      -6.561   8.916  72.504  1.00  0.00     0.063 A  
HETATM   11  C   UNL     1      -9.571   8.528  72.466  1.00  0.00    -0.324 A  
HETATM   12  C   UNL     1      -8.730   7.472  72.844  1.00  0.00    -0.181 A  
HETATM   13  C   UNL     1      -6.382   9.021  71.120  1.00  0.00    -0.065 A  
HETATM   14  C   UNL     1      -9.318   6.210  73.073  1.00  0.00    -0.139 A  
HETATM   15  C   UNL     1     -10.934   8.300  72.236  1.00  0.00    -0.418 A  
HETATM   16  H   UNL     1      -7.718   8.631  74.715  1.00  0.00     0.000 HD 
HETATM   17  C   UNL     1      -5.376  11.052  72.739  1.00  0.00     0.669 A  
HETATM   18  C   UNL     1     -10.665   5.977  72.821  1.00  0.00    -0.269 A  
HETATM   19  C   UNL     1      -5.687  10.096  70.555  1.00  0.00    -0.079 A  
ENDROOT
BRANCH   1  20
HETATM   20  N   UNL     1      -7.064   5.668  70.496  1.00  0.00    -0.064 NA 
HETATM   21  H   UNL     1      -6.722   5.113  69.712  1.00  0.00     0.000 HD 
BRANCH  20  22
HETATM   22  C   UNL     1      -7.938   6.632  70.371  1.00  0.00    -0.115 C  
HETATM   23  C   UNL     1      -8.895   8.883  71.018  1.00  0.00    -0.285 C  
HETATM   24  C   UNL     1      -8.361   9.435  69.678  1.00  0.00    -0.147 C  
HETATM   25  C   UNL     1      -7.466   8.385  69.036  1.00  0.00    -0.093 C  
HETATM   26  C   UNL     1      -8.573   7.613  71.428  1.00  0.00    -0.127 C  
HETATM   27  C   UNL     1      -9.793   9.965  71.658  1.00  0.00     1.617 C  
HETATM   28  C   UNL     1      -8.291   7.105  68.999  1.00  0.00    -0.126 C  
HETATM   29  C   UNL     1      -7.478  10.682  69.894  1.00  0.00    -0.024 C  
HETATM   30  C   UNL     1     -10.806  10.741  70.673  1.00  0.00     0.409 C  
HETATM   31  C   UNL     1     -10.402  10.897  69.149  1.00  0.00    -0.228 C  
HETATM   32  C   UNL     1     -11.581  11.172  68.083  1.00  0.00    -0.350 C  
HETATM   33  C   UNL     1     -11.901  12.699  67.987  1.00  0.00    -0.376 C  
HETATM   34  C   UNL     1     -11.351  13.191  66.630  1.00  0.00    -0.361 C  
HETATM   35  C   UNL     1     -10.353  12.100  66.250  1.00  0.00    -0.221 C  
HETATM   36  C   UNL     1      -9.607   9.649  68.775  1.00  0.00    -0.153 C  
HETATM   37  C   UNL     1     -11.191  10.829  66.574  1.00  0.00     0.061 C  
HETATM   38  C   UNL     1      -9.220   9.540  67.305  1.00  0.00    -0.154 C  
HETATM   39  C   UNL     1     -10.431   9.532  66.445  1.00  0.00    -0.168 C  
HETATM   40  C   UNL     1     -12.407  10.598  65.637  1.00  0.00     4.584 C  
BRANCH  35  41
HETATM   41  O   UNL     1      -9.719  12.229  64.969  1.00  0.00    -0.185 OA 
BRANCH  41  42
HETATM   42  C   UNL     1     -10.503  12.945  64.096  1.00  0.00    -0.406 C  
HETATM   43  O   UNL     1     -11.339  12.427  63.361  1.00  0.00    -0.452 OA 
BRANCH  42  44
HETATM   44  C   UNL     1     -10.306  14.444  64.016  1.00  0.00     1.455 C  
BRANCH  44  45
HETATM   45  C   UNL     1     -10.064  15.303  65.249  1.00  0.00    -0.362 C  
BRANCH  45  46
HETATM   46  C   UNL     1     -11.009  16.493  65.355  1.00  0.00    -0.137 C  
BRANCH  46  47
HETATM   47  C   UNL     1     -10.330  17.794  65.802  1.00  0.00    -0.190 C  
BRANCH  47  48
HETATM   48  C   UNL     1      -8.934  17.589  66.392  1.00  0.00    -0.264 C  
HETATM   49  C   UNL     1      -8.076  18.839  66.245  1.00  0.00    -0.270 C  
ENDBRANCH  47  48
ENDBRANCH  46  47
ENDBRANCH  45  46
ENDBRANCH  44  45
ENDBRANCH  42  44
ENDBRANCH  41  42
ENDBRANCH  35  41
ENDBRANCH  20  22
ENDBRANCH   1  20
TORSDOF 9
ENDMDL
MODEL      193
REMARK 921   NORMALIZED FREE ENERGY PREDICTED BY IDOCK:   34.29 KCAL/MOL
REMARK 922        TOTAL FREE ENERGY PREDICTED BY IDOCK:   49.01 KCAL/MOL
REMARK 923 INTER-LIGAND FREE ENERGY PREDICTED BY IDOCK:   28.11 KCAL/MOL
REMARK 924 INTRA-LIGAND FREE ENERGY PREDICTED BY IDOCK:   20.90 KCAL/MOL
REMARK 927      BINDING AFFINITY PREDICTED BY RF-SCORE:    0.00 PKD
ROOT
HETATM    1  N   UNL     1      -7.068  12.995  66.911  1.00  0.00    -0.251 N  
HETATM    2  C   UNL     1      -6.757  13.289  68.230  1.00  0.00    -0.103 C  
HETATM    3  C   UNL     1      -9.809   9.256  69.055  1.00  0.00    -0.168 A  
HETATM    4  H   UNL     1      -6.281  12.672  66.350  1.00  0.00     0.000 HD 
HETATM    5  C   UNL     1      -8.243  14.916  71.112  1.00  0.00     3.052 A  
HETATM    6  O   UNL     1      -5.590  13.716  68.428  1.00  0.00    -0.082 OA 
HETATM    7  C   UNL     1      -9.778  16.687  70.530  1.00  0.00     1.962 A  
HETATM    8  C   UNL     1      -7.676  13.012  69.451  1.00  0.00     0.621 C  
HETATM    9  O   UNL     1      -6.748  12.715  70.541  1.00  0.00    -0.230 OA 
HETATM   10  C   UNL     1      -8.451  14.275  69.868  1.00  0.00     1.023 A  
HETATM   11  C   UNL     1      -9.684  11.503  69.954  1.00  0.00     1.477 A  
HETATM   12  C   UNL     1      -8.449  11.705  69.322  1.00  0.00     0.441 A  
HETATM   13  C   UNL     1      -9.382  14.852  68.997  1.00  0.00    -0.179 A  
HETATM   14  C   UNL     1      -7.878  10.618  68.628  1.00  0.00    -0.121 A  
HETATM   15  C   UNL     1     -10.360  10.286  69.813  1.00  0.00    -0.287 A  
HETATM   16  H   UNL     1      -7.309  12.546  71.288  1.00  0.00     0.000 HD 
HETATM   17  C   UNL     1      -8.897  16.112  71.434  1.00  0.00     5.835 A  
HETATM   18  C   UNL     1      -8.559   9.417  68.467  1.00  0.00    -0.123 A  
HETATM   19  C   UNL     1     -10.033  16.049  69.316  1.00  0.00    -0.252 A  
ENDROOT
BRANCH   1  20
HETATM   20  N   UNL     1      -8.303  13.068  66.214  1.00  0.00    -0.073 NA 
HETATM   21  H   UNL     1      -8.786  13.945  66.015  1.00  0.00     0.000 HD 
BRANCH  20  22
HETATM   22  C   UNL     1      -8.759  11.897  65.855  1.00  0.00     0.134 C  
HETATM   23  C   UNL     1      -8.745   9.851  64.365  1.00  0.00    -0.223 C  
HETATM   24  C   UNL     1      -8.155   9.059  65.552  1.00  0.00    -0.110 C  
HETATM   25  C   UNL     1      -7.775  10.035  66.655  1.00  0.00    -0.104 C  
HETATM   26  C   UNL     1      -8.891  11.215  64.440  1.00  0.00     0.095 C  
HETATM   27  C   UNL     1      -9.116   8.846  63.253  1.00  0.00     0.410 C  
HETATM   28  C   UNL     1      -9.021  10.874  66.911  1.00  0.00    -0.158 C  
HETATM   29  C   UNL     1      -6.854   8.330  65.151  1.00  0.00    -0.069 C  
HETATM   30  C   UNL     1      -9.841   7.484  63.720  1.00  0.00     5.040 C  
HETATM   31  C   UNL     1      -9.534   6.929  65.172  1.00  0.00     1.089 C  
HETATM   32  C   UNL     1     -10.607   5.922  65.834  1.00  0.00     0.416 C  
HETATM   33  C   UNL     1     -10.338   4.448  65.389  1.00  0.00    -0.238 C  
HETATM   34  C   UNL     1      -9.757   3.707  66.613  1.00  0.00    -0.098 C  
HETATM   35  C   UNL     1      -9.276   4.847  67.507  1.00  0.00    -0.123 C  
HETATM   36  C   UNL     1      -9.299   8.142  66.066  1.00  0.00    -0.184 C  
HETATM   37  C   UNL     1     -10.500   5.805  67.422  1.00  0.00    -0.318 C  
HETATM   38  C   UNL     1      -9.104   7.832  67.546  1.00  0.00    -0.136 C  
HETATM   39  C   UNL     1     -10.295   7.138  68.097  1.00  0.00    -0.234 C  
HETATM   40  C   UNL     1     -11.786   5.274  68.112  1.00  0.00     4.492 C  
BRANCH  35  41
HETATM   41  O   UNL     1      -8.747   4.477  68.789  1.00  0.00    -0.090 OA 
BRANCH  41  42
HETATM   42  C   UNL     1      -8.068   5.524  69.366  1.00  0.00    -0.095 C  
HETATM   43  O   UNL     1      -7.325   6.273  68.738  1.00  0.00    -0.082 OA 
BRANCH  42  44
HETATM   44  C   UNL     1      -8.219   5.746  70.856  1.00  0.00    -0.121 C  
BRANCH  44  45
HETATM   45  C   UNL     1      -7.059   5.590  71.827  1.00  0.00    -0.077 C  
BRANCH  45  46
HETATM   46  C   UNL     1      -6.463   6.917  72.280  1.00  0.00    -0.057 C  
BRANCH  46  47
HETATM   47  C   UNL     1      -7.492   8.042  72.443  1.00  0.00    -0.132 C  
BRANCH  47  48
HETATM   48  C   UNL     1      -7.157   9.304  71.647  1.00  0.00     0.159 C  
HETATM   49  C   UNL     1      -7.768  10.546  72.285  1.00  0.00     6.384 C  
ENDBRANCH  47  48
ENDBRANCH  46  47
ENDBRANCH  45  46
ENDBRANCH  44  45
ENDBRANCH  42  44
ENDBRANCH  41  42
ENDBRANCH  35  41
ENDBRANCH  20  22
ENDBRANCH   1  20
TORSDOF 9
ENDMDL
MODEL      194
REMARK 921   NORMALIZED FREE ENERGY PREDICTED BY IDOCK:   34.37 KCAL/MOL
REMARK 922        TOTAL FREE ENERGY PREDICTED BY IDOCK:   49.15 KCAL/MOL
REMARK 923 INTER-LIGAND FREE ENERGY PREDICTED BY IDOCK:   17.95 KCAL/MOL
REMARK 924 INTRA-LIGAND FREE ENERGY PREDICTED BY IDOCK:   31.20 KCAL/MOL
REMARK 927      BINDING AFFINITY PREDICTED BY RF-SCORE:    0.00 PKD
ROOT
HETATM    1  N   UNL     1     -10.916   9.964  71.040  1.00  0.00    -0.333 N  
HETATM    2  C   UNL     1     -11.864   9.611  70.091  1.00  0.00    -0.031 C  
HETATM    3  C   UNL     1      -8.794   5.531  69.651  1.00  0.00    -0.120 A  
HETATM    4  H   UNL     1     -11.262   9.985  71.999  1.00  0.00     0.000 HD 
HETATM    5  C   UNL     1     -12.280   9.600  66.487  1.00  0.00     7.044 A  
HETATM    6  O   UNL     1     -13.047   9.947  70.357  1.00  0.00    -0.090 OA 
HETATM    7  C   UNL     1     -11.057  11.360  65.374  1.00  0.00    -0.196 A  
HETATM    8  C   UNL     1     -11.591   8.743  68.832  1.00  0.00     1.054 C  
HETATM    9  O   UNL     1     -12.837   8.009  68.623  1.00  0.00     4.922 OA 
HETATM   10  C   UNL     1     -11.384   9.619  67.582  1.00  0.00     0.371 A  
HETATM   11  C   UNL     1      -9.791   7.084  68.080  1.00  0.00    -0.156 A  
HETATM   12  C   UNL     1     -10.596   7.620  69.095  1.00  0.00    -0.195 A  
HETATM   13  C   UNL     1     -10.296  10.495  67.506  1.00  0.00    -0.265 A  
HETATM   14  C   UNL     1     -10.534   7.022  70.371  1.00  0.00    -0.225 A  
HETATM   15  C   UNL     1      -8.891   6.049  68.363  1.00  0.00    -0.112 A  
HETATM   16  H   UNL     1     -12.671   7.478  67.853  1.00  0.00     0.000 HD 
HETATM   17  C   UNL     1     -12.118  10.467  65.399  1.00  0.00     4.434 A  
HETATM   18  C   UNL     1      -9.624   6.011  70.659  1.00  0.00    -0.201 A  
HETATM   19  C   UNL     1     -10.136  11.365  66.421  1.00  0.00    -0.255 A  
ENDROOT
BRANCH   1  20
HETATM   20  N   UNL     1      -9.545  10.302  70.896  1.00  0.00     0.173 NA 
HETATM   21  H   UNL     1      -8.920  10.468  71.685  1.00  0.00     0.000 HD 
BRANCH  20  22
HETATM   22  C   UNL     1      -9.164  10.378  69.648  1.00  0.00    -0.056 C  
HETATM   23  C   UNL     1      -7.473  10.956  67.855  1.00  0.00    -0.090 C  
HETATM   24  C   UNL     1      -7.268   9.440  67.638  1.00  0.00    -0.083 C  
HETATM   25  C   UNL     1      -7.986   8.683  68.746  1.00  0.00    -0.114 C  
HETATM   26  C   UNL     1      -8.243  11.413  68.896  1.00  0.00    -0.054 C  
HETATM   27  C   UNL     1      -6.731  11.707  66.729  1.00  0.00    -0.087 C  
HETATM   28  C   UNL     1      -9.414   9.212  68.749  1.00  0.00    -0.147 C  
HETATM   29  C   UNL     1      -5.777   9.053  67.746  1.00  0.00    -0.039 C  
HETATM   30  C   UNL     1      -6.873  11.104  65.240  1.00  0.00     0.547 C  
HETATM   31  C   UNL     1      -7.117   9.547  65.079  1.00  0.00    -0.109 C  
HETATM   32  C   UNL     1      -7.775   9.027  63.701  1.00  0.00    -0.122 C  
HETATM   33  C   UNL     1      -6.679   8.805  62.609  1.00  0.00    -0.094 C  
HETATM   34  C   UNL     1      -6.522   7.279  62.432  1.00  0.00    -0.061 C  
HETATM   35  C   UNL     1      -7.136   6.721  63.713  1.00  0.00    -0.060 C  
HETATM   36  C   UNL     1      -7.946   9.105  66.282  1.00  0.00    -0.103 C  
HETATM   37  C   UNL     1      -8.433   7.577  63.797  1.00  0.00     0.294 C  
HETATM   38  C   UNL     1      -8.398   7.649  66.261  1.00  0.00    -0.133 C  
HETATM   39  C   UNL     1      -9.231   7.377  65.062  1.00  0.00     0.824 C  
HETATM   40  C   UNL     1      -9.481   7.277  62.690  1.00  0.00     2.384 C  
BRANCH  35  41
HETATM   41  O   UNL     1      -7.217   5.291  63.816  1.00  0.00    -0.047 OA 
BRANCH  41  42
HETATM   42  C   UNL     1      -8.010   4.914  64.874  1.00  0.00    -0.096 C  
HETATM   43  O   UNL     1      -8.856   5.648  65.377  1.00  0.00    -0.154 OA 
BRANCH  42  44
HETATM   44  C   UNL     1      -7.809   3.537  65.468  1.00  0.00    -0.089 C  
BRANCH  44  45
HETATM   45  C   UNL     1      -6.891   3.285  66.655  1.00  0.00    -0.053 C  
BRANCH  45  46
HETATM   46  C   UNL     1      -7.087   4.277  67.795  1.00  0.00    -0.064 C  
BRANCH  46  47
HETATM   47  C   UNL     1      -5.910   5.240  67.996  1.00  0.00    -0.017 C  
BRANCH  47  48
HETATM   48  C   UNL     1      -5.861   5.872  69.388  1.00  0.00    -0.020 C  
HETATM   49  C   UNL     1      -6.432   4.937  70.446  1.00  0.00    -0.031 C  
ENDBRANCH  47  48
ENDBRANCH  46  47
ENDBRANCH  45  46
ENDBRANCH  44  45
ENDBRANCH  42  44
ENDBRANCH  41  42
ENDBRANCH  35  41
ENDBRANCH  20  22
ENDBRANCH   1  20
TORSDOF 9
ENDMDL
MODEL      195
REMARK 921   NORMALIZED FREE ENERGY PREDICTED BY IDOCK:   38.84 KCAL/MOL
REMARK 922        TOTAL FREE ENERGY PREDICTED BY IDOCK:   55.97 KCAL/MOL
REMARK 923 INTER-LIGAND FREE ENERGY PREDICTED BY IDOCK:   25.79 KCAL/MOL
REMARK 924 INTRA-LIGAND FREE ENERGY PREDICTED BY IDOCK:   30.18 KCAL/MOL
REMARK 927      BINDING AFFINITY PREDICTED BY RF-SCORE:    0.00 PKD
ROOT
HETATM    1  N   UNL     1      -9.950   4.190  64.221  1.00  0.00    -0.292 N  
HETATM    2  C   UNL     1      -8.987   4.144  65.217  1.00  0.00    -0.134 C  
HETATM    3  C   UNL     1     -12.279   7.345  67.492  1.00  0.00     4.566 A  
HETATM    4  H   UNL     1     -10.440   3.310  64.062  1.00  0.00     0.000 HD 
HETATM    5  C   UNL     1      -6.253   6.156  66.498  1.00  0.00    -0.037 A  
HETATM    6  O   UNL     1      -8.410   3.035  65.362  1.00  0.00    -0.093 OA 
HETATM    7  C   UNL     1      -5.196   7.524  64.811  1.00  0.00    -0.029 A  
HETATM    8  C   UNL     1      -8.678   5.291  66.218  1.00  0.00    -0.122 C  
HETATM    9  O   UNL     1      -8.277   4.602  67.443  1.00  0.00    -0.101 OA 
HETATM   10  C   UNL     1      -7.462   6.119  65.763  1.00  0.00    -0.082 A  
HETATM   11  C   UNL     1      -9.892   7.376  67.079  1.00  0.00    -0.273 A  
HETATM   12  C   UNL     1      -9.929   6.037  66.663  1.00  0.00    -0.211 A  
HETATM   13  C   UNL     1      -7.511   6.851  64.572  1.00  0.00    -0.099 A  
HETATM   14  C   UNL     1     -11.159   5.352  66.759  1.00  0.00     0.187 A  
HETATM   15  C   UNL     1     -11.064   8.025  67.484  1.00  0.00     0.265 A  
HETATM   16  H   UNL     1      -8.088   5.303  68.056  1.00  0.00     0.000 HD 
HETATM   17  C   UNL     1      -5.133   6.847  66.021  1.00  0.00    -0.022 A  
HETATM   18  C   UNL     1     -12.328   6.001  67.137  1.00  0.00     5.267 A  
HETATM   19  C   UNL     1      -6.391   7.539  64.093  1.00  0.00    -0.048 A  
ENDROOT
BRANCH   1  20
HETATM   20  N   UNL     1     -10.366   5.260  63.386  1.00  0.00     1.021 NA 
HETATM   21  H   UNL     1     -11.083   5.165  62.665  1.00  0.00     0.000 HD 
BRANCH  20  22
HETATM   22  C   UNL     1      -9.738   6.378  63.634  1.00  0.00     3.283 C  
HETATM   23  C   UNL     1      -9.356   8.856  63.286  1.00  0.00     1.005 C  
HETATM   24  C   UNL     1      -9.958   9.090  64.689  1.00  0.00     1.474 C  
HETATM   25  C   UNL     1     -10.560   7.786  65.190  1.00  0.00     5.120 C  
HETATM   26  C   UNL     1      -9.386   7.609  62.713  1.00  0.00     2.047 C  
HETATM   27  C   UNL     1      -8.759  10.191  62.791  1.00  0.00    -0.213 C  
HETATM   28  C   UNL     1      -9.458   6.743  65.055  1.00  0.00     1.232 C  
HETATM   29  C   UNL     1     -11.115  10.111  64.642  1.00  0.00     2.101 C  
HETATM   30  C   UNL     1      -7.921  11.053  63.866  1.00  0.00     0.486 C  
HETATM   31  C   UNL     1      -8.298  10.913  65.399  1.00  0.00    -0.051 C  
HETATM   32  C   UNL     1      -7.180  11.322  66.488  1.00  0.00    -0.096 C  
HETATM   33  C   UNL     1      -7.223  12.856  66.783  1.00  0.00     0.590 C  
HETATM   34  C   UNL     1      -7.825  13.027  68.195  1.00  0.00    -0.145 C  
HETATM   35  C   UNL     1      -8.527  11.692  68.431  1.00  0.00    -0.157 C  
HETATM   36  C   UNL     1      -8.767   9.477  65.607  1.00  0.00    -0.173 C  
HETATM   37  C   UNL     1      -7.427  10.707  67.939  1.00  0.00    -0.090 C  
HETATM   38  C   UNL     1      -9.066   9.093  67.052  1.00  0.00    -0.147 C  
HETATM   39  C   UNL     1      -7.858   9.261  67.899  1.00  0.00    -0.092 C  
HETATM   40  C   UNL     1      -6.159  10.653  68.834  1.00  0.00    -0.040 C  
BRANCH  35  41
HETATM   41  O   UNL     1      -9.129  11.503  69.720  1.00  0.00     0.961 OA 
BRANCH  41  42
HETATM   42  C   UNL     1     -10.500  11.451  69.625  1.00  0.00     0.211 C  
HETATM   43  O   UNL     1     -11.104  11.521  68.558  1.00  0.00    -0.201 OA 
BRANCH  42  44
HETATM   44  C   UNL     1     -11.306  11.333  70.900  1.00  0.00     0.692 C  
BRANCH  44  45
HETATM   45  C   UNL     1     -12.657  10.634  70.950  1.00  0.00    -0.503 C  
BRANCH  45  46
HETATM   46  C   UNL     1     -12.565   9.158  71.315  1.00  0.00    -0.351 C  
BRANCH  46  47
HETATM   47  C   UNL     1     -11.130   8.623  71.400  1.00  0.00    -0.343 C  
BRANCH  47  48
HETATM   48  C   UNL     1     -10.732   8.146  72.798  1.00  0.00    -0.391 C  
HETATM   49  C   UNL     1      -9.565   7.168  72.743  1.00  0.00    -0.183 C  
ENDBRANCH  47  48
ENDBRANCH  46  47
ENDBRANCH  45  46
ENDBRANCH  44  45
ENDBRANCH  42  44
ENDBRANCH  41  42
ENDBRANCH  35  41
ENDBRANCH  20  22
ENDBRANCH   1  20
TORSDOF 9
ENDMDL
MODEL      196
REMARK 921   NORMALIZED FREE ENERGY PREDICTED BY IDOCK:   38.88 KCAL/MOL
REMARK 922        TOTAL FREE ENERGY PREDICTED BY IDOCK:   56.02 KCAL/MOL
REMARK 923 INTER-LIGAND FREE ENERGY PREDICTED BY IDOCK:   34.55 KCAL/MOL
REMARK 924 INTRA-LIGAND FREE ENERGY PREDICTED BY IDOCK:   21.48 KCAL/MOL
REMARK 927      BINDING AFFINITY PREDICTED BY RF-SCORE:    0.00 PKD
ROOT
HETATM    1  N   UNL     1      -8.975  18.378  63.877  1.00  0.00    11.378 N  
HETATM    2  C   UNL     1      -8.770  19.322  64.871  1.00  0.00     2.995 C  
HETATM    3  C   UNL     1      -5.131  15.981  66.236  1.00  0.00     1.781 A  
HETATM    4  H   UNL     1      -8.758  18.698  62.934  1.00  0.00     0.000 HD 
HETATM    5  C   UNL     1      -9.524  19.830  68.384  1.00  0.00    -0.423 A  
HETATM    6  O   UNL     1      -8.949  20.519  64.526  1.00  0.00     1.334 OA 
HETATM    7  C   UNL     1     -11.574  18.765  69.089  1.00  0.00     4.000 A  
HETATM    8  C   UNL     1      -8.225  19.021  66.294  1.00  0.00    -0.282 C  
HETATM    9  O   UNL     1      -7.463  20.216  66.649  1.00  0.00    -0.262 OA 
HETATM   10  C   UNL     1      -9.368  18.910  67.320  1.00  0.00    -0.324 A  
HETATM   11  C   UNL     1      -6.913  17.127  67.413  1.00  0.00    -0.181 A  
HETATM   12  C   UNL     1      -7.150  17.941  66.297  1.00  0.00    -0.321 A  
HETATM   13  C   UNL     1     -10.319  17.889  67.210  1.00  0.00    -0.374 A  
HETATM   14  C   UNL     1      -6.291  17.803  65.186  1.00  0.00     0.497 A  
HETATM   15  C   UNL     1      -5.912  16.148  67.376  1.00  0.00    -0.179 A  
HETATM   16  H   UNL     1      -7.130  20.033  67.519  1.00  0.00     0.000 HD 
HETATM   17  C   UNL     1     -10.619  19.759  69.253  1.00  0.00     0.317 A  
HETATM   18  C   UNL     1      -5.313  16.816  65.139  1.00  0.00     3.105 A  
HETATM   19  C   UNL     1     -11.416  17.820  68.076  1.00  0.00     0.819 A  
ENDROOT
BRANCH   1  20
HETATM   20  N   UNL     1      -9.439  17.038  63.955  1.00  0.00     6.038 NA 
HETATM   21  H   UNL     1     -10.063  16.617  63.267  1.00  0.00     0.000 HD 
BRANCH  20  22
HETATM   22  C   UNL     1      -8.984  16.399  65.001  1.00  0.00     2.474 C  
HETATM   23  C   UNL     1      -8.946  15.909  67.484  1.00  0.00    -0.201 C  
HETATM   24  C   UNL     1      -9.620  14.555  67.171  1.00  0.00    -0.233 C  
HETATM   25  C   UNL     1     -10.047  14.543  65.710  1.00  0.00    -0.365 C  
HETATM   26  C   UNL     1      -8.781  16.850  66.498  1.00  0.00    -0.304 C  
HETATM   27  C   UNL     1      -8.529  15.906  68.970  1.00  0.00    -0.242 C  
HETATM   28  C   UNL     1      -8.803  14.919  64.914  1.00  0.00     3.459 C  
HETATM   29  C   UNL     1     -10.908  14.362  68.000  1.00  0.00    -0.250 C  
HETATM   30  C   UNL     1      -7.857  14.552  69.531  1.00  0.00     0.107 C  
HETATM   31  C   UNL     1      -8.259  13.177  68.854  1.00  0.00     0.223 C  
HETATM   32  C   UNL     1      -7.246  11.933  69.020  1.00  0.00    -0.068 C  
HETATM   33  C   UNL     1      -7.515  11.168  70.356  1.00  0.00     1.506 C  
HETATM   34  C   UNL     1      -8.180   9.826  69.982  1.00  0.00    -0.207 C  
HETATM   35  C   UNL     1      -8.692  10.081  68.566  1.00  0.00    -0.123 C  
HETATM   36  C   UNL     1      -8.525  13.473  67.381  1.00  0.00    -0.203 C  
HETATM   37  C   UNL     1      -7.449  10.776  67.940  1.00  0.00    -0.090 C  
HETATM   38  C   UNL     1      -8.813  12.253  66.513  1.00  0.00    -0.128 C  
HETATM   39  C   UNL     1      -7.669  11.307  66.545  1.00  0.00    -0.125 C  
HETATM   40  C   UNL     1      -6.215   9.851  67.755  1.00  0.00    -0.055 C  
BRANCH  35  41
HETATM   41  O   UNL     1      -9.303   8.969  67.894  1.00  0.00    -0.140 OA 
BRANCH  41  42
HETATM   42  C   UNL     1      -9.849   8.084  68.795  1.00  0.00    -0.172 C  
HETATM   43  O   UNL     1      -9.231   7.632  69.754  1.00  0.00    -0.147 OA 
BRANCH  42  44
HETATM   44  C   UNL     1     -11.274   7.623  68.575  1.00  0.00     0.394 C  
BRANCH  44  45
HETATM   45  C   UNL     1     -11.978   6.667  69.527  1.00  0.00     0.223 C  
BRANCH  45  46
HETATM   46  C   UNL     1     -11.100   5.509  69.984  1.00  0.00    -0.039 C  
BRANCH  46  47
HETATM   47  C   UNL     1     -10.742   5.545  71.475  1.00  0.00    -0.290 C  
BRANCH  47  48
HETATM   48  C   UNL     1     -10.008   4.296  71.964  1.00  0.00    -0.249 C  
HETATM   49  C   UNL     1      -8.560   4.277  71.493  1.00  0.00    -0.129 C  
ENDBRANCH  47  48
ENDBRANCH  46  47
ENDBRANCH  45  46
ENDBRANCH  44  45
ENDBRANCH  42  44
ENDBRANCH  41  42
ENDBRANCH  35  41
ENDBRANCH  20  22
ENDBRANCH   1  20
TORSDOF 9
ENDMDL
MODEL      197
REMARK 921   NORMALIZED FREE ENERGY PREDICTED BY IDOCK:   40.05 KCAL/MOL
REMARK 922        TOTAL FREE ENERGY PREDICTED BY IDOCK:   57.81 KCAL/MOL
REMARK 923 INTER-LIGAND FREE ENERGY PREDICTED BY IDOCK:   48.77 KCAL/MOL
REMARK 924 INTRA-LIGAND FREE ENERGY PREDICTED BY IDOCK:    9.04 KCAL/MOL
REMARK 927      BINDING AFFINITY PREDICTED BY RF-SCORE:    0.00 PKD
ROOT
HETATM    1  N   UNL     1     -10.382   9.271  66.693  1.00  0.00    -0.248 N  
HETATM    2  C   UNL     1     -10.584  10.538  67.217  1.00  0.00    -0.264 C  
HETATM    3  C   UNL     1      -7.146  11.749  63.615  1.00  0.00     3.193 A  
HETATM    4  H   UNL     1     -11.192   8.871  66.220  1.00  0.00     0.000 HD 
HETATM    5  C   UNL     1      -8.958  12.882  69.459  1.00  0.00     1.616 A  
HETATM    6  O   UNL     1     -11.757  10.784  67.602  1.00  0.00    -0.538 OA 
HETATM    7  C   UNL     1      -7.638  11.812  71.175  1.00  0.00     6.310 A  
HETATM    8  C   UNL     1      -9.529  11.679  67.238  1.00  0.00    -0.168 C  
HETATM    9  O   UNL     1     -10.317  12.901  67.101  1.00  0.00    -0.236 OA 
HETATM   10  C   UNL     1      -8.823  11.763  68.604  1.00  0.00    -0.062 A  
HETATM   11  C   UNL     1      -7.365  12.223  65.981  1.00  0.00     1.473 A  
HETATM   12  C   UNL     1      -8.669  11.708  65.981  1.00  0.00    -0.055 A  
HETATM   13  C   UNL     1      -8.032  10.701  69.057  1.00  0.00    -0.140 A  
HETATM   14  C   UNL     1      -9.215  11.297  64.747  1.00  0.00    -0.107 A  
HETATM   15  C   UNL     1      -6.608  12.235  64.803  1.00  0.00     6.115 A  
HETATM   16  H   UNL     1      -9.673  13.599  67.115  1.00  0.00     0.000 HD 
HETATM   17  C   UNL     1      -8.376  12.901  70.732  1.00  0.00     7.506 A  
HETATM   18  C   UNL     1      -8.457  11.285  63.582  1.00  0.00     0.403 A  
HETATM   19  C   UNL     1      -7.453  10.717  70.331  1.00  0.00     0.670 A  
ENDROOT
BRANCH   1  20
HETATM   20  N   UNL     1      -9.232   8.438  66.706  1.00  0.00    -0.160 NA 
HETATM   21  H   UNL     1      -8.335   8.709  66.302  1.00  0.00     0.000 HD 
BRANCH  20  22
HETATM   22  C   UNL     1      -9.440   7.286  67.288  1.00  0.00    -0.138 C  
HETATM   23  C   UNL     1      -8.634   5.100  68.277  1.00  0.00    -0.098 C  
HETATM   24  C   UNL     1      -8.983   5.666  69.671  1.00  0.00    -0.135 C  
HETATM   25  C   UNL     1      -9.317   7.144  69.533  1.00  0.00    -0.148 C  
HETATM   26  C   UNL     1      -8.698   5.901  67.164  1.00  0.00    -0.108 C  
HETATM   27  C   UNL     1      -8.290   3.603  68.439  1.00  0.00    -0.096 C  
HETATM   28  C   UNL     1     -10.381   7.228  68.446  1.00  0.00    -0.213 C  
HETATM   29  C   UNL     1      -7.778   5.582  70.631  1.00  0.00    -0.090 C  
HETATM   30  C   UNL     1      -9.243   2.743  69.415  1.00  0.00    -0.208 C  
HETATM   31  C   UNL     1      -9.961   3.489  70.614  1.00  0.00     0.058 C  
HETATM   32  C   UNL     1     -11.278   2.804  71.244  1.00  0.00     3.300 C  
HETATM   33  C   UNL     1     -10.894   1.757  72.339  1.00  0.00    -0.028 C  
HETATM   34  C   UNL     1     -11.269   2.372  73.704  1.00  0.00    -0.317 C  
HETATM   35  C   UNL     1     -11.382   3.861  73.388  1.00  0.00    -0.148 C  
HETATM   36  C   UNL     1     -10.257   4.907  70.136  1.00  0.00    -0.310 C  
HETATM   37  C   UNL     1     -12.205   3.807  72.069  1.00  0.00     3.979 C  
HETATM   38  C   UNL     1     -11.062   5.766  71.105  1.00  0.00    -0.257 C  
HETATM   39  C   UNL     1     -12.379   5.141  71.387  1.00  0.00     2.789 C  
HETATM   40  C   UNL     1     -13.672   3.326  72.241  1.00  0.00     5.477 C  
BRANCH  35  41
HETATM   41  O   UNL     1     -11.808   4.714  74.462  1.00  0.00     1.621 OA 
BRANCH  41  42
HETATM   42  C   UNL     1     -11.960   6.012  74.033  1.00  0.00     3.419 C  
HETATM   43  O   UNL     1     -12.999   6.650  74.176  1.00  0.00     5.853 OA 
BRANCH  42  44
HETATM   44  C   UNL     1     -10.800   6.677  73.324  1.00  0.00    -0.290 C  
BRANCH  44  45
HETATM   45  C   UNL     1      -9.353   6.284  73.582  1.00  0.00    -0.143 C  
BRANCH  45  46
HETATM   46  C   UNL     1      -8.640   5.747  72.347  1.00  0.00    -0.121 C  
BRANCH  46  47
HETATM   47  C   UNL     1      -7.652   4.611  72.639  1.00  0.00    -0.086 C  
BRANCH  47  48
HETATM   48  C   UNL     1      -7.429   4.356  74.131  1.00  0.00    -0.073 C  
HETATM   49  C   UNL     1      -6.067   3.725  74.392  1.00  0.00    -0.021 C  
ENDBRANCH  47  48
ENDBRANCH  46  47
ENDBRANCH  45  46
ENDBRANCH  44  45
ENDBRANCH  42  44
ENDBRANCH  41  42
ENDBRANCH  35  41
ENDBRANCH  20  22
ENDBRANCH   1  20
TORSDOF 9
ENDMDL
MODEL      198
REMARK 921   NORMALIZED FREE ENERGY PREDICTED BY IDOCK:   42.14 KCAL/MOL
REMARK 922        TOTAL FREE ENERGY PREDICTED BY IDOCK:   60.99 KCAL/MOL
REMARK 923 INTER-LIGAND FREE ENERGY PREDICTED BY IDOCK:   27.44 KCAL/MOL
REMARK 924 INTRA-LIGAND FREE ENERGY PREDICTED BY IDOCK:   33.56 KCAL/MOL
REMARK 927      BINDING AFFINITY PREDICTED BY RF-SCORE:    0.00 PKD
ROOT
HETATM    1  N   UNL     1      -8.501  17.978  67.241  1.00  0.00    -0.231 N  
HETATM    2  C   UNL     1      -9.611  17.951  68.071  1.00  0.00    -0.290 C  
HETATM    3  C   UNL     1      -6.491  20.696  71.069  1.00  0.00     0.553 A  
HETATM    4  H   UNL     1      -8.630  18.500  66.375  1.00  0.00     0.000 HD 
HETATM    5  C   UNL     1     -10.800  16.207  71.023  1.00  0.00     0.154 A  
HETATM    6  O   UNL     1     -10.725  17.989  67.487  1.00  0.00    -0.404 OA 
HETATM    7  C   UNL     1      -9.947  13.956  71.216  1.00  0.00     5.429 A  
HETATM    8  C   UNL     1      -9.572  18.007  69.623  1.00  0.00     0.598 C  
HETATM    9  O   UNL     1     -10.791  18.724  69.989  1.00  0.00     0.777 OA 
HETATM   10  C   UNL     1      -9.690  16.600  70.238  1.00  0.00     1.310 A  
HETATM   11  C   UNL     1      -7.889  18.746  71.407  1.00  0.00     5.829 A  
HETATM   12  C   UNL     1      -8.483  18.932  70.151  1.00  0.00     1.713 A  
HETATM   13  C   UNL     1      -8.694  15.643  70.010  1.00  0.00     0.451 A  
HETATM   14  C   UNL     1      -8.112  20.074  69.410  1.00  0.00     0.333 A  
HETATM   15  C   UNL     1      -6.893  19.621  71.857  1.00  0.00     1.185 A  
HETATM   16  H   UNL     1     -10.767  18.759  70.938  1.00  0.00     0.000 HD 
HETATM   17  C   UNL     1     -10.926  14.897  71.499  1.00  0.00     0.198 A  
HETATM   18  C   UNL     1      -7.107  20.931  69.844  1.00  0.00     1.877 A  
HETATM   19  C   UNL     1      -8.822  14.333  70.483  1.00  0.00     2.732 A  
ENDROOT
BRANCH   1  20
HETATM   20  N   UNL     1      -7.214  17.398  67.398  1.00  0.00    -0.164 NA 
HETATM   21  H   UNL     1      -6.345  17.896  67.203  1.00  0.00     0.000 HD 
BRANCH  20  22
HETATM   22  C   UNL     1      -7.257  16.162  67.819  1.00  0.00    -0.138 C  
HETATM   23  C   UNL     1      -8.373  14.255  69.053  1.00  0.00     0.031 C  
HETATM   24  C   UNL     1      -8.666  13.610  67.680  1.00  0.00    -0.182 C  
HETATM   25  C   UNL     1      -8.330  14.612  66.584  1.00  0.00     0.043 C  
HETATM   26  C   UNL     1      -7.851  15.522  69.131  1.00  0.00    -0.215 C  
HETATM   27  C   UNL     1      -8.728  13.228  70.150  1.00  0.00     3.653 C  
HETATM   28  C   UNL     1      -6.904  15.068  66.865  1.00  0.00     0.691 C  
HETATM   29  C   UNL     1     -10.165  13.281  67.520  1.00  0.00    -0.222 C  
HETATM   30  C   UNL     1      -8.274  11.703  69.890  1.00  0.00     1.736 C  
HETATM   31  C   UNL     1      -8.152  11.200  68.393  1.00  0.00    -0.141 C  
HETATM   32  C   UNL     1      -7.221   9.914  68.105  1.00  0.00    -0.078 C  
HETATM   33  C   UNL     1      -8.021   8.588  68.316  1.00  0.00    -0.114 C  
HETATM   34  C   UNL     1      -8.278   7.988  66.916  1.00  0.00    -0.115 C  
HETATM   35  C   UNL     1      -8.066   9.182  65.989  1.00  0.00    -0.110 C  
HETATM   36  C   UNL     1      -7.703  12.397  67.561  1.00  0.00    -0.161 C  
HETATM   37  C   UNL     1      -6.755   9.771  66.586  1.00  0.00    -0.079 C  
HETATM   38  C   UNL     1      -7.406  12.098  66.096  1.00  0.00     0.961 C  
HETATM   39  C   UNL     1      -6.327  11.084  65.978  1.00  0.00    -0.060 C  
HETATM   40  C   UNL     1      -5.496   8.884  66.385  1.00  0.00    -0.034 C  
BRANCH  35  41
HETATM   41  O   UNL     1      -8.156   8.924  64.580  1.00  0.00    -0.133 OA 
BRANCH  41  42
HETATM   42  C   UNL     1      -7.984   7.587  64.308  1.00  0.00    -0.109 C  
HETATM   43  O   UNL     1      -6.943   7.120  63.857  1.00  0.00    -0.052 OA 
BRANCH  42  44
HETATM   44  C   UNL     1      -9.148   6.650  64.550  1.00  0.00     0.997 C  
BRANCH  44  45
HETATM   45  C   UNL     1      -8.957   5.221  65.036  1.00  0.00    -0.079 C  
BRANCH  45  46
HETATM   46  C   UNL     1      -8.537   5.128  66.498  1.00  0.00    -0.111 C  
BRANCH  46  47
HETATM   47  C   UNL     1      -9.706   5.184  67.490  1.00  0.00    -0.177 C  
BRANCH  47  48
HETATM   48  C   UNL     1      -9.275   5.434  68.936  1.00  0.00    -0.147 C  
HETATM   49  C   UNL     1     -10.329   6.221  69.705  1.00  0.00    -0.267 C  
ENDBRANCH  47  48
ENDBRANCH  46  47
ENDBRANCH  45  46
ENDBRANCH  44  45
ENDBRANCH  42  44
ENDBRANCH  41  42
ENDBRANCH  35  41
ENDBRANCH  20  22
ENDBRANCH   1  20
TORSDOF 9
ENDMDL
MODEL      199
REMARK 921   NORMALIZED FREE ENERGY PREDICTED BY IDOCK:   42.17 KCAL/MOL
REMARK 922        TOTAL FREE ENERGY PREDICTED BY IDOCK:   61.04 KCAL/MOL
REMARK 923 INTER-LIGAND FREE ENERGY PREDICTED BY IDOCK:   18.13 KCAL/MOL
REMARK 924 INTRA-LIGAND FREE ENERGY PREDICTED BY IDOCK:   42.91 KCAL/MOL
REMARK 927      BINDING AFFINITY PREDICTED BY RF-SCORE:    0.00 PKD
ROOT
HETATM    1  N   UNL     1     -10.032  20.630  65.631  1.00  0.00    -0.378 N  
HETATM    2  C   UNL     1     -11.004  19.642  65.628  1.00  0.00    -0.129 C  
HETATM    3  C   UNL     1     -10.064  19.762  70.664  1.00  0.00     1.297 A  
HETATM    4  H   UNL     1     -10.364  21.555  65.360  1.00  0.00     0.000 HD 
HETATM    5  C   UNL     1     -11.258  16.028  65.832  1.00  0.00     0.116 A  
HETATM    6  O   UNL     1     -11.922  19.788  64.779  1.00  0.00     2.105 OA 
HETATM    7  C   UNL     1      -9.341  14.878  64.918  1.00  0.00     1.333 A  
HETATM    8  C   UNL     1     -11.105  18.479  66.654  1.00  0.00     0.352 C  
HETATM    9  O   UNL     1     -12.539  18.234  66.781  1.00  0.00     5.045 OA 
HETATM   10  C   UNL     1     -10.486  17.185  66.095  1.00  0.00    -0.277 A  
HETATM   11  C   UNL     1     -10.209  18.002  69.005  1.00  0.00    -0.262 A  
HETATM   12  C   UNL     1     -10.724  18.906  68.066  1.00  0.00    -0.283 A  
HETATM   13  C   UNL     1      -9.119  17.124  65.801  1.00  0.00     0.137 A  
HETATM   14  C   UNL     1     -10.979  20.226  68.494  1.00  0.00     0.683 A  
HETATM   15  C   UNL     1      -9.875  18.434  70.295  1.00  0.00     1.648 A  
HETATM   16  H   UNL     1     -12.601  17.523  67.408  1.00  0.00     0.000 HD 
HETATM   17  C   UNL     1     -10.690  14.892  65.245  1.00  0.00    -0.409 A  
HETATM   18  C   UNL     1     -10.627  20.662  69.765  1.00  0.00     0.747 A  
HETATM   19  C   UNL     1      -8.551  15.990  65.211  1.00  0.00     2.160 A  
ENDROOT
BRANCH   1  20
HETATM   20  N   UNL     1      -8.650  20.566  65.950  1.00  0.00    -0.425 NA 
HETATM   21  H   UNL     1      -8.068  21.391  66.099  1.00  0.00     0.000 HD 
BRANCH  20  22
HETATM   22  C   UNL     1      -8.199  19.343  66.033  1.00  0.00    -0.237 C  
HETATM   23  C   UNL     1      -6.437  17.646  66.684  1.00  0.00    -0.239 C  
HETATM   24  C   UNL     1      -7.376  17.187  67.820  1.00  0.00    -0.179 C  
HETATM   25  C   UNL     1      -8.536  18.167  67.926  1.00  0.00    -0.259 C  
HETATM   26  C   UNL     1      -6.739  18.755  65.934  1.00  0.00    -0.294 C  
HETATM   27  C   UNL     1      -5.263  16.646  66.598  1.00  0.00     0.099 C  
HETATM   28  C   UNL     1      -9.118  18.271  66.522  1.00  0.00    -0.291 C  
HETATM   29  C   UNL     1      -6.661  17.214  69.188  1.00  0.00    -0.238 C  
HETATM   30  C   UNL     1      -5.635  15.081  66.721  1.00  0.00     1.787 C  
HETATM   31  C   UNL     1      -6.915  14.676  67.561  1.00  0.00    -0.193 C  
HETATM   32  C   UNL     1      -7.587  13.240  67.263  1.00  0.00    -0.079 C  
HETATM   33  C   UNL     1      -6.887  12.114  68.090  1.00  0.00    -0.075 C  
HETATM   34  C   UNL     1      -7.872  11.693  69.203  1.00  0.00     0.113 C  
HETATM   35  C   UNL     1      -8.835  12.876  69.272  1.00  0.00     0.982 C  
HETATM   36  C   UNL     1      -7.930  15.802  67.386  1.00  0.00    -0.194 C  
HETATM   37  C   UNL     1      -9.099  13.111  67.756  1.00  0.00    -0.200 C  
HETATM   38  C   UNL     1      -9.293  15.554  68.022  1.00  0.00    -0.193 C  
HETATM   39  C   UNL     1      -9.923  14.337  67.450  1.00  0.00    -0.242 C  
HETATM   40  C   UNL     1      -9.905  11.982  67.057  1.00  0.00    -0.205 C  
BRANCH  35  41
HETATM   41  O   UNL     1      -9.941  12.750  70.178  1.00  0.00     2.236 OA 
BRANCH  41  42
HETATM   42  C   UNL     1     -10.213  11.429  70.449  1.00  0.00     2.141 C  
HETATM   43  O   UNL     1     -11.320  11.026  70.793  1.00  0.00    -0.108 OA 
BRANCH  42  44
HETATM   44  C   UNL     1      -9.083  10.427  70.348  1.00  0.00     0.861 C  
BRANCH  44  45
HETATM   45  C   UNL     1      -8.934   9.263  71.317  1.00  0.00    -0.097 C  
BRANCH  45  46
HETATM   46  C   UNL     1      -7.708   8.400  71.045  1.00  0.00    -0.099 C  
BRANCH  46  47
HETATM   47  C   UNL     1      -7.168   8.513  69.614  1.00  0.00    -0.052 C  
BRANCH  47  48
HETATM   48  C   UNL     1      -5.658   8.747  69.542  1.00  0.00    -0.034 C  
HETATM   49  C   UNL     1      -5.191   8.940  68.105  1.00  0.00    -0.034 C  
ENDBRANCH  47  48
ENDBRANCH  46  47
ENDBRANCH  45  46
ENDBRANCH  44  45
ENDBRANCH  42  44
ENDBRANCH  41  42
ENDBRANCH  35  41
ENDBRANCH  20  22
ENDBRANCH   1  20
TORSDOF 9
ENDMDL
MODEL      200
REMARK 921   NORMALIZED FREE ENERGY PREDICTED BY IDOCK:   43.36 KCAL/MOL
REMARK 922        TOTAL FREE ENERGY PREDICTED BY IDOCK:   62.86 KCAL/MOL
REMARK 923 INTER-LIGAND FREE ENERGY PREDICTED BY IDOCK:   11.39 KCAL/MOL
REMARK 924 INTRA-LIGAND FREE ENERGY PREDICTED BY IDOCK:   51.47 KCAL/MOL
REMARK 927      BINDING AFFINITY PREDICTED BY RF-SCORE:    0.00 PKD
ROOT
HETATM    1  N   UNL     1     -13.264   6.093  71.079  1.00  0.00     1.278 N  
HETATM    2  C   UNL     1     -12.403   6.384  72.126  1.00  0.00    -0.182 C  
HETATM    3  C   UNL     1     -12.303  10.936  69.774  1.00  0.00    -0.326 A  
HETATM    4  H   UNL     1     -14.228   5.914  71.358  1.00  0.00     0.000 HD 
HETATM    5  C   UNL     1      -8.844   6.708  72.754  1.00  0.00    -0.129 A  
HETATM    6  O   UNL     1     -12.678   5.832  73.223  1.00  0.00     1.084 OA 
HETATM    7  C   UNL     1      -7.487   5.301  71.337  1.00  0.00    -0.095 A  
HETATM    8  C   UNL     1     -11.240   7.414  72.071  1.00  0.00    -0.251 C  
HETATM    9  O   UNL     1     -11.170   7.951  73.427  1.00  0.00    -0.456 OA 
HETATM   10  C   UNL     1      -9.892   6.721  71.803  1.00  0.00    -0.170 A  
HETATM   11  C   UNL     1     -10.608   9.416  70.604  1.00  0.00    -0.354 A  
HETATM   12  C   UNL     1     -11.588   8.650  71.252  1.00  0.00    -0.340 A  
HETATM   13  C   UNL     1      -9.670   6.048  70.596  1.00  0.00    -0.209 A  
HETATM   14  C   UNL     1     -12.920   9.112  71.209  1.00  0.00    -0.307 A  
HETATM   15  C   UNL     1     -10.969  10.549  69.864  1.00  0.00    -0.359 A  
HETATM   16  H   UNL     1     -10.459   8.580  73.394  1.00  0.00     0.000 HD 
HETATM   17  C   UNL     1      -7.659   6.000  72.523  1.00  0.00    -0.099 A  
HETATM   18  C   UNL     1     -13.283  10.222  70.455  1.00  0.00     0.011 A  
HETATM   19  C   UNL     1      -8.487   5.337  70.366  1.00  0.00    -0.116 A  
ENDROOT
BRANCH   1  20
HETATM   20  N   UNL     1     -13.025   6.002  69.683  1.00  0.00     4.018 NA 
HETATM   21  H   UNL     1     -13.696   5.613  69.021  1.00  0.00     0.000 HD 
BRANCH  20  22
HETATM   22  C   UNL     1     -11.855   6.469  69.332  1.00  0.00     0.203 C  
HETATM   23  C   UNL     1     -10.215   7.331  67.608  1.00  0.00    -0.257 C  
HETATM   24  C   UNL     1     -10.393   8.737  68.222  1.00  0.00    -0.252 C  
HETATM   25  C   UNL     1     -11.544   8.697  69.217  1.00  0.00     0.763 C  
HETATM   26  C   UNL     1     -11.007   6.286  68.015  1.00  0.00    -0.418 C  
HETATM   27  C   UNL     1      -9.050   7.393  66.596  1.00  0.00    -0.184 C  
HETATM   28  C   UNL     1     -11.233   7.543  70.162  1.00  0.00    -0.213 C  
HETATM   29  C   UNL     1     -10.784   9.775  67.149  1.00  0.00    -0.273 C  
HETATM   30  C   UNL     1      -7.741   8.219  67.048  1.00  0.00    -0.096 C  
HETATM   31  C   UNL     1      -7.924   9.418  68.067  1.00  0.00    -0.092 C  
HETATM   32  C   UNL     1      -6.634   9.887  68.915  1.00  0.00    -0.045 C  
HETATM   33  C   UNL     1      -5.780  10.917  68.107  1.00  0.00    -0.046 C  
HETATM   34  C   UNL     1      -5.992  12.296  68.767  1.00  0.00    -0.065 C  
HETATM   35  C   UNL     1      -7.276  12.098  69.568  1.00  0.00     0.289 C  
HETATM   36  C   UNL     1      -9.077   9.038  68.991  1.00  0.00    -0.143 C  
HETATM   37  C   UNL     1      -6.984  10.720  70.230  1.00  0.00     0.120 C  
HETATM   38  C   UNL     1      -9.343  10.012  70.134  1.00  0.00    -0.094 C  
HETATM   39  C   UNL     1      -8.144  10.140  71.001  1.00  0.00     1.510 C  
HETATM   40  C   UNL     1      -5.852  10.740  71.293  1.00  0.00     0.185 C  
BRANCH  35  41
HETATM   41  O   UNL     1      -7.704  13.203  70.378  1.00  0.00     2.122 OA 
BRANCH  41  42
HETATM   42  C   UNL     1      -7.942  14.319  69.611  1.00  0.00     0.441 C  
HETATM   43  O   UNL     1      -7.831  14.331  68.388  1.00  0.00    -0.125 OA 
BRANCH  42  44
HETATM   44  C   UNL     1      -8.331  15.603  70.310  1.00  0.00     1.022 C  
BRANCH  44  45
HETATM   45  C   UNL     1      -7.337  16.430  71.113  1.00  0.00     4.246 C  
BRANCH  45  46
HETATM   46  C   UNL     1      -5.974  16.557  70.445  1.00  0.00     0.044 C  
BRANCH  46  47
HETATM   47  C   UNL     1      -5.944  16.083  68.987  1.00  0.00    -0.125 C  
BRANCH  47  48
HETATM   48  C   UNL     1      -6.942  16.808  68.082  1.00  0.00    -0.160 C  
HETATM   49  C   UNL     1      -6.985  16.190  66.690  1.00  0.00     0.035 C  
ENDBRANCH  47  48
ENDBRANCH  46  47
ENDBRANCH  45  46
ENDBRANCH  44  45
ENDBRANCH  42  44
ENDBRANCH  41  42
ENDBRANCH  35  41
ENDBRANCH  20  22
ENDBRANCH   1  20
TORSDOF 9
ENDMDL
MODEL      201
REMARK 921   NORMALIZED FREE ENERGY PREDICTED BY IDOCK:   43.40 KCAL/MOL
REMARK 922        TOTAL FREE ENERGY PREDICTED BY IDOCK:   62.92 KCAL/MOL
REMARK 923 INTER-LIGAND FREE ENERGY PREDICTED BY IDOCK:   40.54 KCAL/MOL
REMARK 924 INTRA-LIGAND FREE ENERGY PREDICTED BY IDOCK:   22.38 KCAL/MOL
REMARK 927      BINDING AFFINITY PREDICTED BY RF-SCORE:    0.00 PKD
ROOT
HETATM    1  N   UNL     1      -8.978  18.374  63.842  1.00  0.00    11.378 N  
HETATM    2  C   UNL     1      -8.793  19.329  64.829  1.00  0.00     3.750 C  
HETATM    3  C   UNL     1      -5.197  15.996  66.320  1.00  0.00     1.842 A  
HETATM    4  H   UNL     1      -8.737  18.682  62.900  1.00  0.00     0.000 HD 
HETATM    5  C   UNL     1      -9.628  19.882  68.317  1.00  0.00    -0.436 A  
HETATM    6  O   UNL     1      -8.960  20.523  64.465  1.00  0.00     1.334 OA 
HETATM    7  C   UNL     1     -11.697  18.832  68.987  1.00  0.00     4.291 A  
HETATM    8  C   UNL     1      -8.282  19.044  66.269  1.00  0.00    -0.282 C  
HETATM    9  O   UNL     1      -7.525  20.242  66.626  1.00  0.00    -0.273 OA 
HETATM   10  C   UNL     1      -9.449  18.949  67.268  1.00  0.00    -0.336 A  
HETATM   11  C   UNL     1      -7.003  17.160  67.441  1.00  0.00    -0.181 A  
HETATM   12  C   UNL     1      -7.211  17.962  66.309  1.00  0.00    -0.324 A  
HETATM   13  C   UNL     1     -10.401  17.930  67.148  1.00  0.00    -0.371 A  
HETATM   14  C   UNL     1      -6.326  17.808  65.221  1.00  0.00     0.259 A  
HETATM   15  C   UNL     1      -6.005  16.179  67.439  1.00  0.00    -0.179 A  
HETATM   16  H   UNL     1      -7.213  20.068  67.507  1.00  0.00     0.000 HD 
HETATM   17  C   UNL     1     -10.743  19.825  69.160  1.00  0.00     0.529 A  
HETATM   18  C   UNL     1      -5.351  16.818  65.209  1.00  0.00     2.750 A  
HETATM   19  C   UNL     1     -11.518  17.874  67.989  1.00  0.00     0.893 A  
ENDROOT
BRANCH   1  20
HETATM   20  N   UNL     1      -9.447  17.036  63.926  1.00  0.00     6.765 NA 
HETATM   21  H   UNL     1     -10.058  16.609  63.229  1.00  0.00     0.000 HD 
BRANCH  20  22
HETATM   22  C   UNL     1      -9.016  16.408  64.988  1.00  0.00     2.474 C  
HETATM   23  C   UNL     1      -9.004  15.977  67.482  1.00  0.00    -0.201 C  
HETATM   24  C   UNL     1      -9.719  14.638  67.198  1.00  0.00    -0.235 C  
HETATM   25  C   UNL     1     -10.141  14.605  65.736  1.00  0.00    -0.364 C  
HETATM   26  C   UNL     1      -8.805  16.888  66.475  1.00  0.00    -0.305 C  
HETATM   27  C   UNL     1      -8.592  15.995  68.970  1.00  0.00    -0.244 C  
HETATM   28  C   UNL     1      -8.883  14.921  64.937  1.00  0.00     3.459 C  
HETATM   29  C   UNL     1     -11.015  14.505  68.026  1.00  0.00    -0.269 C  
HETATM   30  C   UNL     1      -7.966  14.634  69.565  1.00  0.00     0.063 C  
HETATM   31  C   UNL     1      -8.410  13.257  68.919  1.00  0.00     0.225 C  
HETATM   32  C   UNL     1      -7.437  11.985  69.119  1.00  0.00     0.096 C  
HETATM   33  C   UNL     1      -7.736  11.261  70.471  1.00  0.00     2.602 C  
HETATM   34  C   UNL     1      -8.443   9.933  70.126  1.00  0.00    -0.144 C  
HETATM   35  C   UNL     1      -8.941  10.171  68.703  1.00  0.00    -0.136 C  
HETATM   36  C   UNL     1      -8.661  13.526  67.439  1.00  0.00    -0.209 C  
HETATM   37  C   UNL     1      -7.674  10.810  68.065  1.00  0.00    -0.101 C  
HETATM   38  C   UNL     1      -8.985  12.296  66.599  1.00  0.00    -0.189 C  
HETATM   39  C   UNL     1      -7.871  11.315  66.657  1.00  0.00    -0.152 C  
HETATM   40  C   UNL     1      -6.469   9.842  67.908  1.00  0.00    -0.060 C  
BRANCH  35  41
HETATM   41  O   UNL     1      -9.585   9.063  68.055  1.00  0.00    -0.144 OA 
BRANCH  41  42
HETATM   42  C   UNL     1     -10.159   8.216  68.974  1.00  0.00    -0.205 C  
HETATM   43  O   UNL     1      -9.527   7.670  69.873  1.00  0.00    -0.161 OA 
BRANCH  42  44
HETATM   44  C   UNL     1     -11.639   7.920  68.852  1.00  0.00     1.076 C  
BRANCH  44  45
HETATM   45  C   UNL     1     -12.709   8.912  69.283  1.00  0.00     3.546 C  
BRANCH  45  46
HETATM   46  C   UNL     1     -12.405   9.594  70.611  1.00  0.00    -0.201 C  
BRANCH  46  47
HETATM   47  C   UNL     1     -12.351  11.124  70.531  1.00  0.00    -0.454 C  
BRANCH  47  48
HETATM   48  C   UNL     1     -11.324  11.653  69.528  1.00  0.00    -0.328 C  
HETATM   49  C   UNL     1     -11.800  11.470  68.093  1.00  0.00    -0.306 C  
ENDBRANCH  47  48
ENDBRANCH  46  47
ENDBRANCH  45  46
ENDBRANCH  44  45
ENDBRANCH  42  44
ENDBRANCH  41  42
ENDBRANCH  35  41
ENDBRANCH  20  22
ENDBRANCH   1  20
TORSDOF 9
ENDMDL
MODEL      202
REMARK 921   NORMALIZED FREE ENERGY PREDICTED BY IDOCK:   43.83 KCAL/MOL
REMARK 922        TOTAL FREE ENERGY PREDICTED BY IDOCK:   63.57 KCAL/MOL
REMARK 923 INTER-LIGAND FREE ENERGY PREDICTED BY IDOCK:   44.08 KCAL/MOL
REMARK 924 INTRA-LIGAND FREE ENERGY PREDICTED BY IDOCK:   19.50 KCAL/MOL
REMARK 927      BINDING AFFINITY PREDICTED BY RF-SCORE:    0.00 PKD
ROOT
HETATM    1  N   UNL     1      -8.208  15.112  69.307  1.00  0.00    -0.238 N  
HETATM    2  C   UNL     1      -9.214  14.525  70.058  1.00  0.00     0.953 C  
HETATM    3  C   UNL     1      -5.202  13.041  72.879  1.00  0.00     0.205 A  
HETATM    4  H   UNL     1      -8.219  16.132  69.304  1.00  0.00     0.000 HD 
HETATM    5  C   UNL     1     -10.707  11.261  70.589  1.00  0.00     1.522 A  
HETATM    6  O   UNL     1     -10.293  15.172  70.117  1.00  0.00    -0.224 OA 
HETATM    7  C   UNL     1     -10.603   9.830  68.646  1.00  0.00    -0.249 A  
HETATM    8  C   UNL     1      -9.062  13.235  70.910  1.00  0.00     8.518 C  
HETATM    9  O   UNL     1      -9.964  13.440  72.040  1.00  0.00     8.185 OA 
HETATM   10  C   UNL     1      -9.581  11.999  70.152  1.00  0.00     3.273 A  
HETATM   11  C   UNL     1      -7.123  11.908  71.930  1.00  0.00     7.419 A  
HETATM   12  C   UNL     1      -7.704  13.139  71.594  1.00  0.00     8.979 A  
HETATM   13  C   UNL     1      -8.958  11.579  68.972  1.00  0.00     0.135 A  
HETATM   14  C   UNL     1      -7.037  14.315  71.999  1.00  0.00     3.155 A  
HETATM   15  C   UNL     1      -5.874  11.864  72.562  1.00  0.00     2.013 A  
HETATM   16  H   UNL     1      -9.871  12.651  72.561  1.00  0.00     0.000 HD 
HETATM   17  C   UNL     1     -11.213  10.193  69.838  1.00  0.00    -0.343 A  
HETATM   18  C   UNL     1      -5.787  14.273  72.605  1.00  0.00     0.148 A  
HETATM   19  C   UNL     1      -9.465  10.515  68.219  1.00  0.00    -0.158 A  
ENDROOT
BRANCH   1  20
HETATM   20  N   UNL     1      -7.165  14.528  68.542  1.00  0.00    -0.112 NA 
HETATM   21  H   UNL     1      -6.211  14.891  68.521  1.00  0.00     0.000 HD 
BRANCH  20  22
HETATM   22  C   UNL     1      -7.551  13.477  67.867  1.00  0.00    -0.151 C  
HETATM   23  C   UNL     1      -7.815  12.174  65.714  1.00  0.00     1.290 C  
HETATM   24  C   UNL     1      -6.709  11.221  66.219  1.00  0.00    -0.011 C  
HETATM   25  C   UNL     1      -6.080  11.817  67.470  1.00  0.00    -0.092 C  
HETATM   26  C   UNL     1      -8.114  13.323  66.403  1.00  0.00     0.872 C  
HETATM   27  C   UNL     1      -8.435  11.557  64.441  1.00  0.00     0.792 C  
HETATM   28  C   UNL     1      -7.239  12.122  68.410  1.00  0.00    -0.097 C  
HETATM   29  C   UNL     1      -5.570  11.082  65.186  1.00  0.00     0.122 C  
HETATM   30  C   UNL     1      -8.723   9.971  64.471  1.00  0.00    -0.214 C  
HETATM   31  C   UNL     1      -7.808   9.057  65.387  1.00  0.00    -0.101 C  
HETATM   32  C   UNL     1      -8.390   7.621  65.836  1.00  0.00    -0.140 C  
HETATM   33  C   UNL     1      -8.103   6.538  64.747  1.00  0.00    -0.112 C  
HETATM   34  C   UNL     1      -6.999   5.616  65.308  1.00  0.00    -0.060 C  
HETATM   35  C   UNL     1      -6.381   6.459  66.420  1.00  0.00    -0.042 C  
HETATM   36  C   UNL     1      -7.425   9.897  66.602  1.00  0.00    -0.099 C  
HETATM   37  C   UNL     1      -7.668   6.995  67.113  1.00  0.00    -0.108 C  
HETATM   38  C   UNL     1      -6.636   9.161  67.679  1.00  0.00    -0.064 C  
HETATM   39  C   UNL     1      -7.414   8.009  68.201  1.00  0.00    -0.101 C  
HETATM   40  C   UNL     1      -8.503   5.913  67.852  1.00  0.00    -0.107 C  
BRANCH  35  41
HETATM   41  O   UNL     1      -5.355   5.834  67.205  1.00  0.00    -0.005 OA 
BRANCH  41  42
HETATM   42  C   UNL     1      -5.701   5.798  68.536  1.00  0.00    -0.012 C  
HETATM   43  O   UNL     1      -5.203   5.014  69.340  1.00  0.00     0.000 OA 
BRANCH  42  44
HETATM   44  C   UNL     1      -6.769   6.751  69.027  1.00  0.00    -0.059 C  
BRANCH  44  45
HETATM   45  C   UNL     1      -7.148   6.865  70.497  1.00  0.00    -0.067 C  
BRANCH  45  46
HETATM   46  C   UNL     1      -8.320   5.976  70.892  1.00  0.00    -0.126 C  
BRANCH  46  47
HETATM   47  C   UNL     1      -8.065   4.477  70.691  1.00  0.00    -0.074 C  
BRANCH  47  48
HETATM   48  C   UNL     1      -9.156   3.769  69.886  1.00  0.00    -0.188 C  
HETATM   49  C   UNL     1      -8.815   3.723  68.402  1.00  0.00    -0.150 C  
ENDBRANCH  47  48
ENDBRANCH  46  47
ENDBRANCH  45  46
ENDBRANCH  44  45
ENDBRANCH  42  44
ENDBRANCH  41  42
ENDBRANCH  35  41
ENDBRANCH  20  22
ENDBRANCH   1  20
TORSDOF 9
ENDMDL
MODEL      203
REMARK 921   NORMALIZED FREE ENERGY PREDICTED BY IDOCK:   44.77 KCAL/MOL
REMARK 922        TOTAL FREE ENERGY PREDICTED BY IDOCK:   65.01 KCAL/MOL
REMARK 923 INTER-LIGAND FREE ENERGY PREDICTED BY IDOCK:   48.92 KCAL/MOL
REMARK 924 INTRA-LIGAND FREE ENERGY PREDICTED BY IDOCK:   16.09 KCAL/MOL
REMARK 927      BINDING AFFINITY PREDICTED BY RF-SCORE:    0.00 PKD
ROOT
HETATM    1  N   UNL     1     -10.309  20.779  65.513  1.00  0.00     0.042 N  
HETATM    2  C   UNL     1     -11.485  20.069  65.694  1.00  0.00     1.065 C  
HETATM    3  C   UNL     1      -9.765  19.929  70.519  1.00  0.00     1.124 A  
HETATM    4  H   UNL     1     -10.437  21.759  65.262  1.00  0.00     0.000 HD 
HETATM    5  C   UNL     1     -12.601  16.637  66.065  1.00  0.00     4.473 A  
HETATM    6  O   UNL     1     -12.459  20.446  64.991  1.00  0.00     3.876 OA 
HETATM    7  C   UNL     1     -11.202  15.042  64.911  1.00  0.00    -0.423 A  
HETATM    8  C   UNL     1     -11.711  18.966  66.765  1.00  0.00     1.822 C  
HETATM    9  O   UNL     1     -13.123  19.091  67.119  1.00  0.00     5.407 OA 
HETATM   10  C   UNL     1     -11.533  17.559  66.165  1.00  0.00     1.503 A  
HETATM   11  C   UNL     1     -10.605  18.269  68.967  1.00  0.00     0.244 A  
HETATM   12  C   UNL     1     -11.019  19.278  68.086  1.00  0.00     0.102 A  
HETATM   13  C   UNL     1     -10.289  17.156  65.668  1.00  0.00    -0.198 A  
HETATM   14  C   UNL     1     -10.865  20.617  68.499  1.00  0.00     0.658 A  
HETATM   15  C   UNL     1      -9.975  18.597  70.174  1.00  0.00     1.200 A  
HETATM   16  H   UNL     1     -13.262  18.416  67.773  1.00  0.00     0.000 HD 
HETATM   17  C   UNL     1     -12.435  15.396  65.440  1.00  0.00     0.735 A  
HETATM   18  C   UNL     1     -10.218  20.945  69.685  1.00  0.00     0.855 A  
HETATM   19  C   UNL     1     -10.123  15.917  65.038  1.00  0.00     0.059 A  
ENDROOT
BRANCH   1  20
HETATM   20  N   UNL     1      -8.954  20.366  65.618  1.00  0.00    -0.385 NA 
HETATM   21  H   UNL     1      -8.162  20.979  65.423  1.00  0.00     0.000 HD 
BRANCH  20  22
HETATM   22  C   UNL     1      -8.826  19.120  65.990  1.00  0.00    -0.083 C  
HETATM   23  C   UNL     1      -7.853  16.797  65.735  1.00  0.00     0.502 C  
HETATM   24  C   UNL     1      -7.004  17.075  66.995  1.00  0.00    -0.228 C  
HETATM   25  C   UNL     1      -7.134  18.545  67.363  1.00  0.00    -0.208 C  
HETATM   26  C   UNL     1      -8.596  17.799  65.161  1.00  0.00     2.627 C  
HETATM   27  C   UNL     1      -7.700  15.304  65.372  1.00  0.00     5.560 C  
HETATM   28  C   UNL     1      -8.631  18.821  67.440  1.00  0.00    -0.289 C  
HETATM   29  C   UNL     1      -5.504  16.826  66.729  1.00  0.00    -0.094 C  
HETATM   30  C   UNL     1      -7.751  14.254  66.594  1.00  0.00     0.830 C  
HETATM   31  C   UNL     1      -7.269  14.739  68.024  1.00  0.00    -0.145 C  
HETATM   32  C   UNL     1      -7.794  13.921  69.311  1.00  0.00     0.254 C  
HETATM   33  C   UNL     1      -6.880  12.688  69.600  1.00  0.00     0.172 C  
HETATM   34  C   UNL     1      -6.063  13.019  70.868  1.00  0.00     0.287 C  
HETATM   35  C   UNL     1      -6.171  14.539  70.957  1.00  0.00     0.017 C  
HETATM   36  C   UNL     1      -7.629  16.218  68.130  1.00  0.00    -0.151 C  
HETATM   37  C   UNL     1      -7.691  14.729  70.684  1.00  0.00     1.316 C  
HETATM   38  C   UNL     1      -7.358  16.857  69.487  1.00  0.00     0.106 C  
HETATM   39  C   UNL     1      -8.127  16.167  70.553  1.00  0.00     2.403 C  
HETATM   40  C   UNL     1      -8.622  14.198  71.808  1.00  0.00     7.676 C  
BRANCH  35  41
HETATM   41  O   UNL     1      -5.569  15.159  72.104  1.00  0.00     0.192 OA 
BRANCH  41  42
HETATM   42  C   UNL     1      -5.608  14.326  73.197  1.00  0.00    -0.077 C  
HETATM   43  O   UNL     1      -5.437  14.716  74.348  1.00  0.00     0.347 OA 
BRANCH  42  44
HETATM   44  C   UNL     1      -5.845  12.849  72.967  1.00  0.00     1.529 C  
BRANCH  44  45
HETATM   45  C   UNL     1      -5.148  11.772  73.786  1.00  0.00     0.457 C  
BRANCH  45  46
HETATM   46  C   UNL     1      -5.542  10.355  73.387  1.00  0.00     0.736 C  
BRANCH  46  47
HETATM   47  C   UNL     1      -6.861  10.267  72.610  1.00  0.00     3.018 C  
BRANCH  47  48
HETATM   48  C   UNL     1      -6.769   9.432  71.332  1.00  0.00     0.041 C  
HETATM   49  C   UNL     1      -5.323   9.236  70.895  1.00  0.00    -0.033 C  
ENDBRANCH  47  48
ENDBRANCH  46  47
ENDBRANCH  45  46
ENDBRANCH  44  45
ENDBRANCH  42  44
ENDBRANCH  41  42
ENDBRANCH  35  41
ENDBRANCH  20  22
ENDBRANCH   1  20
TORSDOF 9
ENDMDL
MODEL      204
REMARK 921   NORMALIZED FREE ENERGY PREDICTED BY IDOCK:   47.27 KCAL/MOL
REMARK 922        TOTAL FREE ENERGY PREDICTED BY IDOCK:   68.82 KCAL/MOL
REMARK 923 INTER-LIGAND FREE ENERGY PREDICTED BY IDOCK:   39.68 KCAL/MOL
REMARK 924 INTRA-LIGAND FREE ENERGY PREDICTED BY IDOCK:   29.15 KCAL/MOL
REMARK 927      BINDING AFFINITY PREDICTED BY RF-SCORE:    0.00 PKD
ROOT
HETATM    1  N   UNL     1      -8.862   6.412  73.165  1.00  0.00    -0.129 N  
HETATM    2  C   UNL     1      -9.750   5.350  73.245  1.00  0.00    -0.150 C  
HETATM    3  C   UNL     1      -6.158   3.117  70.350  1.00  0.00    -0.023 A  
HETATM    4  H   UNL     1      -8.425   6.669  74.050  1.00  0.00     0.000 HD 
HETATM    5  C   UNL     1     -12.289   3.728  71.223  1.00  0.00     8.966 A  
HETATM    6  O   UNL     1     -10.364   5.239  74.338  1.00  0.00    -0.254 OA 
HETATM    7  C   UNL     1     -13.405   5.230  69.696  1.00  0.00    13.738 A  
HETATM    8  C   UNL     1      -9.933   4.251  72.162  1.00  0.00    -0.179 C  
HETATM    9  O   UNL     1     -10.273   3.050  72.921  1.00  0.00    -0.140 OA 
HETATM   10  C   UNL     1     -11.140   4.553  71.255  1.00  0.00     0.970 A  
HETATM   11  C   UNL     1      -8.566   3.344  70.195  1.00  0.00    -0.109 A  
HETATM   12  C   UNL     1      -8.620   3.853  71.500  1.00  0.00    -0.121 A  
HETATM   13  C   UNL     1     -11.145   5.691  70.441  1.00  0.00    -0.195 A  
HETATM   14  C   UNL     1      -7.418   3.900  72.238  1.00  0.00    -0.065 A  
HETATM   15  C   UNL     1      -7.339   2.986  69.624  1.00  0.00    -0.044 A  
HETATM   16  H   UNL     1     -10.385   2.378  72.260  1.00  0.00     0.000 HD 
HETATM   17  C   UNL     1     -13.409   4.069  70.456  1.00  0.00    19.777 A  
HETATM   18  C   UNL     1      -6.196   3.567  71.666  1.00  0.00    -0.014 A  
HETATM   19  C   UNL     1     -12.266   6.035  69.677  1.00  0.00     1.993 A  
ENDROOT
BRANCH   1  20
HETATM   20  N   UNL     1      -8.460   7.200  72.055  1.00  0.00    -0.108 NA 
HETATM   21  H   UNL     1      -8.205   8.185  72.127  1.00  0.00     0.000 HD 
BRANCH  20  22
HETATM   22  C   UNL     1      -8.451   6.535  70.930  1.00  0.00    -0.134 C  
HETATM   23  C   UNL     1      -9.579   5.131  69.151  1.00  0.00    -0.207 C  
HETATM   24  C   UNL     1      -9.512   6.360  68.218  1.00  0.00    -0.121 C  
HETATM   25  C   UNL     1      -9.072   7.570  69.028  1.00  0.00    -0.140 C  
HETATM   26  C   UNL     1      -9.227   5.240  70.474  1.00  0.00    -0.187 C  
HETATM   27  C   UNL     1     -10.035   3.916  68.314  1.00  0.00     0.109 C  
HETATM   28  C   UNL     1      -7.792   7.148  69.738  1.00  0.00    -0.118 C  
HETATM   29  C   UNL     1     -10.902   6.706  67.643  1.00  0.00    -0.393 C  
HETATM   30  C   UNL     1      -9.372   3.753  66.853  1.00  0.00    -0.214 C  
HETATM   31  C   UNL     1      -8.893   5.059  66.095  1.00  0.00    -0.125 C  
HETATM   32  C   UNL     1      -7.787   4.889  64.932  1.00  0.00    -0.089 C  
HETATM   33  C   UNL     1      -8.462   4.539  63.567  1.00  0.00    -0.114 C  
HETATM   34  C   UNL     1      -8.361   5.797  62.677  1.00  0.00    -0.070 C  
HETATM   35  C   UNL     1      -8.096   6.910  63.688  1.00  0.00     0.005 C  
HETATM   36  C   UNL     1      -8.418   6.039  67.163  1.00  0.00    -0.104 C  
HETATM   37  C   UNL     1      -7.008   6.234  64.571  1.00  0.00    -0.048 C  
HETATM   38  C   UNL     1      -7.797   7.327  66.635  1.00  0.00    -0.102 C  
HETATM   39  C   UNL     1      -6.612   7.029  65.791  1.00  0.00    -0.052 C  
HETATM   40  C   UNL     1      -5.645   6.011  63.861  1.00  0.00    -0.018 C  
BRANCH  35  41
HETATM   41  O   UNL     1      -7.868   8.222  63.152  1.00  0.00    -0.134 OA 
BRANCH  41  42
HETATM   42  C   UNL     1      -7.811   9.164  64.153  1.00  0.00    -0.128 C  
HETATM   43  O   UNL     1      -6.757   9.587  64.620  1.00  0.00    -0.086 OA 
BRANCH  42  44
HETATM   44  C   UNL     1      -9.111   9.682  64.728  1.00  0.00    -0.283 C  
BRANCH  44  45
HETATM   45  C   UNL     1      -9.227  11.051  65.382  1.00  0.00    -0.232 C  
BRANCH  45  46
HETATM   46  C   UNL     1     -10.482  11.214  66.232  1.00  0.00    -0.312 C  
BRANCH  46  47
HETATM   47  C   UNL     1     -11.026  12.647  66.275  1.00  0.00    -0.314 C  
BRANCH  47  48
HETATM   48  C   UNL     1     -10.656  13.409  67.549  1.00  0.00    -0.255 C  
HETATM   49  C   UNL     1     -11.640  14.537  67.831  1.00  0.00    -0.371 C  
ENDBRANCH  47  48
ENDBRANCH  46  47
ENDBRANCH  45  46
ENDBRANCH  44  45
ENDBRANCH  42  44
ENDBRANCH  41  42
ENDBRANCH  35  41
ENDBRANCH  20  22
ENDBRANCH   1  20
TORSDOF 9
ENDMDL
MODEL      205
REMARK 921   NORMALIZED FREE ENERGY PREDICTED BY IDOCK:   50.10 KCAL/MOL
REMARK 922        TOTAL FREE ENERGY PREDICTED BY IDOCK:   73.15 KCAL/MOL
REMARK 923 INTER-LIGAND FREE ENERGY PREDICTED BY IDOCK:   13.48 KCAL/MOL
REMARK 924 INTRA-LIGAND FREE ENERGY PREDICTED BY IDOCK:   59.66 KCAL/MOL
REMARK 927      BINDING AFFINITY PREDICTED BY RF-SCORE:    0.00 PKD
ROOT
HETATM    1  N   UNL     1     -12.619  14.916  66.923  1.00  0.00    -0.055 N  
HETATM    2  C   UNL     1     -12.569  15.302  68.253  1.00  0.00     0.876 C  
HETATM    3  C   UNL     1      -7.645  14.017  67.652  1.00  0.00    -0.191 A  
HETATM    4  H   UNL     1     -12.820  15.671  66.268  1.00  0.00     0.000 HD 
HETATM    5  C   UNL     1     -12.486  13.798  71.555  1.00  0.00    -0.364 A  
HETATM    6  O   UNL     1     -13.320  16.262  68.568  1.00  0.00     2.518 OA 
HETATM    7  C   UNL     1     -13.624  11.671  71.669  1.00  0.00     0.145 A  
HETATM    8  C   UNL     1     -11.586  14.736  69.315  1.00  0.00    -0.303 C  
HETATM    9  O   UNL     1     -11.332  15.863  70.209  1.00  0.00    -0.315 OA 
HETATM   10  C   UNL     1     -12.252  13.641  70.168  1.00  0.00    -0.413 A  
HETATM   11  C   UNL     1      -9.351  13.484  69.288  1.00  0.00     0.676 A  
HETATM   12  C   UNL     1     -10.200  14.458  68.745  1.00  0.00    -0.239 A  
HETATM   13  C   UNL     1     -12.677  12.445  69.578  1.00  0.00     0.658 A  
HETATM   14  C   UNL     1      -9.698  15.260  67.698  1.00  0.00    -0.208 A  
HETATM   15  C   UNL     1      -8.083  13.262  68.736  1.00  0.00     0.063 A  
HETATM   16  H   UNL     1     -10.731  15.517  70.858  1.00  0.00     0.000 HD 
HETATM   17  C   UNL     1     -13.170  12.825  72.292  1.00  0.00    -0.491 A  
HETATM   18  C   UNL     1      -8.449  15.026  67.134  1.00  0.00    -0.244 A  
HETATM   19  C   UNL     1     -13.365  11.474  70.313  1.00  0.00     0.979 A  
ENDROOT
BRANCH   1  20
HETATM   20  N   UNL     1     -12.437  13.643  66.322  1.00  0.00    -0.403 NA 
HETATM   21  H   UNL     1     -13.074  13.252  65.627  1.00  0.00     0.000 HD 
BRANCH  20  22
HETATM   22  C   UNL     1     -11.369  13.022  66.750  1.00  0.00    -0.324 C  
HETATM   23  C   UNL     1      -9.609  12.548  68.506  1.00  0.00    -0.114 C  
HETATM   24  C   UNL     1     -10.279  11.174  68.727  1.00  0.00    -0.219 C  
HETATM   25  C   UNL     1     -11.598  11.142  67.970  1.00  0.00    -0.337 C  
HETATM   26  C   UNL     1     -10.196  13.488  67.695  1.00  0.00    -0.239 C  
HETATM   27  C   UNL     1      -8.278  12.565  69.288  1.00  0.00     0.737 C  
HETATM   28  C   UNL     1     -11.264  11.547  66.540  1.00  0.00    -0.324 C  
HETATM   29  C   UNL     1     -10.627  10.949  70.214  1.00  0.00     0.336 C  
HETATM   30  C   UNL     1      -7.373  11.232  69.205  1.00  0.00    -0.068 C  
HETATM   31  C   UNL     1      -8.099   9.843  68.975  1.00  0.00    -0.111 C  
HETATM   32  C   UNL     1      -7.224   8.628  68.374  1.00  0.00    -0.085 C  
HETATM   33  C   UNL     1      -6.474   7.864  69.512  1.00  0.00    -0.035 C  
HETATM   34  C   UNL     1      -7.181   6.502  69.683  1.00  0.00    -0.078 C  
HETATM   35  C   UNL     1      -8.537   6.735  69.022  1.00  0.00    -0.131 C  
HETATM   36  C   UNL     1      -9.319  10.124  68.103  1.00  0.00    -0.140 C  
HETATM   37  C   UNL     1      -8.092   7.461  67.719  1.00  0.00    -0.119 C  
HETATM   38  C   UNL     1     -10.099   8.891  67.659  1.00  0.00    -0.274 C  
HETATM   39  C   UNL     1      -9.230   7.978  66.874  1.00  0.00    -0.191 C  
HETATM   40  C   UNL     1      -7.310   6.569  66.716  1.00  0.00    -0.079 C  
BRANCH  35  41
HETATM   41  O   UNL     1      -9.416   5.603  68.944  1.00  0.00    -0.120 OA 
BRANCH  41  42
HETATM   42  C   UNL     1     -10.597   5.846  69.604  1.00  0.00    -0.313 C  
HETATM   43  O   UNL     1     -11.289   6.840  69.403  1.00  0.00    -0.257 OA 
BRANCH  42  44
HETATM   44  C   UNL     1     -11.053   4.853  70.652  1.00  0.00     0.845 C  
BRANCH  44  45
HETATM   45  C   UNL     1     -12.522   4.538  70.894  1.00  0.00     8.453 C  
BRANCH  45  46
HETATM   46  C   UNL     1     -12.838   4.198  72.345  1.00  0.00     3.028 C  
BRANCH  46  47
HETATM   47  C   UNL     1     -12.453   5.296  73.344  1.00  0.00     1.423 C  
BRANCH  47  48
HETATM   48  C   UNL     1     -11.088   5.929  73.067  1.00  0.00    -0.289 C  
HETATM   49  C   UNL     1      -9.954   4.942  73.310  1.00  0.00    -0.181 C  
ENDBRANCH  47  48
ENDBRANCH  46  47
ENDBRANCH  45  46
ENDBRANCH  44  45
ENDBRANCH  42  44
ENDBRANCH  41  42
ENDBRANCH  35  41
ENDBRANCH  20  22
ENDBRANCH   1  20
TORSDOF 9
ENDMDL
MODEL      206
REMARK 921   NORMALIZED FREE ENERGY PREDICTED BY IDOCK:   54.21 KCAL/MOL
REMARK 922        TOTAL FREE ENERGY PREDICTED BY IDOCK:   79.42 KCAL/MOL
REMARK 923 INTER-LIGAND FREE ENERGY PREDICTED BY IDOCK:    2.45 KCAL/MOL
REMARK 924 INTRA-LIGAND FREE ENERGY PREDICTED BY IDOCK:   76.98 KCAL/MOL
REMARK 927      BINDING AFFINITY PREDICTED BY RF-SCORE:    0.00 PKD
ROOT
HETATM    1  N   UNL     1     -12.357  15.654  65.133  1.00  0.00     0.590 N  
HETATM    2  C   UNL     1     -12.717  15.009  66.306  1.00  0.00     0.907 C  
HETATM    3  C   UNL     1      -8.113  16.722  67.768  1.00  0.00    -0.186 A  
HETATM    4  H   UNL     1     -12.926  16.468  64.903  1.00  0.00     0.000 HD 
HETATM    5  C   UNL     1     -12.041  11.905  68.060  1.00  0.00    -0.010 A  
HETATM    6  O   UNL     1     -13.940  15.059  66.598  1.00  0.00     4.171 OA 
HETATM    7  C   UNL     1     -11.526  10.063  66.586  1.00  0.00     1.183 A  
HETATM    8  C   UNL     1     -11.727  14.366  67.316  1.00  0.00    -0.404 C  
HETATM    9  O   UNL     1     -12.368  14.549  68.616  1.00  0.00    -0.578 OA 
HETATM   10  C   UNL     1     -11.610  12.847  67.095  1.00  0.00    -0.421 A  
HETATM   11  C   UNL     1      -9.230  14.573  67.850  1.00  0.00    -0.196 A  
HETATM   12  C   UNL     1     -10.442  15.170  67.474  1.00  0.00    -0.258 A  
HETATM   13  C   UNL     1     -11.087  12.344  65.899  1.00  0.00    -0.349 A  
HETATM   14  C   UNL     1     -10.471  16.573  67.336  1.00  0.00    -0.310 A  
HETATM   15  C   UNL     1      -8.072  15.349  67.988  1.00  0.00    -0.143 A  
HETATM   16  H   UNL     1     -11.763  14.156  69.234  1.00  0.00     0.000 HD 
HETATM   17  C   UNL     1     -12.004  10.530  67.802  1.00  0.00     0.976 A  
HETATM   18  C   UNL     1      -9.317  17.341  67.449  1.00  0.00    -0.236 A  
HETATM   19  C   UNL     1     -11.053  10.970  65.639  1.00  0.00    -0.008 A  
ENDROOT
BRANCH   1  20
HETATM   20  N   UNL     1     -11.325  15.369  64.200  1.00  0.00    -0.674 NA 
HETATM   21  H   UNL     1     -11.338  15.691  63.232  1.00  0.00     0.000 HD 
BRANCH  20  22
HETATM   22  C   UNL     1     -10.358  14.653  64.709  1.00  0.00    -0.253 C  
HETATM   23  C   UNL     1      -9.240  13.445  66.632  1.00  0.00    -0.223 C  
HETATM   24  C   UNL     1      -9.626  12.115  65.948  1.00  0.00    -0.226 C  
HETATM   25  C   UNL     1     -10.569  12.411  64.791  1.00  0.00    -0.331 C  
HETATM   26  C   UNL     1      -9.708  14.640  66.145  1.00  0.00    -0.344 C  
HETATM   27  C   UNL     1      -8.291  13.123  67.807  1.00  0.00    -0.171 C  
HETATM   28  C   UNL     1      -9.867  13.466  63.946  1.00  0.00     1.293 C  
HETATM   29  C   UNL     1     -10.400  11.190  66.912  1.00  0.00    -0.272 C  
HETATM   30  C   UNL     1      -7.143  12.025  67.531  1.00  0.00    -0.129 C  
HETATM   31  C   UNL     1      -7.425  10.897  66.454  1.00  0.00    -0.145 C  
HETATM   32  C   UNL     1      -6.154  10.151  65.797  1.00  0.00    -0.098 C  
HETATM   33  C   UNL     1      -5.686   8.957  66.689  1.00  0.00    -0.047 C  
HETATM   34  C   UNL     1      -6.091   7.660  65.956  1.00  0.00    -0.038 C  
HETATM   35  C   UNL     1      -7.158   8.141  64.976  1.00  0.00    -0.071 C  
HETATM   36  C   UNL     1      -8.306  11.526  65.379  1.00  0.00     0.425 C  
HETATM   37  C   UNL     1      -6.469   9.419  64.416  1.00  0.00    -0.089 C  
HETATM   38  C   UNL     1      -8.598  10.637  64.175  1.00  0.00    -0.100 C  
HETATM   39  C   UNL     1      -7.336  10.244  63.498  1.00  0.00    -0.087 C  
HETATM   40  C   UNL     1      -5.217   9.146  63.537  1.00  0.00    -0.066 C  
BRANCH  35  41
HETATM   41  O   UNL     1      -7.688   7.160  64.071  1.00  0.00    -0.113 OA 
BRANCH  41  42
HETATM   42  C   UNL     1      -8.190   6.076  64.752  1.00  0.00    -0.123 C  
HETATM   43  O   UNL     1      -9.163   6.141  65.498  1.00  0.00    -0.017 OA 
BRANCH  42  44
HETATM   44  C   UNL     1      -7.490   4.743  64.598  1.00  0.00    -0.072 C  
BRANCH  44  45
HETATM   45  C   UNL     1      -8.215   3.416  64.768  1.00  0.00    -0.090 C  
BRANCH  45  46
HETATM   46  C   UNL     1      -7.346   2.323  65.379  1.00  0.00    -0.062 C  
BRANCH  46  47
HETATM   47  C   UNL     1      -7.532   2.147  66.891  1.00  0.00    -0.061 C  
BRANCH  47  48
HETATM   48  C   UNL     1      -6.507   2.910  67.731  1.00  0.00    -0.036 C  
HETATM   49  C   UNL     1      -7.076   4.225  68.248  1.00  0.00    -0.059 C  
ENDBRANCH  47  48
ENDBRANCH  46  47
ENDBRANCH  45  46
ENDBRANCH  44  45
ENDBRANCH  42  44
ENDBRANCH  41  42
ENDBRANCH  35  41
ENDBRANCH  20  22
ENDBRANCH   1  20
TORSDOF 9
ENDMDL
MODEL      207
REMARK 921   NORMALIZED FREE ENERGY PREDICTED BY IDOCK:   54.81 KCAL/MOL
REMARK 922        TOTAL FREE ENERGY PREDICTED BY IDOCK:   80.33 KCAL/MOL
REMARK 923 INTER-LIGAND FREE ENERGY PREDICTED BY IDOCK:    7.86 KCAL/MOL
REMARK 924 INTRA-LIGAND FREE ENERGY PREDICTED BY IDOCK:   72.47 KCAL/MOL
REMARK 927      BINDING AFFINITY PREDICTED BY RF-SCORE:    0.00 PKD
ROOT
HETATM    1  N   UNL     1      -8.592   2.993  70.634  1.00  0.00    -0.064 N  
HETATM    2  C   UNL     1      -7.641   3.737  71.316  1.00  0.00    -0.055 C  
HETATM    3  C   UNL     1     -11.847   5.796  73.397  1.00  0.00     0.687 A  
HETATM    4  H   UNL     1      -8.595   1.999  70.859  1.00  0.00     0.000 HD 
HETATM    5  C   UNL     1      -6.150   7.044  71.228  1.00  0.00    -0.037 A  
HETATM    6  O   UNL     1      -6.580   3.125  71.605  1.00  0.00    -0.018 OA 
HETATM    7  C   UNL     1      -6.076   8.005  69.014  1.00  0.00    -0.039 A  
HETATM    8  C   UNL     1      -7.844   5.184  71.844  1.00  0.00    -0.110 C  
HETATM    9  O   UNL     1      -7.039   5.240  73.062  1.00  0.00    -0.084 OA 
HETATM   10  C   UNL     1      -7.247   6.222  70.876  1.00  0.00    -0.071 A  
HETATM   11  C   UNL     1      -9.840   6.696  72.381  1.00  0.00    -0.169 A  
HETATM   12  C   UNL     1      -9.251   5.424  72.377  1.00  0.00    -0.152 A  
HETATM   13  C   UNL     1      -7.767   6.366  69.585  1.00  0.00    -0.103 A  
HETATM   14  C   UNL     1      -9.965   4.365  72.976  1.00  0.00    -0.195 A  
HETATM   15  C   UNL     1     -11.135   6.875  72.883  1.00  0.00    -0.297 A  
HETATM   16  H   UNL     1      -7.162   6.125  73.385  1.00  0.00     0.000 HD 
HETATM   17  C   UNL     1      -5.570   7.920  70.304  1.00  0.00    -0.023 A  
HETATM   18  C   UNL     1     -11.260   4.536  73.453  1.00  0.00    -0.404 A  
HETATM   19  C   UNL     1      -7.186   7.238  68.659  1.00  0.00    -0.090 A  
ENDROOT
BRANCH   1  20
HETATM   20  N   UNL     1      -9.561   3.389  69.675  1.00  0.00    -0.146 NA 
HETATM   21  H   UNL     1      -9.811   2.825  68.862  1.00  0.00     0.000 HD 
BRANCH  20  22
HETATM   22  C   UNL     1     -10.102   4.548  69.941  1.00  0.00    -0.125 C  
HETATM   23  C   UNL     1     -10.286   6.671  71.307  1.00  0.00    -0.230 C  
HETATM   24  C   UNL     1      -9.676   7.430  70.108  1.00  0.00    -0.175 C  
HETATM   25  C   UNL     1      -9.181   6.418  69.085  1.00  0.00    -0.133 C  
HETATM   26  C   UNL     1     -10.350   5.300  71.304  1.00  0.00    -0.292 C  
HETATM   27  C   UNL     1     -10.774   7.713  72.337  1.00  0.00    -0.333 C  
HETATM   28  C   UNL     1     -10.361   5.494  68.814  1.00  0.00    -0.271 C  
HETATM   29  C   UNL     1      -8.443   8.256  70.532  1.00  0.00    -0.129 C  
HETATM   30  C   UNL     1     -11.548   9.002  71.752  1.00  0.00    -0.444 C  
HETATM   31  C   UNL     1     -11.192   9.492  70.288  1.00  0.00    -0.307 C  
HETATM   32  C   UNL     1     -12.281  10.395  69.513  1.00  0.00    -0.068 C  
HETATM   33  C   UNL     1     -12.120  11.905  69.884  1.00  0.00    -0.344 C  
HETATM   34  C   UNL     1     -11.515  12.611  68.651  1.00  0.00    -0.347 C  
HETATM   35  C   UNL     1     -10.922  11.453  67.852  1.00  0.00    -0.240 C  
HETATM   36  C   UNL     1     -10.839   8.247  69.481  1.00  0.00    -0.124 C  
HETATM   37  C   UNL     1     -12.092  10.430  67.929  1.00  0.00     1.488 C  
HETATM   38  C   UNL     1     -10.580   8.485  67.997  1.00  0.00    -0.197 C  
HETATM   39  C   UNL     1     -11.776   9.076  67.345  1.00  0.00     2.742 C  
HETATM   40  C   UNL     1     -13.366  10.844  67.143  1.00  0.00    10.894 C  
BRANCH  35  41
HETATM   41  O   UNL     1     -10.344  11.782  66.579  1.00  0.00    -0.214 OA 
BRANCH  41  42
HETATM   42  C   UNL     1     -10.241  13.143  66.418  1.00  0.00    -0.286 C  
HETATM   43  O   UNL     1     -11.162  13.845  66.011  1.00  0.00    -0.296 OA 
BRANCH  42  44
HETATM   44  C   UNL     1      -8.916  13.806  66.729  1.00  0.00    -0.202 C  
BRANCH  44  45
HETATM   45  C   UNL     1      -8.820  15.130  67.474  1.00  0.00    -0.190 C  
BRANCH  45  46
HETATM   46  C   UNL     1      -9.221  15.031  68.941  1.00  0.00    -0.206 C  
BRANCH  46  47
HETATM   47  C   UNL     1      -9.756  16.341  69.533  1.00  0.00    -0.131 C  
BRANCH  47  48
HETATM   48  C   UNL     1     -10.034  17.422  68.487  1.00  0.00    -0.331 C  
HETATM   49  C   UNL     1     -10.113  16.835  67.084  1.00  0.00    -0.282 C  
ENDBRANCH  47  48
ENDBRANCH  46  47
ENDBRANCH  45  46
ENDBRANCH  44  45
ENDBRANCH  42  44
ENDBRANCH  41  42
ENDBRANCH  35  41
ENDBRANCH  20  22
ENDBRANCH   1  20
TORSDOF 9
ENDMDL
MODEL      208
REMARK 921   NORMALIZED FREE ENERGY PREDICTED BY IDOCK:   59.85 KCAL/MOL
REMARK 922        TOTAL FREE ENERGY PREDICTED BY IDOCK:   88.03 KCAL/MOL
REMARK 923 INTER-LIGAND FREE ENERGY PREDICTED BY IDOCK:    1.72 KCAL/MOL
REMARK 924 INTRA-LIGAND FREE ENERGY PREDICTED BY IDOCK:   86.31 KCAL/MOL
REMARK 927      BINDING AFFINITY PREDICTED BY RF-SCORE:    0.00 PKD
ROOT
HETATM    1  N   UNL     1      -9.976  10.966  65.717  1.00  0.00    -0.235 N  
HETATM    2  C   UNL     1      -8.776  10.272  65.733  1.00  0.00    -0.156 C  
HETATM    3  C   UNL     1     -11.844   6.517  67.392  1.00  0.00     1.491 A  
HETATM    4  H   UNL     1     -10.299  11.236  64.788  1.00  0.00     0.000 HD 
HETATM    5  C   UNL     1      -6.263   9.176  68.110  1.00  0.00    -0.054 A  
HETATM    6  O   UNL     1      -7.966  10.570  64.817  1.00  0.00    -0.135 OA 
HETATM    7  C   UNL     1      -6.053  10.632  70.025  1.00  0.00    -0.099 A  
HETATM    8  C   UNL     1      -8.431   9.101  66.694  1.00  0.00    -0.123 C  
HETATM    9  O   UNL     1      -7.556   8.235  65.907  1.00  0.00    -0.079 OA 
HETATM   10  C   UNL     1      -7.600   9.589  67.895  1.00  0.00    -0.087 A  
HETATM   11  C   UNL     1      -9.742   7.454  68.152  1.00  0.00    -0.163 A  
HETATM   12  C   UNL     1      -9.623   8.193  66.967  1.00  0.00    -0.253 A  
HETATM   13  C   UNL     1      -8.146  10.494  68.812  1.00  0.00    -0.131 A  
HETATM   14  C   UNL     1     -10.601   8.000  65.969  1.00  0.00     1.453 A  
HETATM   15  C   UNL     1     -10.852   6.627  68.363  1.00  0.00    -0.320 A  
HETATM   16  H   UNL     1      -7.344   7.519  66.494  1.00  0.00     0.000 HD 
HETATM   17  C   UNL     1      -5.500   9.698  69.160  1.00  0.00    -0.036 A  
HETATM   18  C   UNL     1     -11.716   7.198  66.186  1.00  0.00     4.170 A  
HETATM   19  C   UNL     1      -7.382  11.019  69.860  1.00  0.00     0.168 A  
ENDROOT
BRANCH   1  20
HETATM   20  N   UNL     1     -10.831  11.362  66.779  1.00  0.00    -0.275 NA 
HETATM   21  H   UNL     1     -11.570  12.057  66.678  1.00  0.00     0.000 HD 
BRANCH  20  22
HETATM   22  C   UNL     1     -10.572  10.744  67.902  1.00  0.00    -0.221 C  
HETATM   23  C   UNL     1     -11.202   9.191  69.799  1.00  0.00    -0.073 C  
HETATM   24  C   UNL     1     -10.212   8.162  69.211  1.00  0.00    -0.216 C  
HETATM   25  C   UNL     1      -9.749   8.648  67.845  1.00  0.00    -0.192 C  
HETATM   26  C   UNL     1     -11.498  10.344  69.114  1.00  0.00    -0.261 C  
HETATM   27  C   UNL     1     -11.667   8.677  71.178  1.00  0.00    -0.334 C  
HETATM   28  C   UNL     1      -9.249  10.071  68.061  1.00  0.00    -0.139 C  
HETATM   29  C   UNL     1     -10.893   6.796  68.976  1.00  0.00    -0.290 C  
HETATM   30  C   UNL     1     -10.533   8.049  72.137  1.00  0.00    -0.329 C  
HETATM   31  C   UNL     1      -9.269   7.372  71.463  1.00  0.00    -0.149 C  
HETATM   32  C   UNL     1      -7.929   7.230  72.350  1.00  0.00    -0.105 C  
HETATM   33  C   UNL     1      -7.966   5.927  73.212  1.00  0.00    -0.109 C  
HETATM   34  C   UNL     1      -6.957   4.941  72.584  1.00  0.00    -0.076 C  
HETATM   35  C   UNL     1      -6.765   5.500  71.176  1.00  0.00    -0.052 C  
HETATM   36  C   UNL     1      -8.994   8.140  70.174  1.00  0.00    -0.146 C  
HETATM   37  C   UNL     1      -6.600   7.014  71.495  1.00  0.00    -0.048 C  
HETATM   38  C   UNL     1      -7.733   7.723  69.424  1.00  0.00    -0.106 C  
HETATM   39  C   UNL     1      -6.532   7.904  70.279  1.00  0.00    -0.037 C  
HETATM   40  C   UNL     1      -5.290   7.377  72.248  1.00  0.00    -0.037 C  
BRANCH  35  41
HETATM   41  O   UNL     1      -5.800   4.835  70.348  1.00  0.00    -0.015 OA 
BRANCH  41  42
HETATM   42  C   UNL     1      -6.381   4.349  69.200  1.00  0.00    -0.032 C  
HETATM   43  O   UNL     1      -7.443   3.733  69.192  1.00  0.00    -0.053 OA 
BRANCH  42  44
HETATM   44  C   UNL     1      -5.661   4.557  67.885  1.00  0.00    -0.017 C  
BRANCH  44  45
HETATM   45  C   UNL     1      -5.505   3.448  66.855  1.00  0.00    -0.020 C  
BRANCH  45  46
HETATM   46  C   UNL     1      -6.808   3.079  66.158  1.00  0.00    -0.048 C  
BRANCH  46  47
HETATM   47  C   UNL     1      -8.021   3.894  66.625  1.00  0.00    -0.096 C  
BRANCH  47  48
HETATM   48  C   UNL     1      -8.712   4.669  65.503  1.00  0.00    -0.130 C  
HETATM   49  C   UNL     1      -7.731   5.053  64.403  1.00  0.00    -0.085 C  
ENDBRANCH  47  48
ENDBRANCH  46  47
ENDBRANCH  45  46
ENDBRANCH  44  45
ENDBRANCH  42  44
ENDBRANCH  41  42
ENDBRANCH  35  41
ENDBRANCH  20  22
ENDBRANCH   1  20
TORSDOF 9
ENDMDL
MODEL      209
REMARK 921   NORMALIZED FREE ENERGY PREDICTED BY IDOCK:   65.82 KCAL/MOL
REMARK 922        TOTAL FREE ENERGY PREDICTED BY IDOCK:   97.13 KCAL/MOL
REMARK 923 INTER-LIGAND FREE ENERGY PREDICTED BY IDOCK:   92.36 KCAL/MOL
REMARK 924 INTRA-LIGAND FREE ENERGY PREDICTED BY IDOCK:    4.77 KCAL/MOL
REMARK 927      BINDING AFFINITY PREDICTED BY RF-SCORE:    0.00 PKD
ROOT
HETATM    1  N   UNL     1      -9.000   5.229  73.117  1.00  0.00    -0.119 N  
HETATM    2  C   UNL     1      -9.806   4.125  73.345  1.00  0.00    -0.123 C  
HETATM    3  C   UNL     1      -6.217   1.859  70.475  1.00  0.00    -0.023 A  
HETATM    4  H   UNL     1      -8.539   5.598  73.948  1.00  0.00     0.000 HD 
HETATM    5  C   UNL     1     -12.324   2.153  71.630  1.00  0.00     5.597 A  
HETATM    6  O   UNL     1     -10.357   4.081  74.477  1.00  0.00    -0.193 OA 
HETATM    7  C   UNL     1     -13.616   3.424  70.035  1.00  0.00    26.421 A  
HETATM    8  C   UNL     1      -9.966   2.916  72.382  1.00  0.00    -0.165 C  
HETATM    9  O   UNL     1     -10.183   1.775  73.268  1.00  0.00    -0.090 OA 
HETATM   10  C   UNL     1     -11.235   3.050  71.521  1.00  0.00     2.624 A  
HETATM   11  C   UNL     1      -8.639   1.913  70.435  1.00  0.00    -0.100 A  
HETATM   12  C   UNL     1      -8.663   2.542  71.688  1.00  0.00    -0.108 A  
HETATM   13  C   UNL     1     -11.360   4.101  70.605  1.00  0.00     3.925 A  
HETATM   14  C   UNL     1      -7.433   2.737  72.350  1.00  0.00    -0.051 A  
HETATM   15  C   UNL     1      -7.420   1.581  69.832  1.00  0.00    -0.036 A  
HETATM   16  H   UNL     1     -10.281   1.036  72.680  1.00  0.00     0.000 HD 
HETATM   17  C   UNL     1     -13.502   2.344  70.899  1.00  0.00    15.123 A  
HETATM   18  C   UNL     1      -6.220   2.431  71.743  1.00  0.00    -0.014 A  
HETATM   19  C   UNL     1     -12.539   4.295  69.876  1.00  0.00    16.027 A  
ENDROOT
BRANCH   1  20
HETATM   20  N   UNL     1      -8.710   5.930  71.917  1.00  0.00    -0.138 NA 
HETATM   21  H   UNL     1      -8.705   5.491  70.996  1.00  0.00     0.000 HD 
BRANCH  20  22
HETATM   22  C   UNL     1      -8.448   7.195  72.113  1.00  0.00    -0.110 C  
HETATM   23  C   UNL     1      -6.976   9.071  72.962  1.00  0.00     0.359 C  
HETATM   24  C   UNL     1      -6.664   9.418  71.490  1.00  0.00     0.097 C  
HETATM   25  C   UNL     1      -7.216   8.317  70.597  1.00  0.00    -0.049 C  
HETATM   26  C   UNL     1      -7.687   7.939  73.276  1.00  0.00    -0.186 C  
HETATM   27  C   UNL     1      -6.401  10.194  73.853  1.00  0.00     1.483 C  
HETATM   28  C   UNL     1      -8.678   8.157  70.994  1.00  0.00    -0.156 C  
HETATM   29  C   UNL     1      -5.143   9.463  71.232  1.00  0.00    -0.038 C  
HETATM   30  C   UNL     1      -6.623  11.708  73.343  1.00  0.00     6.022 C  
HETATM   31  C   UNL     1      -6.749  11.966  71.785  1.00  0.00     4.757 C  
HETATM   32  C   UNL     1      -7.480  13.321  71.304  1.00  0.00     5.552 C  
HETATM   33  C   UNL     1      -6.470  14.513  71.257  1.00  0.00     0.426 C  
HETATM   34  C   UNL     1      -6.201  14.818  69.767  1.00  0.00    -0.144 C  
HETATM   35  C   UNL     1      -6.652  13.537  69.069  1.00  0.00    -0.110 C  
HETATM   36  C   UNL     1      -7.429  10.737  71.189  1.00  0.00     2.972 C  
HETATM   37  C   UNL     1      -8.004  13.282  69.798  1.00  0.00     1.515 C  
HETATM   38  C   UNL     1      -7.757  10.831  69.703  1.00  0.00    -0.020 C  
HETATM   39  C   UNL     1      -8.667  11.975  69.441  1.00  0.00     1.015 C  
HETATM   40  C   UNL     1      -9.116  14.319  69.481  1.00  0.00     0.551 C  
BRANCH  35  41
HETATM   41  O   UNL     1      -6.603  13.537  67.635  1.00  0.00    -0.158 OA 
BRANCH  41  42
HETATM   42  C   UNL     1      -7.312  12.480  67.114  1.00  0.00    -0.063 C  
HETATM   43  O   UNL     1      -8.078  12.587  66.161  1.00  0.00     0.448 OA 
BRANCH  42  44
HETATM   44  C   UNL     1      -7.164  11.123  67.768  1.00  0.00    -0.091 C  
BRANCH  44  45
HETATM   45  C   UNL     1      -7.424   9.823  67.021  1.00  0.00    -0.091 C  
BRANCH  45  46
HETATM   46  C   UNL     1      -6.634   9.699  65.725  1.00  0.00    -0.081 C  
BRANCH  46  47
HETATM   47  C   UNL     1      -5.232   9.103  65.901  1.00  0.00    -0.036 C  
BRANCH  47  48
HETATM   48  C   UNL     1      -5.215   7.575  65.966  1.00  0.00    -0.025 C  
HETATM   49  C   UNL     1      -5.693   6.955  64.659  1.00  0.00    -0.032 C  
ENDBRANCH  47  48
ENDBRANCH  46  47
ENDBRANCH  45  46
ENDBRANCH  44  45
ENDBRANCH  42  44
ENDBRANCH  41  42
ENDBRANCH  35  41
ENDBRANCH  20  22
ENDBRANCH   1  20
TORSDOF 9
ENDMDL
MODEL      210
REMARK 921   NORMALIZED FREE ENERGY PREDICTED BY IDOCK:   66.73 KCAL/MOL
REMARK 922        TOTAL FREE ENERGY PREDICTED BY IDOCK:   98.53 KCAL/MOL
REMARK 923 INTER-LIGAND FREE ENERGY PREDICTED BY IDOCK:   91.92 KCAL/MOL
REMARK 924 INTRA-LIGAND FREE ENERGY PREDICTED BY IDOCK:    6.61 KCAL/MOL
REMARK 927      BINDING AFFINITY PREDICTED BY RF-SCORE:    0.00 PKD
ROOT
HETATM    1  N   UNL     1      -9.000   5.229  73.117  1.00  0.00    -0.119 N  
HETATM    2  C   UNL     1      -9.806   4.125  73.345  1.00  0.00    -0.123 C  
HETATM    3  C   UNL     1      -6.217   1.859  70.475  1.00  0.00    -0.023 A  
HETATM    4  H   UNL     1      -8.539   5.598  73.948  1.00  0.00     0.000 HD 
HETATM    5  C   UNL     1     -12.324   2.153  71.630  1.00  0.00     5.597 A  
HETATM    6  O   UNL     1     -10.357   4.081  74.477  1.00  0.00    -0.193 OA 
HETATM    7  C   UNL     1     -13.616   3.424  70.035  1.00  0.00    26.421 A  
HETATM    8  C   UNL     1      -9.966   2.916  72.382  1.00  0.00    -0.165 C  
HETATM    9  O   UNL     1     -10.183   1.775  73.268  1.00  0.00    -0.090 OA 
HETATM   10  C   UNL     1     -11.235   3.050  71.521  1.00  0.00     2.624 A  
HETATM   11  C   UNL     1      -8.639   1.913  70.435  1.00  0.00    -0.100 A  
HETATM   12  C   UNL     1      -8.663   2.542  71.688  1.00  0.00    -0.108 A  
HETATM   13  C   UNL     1     -11.360   4.101  70.605  1.00  0.00     3.925 A  
HETATM   14  C   UNL     1      -7.433   2.737  72.350  1.00  0.00    -0.051 A  
HETATM   15  C   UNL     1      -7.420   1.581  69.832  1.00  0.00    -0.036 A  
HETATM   16  H   UNL     1     -10.281   1.036  72.680  1.00  0.00     0.000 HD 
HETATM   17  C   UNL     1     -13.502   2.344  70.899  1.00  0.00    15.123 A  
HETATM   18  C   UNL     1      -6.220   2.431  71.743  1.00  0.00    -0.014 A  
HETATM   19  C   UNL     1     -12.539   4.295  69.876  1.00  0.00    16.027 A  
ENDROOT
BRANCH   1  20
HETATM   20  N   UNL     1      -8.710   5.930  71.917  1.00  0.00    -0.138 NA 
HETATM   21  H   UNL     1      -8.705   5.491  70.996  1.00  0.00     0.000 HD 
BRANCH  20  22
HETATM   22  C   UNL     1      -8.448   7.195  72.113  1.00  0.00    -0.110 C  
HETATM   23  C   UNL     1      -6.976   9.071  72.962  1.00  0.00     0.359 C  
HETATM   24  C   UNL     1      -6.664   9.418  71.490  1.00  0.00     0.097 C  
HETATM   25  C   UNL     1      -7.216   8.317  70.597  1.00  0.00    -0.049 C  
HETATM   26  C   UNL     1      -7.687   7.939  73.276  1.00  0.00    -0.186 C  
HETATM   27  C   UNL     1      -6.401  10.194  73.853  1.00  0.00     1.483 C  
HETATM   28  C   UNL     1      -8.678   8.157  70.994  1.00  0.00    -0.156 C  
HETATM   29  C   UNL     1      -5.143   9.463  71.232  1.00  0.00    -0.038 C  
HETATM   30  C   UNL     1      -6.623  11.708  73.343  1.00  0.00     6.022 C  
HETATM   31  C   UNL     1      -6.749  11.966  71.785  1.00  0.00     4.757 C  
HETATM   32  C   UNL     1      -7.480  13.321  71.304  1.00  0.00     5.552 C  
HETATM   33  C   UNL     1      -6.470  14.513  71.257  1.00  0.00     0.426 C  
HETATM   34  C   UNL     1      -6.201  14.818  69.767  1.00  0.00    -0.144 C  
HETATM   35  C   UNL     1      -6.652  13.537  69.069  1.00  0.00    -0.110 C  
HETATM   36  C   UNL     1      -7.429  10.737  71.189  1.00  0.00     2.972 C  
HETATM   37  C   UNL     1      -8.004  13.282  69.798  1.00  0.00     1.515 C  
HETATM   38  C   UNL     1      -7.757  10.831  69.703  1.00  0.00    -0.020 C  
HETATM   39  C   UNL     1      -8.667  11.975  69.441  1.00  0.00     1.015 C  
HETATM   40  C   UNL     1      -9.116  14.319  69.481  1.00  0.00     0.551 C  
BRANCH  35  41
HETATM   41  O   UNL     1      -6.603  13.537  67.635  1.00  0.00    -0.158 OA 
BRANCH  41  42
HETATM   42  C   UNL     1      -7.612  14.305  67.103  1.00  0.00     0.032 C  
HETATM   43  O   UNL     1      -7.441  15.098  66.182  1.00  0.00     0.963 OA 
BRANCH  42  44
HETATM   44  C   UNL     1      -8.996  14.190  67.705  1.00  0.00    -0.192 C  
BRANCH  44  45
HETATM   45  C   UNL     1     -10.257  14.527  66.923  1.00  0.00    -0.264 C  
BRANCH  45  46
HETATM   46  C   UNL     1      -9.987  14.934  65.479  1.00  0.00    -0.392 C  
BRANCH  46  47
HETATM   47  C   UNL     1      -9.915  13.755  64.500  1.00  0.00     0.138 C  
BRANCH  47  48
HETATM   48  C   UNL     1     -11.221  12.967  64.389  1.00  0.00    -0.389 C  
HETATM   49  C   UNL     1     -12.344  13.823  63.818  1.00  0.00    -0.313 C  
ENDBRANCH  47  48
ENDBRANCH  46  47
ENDBRANCH  45  46
ENDBRANCH  44  45
ENDBRANCH  42  44
ENDBRANCH  41  42
ENDBRANCH  35  41
ENDBRANCH  20  22
ENDBRANCH   1  20
TORSDOF 9
ENDMDL
MODEL      211
REMARK 921   NORMALIZED FREE ENERGY PREDICTED BY IDOCK:   68.11 KCAL/MOL
REMARK 922        TOTAL FREE ENERGY PREDICTED BY IDOCK:  100.64 KCAL/MOL
REMARK 923 INTER-LIGAND FREE ENERGY PREDICTED BY IDOCK:   46.08 KCAL/MOL
REMARK 924 INTRA-LIGAND FREE ENERGY PREDICTED BY IDOCK:   54.56 KCAL/MOL
REMARK 927      BINDING AFFINITY PREDICTED BY RF-SCORE:    0.00 PKD
ROOT
HETATM    1  N   UNL     1      -9.888   3.299  63.694  1.00  0.00    -0.137 N  
HETATM    2  C   UNL     1      -8.889   3.355  64.654  1.00  0.00    -0.116 C  
HETATM    3  C   UNL     1     -12.282   6.462  66.911  1.00  0.00     3.843 A  
HETATM    4  H   UNL     1     -10.330   2.386  63.593  1.00  0.00     0.000 HD 
HETATM    5  C   UNL     1      -6.235   5.579  65.739  1.00  0.00    -0.034 A  
HETATM    6  O   UNL     1      -8.242   2.289  64.825  1.00  0.00    -0.084 OA 
HETATM    7  C   UNL     1      -5.322   6.927  63.955  1.00  0.00    -0.028 A  
HETATM    8  C   UNL     1      -8.613   4.563  65.591  1.00  0.00    -0.121 C  
HETATM    9  O   UNL     1      -8.128   3.956  66.829  1.00  0.00    -0.095 OA 
HETATM   10  C   UNL     1      -7.466   5.438  65.054  1.00  0.00    -0.073 A  
HETATM   11  C   UNL     1      -9.917   6.612  66.405  1.00  0.00    -0.076 A  
HETATM   12  C   UNL     1      -9.890   5.255  66.050  1.00  0.00    -0.155 A  
HETATM   13  C   UNL     1      -7.601   6.111  63.834  1.00  0.00    -0.089 A  
HETATM   14  C   UNL     1     -11.072   4.506  66.223  1.00  0.00     1.050 A  
HETATM   15  C   UNL     1     -11.111   7.210  66.826  1.00  0.00     0.128 A  
HETATM   16  H   UNL     1      -7.959   4.694  67.402  1.00  0.00     0.000 HD 
HETATM   17  C   UNL     1      -5.176   6.311  65.190  1.00  0.00    -0.014 A  
HETATM   18  C   UNL     1     -12.264   5.103  66.617  1.00  0.00     5.801 A  
HETATM   19  C   UNL     1      -6.541   6.839  63.283  1.00  0.00    -0.042 A  
ENDROOT
BRANCH   1  20
HETATM   20  N   UNL     1     -10.397   4.304  62.829  1.00  0.00    -0.388 NA 
HETATM   21  H   UNL     1     -11.021   4.109  62.046  1.00  0.00     0.000 HD 
BRANCH  20  22
HETATM   22  C   UNL     1      -9.983   5.504  63.139  1.00  0.00     1.808 C  
HETATM   23  C   UNL     1     -10.298   8.011  63.285  1.00  0.00     8.406 C  
HETATM   24  C   UNL     1     -10.421   7.852  64.816  1.00  0.00     6.058 C  
HETATM   25  C   UNL     1     -10.513   6.370  65.151  1.00  0.00     3.033 C  
HETATM   26  C   UNL     1     -10.247   6.907  62.470  1.00  0.00     5.298 C  
HETATM   27  C   UNL     1     -10.215   9.519  62.964  1.00  0.00     2.462 C  
HETATM   28  C   UNL     1      -9.322   5.716  64.461  1.00  0.00     0.621 C  
HETATM   29  C   UNL     1     -11.718   8.497  65.348  1.00  0.00     9.803 C  
HETATM   30  C   UNL     1      -9.272  10.412  63.920  1.00  0.00    -0.301 C  
HETATM   31  C   UNL     1      -9.062   9.943  65.419  1.00  0.00    -0.241 C  
HETATM   32  C   UNL     1      -7.758  10.484  66.201  1.00  0.00    -0.142 C  
HETATM   33  C   UNL     1      -8.034  11.880  66.846  1.00  0.00    -0.132 C  
HETATM   34  C   UNL     1      -8.140  11.660  68.371  1.00  0.00    -0.153 C  
HETATM   35  C   UNL     1      -8.407  10.161  68.482  1.00  0.00    -0.116 C  
HETATM   36  C   UNL     1      -9.103   8.418  65.413  1.00  0.00    -0.050 C  
HETATM   37  C   UNL     1      -7.353   9.614  67.475  1.00  0.00    -0.090 C  
HETATM   38  C   UNL     1      -8.799   7.753  66.751  1.00  0.00    -0.154 C  
HETATM   39  C   UNL     1      -7.443   8.128  67.225  1.00  0.00    -0.090 C  
HETATM   40  C   UNL     1      -5.877   9.789  67.925  1.00  0.00    -0.040 C  
BRANCH  35  41
HETATM   41  O   UNL     1      -8.476   9.618  69.809  1.00  0.00    -0.153 OA 
BRANCH  41  42
HETATM   42  C   UNL     1      -9.723   9.101  70.069  1.00  0.00    -0.195 C  
HETATM   43  O   UNL     1      -9.924   8.202  70.880  1.00  0.00    -0.185 OA 
BRANCH  42  44
HETATM   44  C   UNL     1     -10.904   9.648  69.296  1.00  0.00    -0.227 C  
BRANCH  44  45
HETATM   45  C   UNL     1     -12.080  10.332  69.976  1.00  0.00    -0.230 C  
BRANCH  45  46
HETATM   46  C   UNL     1     -12.858  11.263  69.054  1.00  0.00     1.176 C  
BRANCH  46  47
HETATM   47  C   UNL     1     -12.723  12.749  69.407  1.00  0.00     0.718 C  
BRANCH  47  48
HETATM   48  C   UNL     1     -11.376  13.114  70.033  1.00  0.00     0.025 C  
HETATM   49  C   UNL     1     -11.328  14.582  70.439  1.00  0.00    -0.196 C  
ENDBRANCH  47  48
ENDBRANCH  46  47
ENDBRANCH  45  46
ENDBRANCH  44  45
ENDBRANCH  42  44
ENDBRANCH  41  42
ENDBRANCH  35  41
ENDBRANCH  20  22
ENDBRANCH   1  20
TORSDOF 9
ENDMDL
MODEL      212
REMARK 921   NORMALIZED FREE ENERGY PREDICTED BY IDOCK:   77.29 KCAL/MOL
REMARK 922        TOTAL FREE ENERGY PREDICTED BY IDOCK:  114.64 KCAL/MOL
REMARK 923 INTER-LIGAND FREE ENERGY PREDICTED BY IDOCK:   65.56 KCAL/MOL
REMARK 924 INTRA-LIGAND FREE ENERGY PREDICTED BY IDOCK:   49.08 KCAL/MOL
REMARK 927      BINDING AFFINITY PREDICTED BY RF-SCORE:    0.00 PKD
ROOT
HETATM    1  N   UNL     1      -9.535  17.750  71.760  1.00  0.00     8.513 N  
HETATM    2  C   UNL     1      -8.408  16.988  71.496  1.00  0.00     9.737 C  
HETATM    3  C   UNL     1      -8.591  19.618  67.101  1.00  0.00    -0.357 A  
HETATM    4  H   UNL     1      -9.425  18.426  72.516  1.00  0.00     0.000 HD 
HETATM    5  C   UNL     1      -7.459  14.037  69.610  1.00  0.00     0.318 A  
HETATM    6  O   UNL     1      -7.670  16.750  72.488  1.00  0.00    11.785 OA 
HETATM    7  C   UNL     1      -9.243  12.425  69.388  1.00  0.00     1.183 A  
HETATM    8  C   UNL     1      -7.941  16.537  70.084  1.00  0.00     1.674 C  
HETATM    9  O   UNL     1      -6.483  16.513  70.177  1.00  0.00    -0.064 OA 
HETATM   10  C   UNL     1      -8.384  15.094  69.783  1.00  0.00     0.041 A  
HETATM   11  C   UNL     1      -8.371  17.272  67.669  1.00  0.00    -0.209 A  
HETATM   12  C   UNL     1      -8.179  17.599  69.019  1.00  0.00    -0.051 A  
HETATM   13  C   UNL     1      -9.744  14.776  69.695  1.00  0.00     0.107 A  
HETATM   14  C   UNL     1      -8.112  18.966  69.362  1.00  0.00     0.167 A  
HETATM   15  C   UNL     1      -8.582  18.279  66.719  1.00  0.00    -0.271 A  
HETATM   16  H   UNL     1      -6.197  16.237  69.314  1.00  0.00     0.000 HD 
HETATM   17  C   UNL     1      -7.887  12.718  69.422  1.00  0.00     0.734 A  
HETATM   18  C   UNL     1      -8.346  19.966  68.425  1.00  0.00    -0.223 A  
HETATM   19  C   UNL     1     -10.173  13.457  69.511  1.00  0.00     0.621 A  
ENDROOT
BRANCH   1  20
HETATM   20  N   UNL     1     -10.818  17.745  71.151  1.00  0.00     1.171 NA 
HETATM   21  H   UNL     1     -11.478  18.520  71.222  1.00  0.00     0.000 HD 
BRANCH  20  22
HETATM   22  C   UNL     1     -11.068  16.645  70.491  1.00  0.00     0.049 C  
HETATM   23  C   UNL     1     -12.471  15.254  68.909  1.00  0.00     0.146 C  
HETATM   24  C   UNL     1     -11.350  15.419  67.859  1.00  0.00    -0.328 C  
HETATM   25  C   UNL     1     -10.346  16.444  68.366  1.00  0.00    -0.282 C  
HETATM   26  C   UNL     1     -12.425  15.949  70.092  1.00  0.00    -0.104 C  
HETATM   27  C   UNL     1     -13.483  14.219  68.373  1.00  0.00     4.708 C  
HETATM   28  C   UNL     1      -9.949  15.977  69.761  1.00  0.00    -0.172 C  
HETATM   29  C   UNL     1     -11.902  15.975  66.529  1.00  0.00     1.002 C  
HETATM   30  C   UNL     1     -12.870  12.902  67.672  1.00  0.00     1.984 C  
HETATM   31  C   UNL     1     -11.456  13.016  66.965  1.00  0.00    -0.381 C  
HETATM   32  C   UNL     1     -10.615  11.657  66.745  1.00  0.00    -0.280 C  
HETATM   33  C   UNL     1     -11.039  10.947  65.419  1.00  0.00     0.080 C  
HETATM   34  C   UNL     1      -9.883  11.139  64.414  1.00  0.00    -0.334 C  
HETATM   35  C   UNL     1      -9.107  12.312  65.006  1.00  0.00     0.592 C  
HETATM   36  C   UNL     1     -10.648  14.037  67.761  1.00  0.00    -0.244 C  
HETATM   37  C   UNL     1      -9.054  11.887  66.502  1.00  0.00    -0.211 C  
HETATM   38  C   UNL     1      -9.200  14.209  67.316  1.00  0.00    -0.222 C  
HETATM   39  C   UNL     1      -8.463  12.924  67.424  1.00  0.00    -0.196 C  
HETATM   40  C   UNL     1      -8.173  10.641  66.790  1.00  0.00    -0.130 C  
BRANCH  35  41
HETATM   41  O   UNL     1      -7.899  12.689  64.328  1.00  0.00     4.594 OA 
BRANCH  41  42
HETATM   42  C   UNL     1      -7.104  11.594  64.085  1.00  0.00     2.898 C  
HETATM   43  O   UNL     1      -5.945  11.502  64.479  1.00  0.00     0.949 OA 
BRANCH  42  44
HETATM   44  C   UNL     1      -7.676  10.458  63.264  1.00  0.00    -0.090 C  
BRANCH  44  45
HETATM   45  C   UNL     1      -6.918   9.160  63.026  1.00  0.00    -0.092 C  
BRANCH  45  46
HETATM   46  C   UNL     1      -7.807   8.016  62.554  1.00  0.00    -0.140 C  
BRANCH  46  47
HETATM   47  C   UNL     1      -8.638   7.369  63.668  1.00  0.00     0.485 C  
BRANCH  47  48
HETATM   48  C   UNL     1     -10.146   7.407  63.414  1.00  0.00     7.005 C  
HETATM   49  C   UNL     1     -10.911   7.854  64.653  1.00  0.00     9.396 C  
ENDBRANCH  47  48
ENDBRANCH  46  47
ENDBRANCH  45  46
ENDBRANCH  44  45
ENDBRANCH  42  44
ENDBRANCH  41  42
ENDBRANCH  35  41
ENDBRANCH  20  22
ENDBRANCH   1  20
TORSDOF 9
ENDMDL
